# generated using pymatgen
data_Ti3Pb3N5
_symmetry_space_group_name_H-M   'P 1'
_cell_length_a   6.06154378
_cell_length_b   7.70233083
_cell_length_c   8.94082515
_cell_angle_alpha   101.65051532
_cell_angle_beta   98.01664570
_cell_angle_gamma   101.63224897
_symmetry_Int_Tables_number   1
_chemical_formula_structural   Ti3Pb3N5
_chemical_formula_sum   'Ti6 Pb6 N10'
_cell_volume   393.30599537
_cell_formula_units_Z   2
loop_
 _symmetry_equiv_pos_site_id
 _symmetry_equiv_pos_as_xyz
  1  'x, y, z'
loop_
 _atom_site_type_symbol
 _atom_site_label
 _atom_site_symmetry_multiplicity
 _atom_site_fract_x
 _atom_site_fract_y
 _atom_site_fract_z
 _atom_site_occupancy
  Ti  Ti0  1  0.90718400  0.30858000  0.96019400  1
  Ti  Ti1  1  0.09281600  0.69142000  0.03980600  1
  Ti  Ti2  1  0.69905200  0.00020900  0.60259000  1
  Ti  Ti3  1  0.30094800  0.99979100  0.39741000  1
  Ti  Ti4  1  0.12741500  0.94951300  0.73309300  1
  Ti  Ti5  1  0.87258500  0.05048700  0.26690700  1
  Pb  Pb6  1  0.76801000  0.49395400  0.55958000  1
  Pb  Pb7  1  0.23199000  0.50604600  0.44042000  1
  Pb  Pb8  1  0.60758500  0.82968000  0.89990000  1
  Pb  Pb9  1  0.39241500  0.17032000  0.10010000  1
  Pb  Pb10  1  0.64732300  0.63348700  0.20589900  1
  Pb  Pb11  1  0.35267700  0.36651300  0.79410100  1
  N  N12  1  0.95047400  0.15798300  0.76599700  1
  N  N13  1  0.04952600  0.84201700  0.23400300  1
  N  N14  1  0.84511600  0.80828200  0.60195900  1
  N  N15  1  0.15488400  0.19171800  0.39804100  1
  N  N16  1  0.79475000  0.53054900  0.95823100  1
  N  N17  1  0.20525000  0.46945100  0.04176900  1
  N  N18  1  0.36606000  0.95330400  0.60516300  1
  N  N19  1  0.63394000  0.04669600  0.39483700  1
  N  N20  1  0.20385000  0.85583400  0.91013200  1
  N  N21  1  0.79615000  0.14416600  0.08986800  1
