# generated using pymatgen
data_EuZnGe
_symmetry_space_group_name_H-M   'P 1'
_cell_length_a   6.14875243
_cell_length_b   6.14875243
_cell_length_c   6.14875243
_cell_angle_alpha   138.48365520
_cell_angle_beta   104.12092042
_cell_angle_gamma   90.41621227
_symmetry_Int_Tables_number   1
_chemical_formula_structural   EuZnGe
_chemical_formula_sum   'Eu2 Zn2 Ge2'
_cell_volume   142.75826376
_cell_formula_units_Z   2
loop_
 _symmetry_equiv_pos_site_id
 _symmetry_equiv_pos_as_xyz
  1  'x, y, z'
loop_
 _atom_site_type_symbol
 _atom_site_label
 _atom_site_symmetry_multiplicity
 _atom_site_fract_x
 _atom_site_fract_y
 _atom_site_fract_z
 _atom_site_occupancy
  Eu  Eu0  1  0.75041900  0.75041900  0.00000000  1
  Eu  Eu1  1  0.24958100  0.24958100  0.00000000  1
  Zn  Zn2  1  0.33257800  0.00000000  0.33257800  1
  Zn  Zn3  1  0.66742200  0.00000000  0.66742200  1
  Ge  Ge4  1  0.83209500  0.50000000  0.33209500  1
  Ge  Ge5  1  0.16790500  0.50000000  0.66790500  1
