# generated using pymatgen
data_Cr3Si6N11
_symmetry_space_group_name_H-M   'P 1'
_cell_length_a   9.80434700
_cell_length_b   9.80434700
_cell_length_c   4.80773700
_cell_angle_alpha   90.00000000
_cell_angle_beta   90.00000000
_cell_angle_gamma   90.00000000
_symmetry_Int_Tables_number   1
_chemical_formula_structural   Cr3Si6N11
_chemical_formula_sum   'Cr6 Si12 N22'
_cell_volume   462.14477729
_cell_formula_units_Z   2
loop_
 _symmetry_equiv_pos_site_id
 _symmetry_equiv_pos_as_xyz
  1  'x, y, z'
loop_
 _atom_site_type_symbol
 _atom_site_label
 _atom_site_symmetry_multiplicity
 _atom_site_fract_x
 _atom_site_fract_y
 _atom_site_fract_z
 _atom_site_occupancy
  Cr  Cr0  1  0.28921400  0.78921400  0.93767900  1
  Cr  Cr1  1  0.71078600  0.21078600  0.93767900  1
  Cr  Cr2  1  0.21078600  0.28921400  0.93767900  1
  Cr  Cr3  1  0.78921400  0.71078600  0.93767900  1
  Cr  Cr4  1  0.50000000  0.50000000  0.91991100  1
  Cr  Cr5  1  0.00000000  0.00000000  0.91991100  1
  Si  Si6  1  0.41723000  0.29641400  0.52957100  1
  Si  Si7  1  0.58277000  0.70358600  0.52957100  1
  Si  Si8  1  0.08277000  0.79641400  0.52957100  1
  Si  Si9  1  0.91723000  0.20358600  0.52957100  1
  Si  Si10  1  0.29641400  0.58277000  0.52957100  1
  Si  Si11  1  0.70358600  0.41723000  0.52957100  1
  Si  Si12  1  0.79641400  0.91723000  0.52957100  1
  Si  Si13  1  0.20358600  0.08277000  0.52957100  1
  Si  Si14  1  0.88274900  0.38274900  0.05751600  1
  Si  Si15  1  0.11725100  0.61725100  0.05751600  1
  Si  Si16  1  0.61725100  0.88274900  0.05751600  1
  Si  Si17  1  0.38274900  0.11725100  0.05751600  1
  N  N18  1  0.32034200  0.42515200  0.67926100  1
  N  N19  1  0.67965800  0.57484700  0.67926100  1
  N  N20  1  0.17965800  0.92515300  0.67926100  1
  N  N21  1  0.82034200  0.07484700  0.67926100  1
  N  N22  1  0.42515200  0.67965800  0.67926100  1
  N  N23  1  0.57484700  0.32034200  0.67926100  1
  N  N24  1  0.92515300  0.82034200  0.67926100  1
  N  N25  1  0.07484700  0.17965800  0.67926100  1
  N  N26  1  0.40475100  0.28612900  0.17595200  1
  N  N27  1  0.59524900  0.71387100  0.17595200  1
  N  N28  1  0.09524900  0.78612900  0.17595200  1
  N  N29  1  0.90475100  0.21387100  0.17595200  1
  N  N30  1  0.28612900  0.59524900  0.17595200  1
  N  N31  1  0.71387100  0.40475100  0.17595200  1
  N  N32  1  0.78612900  0.90475100  0.17595200  1
  N  N33  1  0.21387100  0.09524900  0.17595200  1
  N  N34  1  0.84170000  0.34170000  0.70606600  1
  N  N35  1  0.15830000  0.65830000  0.70606600  1
  N  N36  1  0.65830000  0.84170000  0.70606600  1
  N  N37  1  0.34170000  0.15830000  0.70606600  1
  N  N38  1  0.50000000  0.00000000  0.10696800  1
  N  N39  1  0.00000000  0.50000000  0.10696800  1
