# generated using pymatgen
data_Sr5ZnN4
_symmetry_space_group_name_H-M   'P 1'
_cell_length_a   11.10469213
_cell_length_b   15.16391000
_cell_length_c   11.43524836
_cell_angle_alpha   90.00000000
_cell_angle_beta   101.96005050
_cell_angle_gamma   90.00000000
_symmetry_Int_Tables_number   1
_chemical_formula_structural   Sr5ZnN4
_chemical_formula_sum   'Sr40 Zn8 N32'
_cell_volume   1883.78775894
_cell_formula_units_Z   8
loop_
 _symmetry_equiv_pos_site_id
 _symmetry_equiv_pos_as_xyz
  1  'x, y, z'
loop_
 _atom_site_type_symbol
 _atom_site_label
 _atom_site_symmetry_multiplicity
 _atom_site_fract_x
 _atom_site_fract_y
 _atom_site_fract_z
 _atom_site_occupancy
  Sr  Sr0  1  0.51112800  0.75000000  0.76865500  1
  Sr  Sr1  1  0.48887200  0.25000000  0.23134500  1
  Sr  Sr2  1  0.55627800  0.75000000  0.28717000  1
  Sr  Sr3  1  0.44372200  0.25000000  0.71283000  1
  Sr  Sr4  1  0.16996800  0.62858200  0.77062600  1
  Sr  Sr5  1  0.83003200  0.12858200  0.22937400  1
  Sr  Sr6  1  0.83003200  0.37141800  0.22937400  1
  Sr  Sr7  1  0.16996800  0.87141800  0.77062600  1
  Sr  Sr8  1  0.71978100  0.36844000  0.60458000  1
  Sr  Sr9  1  0.28021900  0.86844000  0.39542000  1
  Sr  Sr10  1  0.28021900  0.63156000  0.39542000  1
  Sr  Sr11  1  0.71978100  0.13156000  0.60458000  1
  Sr  Sr12  1  0.94491400  0.25000000  0.84661800  1
  Sr  Sr13  1  0.05508600  0.75000000  0.15338200  1
  Sr  Sr14  1  0.22507500  0.49430600  0.05397400  1
  Sr  Sr15  1  0.77492500  0.99430600  0.94602600  1
  Sr  Sr16  1  0.77492500  0.50569400  0.94602600  1
  Sr  Sr17  1  0.22507500  0.00569400  0.05397400  1
  Sr  Sr18  1  0.00000000  0.50000000  0.50000000  1
  Sr  Sr19  1  0.00000000  0.00000000  0.50000000  1
  Sr  Sr20  1  0.49817300  0.38338000  0.98306300  1
  Sr  Sr21  1  0.50182700  0.88338000  0.01693700  1
  Sr  Sr22  1  0.50182700  0.61662000  0.01693700  1
  Sr  Sr23  1  0.49817300  0.11662000  0.98306300  1
  Sr  Sr24  1  0.22495800  0.38575900  0.76901000  1
  Sr  Sr25  1  0.77504200  0.88575900  0.23099000  1
  Sr  Sr26  1  0.77504200  0.61424100  0.23099000  1
  Sr  Sr27  1  0.22495800  0.11424100  0.76901000  1
  Sr  Sr28  1  0.79154800  0.63185200  0.65588100  1
  Sr  Sr29  1  0.20845200  0.13185200  0.34411900  1
  Sr  Sr30  1  0.20845200  0.36814800  0.34411900  1
  Sr  Sr31  1  0.79154800  0.86814800  0.65588100  1
  Sr  Sr32  1  0.78480400  0.75000000  0.96099100  1
  Sr  Sr33  1  0.21519600  0.25000000  0.03900900  1
  Sr  Sr34  1  0.51131900  0.48621000  0.27926400  1
  Sr  Sr35  1  0.48868100  0.98621000  0.72073600  1
  Sr  Sr36  1  0.48868100  0.51379000  0.72073600  1
  Sr  Sr37  1  0.51131900  0.01379000  0.27926400  1
  Sr  Sr38  1  0.03153700  0.25000000  0.51503400  1
  Sr  Sr39  1  0.96846300  0.75000000  0.48496600  1
  Zn  Zn40  1  0.97647500  0.45871300  0.78680500  1
  Zn  Zn41  1  0.02352500  0.95871300  0.21319500  1
  Zn  Zn42  1  0.02352500  0.54128700  0.21319500  1
  Zn  Zn43  1  0.97647500  0.04128700  0.78680500  1
  Zn  Zn44  1  0.55985700  0.75000000  0.52910400  1
  Zn  Zn45  1  0.44014300  0.25000000  0.47089600  1
  Zn  Zn46  1  0.67415400  0.25000000  0.85746200  1
  Zn  Zn47  1  0.32584600  0.75000000  0.14253800  1
  N  N48  1  0.86611900  0.25000000  0.63317100  1
  N  N49  1  0.13388100  0.75000000  0.36682900  1
  N  N50  1  0.01181600  0.75000000  0.70060300  1
  N  N51  1  0.98818400  0.25000000  0.29939700  1
  N  N52  1  0.34852200  0.37440600  0.18616100  1
  N  N53  1  0.65147800  0.87440600  0.81383900  1
  N  N54  1  0.65147800  0.62559400  0.81383900  1
  N  N55  1  0.34852200  0.12559400  0.18616100  1
  N  N56  1  0.35486800  0.50883000  0.87764200  1
  N  N57  1  0.64513200  0.00883000  0.12235800  1
  N  N58  1  0.64513200  0.49117000  0.12235800  1
  N  N59  1  0.35486800  0.99117000  0.87764200  1
  N  N60  1  0.76533900  0.51793400  0.47784600  1
  N  N61  1  0.23466100  0.01793400  0.52215400  1
  N  N62  1  0.23466100  0.48206600  0.52215400  1
  N  N63  1  0.76533900  0.98206600  0.47784600  1
  N  N64  1  0.62277900  0.36857800  0.80255100  1
  N  N65  1  0.37722100  0.86857800  0.19744900  1
  N  N66  1  0.37722100  0.63142200  0.19744900  1
  N  N67  1  0.62277900  0.13142200  0.80255100  1
  N  N68  1  0.92548200  0.61154300  0.09499400  1
  N  N69  1  0.07451800  0.11154300  0.90500600  1
  N  N70  1  0.07451800  0.38845700  0.90500600  1
  N  N71  1  0.92548200  0.88845700  0.09499400  1
  N  N72  1  0.65934100  0.75000000  0.12190800  1
  N  N73  1  0.34065900  0.25000000  0.87809200  1
  N  N74  1  0.77182400  0.46179700  0.39839500  1
  N  N75  1  0.22817600  0.96179700  0.60160500  1
  N  N76  1  0.22817600  0.53820300  0.60160500  1
  N  N77  1  0.77182400  0.03820300  0.39839500  1
  N  N78  1  0.71871100  0.75000000  0.48822200  1
  N  N79  1  0.28128900  0.25000000  0.51177800  1
