# generated using pymatgen
data_Ca3YN3
_symmetry_space_group_name_H-M   'P 1'
_cell_length_a   7.84864571
_cell_length_b   7.36086091
_cell_length_c   4.76189500
_cell_angle_alpha   90.00000000
_cell_angle_beta   90.00000000
_cell_angle_gamma   115.33800356
_symmetry_Int_Tables_number   1
_chemical_formula_structural   Ca3YN3
_chemical_formula_sum   'Ca6 Y2 N6'
_cell_volume   248.64226614
_cell_formula_units_Z   2
loop_
 _symmetry_equiv_pos_site_id
 _symmetry_equiv_pos_as_xyz
  1  'x, y, z'
loop_
 _atom_site_type_symbol
 _atom_site_label
 _atom_site_symmetry_multiplicity
 _atom_site_fract_x
 _atom_site_fract_y
 _atom_site_fract_z
 _atom_site_occupancy
  Ca  Ca0  1  0.97667900  0.64338600  0.25000000  1
  Ca  Ca1  1  0.68266900  0.07278500  0.25000000  1
  Ca  Ca2  1  0.20462100  0.13942500  0.25000000  1
  Ca  Ca3  1  0.02332100  0.35661400  0.75000000  1
  Ca  Ca4  1  0.31733100  0.92721500  0.75000000  1
  Ca  Ca5  1  0.79537900  0.86057500  0.75000000  1
  Y  Y6  1  0.63575400  0.41611700  0.75000000  1
  Y  Y7  1  0.36424600  0.58388300  0.25000000  1
  N  N8  1  0.96273400  0.66854400  0.75000000  1
  N  N9  1  0.67499300  0.13900600  0.75000000  1
  N  N10  1  0.31687600  0.29544900  0.75000000  1
  N  N11  1  0.03726600  0.33145600  0.25000000  1
  N  N12  1  0.32500700  0.86099400  0.25000000  1
  N  N13  1  0.68312400  0.70455100  0.25000000  1
