# generated using pymatgen
data_Li3W2N5
_symmetry_space_group_name_H-M   'P 1'
_cell_length_a   9.16157040
_cell_length_b   11.51280586
_cell_length_c   8.40530244
_cell_angle_alpha   90.00016542
_cell_angle_beta   62.69516639
_cell_angle_gamma   128.92651686
_symmetry_Int_Tables_number   1
_chemical_formula_structural   Li3W2N5
_chemical_formula_sum   'Li12 W8 N20'
_cell_volume   557.03686035
_cell_formula_units_Z   4
loop_
 _symmetry_equiv_pos_site_id
 _symmetry_equiv_pos_as_xyz
  1  'x, y, z'
loop_
 _atom_site_type_symbol
 _atom_site_label
 _atom_site_symmetry_multiplicity
 _atom_site_fract_x
 _atom_site_fract_y
 _atom_site_fract_z
 _atom_site_occupancy
  Li  Li0  1  0.50276800  0.65939000  0.98144100  1
  Li  Li1  1  0.49723200  0.34061100  0.48420900  1
  Li  Li2  1  0.81601300  0.65662100  0.07481800  1
  Li  Li3  1  0.18398900  0.34338000  0.89082800  1
  Li  Li4  1  0.67384500  0.26829200  0.61593300  1
  Li  Li5  1  0.32615400  0.73170700  0.28978000  1
  Li  Li6  1  0.86274100  0.09444800  0.27148300  1
  Li  Li7  1  0.13725900  0.90555200  0.13422400  1
  Li  Li8  1  0.99999900  0.99999900  0.61476300  1
  Li  Li9  1  0.99999900  0.50000000  0.86476700  1
  Li  Li10  1  0.99999900  0.49999900  0.21490100  1
  Li  Li11  1  0.99999900  0.99999900  0.96490300  1
  W  W12  1  0.15895200  0.39198200  0.46249700  1
  W  W13  1  0.84105300  0.60801800  0.62144600  1
  W  W14  1  0.62502700  0.73304100  0.47945500  1
  W  W15  1  0.37497600  0.26696500  0.10448300  1
  W  W16  1  0.42417400  0.81249000  0.81710500  1
  W  W17  1  0.57581900  0.18750600  0.24127300  1
  W  W18  1  0.20081100  0.88831700  0.67877900  1
  W  W19  1  0.79919000  0.11168000  0.87959100  1
  N  N20  1  0.20294400  0.51360800  0.28117300  1
  N  N21  1  0.79705800  0.48639300  0.48411700  1
  N  N22  1  0.82427700  0.81066600  0.22050200  1
  N  N23  1  0.17572600  0.18933700  0.04478000  1
  N  N24  1  0.93554000  0.83542300  0.81339800  1
  N  N25  1  0.06445900  0.16457700  0.74893700  1
  N  N26  1  0.73530500  0.39988200  0.16351500  1
  N  N27  1  0.26469300  0.60011600  0.89882100  1
  N  N28  1  0.26385100  0.29851500  0.33483800  1
  N  N29  1  0.73615100  0.70148600  0.59868600  1
  N  N30  1  0.33318200  0.53466500  0.55017300  1
  N  N31  1  0.66682100  0.46533500  0.88335100  1
  N  N32  1  0.20370000  0.82536900  0.88990600  1
  N  N33  1  0.79630000  0.17463200  0.09360600  1
  N  N34  1  0.44703700  0.12167000  0.51823600  1
  N  N35  1  0.55296200  0.87832900  0.96527700  1
  N  N36  1  0.63972500  0.90483900  0.53759000  1
  N  N37  1  0.36026900  0.09515900  0.17731300  1
  N  N38  1  0.16995200  0.76511300  0.52247400  1
  N  N39  1  0.83004900  0.23488800  0.69242500  1
