# generated using pymatgen
data_Ca5(AuN2)2
_symmetry_space_group_name_H-M   'P 1'
_cell_length_a   8.01690600
_cell_length_b   8.01690600
_cell_length_c   13.19017000
_cell_angle_alpha   90.00000000
_cell_angle_beta   90.00000000
_cell_angle_gamma   90.00000000
_symmetry_Int_Tables_number   1
_chemical_formula_structural   Ca5(AuN2)2
_chemical_formula_sum   'Ca20 Au8 N16'
_cell_volume   847.74253814
_cell_formula_units_Z   4
loop_
 _symmetry_equiv_pos_site_id
 _symmetry_equiv_pos_as_xyz
  1  'x, y, z'
loop_
 _atom_site_type_symbol
 _atom_site_label
 _atom_site_symmetry_multiplicity
 _atom_site_fract_x
 _atom_site_fract_y
 _atom_site_fract_z
 _atom_site_occupancy
  Ca  Ca0  1  0.75000000  0.75000000  0.36851000  1
  Ca  Ca1  1  0.75000000  0.75000000  0.86851000  1
  Ca  Ca2  1  0.25000000  0.25000000  0.63149000  1
  Ca  Ca3  1  0.25000000  0.25000000  0.13149000  1
  Ca  Ca4  1  0.13284100  0.57736600  0.41482300  1
  Ca  Ca5  1  0.36715900  0.57736600  0.91482300  1
  Ca  Ca6  1  0.13284100  0.92263400  0.91482300  1
  Ca  Ca7  1  0.36715900  0.92263400  0.41482300  1
  Ca  Ca8  1  0.57736600  0.13284100  0.91482300  1
  Ca  Ca9  1  0.92263400  0.13284100  0.41482300  1
  Ca  Ca10  1  0.57736600  0.36715900  0.41482300  1
  Ca  Ca11  1  0.92263400  0.36715900  0.91482300  1
  Ca  Ca12  1  0.86715900  0.42263400  0.58517700  1
  Ca  Ca13  1  0.63284100  0.42263400  0.08517700  1
  Ca  Ca14  1  0.86715900  0.07736600  0.08517700  1
  Ca  Ca15  1  0.63284100  0.07736600  0.58517700  1
  Ca  Ca16  1  0.42263400  0.86715900  0.08517700  1
  Ca  Ca17  1  0.07736600  0.86715900  0.58517700  1
  Ca  Ca18  1  0.42263400  0.63284100  0.58517700  1
  Ca  Ca19  1  0.07736600  0.63284100  0.08517700  1
  Au  Au20  1  0.09213500  0.90786500  0.25000000  1
  Au  Au21  1  0.40786500  0.90786500  0.75000000  1
  Au  Au22  1  0.09213500  0.59213500  0.75000000  1
  Au  Au23  1  0.40786500  0.59213500  0.25000000  1
  Au  Au24  1  0.90786500  0.09213500  0.75000000  1
  Au  Au25  1  0.59213500  0.09213500  0.25000000  1
  Au  Au26  1  0.90786500  0.40786500  0.25000000  1
  Au  Au27  1  0.59213500  0.40786500  0.75000000  1
  N  N28  1  0.63840400  0.04999800  0.40498800  1
  N  N29  1  0.86159600  0.04999800  0.90498800  1
  N  N30  1  0.63840400  0.45000200  0.90498800  1
  N  N31  1  0.86159600  0.45000200  0.40498800  1
  N  N32  1  0.04999800  0.63840400  0.90498800  1
  N  N33  1  0.45000200  0.63840400  0.40498800  1
  N  N34  1  0.04999800  0.86159600  0.40498800  1
  N  N35  1  0.45000200  0.86159600  0.90498800  1
  N  N36  1  0.36159600  0.95000200  0.59501200  1
  N  N37  1  0.13840400  0.95000200  0.09501200  1
  N  N38  1  0.36159600  0.54999800  0.09501200  1
  N  N39  1  0.13840400  0.54999800  0.59501200  1
  N  N40  1  0.95000200  0.36159600  0.09501200  1
  N  N41  1  0.54999800  0.36159600  0.59501200  1
  N  N42  1  0.95000200  0.13840400  0.59501200  1
  N  N43  1  0.54999800  0.13840400  0.09501200  1
