# generated using pymatgen
data_Ge6Bi3N11
_symmetry_space_group_name_H-M   'P 1'
_cell_length_a   10.65655700
_cell_length_b   10.65655700
_cell_length_c   5.20443900
_cell_angle_alpha   90.00000000
_cell_angle_beta   90.00000000
_cell_angle_gamma   90.00000000
_symmetry_Int_Tables_number   1
_chemical_formula_structural   Ge6Bi3N11
_chemical_formula_sum   'Ge12 Bi6 N22'
_cell_volume   591.02757953
_cell_formula_units_Z   2
loop_
 _symmetry_equiv_pos_site_id
 _symmetry_equiv_pos_as_xyz
  1  'x, y, z'
loop_
 _atom_site_type_symbol
 _atom_site_label
 _atom_site_symmetry_multiplicity
 _atom_site_fract_x
 _atom_site_fract_y
 _atom_site_fract_z
 _atom_site_occupancy
  Ge  Ge0  1  0.41776800  0.29390500  0.53122300  1
  Ge  Ge1  1  0.58223200  0.70609500  0.53122300  1
  Ge  Ge2  1  0.08223200  0.79390500  0.53122300  1
  Ge  Ge3  1  0.91776800  0.20609500  0.53122300  1
  Ge  Ge4  1  0.29390500  0.58223200  0.53122300  1
  Ge  Ge5  1  0.70609500  0.41776800  0.53122300  1
  Ge  Ge6  1  0.79390500  0.91776800  0.53122300  1
  Ge  Ge7  1  0.20609500  0.08223200  0.53122300  1
  Ge  Ge8  1  0.88309600  0.38309600  0.05559800  1
  Ge  Ge9  1  0.11690400  0.61690400  0.05559800  1
  Ge  Ge10  1  0.61690400  0.88309600  0.05559800  1
  Ge  Ge11  1  0.38309600  0.11690400  0.05559800  1
  Bi  Bi12  1  0.31186900  0.81186900  0.95461400  1
  Bi  Bi13  1  0.68813100  0.18813100  0.95461400  1
  Bi  Bi14  1  0.18813100  0.31186900  0.95461400  1
  Bi  Bi15  1  0.81186900  0.68813100  0.95461400  1
  Bi  Bi16  1  0.50000000  0.50000000  0.97024000  1
  Bi  Bi17  1  0.00000000  0.00000000  0.97024000  1
  N  N18  1  0.32289900  0.42590700  0.67572200  1
  N  N19  1  0.67710100  0.57409300  0.67572200  1
  N  N20  1  0.17710100  0.92590700  0.67572200  1
  N  N21  1  0.82289900  0.07409300  0.67572200  1
  N  N22  1  0.42590700  0.67710100  0.67572200  1
  N  N23  1  0.57409300  0.32289900  0.67572200  1
  N  N24  1  0.92590700  0.82289900  0.67572200  1
  N  N25  1  0.07409300  0.17710100  0.67572200  1
  N  N26  1  0.42185800  0.27599300  0.18231500  1
  N  N27  1  0.57814200  0.72400700  0.18231500  1
  N  N28  1  0.07814200  0.77599300  0.18231500  1
  N  N29  1  0.92185800  0.22400700  0.18231500  1
  N  N30  1  0.27599300  0.57814200  0.18231500  1
  N  N31  1  0.72400700  0.42185800  0.18231500  1
  N  N32  1  0.77599300  0.92185800  0.18231500  1
  N  N33  1  0.22400700  0.07814200  0.18231500  1
  N  N34  1  0.83189800  0.33189800  0.71745700  1
  N  N35  1  0.16810200  0.66810200  0.71745700  1
  N  N36  1  0.66810200  0.83189800  0.71745700  1
  N  N37  1  0.33189800  0.16810200  0.71745700  1
  N  N38  1  0.50000000  0.00000000  0.98591900  1
  N  N39  1  0.00000000  0.50000000  0.98591900  1
