# generated using pymatgen
data_GePb7N6
_symmetry_space_group_name_H-M   'P 1'
_cell_length_a   12.76112400
_cell_length_b   7.32386400
_cell_length_c   12.78775900
_cell_angle_alpha   90.00000000
_cell_angle_beta   90.00000000
_cell_angle_gamma   90.00000000
_symmetry_Int_Tables_number   1
_chemical_formula_structural   GePb7N6
_chemical_formula_sum   'Ge4 Pb28 N24'
_cell_volume   1195.15337641
_cell_formula_units_Z   4
loop_
 _symmetry_equiv_pos_site_id
 _symmetry_equiv_pos_as_xyz
  1  'x, y, z'
loop_
 _atom_site_type_symbol
 _atom_site_label
 _atom_site_symmetry_multiplicity
 _atom_site_fract_x
 _atom_site_fract_y
 _atom_site_fract_z
 _atom_site_occupancy
  Ge  Ge0  1  0.00000000  0.84623600  0.75000000  1
  Ge  Ge1  1  0.50000000  0.65376400  0.25000000  1
  Ge  Ge2  1  0.00000000  0.15376400  0.25000000  1
  Ge  Ge3  1  0.50000000  0.34623600  0.75000000  1
  Pb  Pb4  1  0.00476200  0.76312800  0.02160800  1
  Pb  Pb5  1  0.49523800  0.73687200  0.52160800  1
  Pb  Pb6  1  0.50476200  0.73687200  0.97839200  1
  Pb  Pb7  1  0.99523800  0.76312800  0.47839200  1
  Pb  Pb8  1  0.99523800  0.23687200  0.97839200  1
  Pb  Pb9  1  0.50476200  0.26312800  0.47839200  1
  Pb  Pb10  1  0.49523800  0.26312800  0.02160800  1
  Pb  Pb11  1  0.00476200  0.23687200  0.52160800  1
  Pb  Pb12  1  0.21551500  0.81863200  0.62823000  1
  Pb  Pb13  1  0.28448500  0.68136800  0.12823000  1
  Pb  Pb14  1  0.71551500  0.68136800  0.37177000  1
  Pb  Pb15  1  0.78448500  0.81863200  0.87177000  1
  Pb  Pb16  1  0.78448500  0.18136800  0.37177000  1
  Pb  Pb17  1  0.71551500  0.31863200  0.87177000  1
  Pb  Pb18  1  0.28448500  0.31863200  0.62823000  1
  Pb  Pb19  1  0.21551500  0.18136800  0.12823000  1
  Pb  Pb20  1  0.25773000  0.53910800  0.86401100  1
  Pb  Pb21  1  0.24226900  0.96089200  0.36401100  1
  Pb  Pb22  1  0.75773000  0.96089200  0.13598900  1
  Pb  Pb23  1  0.74227000  0.53910800  0.63598900  1
  Pb  Pb24  1  0.74227000  0.46089200  0.13598900  1
  Pb  Pb25  1  0.75773000  0.03910800  0.63598900  1
  Pb  Pb26  1  0.24226900  0.03910800  0.86401100  1
  Pb  Pb27  1  0.25773000  0.46089200  0.36401100  1
  Pb  Pb28  1  0.00000000  0.43215300  0.75000000  1
  Pb  Pb29  1  0.50000000  0.06784700  0.25000000  1
  Pb  Pb30  1  0.00000000  0.56784700  0.25000000  1
  Pb  Pb31  1  0.50000000  0.93215300  0.75000000  1
  N  N32  1  0.11259800  0.67209200  0.76382700  1
  N  N33  1  0.38740200  0.82790800  0.26382700  1
  N  N34  1  0.61259800  0.82790800  0.23617300  1
  N  N35  1  0.88740200  0.67209200  0.73617300  1
  N  N36  1  0.88740200  0.32790800  0.23617300  1
  N  N37  1  0.61259800  0.17209200  0.73617300  1
  N  N38  1  0.38740200  0.17209200  0.76382700  1
  N  N39  1  0.11259800  0.32790800  0.26382700  1
  N  N40  1  0.17636400  0.70759800  0.46427100  1
  N  N41  1  0.32363600  0.79240200  0.96427100  1
  N  N42  1  0.67636400  0.79240200  0.53572900  1
  N  N43  1  0.82363600  0.70759800  0.03572900  1
  N  N44  1  0.82363600  0.29240200  0.53572900  1
  N  N45  1  0.67636400  0.20759800  0.03572900  1
  N  N46  1  0.32363600  0.20759800  0.46427100  1
  N  N47  1  0.17636400  0.29240200  0.96427100  1
  N  N48  1  0.46308600  0.45845300  0.62200000  1
  N  N49  1  0.03691400  0.04154700  0.12200000  1
  N  N50  1  0.96308600  0.04154700  0.37800000  1
  N  N51  1  0.53691400  0.45845300  0.87800000  1
  N  N52  1  0.53691400  0.54154700  0.37800000  1
  N  N53  1  0.96308600  0.95845300  0.87800000  1
  N  N54  1  0.03691400  0.95845300  0.62200000  1
  N  N55  1  0.46308600  0.54154700  0.12200000  1
