# generated using pymatgen
data_Mn2NbN3
_symmetry_space_group_name_H-M   'P 1'
_cell_length_a   5.68628065
_cell_length_b   5.77352712
_cell_length_c   4.52361900
_cell_angle_alpha   90.00000000
_cell_angle_beta   90.00000000
_cell_angle_gamma   120.50885420
_symmetry_Int_Tables_number   1
_chemical_formula_structural   Mn2NbN3
_chemical_formula_sum   'Mn4 Nb2 N6'
_cell_volume   127.94884462
_cell_formula_units_Z   2
loop_
 _symmetry_equiv_pos_site_id
 _symmetry_equiv_pos_as_xyz
  1  'x, y, z'
loop_
 _atom_site_type_symbol
 _atom_site_label
 _atom_site_symmetry_multiplicity
 _atom_site_fract_x
 _atom_site_fract_y
 _atom_site_fract_z
 _atom_site_occupancy
  Mn  Mn0  1  0.35756700  0.38028700  0.48609800  1
  Mn  Mn1  1  0.64243300  0.02272000  0.48609800  1
  Mn  Mn2  1  0.64243300  0.61971300  0.98609800  1
  Mn  Mn3  1  0.35756700  0.97728000  0.98609800  1
  Nb  Nb4  1  0.00000000  0.67880900  0.42106500  1
  Nb  Nb5  1  0.00000000  0.32119100  0.92106500  1
  N  N6  1  0.34407700  0.29101500  0.88927100  1
  N  N7  1  0.65592300  0.94693900  0.88927100  1
  N  N8  1  0.65592300  0.70898500  0.38927100  1
  N  N9  1  0.34407700  0.05306100  0.38927100  1
  N  N10  1  0.00000000  0.68267900  0.91619900  1
  N  N11  1  0.00000000  0.31732100  0.41619900  1
