# generated using pymatgen
data_Si7SnN10
_symmetry_space_group_name_H-M   'P 1'
_cell_length_a   6.85196930
_cell_length_b   6.82991000
_cell_length_c   9.75062913
_cell_angle_alpha   90.00000000
_cell_angle_beta   106.10030583
_cell_angle_gamma   90.00000000
_symmetry_Int_Tables_number   1
_chemical_formula_structural   Si7SnN10
_chemical_formula_sum   'Si14 Sn2 N20'
_cell_volume   438.41553012
_cell_formula_units_Z   2
loop_
 _symmetry_equiv_pos_site_id
 _symmetry_equiv_pos_as_xyz
  1  'x, y, z'
loop_
 _atom_site_type_symbol
 _atom_site_label
 _atom_site_symmetry_multiplicity
 _atom_site_fract_x
 _atom_site_fract_y
 _atom_site_fract_z
 _atom_site_occupancy
  Si  Si0  1  0.53719100  0.97561700  0.82535600  1
  Si  Si1  1  0.53719100  0.02438300  0.32535600  1
  Si  Si2  1  0.35518500  0.02494100  0.01789400  1
  Si  Si3  1  0.35518500  0.97505900  0.51789400  1
  Si  Si4  1  0.11023200  0.40213400  0.07514600  1
  Si  Si5  1  0.11023200  0.59786600  0.57514600  1
  Si  Si6  1  0.66268800  0.36405700  0.99210100  1
  Si  Si7  1  0.66268800  0.63594300  0.49210100  1
  Si  Si8  1  0.84545100  0.62136400  0.80996200  1
  Si  Si9  1  0.84545100  0.37863600  0.30996200  1
  Si  Si10  1  0.29674700  0.61746800  0.88390800  1
  Si  Si11  1  0.29674700  0.38253200  0.38390800  1
  Si  Si12  1  0.48485100  0.36891100  0.68809100  1
  Si  Si13  1  0.48485100  0.63108900  0.18809100  1
  Sn  Sn14  1  0.98543400  0.00185900  0.66638100  1
  Sn  Sn15  1  0.98543400  0.99814100  0.16638100  1
  N  N16  1  0.73729000  0.83824400  0.82319700  1
  N  N17  1  0.73729000  0.16175600  0.32319700  1
  N  N18  1  0.55885100  0.13457000  0.97112000  1
  N  N19  1  0.55885100  0.86543000  0.47112000  1
  N  N20  1  0.31313300  0.87028800  0.86457100  1
  N  N21  1  0.31313300  0.12971200  0.36457100  1
  N  N22  1  0.16051300  0.16633100  0.03510300  1
  N  N23  1  0.16051300  0.83366900  0.53510300  1
  N  N24  1  0.28855000  0.50215900  0.72511000  1
  N  N25  1  0.28855000  0.49784100  0.22511000  1
  N  N26  1  0.44067000  0.11845100  0.67121100  1
  N  N27  1  0.44067000  0.88154900  0.17121100  1
  N  N28  1  0.88738500  0.37205800  0.13328400  1
  N  N29  1  0.88738500  0.62794200  0.63328400  1
  N  N30  1  0.07790600  0.57299400  0.93611100  1
  N  N31  1  0.07790600  0.42700600  0.43611100  1
  N  N32  1  0.70179300  0.41542900  0.82602700  1
  N  N33  1  0.70179300  0.58457100  0.32602700  1
  N  N34  1  0.49842900  0.53890500  0.02472900  1
  N  N35  1  0.49842900  0.46109500  0.52472900  1
