# generated using pymatgen
data_AlBiN2
_symmetry_space_group_name_H-M   'P 1'
_cell_length_a   5.70953300
_cell_length_b   10.55840000
_cell_length_c   15.52370600
_cell_angle_alpha   90.00000000
_cell_angle_beta   90.00000000
_cell_angle_gamma   90.00000000
_symmetry_Int_Tables_number   1
_chemical_formula_structural   AlBiN2
_chemical_formula_sum   'Al16 Bi16 N32'
_cell_volume   935.82384646
_cell_formula_units_Z   16
loop_
 _symmetry_equiv_pos_site_id
 _symmetry_equiv_pos_as_xyz
  1  'x, y, z'
loop_
 _atom_site_type_symbol
 _atom_site_label
 _atom_site_symmetry_multiplicity
 _atom_site_fract_x
 _atom_site_fract_y
 _atom_site_fract_z
 _atom_site_occupancy
  Al  Al0  1  0.76563100  0.00742500  0.18619000  1
  Al  Al1  1  0.26563100  0.49257500  0.81381000  1
  Al  Al2  1  0.23436900  0.50742500  0.31381000  1
  Al  Al3  1  0.73436900  0.99257500  0.68619000  1
  Al  Al4  1  0.23436900  0.99257500  0.81381000  1
  Al  Al5  1  0.73436900  0.50742500  0.18619000  1
  Al  Al6  1  0.76563100  0.49257500  0.68619000  1
  Al  Al7  1  0.26563100  0.00742500  0.31381000  1
  Al  Al8  1  0.78645100  0.27109700  0.06304500  1
  Al  Al9  1  0.28645100  0.22890300  0.93695500  1
  Al  Al10  1  0.21354900  0.77109700  0.43695500  1
  Al  Al11  1  0.71354900  0.72890300  0.56304500  1
  Al  Al12  1  0.21354900  0.72890300  0.93695500  1
  Al  Al13  1  0.71354900  0.77109700  0.06304500  1
  Al  Al14  1  0.78645100  0.22890300  0.56304500  1
  Al  Al15  1  0.28645100  0.27109700  0.43695500  1
  Bi  Bi16  1  0.75184100  0.99539000  0.44137100  1
  Bi  Bi17  1  0.25184100  0.50461000  0.55862900  1
  Bi  Bi18  1  0.24815900  0.49539000  0.05862900  1
  Bi  Bi19  1  0.74815900  0.00461000  0.94137100  1
  Bi  Bi20  1  0.24815900  0.00461000  0.55862900  1
  Bi  Bi21  1  0.74815900  0.49539000  0.44137100  1
  Bi  Bi22  1  0.75184100  0.50461000  0.94137100  1
  Bi  Bi23  1  0.25184100  0.99539000  0.05862900  1
  Bi  Bi24  1  0.85085400  0.27024700  0.30156900  1
  Bi  Bi25  1  0.35085400  0.22975300  0.69843100  1
  Bi  Bi26  1  0.14914600  0.77024700  0.19843100  1
  Bi  Bi27  1  0.64914600  0.72975300  0.80156900  1
  Bi  Bi28  1  0.14914600  0.72975300  0.69843100  1
  Bi  Bi29  1  0.64914600  0.77024700  0.30156900  1
  Bi  Bi30  1  0.85085400  0.22975300  0.80156900  1
  Bi  Bi31  1  0.35085400  0.27024700  0.19843100  1
  N  N32  1  0.51107900  0.43847200  0.26398500  1
  N  N33  1  0.01107900  0.06152800  0.73601600  1
  N  N34  1  0.48892100  0.93847200  0.23601500  1
  N  N35  1  0.98892100  0.56152800  0.76398400  1
  N  N36  1  0.48892100  0.56152800  0.73601600  1
  N  N37  1  0.98892100  0.93847200  0.26398500  1
  N  N38  1  0.51107900  0.06152800  0.76398400  1
  N  N39  1  0.01107900  0.43847200  0.23601500  1
  N  N40  1  0.58849900  0.31352800  0.48342500  1
  N  N41  1  0.08849900  0.18647200  0.51657500  1
  N  N42  1  0.41150100  0.81352800  0.01657500  1
  N  N43  1  0.91150100  0.68647200  0.98342500  1
  N  N44  1  0.41150100  0.68647200  0.51657500  1
  N  N45  1  0.91150100  0.81352800  0.48342500  1
  N  N46  1  0.58849900  0.18647200  0.98342500  1
  N  N47  1  0.08849900  0.31352800  0.01657500  1
  N  N48  1  0.64599700  0.43640400  0.07631700  1
  N  N49  1  0.14599700  0.06359600  0.92368300  1
  N  N50  1  0.35400300  0.93640400  0.42368300  1
  N  N51  1  0.85400300  0.56359600  0.57631700  1
  N  N52  1  0.35400300  0.56359600  0.92368300  1
  N  N53  1  0.85400300  0.93640400  0.07631700  1
  N  N54  1  0.64599700  0.06359600  0.57631700  1
  N  N55  1  0.14599700  0.43640400  0.42368300  1
  N  N56  1  0.75627000  0.18552800  0.17275200  1
  N  N57  1  0.25627000  0.31447200  0.82724800  1
  N  N58  1  0.24373000  0.68552800  0.32724800  1
  N  N59  1  0.74373000  0.81447200  0.67275200  1
  N  N60  1  0.24373000  0.81447200  0.82724800  1
  N  N61  1  0.74373000  0.68552800  0.17275200  1
  N  N62  1  0.75627000  0.31447200  0.67275200  1
  N  N63  1  0.25627000  0.18552800  0.32724800  1
