# generated using pymatgen
data_Cd4RuN4
_symmetry_space_group_name_H-M   'P 1'
_cell_length_a   6.48717485
_cell_length_b   6.48734450
_cell_length_c   9.19974411
_cell_angle_alpha   64.35545717
_cell_angle_beta   87.42945829
_cell_angle_gamma   63.54265421
_symmetry_Int_Tables_number   1
_chemical_formula_structural   Cd4RuN4
_chemical_formula_sum   'Cd8 Ru2 N8'
_cell_volume   307.17781318
_cell_formula_units_Z   2
loop_
 _symmetry_equiv_pos_site_id
 _symmetry_equiv_pos_as_xyz
  1  'x, y, z'
loop_
 _atom_site_type_symbol
 _atom_site_label
 _atom_site_symmetry_multiplicity
 _atom_site_fract_x
 _atom_site_fract_y
 _atom_site_fract_z
 _atom_site_occupancy
  Cd  Cd0  1  0.86373500  0.62568600  0.24056400  1
  Cd  Cd1  1  0.13626500  0.37431400  0.75943600  1
  Cd  Cd2  1  0.74673300  0.25359400  0.99974000  1
  Cd  Cd3  1  0.25326700  0.74640600  0.00026000  1
  Cd  Cd4  1  0.64770200  0.52869600  0.62493600  1
  Cd  Cd5  1  0.35229800  0.47130400  0.37506400  1
  Cd  Cd6  1  0.15275600  0.02091300  0.62597800  1
  Cd  Cd7  1  0.84724400  0.97908700  0.37402200  1
  Ru  Ru8  1  0.69696800  0.91395000  0.78161300  1
  Ru  Ru9  1  0.30303200  0.08605000  0.21838700  1
  N  N10  1  0.91853300  0.81255900  0.65793800  1
  N  N11  1  0.08146700  0.18744100  0.34206200  1
  N  N12  1  0.84136100  0.87676700  0.96423300  1
  N  N13  1  0.15863900  0.12323300  0.03576700  1
  N  N14  1  0.53884900  0.71759100  0.82067600  1
  N  N15  1  0.46115100  0.28240900  0.17932400  1
  N  N16  1  0.52512900  0.74128000  0.34152300  1
  N  N17  1  0.47487100  0.25872000  0.65847700  1
