# generated using pymatgen
data_Ca5Hf2N6
_symmetry_space_group_name_H-M   'P 1'
_cell_length_a   6.28170610
_cell_length_b   6.08533637
_cell_length_c   14.62506269
_cell_angle_alpha   89.99999961
_cell_angle_beta   92.25791199
_cell_angle_gamma   118.97118173
_symmetry_Int_Tables_number   1
_chemical_formula_structural   Ca5Hf2N6
_chemical_formula_sum   'Ca10 Hf4 N12'
_cell_volume   488.60666972
_cell_formula_units_Z   2
loop_
 _symmetry_equiv_pos_site_id
 _symmetry_equiv_pos_as_xyz
  1  'x, y, z'
loop_
 _atom_site_type_symbol
 _atom_site_label
 _atom_site_symmetry_multiplicity
 _atom_site_fract_x
 _atom_site_fract_y
 _atom_site_fract_z
 _atom_site_occupancy
  Ca  Ca0  1  0.00000000  0.41017500  0.75000000  1
  Ca  Ca1  1  0.00000000  0.58982500  0.25000000  1
  Ca  Ca2  1  0.21215700  0.83865700  0.03938100  1
  Ca  Ca3  1  0.78784300  0.62650000  0.46061900  1
  Ca  Ca4  1  0.78784300  0.16134300  0.96061900  1
  Ca  Ca5  1  0.21215700  0.37350000  0.53938100  1
  Ca  Ca6  1  0.29277600  0.09129400  0.71717400  1
  Ca  Ca7  1  0.70722400  0.79851800  0.78282600  1
  Ca  Ca8  1  0.70722400  0.90870600  0.28282600  1
  Ca  Ca9  1  0.29277600  0.20148200  0.21717400  1
  Hf  Hf10  1  0.59543300  0.95906900  0.58749700  1
  Hf  Hf11  1  0.40456700  0.36363600  0.91250300  1
  Hf  Hf12  1  0.40456700  0.04093100  0.41250300  1
  Hf  Hf13  1  0.59543300  0.63636400  0.08749700  1
  N  N14  1  0.35522700  0.73134700  0.67967100  1
  N  N15  1  0.64477300  0.37612000  0.82032900  1
  N  N16  1  0.64477300  0.26865300  0.32032900  1
  N  N17  1  0.35522700  0.62388000  0.17967100  1
  N  N18  1  0.50083400  0.22920400  0.54071000  1
  N  N19  1  0.49916600  0.72837000  0.95929000  1
  N  N20  1  0.49916600  0.77079600  0.45929000  1
  N  N21  1  0.50083400  0.27163000  0.04071000  1
  N  N22  1  0.93766900  0.08250300  0.64265200  1
  N  N23  1  0.06233100  0.14483500  0.85734800  1
  N  N24  1  0.06233100  0.91749700  0.35734800  1
  N  N25  1  0.93766900  0.85516500  0.14265200  1
