# generated using pymatgen
data_CrFe2N3
_symmetry_space_group_name_H-M   'P 1'
_cell_length_a   5.03270581
_cell_length_b   8.67560755
_cell_length_c   9.92142138
_cell_angle_alpha   90.00000178
_cell_angle_beta   94.19564398
_cell_angle_gamma   149.53315683
_symmetry_Int_Tables_number   1
_chemical_formula_structural   CrFe2N3
_chemical_formula_sum   'Cr4 Fe8 N12'
_cell_volume   217.34437849
_cell_formula_units_Z   4
loop_
 _symmetry_equiv_pos_site_id
 _symmetry_equiv_pos_as_xyz
  1  'x, y, z'
loop_
 _atom_site_type_symbol
 _atom_site_label
 _atom_site_symmetry_multiplicity
 _atom_site_fract_x
 _atom_site_fract_y
 _atom_site_fract_z
 _atom_site_occupancy
  Cr  Cr0  1  0.59440300  0.34843200  0.65248800  1
  Cr  Cr1  1  0.40559700  0.75402800  0.84751200  1
  Cr  Cr2  1  0.40559700  0.65156800  0.34751200  1
  Cr  Cr3  1  0.59440300  0.24597200  0.15248800  1
  Fe  Fe4  1  0.49693800  0.10160800  0.81345300  1
  Fe  Fe5  1  0.50306200  0.60467000  0.68654700  1
  Fe  Fe6  1  0.50306200  0.89839200  0.18654800  1
  Fe  Fe7  1  0.49693800  0.39533000  0.31345300  1
  Fe  Fe8  1  0.66427200  0.95731700  0.55459000  1
  Fe  Fe9  1  0.33572800  0.29304400  0.94541000  1
  Fe  Fe10  1  0.33572800  0.04268300  0.44541000  1
  Fe  Fe11  1  0.66427200  0.70695600  0.05459000  1
  N  N12  1  0.00000000  0.70254900  0.75000000  1
  N  N13  1  0.00000000  0.29745100  0.25000000  1
  N  N14  1  0.76558800  0.21991600  0.62286400  1
  N  N15  1  0.23441200  0.45432800  0.87713600  1
  N  N16  1  0.23441200  0.78008400  0.37713600  1
  N  N17  1  0.76558800  0.54567200  0.12286400  1
  N  N18  1  0.33438700  0.06449700  0.98225800  1
  N  N19  1  0.66561300  0.73011000  0.51774200  1
  N  N20  1  0.66561300  0.93550300  0.01774200  1
  N  N21  1  0.33438700  0.26989000  0.48225800  1
  N  N22  1  0.00000000  0.02815100  0.75000000  1
  N  N23  1  0.00000000  0.97184900  0.25000000  1
