# generated using pymatgen
data_Zn(C4N3)2
_symmetry_space_group_name_H-M   'P 1'
_cell_length_a   12.84039102
_cell_length_b   12.83929728
_cell_length_c   5.50795901
_cell_angle_alpha   89.99489673
_cell_angle_beta   90.00271910
_cell_angle_gamma   119.99737721
_symmetry_Int_Tables_number   1
_chemical_formula_structural   Zn(C4N3)2
_chemical_formula_sum   'Zn3 C24 N18'
_cell_volume   786.41594491
_cell_formula_units_Z   3
loop_
 _symmetry_equiv_pos_site_id
 _symmetry_equiv_pos_as_xyz
  1  'x, y, z'
loop_
 _atom_site_type_symbol
 _atom_site_label
 _atom_site_symmetry_multiplicity
 _atom_site_fract_x
 _atom_site_fract_y
 _atom_site_fract_z
 _atom_site_occupancy
  Zn  Zn0  1  0.00000000  0.99998600  0.94133300  1
  Zn  Zn1  1  0.33332500  0.66666900  0.86653000  1
  Zn  Zn2  1  0.66667600  0.33334500  0.86653100  1
  C  C3  1  0.00000200  0.64635900  0.24443600  1
  C  C4  1  0.64634100  0.99997900  0.24447200  1
  C  C5  1  0.35366100  0.35363800  0.24446900  1
  C  C6  1  0.00000200  0.73500300  0.39519300  1
  C  C7  1  0.73499600  0.99996800  0.39518700  1
  C  C8  1  0.26500500  0.26497100  0.39518800  1
  C  C9  1  0.10636100  0.65495200  0.15754300  1
  C  C10  1  0.54856500  0.89362100  0.15758200  1
  C  C11  1  0.34505600  0.45141700  0.15756700  1
  C  C12  1  0.89364200  0.54859400  0.15753900  1
  C  C13  1  0.65494500  0.10636200  0.15756800  1
  C  C14  1  0.45143400  0.34505500  0.15758200  1
  C  C15  1  0.67645800  0.67650200  0.72815400  1
  C  C16  1  0.99999900  0.32352700  0.72816100  1
  C  C17  1  0.32354000  0.00004300  0.72816100  1
  C  C18  1  0.77201600  0.77201900  0.84578500  1
  C  C19  1  0.00000000  0.22796300  0.84580800  1
  C  C20  1  0.22798000  0.00000300  0.84579100  1
  C  C21  1  0.57105000  0.68034300  0.68035800  1
  C  C22  1  0.10927000  0.42895900  0.68033300  1
  C  C23  1  0.31968100  0.89074000  0.68035200  1
  C  C24  1  0.42894600  0.10928900  0.68036400  1
  C  C25  1  0.68031700  0.57105400  0.68034800  1
  C  C26  1  0.89073000  0.31968700  0.68033400  1
  N  N27  1  0.00000200  0.80964800  0.51837400  1
  N  N28  1  0.80964200  0.99995700  0.51830900  1
  N  N29  1  0.19035600  0.19031200  0.51831100  1
  N  N30  1  0.19121700  0.65603300  0.07697200  1
  N  N31  1  0.46478500  0.80876900  0.07701800  1
  N  N32  1  0.34396400  0.53519700  0.07699800  1
  N  N33  1  0.80878200  0.46481400  0.07696400  1
  N  N34  1  0.65603600  0.19123200  0.07699800  1
  N  N35  1  0.53521300  0.34398300  0.07702200  1
  N  N36  1  0.85059500  0.85057700  0.95476800  1
  N  N37  1  0.00000000  0.14939900  0.95476300  1
  N  N38  1  0.14940600  0.99998100  0.95476800  1
  N  N39  1  0.48217700  0.68260400  0.64645300  1
  N  N40  1  0.20041700  0.51783700  0.64642100  1
  N  N41  1  0.31741600  0.79959000  0.64644000  1
  N  N42  1  0.51782500  0.20042900  0.64645000  1
  N  N43  1  0.68258500  0.48217400  0.64644000  1
  N  N44  1  0.79958100  0.31741800  0.64642300  1
