# generated using pymatgen
data_NdSiGe
_symmetry_space_group_name_H-M   'P 1'
_cell_length_a   8.21926237
_cell_length_b   8.21926237
_cell_length_c   8.21926237
_cell_angle_alpha   150.87082209
_cell_angle_beta   150.74786056
_cell_angle_gamma   41.75474694
_symmetry_Int_Tables_number   1
_chemical_formula_structural   NdSiGe
_chemical_formula_sum   'Nd2 Si2 Ge2'
_cell_volume   131.77474603
_cell_formula_units_Z   2
loop_
 _symmetry_equiv_pos_site_id
 _symmetry_equiv_pos_as_xyz
  1  'x, y, z'
loop_
 _atom_site_type_symbol
 _atom_site_label
 _atom_site_symmetry_multiplicity
 _atom_site_fract_x
 _atom_site_fract_y
 _atom_site_fract_z
 _atom_site_occupancy
  Nd  Nd0  1  0.62948400  0.37948400  0.25000000  1
  Nd  Nd1  1  0.37051600  0.62051600  0.75000000  1
  Si  Si2  1  0.21353100  0.96353100  0.25000000  1
  Si  Si3  1  0.78646900  0.03646900  0.75000000  1
  Ge  Ge4  1  0.04954900  0.79954900  0.25000000  1
  Ge  Ge5  1  0.95045100  0.20045100  0.75000000  1
