# generated using pymatgen
data_Sb2(CN2)3
_symmetry_space_group_name_H-M   'P 1'
_cell_length_a   7.66953346
_cell_length_b   3.85806806
_cell_length_c   5.24749047
_cell_angle_alpha   89.99999885
_cell_angle_beta   83.23318601
_cell_angle_gamma   75.43258465
_symmetry_Int_Tables_number   1
_chemical_formula_structural   Sb2(CN2)3
_chemical_formula_sum   'Sb2 C3 N6'
_cell_volume   149.16163151
_cell_formula_units_Z   1
loop_
 _symmetry_equiv_pos_site_id
 _symmetry_equiv_pos_as_xyz
  1  'x, y, z'
loop_
 _atom_site_type_symbol
 _atom_site_label
 _atom_site_symmetry_multiplicity
 _atom_site_fract_x
 _atom_site_fract_y
 _atom_site_fract_z
 _atom_site_occupancy
  Sb  Sb0  1  0.26564500  0.86717700  0.91761900  1
  Sb  Sb1  1  0.73435500  0.13282300  0.08238100  1
  C  C2  1  0.65403500  0.67298200  0.57828500  1
  C  C3  1  0.34596500  0.32701800  0.42171500  1
  C  C4  1  0.00000000  0.00000000  0.50000000  1
  N  N5  1  0.30810600  0.34594700  0.65805100  1
  N  N6  1  0.69189400  0.65405300  0.34194900  1
  N  N7  1  0.38935300  0.30532300  0.18720900  1
  N  N8  1  0.61064700  0.69467700  0.81279100  1
  N  N9  1  0.00219900  0.99890000  0.26408100  1
  N  N10  1  0.99780100  0.00109900  0.73591900  1
