# generated using pymatgen
data_CdGeN2
_symmetry_space_group_name_H-M   'P 1'
_cell_length_a   5.68636400
_cell_length_b   6.95430200
_cell_length_c   5.49228800
_cell_angle_alpha   90.00000000
_cell_angle_beta   90.00000000
_cell_angle_gamma   90.00000000
_symmetry_Int_Tables_number   1
_chemical_formula_structural   CdGeN2
_chemical_formula_sum   'Cd4 Ge4 N8'
_cell_volume   217.19084029
_cell_formula_units_Z   4
loop_
 _symmetry_equiv_pos_site_id
 _symmetry_equiv_pos_as_xyz
  1  'x, y, z'
loop_
 _atom_site_type_symbol
 _atom_site_label
 _atom_site_symmetry_multiplicity
 _atom_site_fract_x
 _atom_site_fract_y
 _atom_site_fract_z
 _atom_site_occupancy
  Cd  Cd0  1  0.58026200  0.87612200  0.99758600  1
  Cd  Cd1  1  0.41973800  0.12387800  0.49758600  1
  Cd  Cd2  1  0.91973800  0.37612200  0.49758600  1
  Cd  Cd3  1  0.08026200  0.62387800  0.99758600  1
  Ge  Ge4  1  0.56609600  0.37457100  0.00017300  1
  Ge  Ge5  1  0.43390400  0.62542900  0.50017300  1
  Ge  Ge6  1  0.93390400  0.87457100  0.50017300  1
  Ge  Ge7  1  0.06609600  0.12542900  0.00017300  1
  N  N8  1  0.54788300  0.40709300  0.34029700  1
  N  N9  1  0.45211700  0.59290700  0.84029600  1
  N  N10  1  0.95211700  0.90709300  0.84029600  1
  N  N11  1  0.04788300  0.09290700  0.34029700  1
  N  N12  1  0.61462100  0.84277300  0.41194400  1
  N  N13  1  0.38537900  0.15722700  0.91194400  1
  N  N14  1  0.88537900  0.34277300  0.91194400  1
  N  N15  1  0.11462100  0.65722700  0.41194400  1
