# generated using pymatgen
data_KCuN
_symmetry_space_group_name_H-M   'P 1'
_cell_length_a   10.34457500
_cell_length_b   3.58552600
_cell_length_c   6.25568400
_cell_angle_alpha   90.00000000
_cell_angle_beta   90.00000000
_cell_angle_gamma   90.00000000
_symmetry_Int_Tables_number   1
_chemical_formula_structural   KCuN
_chemical_formula_sum   'K4 Cu4 N4'
_cell_volume   232.02796517
_cell_formula_units_Z   4
loop_
 _symmetry_equiv_pos_site_id
 _symmetry_equiv_pos_as_xyz
  1  'x, y, z'
loop_
 _atom_site_type_symbol
 _atom_site_label
 _atom_site_symmetry_multiplicity
 _atom_site_fract_x
 _atom_site_fract_y
 _atom_site_fract_z
 _atom_site_occupancy
  K  K0  1  0.65938800  0.25000000  0.07388200  1
  K  K1  1  0.15938800  0.25000000  0.42611800  1
  K  K2  1  0.34061200  0.75000000  0.92611800  1
  K  K3  1  0.84061200  0.75000000  0.57388200  1
  Cu  Cu4  1  0.55786800  0.25000000  0.61093800  1
  Cu  Cu5  1  0.05786800  0.25000000  0.88906200  1
  Cu  Cu6  1  0.44213200  0.75000000  0.38906200  1
  Cu  Cu7  1  0.94213200  0.75000000  0.11093800  1
  N  N8  1  0.92765400  0.25000000  0.16394500  1
  N  N9  1  0.42765400  0.25000000  0.33605500  1
  N  N10  1  0.07234600  0.75000000  0.83605500  1
  N  N11  1  0.57234600  0.75000000  0.66394500  1
