# generated using pymatgen
data_VCo7N4
_symmetry_space_group_name_H-M   'P 1'
_cell_length_a   9.78856717
_cell_length_b   9.78856717
_cell_length_c   9.78856717
_cell_angle_alpha   90.00000000
_cell_angle_beta   90.00000000
_cell_angle_gamma   90.00000000
_symmetry_Int_Tables_number   1
_chemical_formula_structural   VCo7N4
_chemical_formula_sum   'V8 Co56 N32'
_cell_volume   937.90181439
_cell_formula_units_Z   8
loop_
 _symmetry_equiv_pos_site_id
 _symmetry_equiv_pos_as_xyz
  1  'x, y, z'
loop_
 _atom_site_type_symbol
 _atom_site_label
 _atom_site_symmetry_multiplicity
 _atom_site_fract_x
 _atom_site_fract_y
 _atom_site_fract_z
 _atom_site_occupancy
  V  V0  1  0.50000000  0.50000000  0.50000000  1
  V  V1  1  0.00000000  -0.00000000  -0.00000000  1
  V  V2  1  0.50000000  -0.00000000  0.25000000  1
  V  V3  1  0.00000000  0.75000000  0.50000000  1
  V  V4  1  0.25000000  0.50000000  -0.00000000  1
  V  V5  1  0.00000000  0.25000000  0.50000000  1
  V  V6  1  0.75000000  0.50000000  -0.00000000  1
  V  V7  1  0.50000000  -0.00000000  0.75000000  1
  Co  Co8  1  0.00000000  -0.00000000  0.50000000  1
  Co  Co9  1  0.00000000  0.50000000  -0.00000000  1
  Co  Co10  1  0.50000000  -0.00000000  -0.00000000  1
  Co  Co11  1  0.50000000  -0.00000000  0.50000000  1
  Co  Co12  1  0.50000000  0.50000000  -0.00000000  1
  Co  Co13  1  0.00000000  0.50000000  0.50000000  1
  Co  Co14  1  0.00000000  0.50000000  0.25000000  1
  Co  Co15  1  0.50000000  0.75000000  -0.00000000  1
  Co  Co16  1  0.25000000  -0.00000000  0.50000000  1
  Co  Co17  1  0.50000000  0.25000000  -0.00000000  1
  Co  Co18  1  0.75000000  -0.00000000  0.50000000  1
  Co  Co19  1  0.00000000  0.50000000  0.75000000  1
  Co  Co20  1  0.29563011  0.70436989  0.29563011  1
  Co  Co21  1  0.70436989  0.29563011  0.29563011  1
  Co  Co22  1  0.29563011  0.29563011  0.70436989  1
  Co  Co23  1  0.70436989  0.70436989  0.70436989  1
  Co  Co24  1  0.79563011  0.79563011  0.20436989  1
  Co  Co25  1  0.20436989  0.79563011  0.79563011  1
  Co  Co26  1  0.79563011  0.20436989  0.79563011  1
  Co  Co27  1  0.20436989  0.20436989  0.20436989  1
  Co  Co28  1  0.50000000  0.50000000  0.24547794  1
  Co  Co29  1  0.50000000  0.75452206  0.50000000  1
  Co  Co30  1  0.24547794  0.50000000  0.50000000  1
  Co  Co31  1  0.50000000  0.24547794  0.50000000  1
  Co  Co32  1  0.75452206  0.50000000  0.50000000  1
  Co  Co33  1  0.50000000  0.50000000  0.75452206  1
  Co  Co34  1  0.00000000  0.74547794  -0.00000000  1
  Co  Co35  1  0.00000000  -0.00000000  0.25452206  1
  Co  Co36  1  0.74547794  -0.00000000  -0.00000000  1
  Co  Co37  1  0.00000000  -0.00000000  0.74547794  1
  Co  Co38  1  0.25452206  -0.00000000  -0.00000000  1
  Co  Co39  1  0.00000000  0.25452206  -0.00000000  1
  Co  Co40  1  0.56442757  0.74214262  0.24801660  1
  Co  Co41  1  0.25785738  0.75198340  0.56442757  1
  Co  Co42  1  0.24801660  0.43557243  0.25785738  1
  Co  Co43  1  0.43557243  0.25785738  0.24801660  1
  Co  Co44  1  0.74214262  0.24801660  0.56442757  1
  Co  Co45  1  0.75198340  0.56442757  0.25785738  1
  Co  Co46  1  0.56442757  0.25785738  0.75198340  1
  Co  Co47  1  0.25785738  0.24801660  0.43557243  1
  Co  Co48  1  0.24801660  0.56442757  0.74214262  1
  Co  Co49  1  0.43557243  0.74214262  0.75198340  1
  Co  Co50  1  0.74214262  0.75198340  0.43557243  1
  Co  Co51  1  0.75198340  0.43557243  0.74214262  1
  Co  Co52  1  0.06442757  0.74801660  0.24214262  1
  Co  Co53  1  0.75785738  0.06442757  0.25198340  1
  Co  Co54  1  0.74801660  0.75785738  0.93557243  1
  Co  Co55  1  0.93557243  0.74801660  0.75785738  1
  Co  Co56  1  0.24214262  0.06442757  0.74801660  1
  Co  Co57  1  0.25198340  0.75785738  0.06442757  1
  Co  Co58  1  0.06442757  0.25198340  0.75785738  1
  Co  Co59  1  0.75785738  0.93557243  0.74801660  1
  Co  Co60  1  0.74801660  0.24214262  0.06442757  1
  Co  Co61  1  0.93557243  0.25198340  0.24214262  1
  Co  Co62  1  0.24214262  0.93557243  0.25198340  1
  Co  Co63  1  0.25198340  0.24214262  0.93557243  1
  N  N64  1  0.39557956  0.60442044  0.39557956  1
  N  N65  1  0.60442044  0.39557956  0.39557956  1
  N  N66  1  0.39557956  0.39557956  0.60442044  1
  N  N67  1  0.60442044  0.60442044  0.60442044  1
  N  N68  1  0.89557956  0.89557956  0.10442044  1
  N  N69  1  0.10442044  0.89557956  0.89557956  1
  N  N70  1  0.89557956  0.10442044  0.89557956  1
  N  N71  1  0.10442044  0.10442044  0.10442044  1
  N  N72  1  0.38383006  0.89289509  0.11758059  1
  N  N73  1  0.10710491  0.88241941  0.38383006  1
  N  N74  1  0.11758059  0.61616994  0.10710491  1
  N  N75  1  0.61616994  0.10710491  0.11758059  1
  N  N76  1  0.89289509  0.11758059  0.38383006  1
  N  N77  1  0.88241941  0.38383006  0.10710491  1
  N  N78  1  0.38383006  0.10710491  0.88241941  1
  N  N79  1  0.10710491  0.11758059  0.61616994  1
  N  N80  1  0.11758059  0.38383006  0.89289509  1
  N  N81  1  0.61616994  0.89289509  0.88241941  1
  N  N82  1  0.89289509  0.88241941  0.61616994  1
  N  N83  1  0.88241941  0.61616994  0.89289509  1
  N  N84  1  0.88383006  0.61758059  0.39289509  1
  N  N85  1  0.60710491  0.88383006  0.38241941  1
  N  N86  1  0.61758059  0.60710491  0.11616994  1
  N  N87  1  0.11616994  0.61758059  0.60710491  1
  N  N88  1  0.39289509  0.88383006  0.61758059  1
  N  N89  1  0.38241941  0.60710491  0.88383006  1
  N  N90  1  0.88383006  0.38241941  0.60710491  1
  N  N91  1  0.60710491  0.11616994  0.61758059  1
  N  N92  1  0.61758059  0.39289509  0.88383006  1
  N  N93  1  0.11616994  0.38241941  0.39289509  1
  N  N94  1  0.39289509  0.11616994  0.38241941  1
  N  N95  1  0.38241941  0.39289509  0.11616994  1
