# generated using pymatgen
data_Li3TaN2
_symmetry_space_group_name_H-M   'P 1'
_cell_length_a   8.59123900
_cell_length_b   9.92031004
_cell_length_c   9.92030962
_cell_angle_alpha   90.00000563
_cell_angle_beta   125.26439370
_cell_angle_gamma   54.73560801
_symmetry_Int_Tables_number   1
_chemical_formula_structural   Li3TaN2
_chemical_formula_sum   'Li24 Ta8 N16'
_cell_volume   488.14137595
_cell_formula_units_Z   8
loop_
 _symmetry_equiv_pos_site_id
 _symmetry_equiv_pos_as_xyz
  1  'x, y, z'
loop_
 _atom_site_type_symbol
 _atom_site_label
 _atom_site_symmetry_multiplicity
 _atom_site_fract_x
 _atom_site_fract_y
 _atom_site_fract_z
 _atom_site_occupancy
  Li  Li0  1  0.20951700  0.06100700  0.99642100  1
  Li  Li1  1  0.79048300  0.77052500  0.50357900  1
  Li  Li2  1  0.79048300  0.43899300  0.78690400  1
  Li  Li3  1  0.20951700  0.72947500  0.71309600  1
  Li  Li4  1  0.21667400  0.78690400  0.27410300  1
  Li  Li5  1  0.78332600  0.71309600  0.05743000  1
  Li  Li6  1  0.21667400  0.99642100  0.44257000  1
  Li  Li7  1  0.78332600  0.50357900  0.22589700  1
  Li  Li8  1  0.66846700  0.05743000  0.72947500  1
  Li  Li9  1  0.66846700  0.27410300  0.43899300  1
  Li  Li10  1  0.33153300  0.22589700  0.77052500  1
  Li  Li11  1  0.33153300  0.44257000  0.06100700  1
  Li  Li12  1  0.79048300  0.93899300  0.00357900  1
  Li  Li13  1  0.20951700  0.22947500  0.49642100  1
  Li  Li14  1  0.20951700  0.56100700  0.21309600  1
  Li  Li15  1  0.79048300  0.27052500  0.28690400  1
  Li  Li16  1  0.78332600  0.21309600  0.72589700  1
  Li  Li17  1  0.21667400  0.28690400  0.94257000  1
  Li  Li18  1  0.78332600  0.00357900  0.55743000  1
  Li  Li19  1  0.21667400  0.49642100  0.77410300  1
  Li  Li20  1  0.33153300  0.94257000  0.27052500  1
  Li  Li21  1  0.33153300  0.72589700  0.56100700  1
  Li  Li22  1  0.66846700  0.77410300  0.22947500  1
  Li  Li23  1  0.66846700  0.55743000  0.93899300  1
  Ta  Ta24  1  0.23593500  0.00000000  0.73593500  1
  Ta  Ta25  1  0.76406500  0.73593500  0.76406500  1
  Ta  Ta26  1  0.76406500  0.50000000  0.50000000  1
  Ta  Ta27  1  0.23593500  0.76406500  0.00000000  1
  Ta  Ta28  1  0.76406500  0.00000000  0.26406500  1
  Ta  Ta29  1  0.23593500  0.26406500  0.23593500  1
  Ta  Ta30  1  0.23593500  0.50000000  0.50000000  1
  Ta  Ta31  1  0.76406500  0.23593500  0.00000000  1
  N  N32  1  0.00000000  0.00000000  0.50000000  1
  N  N33  1  0.00000000  0.50000000  0.00000000  1
  N  N34  1  0.00000000  0.50000000  0.50000000  1
  N  N35  1  0.00000000  0.00000000  0.00000000  1
  N  N36  1  0.50000000  0.98184500  0.75000000  1
  N  N37  1  0.50000000  0.51815500  0.25000000  1
  N  N38  1  0.00000000  0.25000000  0.73184500  1
  N  N39  1  0.00000000  0.75000000  0.76815500  1
  N  N40  1  0.53631000  0.73184500  0.51815500  1
  N  N41  1  0.46369000  0.76815500  0.98184500  1
  N  N42  1  0.50000000  0.01815500  0.25000000  1
  N  N43  1  0.50000000  0.48184500  0.75000000  1
  N  N44  1  0.00000000  0.75000000  0.26815500  1
  N  N45  1  0.00000000  0.25000000  0.23184500  1
  N  N46  1  0.46369000  0.26815500  0.48184500  1
  N  N47  1  0.53631000  0.23184500  0.01815500  1
