# generated using pymatgen
data_YCuO
_symmetry_space_group_name_H-M   'P 1'
_cell_length_a   5.43250481
_cell_length_b   5.43250530
_cell_length_c   5.43250521
_cell_angle_alpha   38.85061213
_cell_angle_beta   38.85060044
_cell_angle_gamma   38.85060340
_symmetry_Int_Tables_number   1
_chemical_formula_structural   YCuO
_chemical_formula_sum   'Y1 Cu1 O1'
_cell_volume   56.71920749
_cell_formula_units_Z   1
loop_
 _symmetry_equiv_pos_site_id
 _symmetry_equiv_pos_as_xyz
  1  'x, y, z'
loop_
 _atom_site_type_symbol
 _atom_site_label
 _atom_site_symmetry_multiplicity
 _atom_site_fract_x
 _atom_site_fract_y
 _atom_site_fract_z
 _atom_site_occupancy
  Y  Y0  1  0.49593100  0.49593100  0.49593100  1
  Cu  Cu1  1  0.01635700  0.01635700  0.01635700  1
  O  O2  1  0.88124100  0.88124100  0.88124100  1
