# generated using pymatgen
data_Ba2RuN2
_symmetry_space_group_name_H-M   'P 1'
_cell_length_a   4.20050800
_cell_length_b   4.19874900
_cell_length_c   7.24510750
_cell_angle_alpha   106.84384965
_cell_angle_beta   106.85112096
_cell_angle_gamma   90.00000000
_symmetry_Int_Tables_number   1
_chemical_formula_structural   Ba2RuN2
_chemical_formula_sum   'Ba2 Ru1 N2'
_cell_volume   116.55447735
_cell_formula_units_Z   1
loop_
 _symmetry_equiv_pos_site_id
 _symmetry_equiv_pos_as_xyz
  1  'x, y, z'
loop_
 _atom_site_type_symbol
 _atom_site_label
 _atom_site_symmetry_multiplicity
 _atom_site_fract_x
 _atom_site_fract_y
 _atom_site_fract_z
 _atom_site_occupancy
  Ba  Ba0  1  0.86099500  0.86099500  0.22199000  1
  Ba  Ba1  1  0.13900500  0.13900500  0.77801000  1
  Ru  Ru2  1  0.50000000  0.50000000  0.50000000  1
  N  N3  1  0.36204100  0.36204100  0.22408200  1
  N  N4  1  0.63795900  0.63795900  0.77591800  1
