# generated using pymatgen
data_CoAgN
_symmetry_space_group_name_H-M   'P 1'
_cell_length_a   3.98576400
_cell_length_b   3.98620492
_cell_length_c   3.42362600
_cell_angle_alpha   90.00000000
_cell_angle_beta   90.00000000
_cell_angle_gamma   119.99634106
_symmetry_Int_Tables_number   1
_chemical_formula_structural   CoAgN
_chemical_formula_sum   'Co1 Ag1 N1'
_cell_volume   47.10902978
_cell_formula_units_Z   1
loop_
 _symmetry_equiv_pos_site_id
 _symmetry_equiv_pos_as_xyz
  1  'x, y, z'
loop_
 _atom_site_type_symbol
 _atom_site_label
 _atom_site_symmetry_multiplicity
 _atom_site_fract_x
 _atom_site_fract_y
 _atom_site_fract_z
 _atom_site_occupancy
  Co  Co0  1  0.66669200  0.33338500  0.00000000  1
  Ag  Ag1  1  0.00000500  0.00001000  0.50000000  1
  N  N2  1  0.66670300  0.33340500  0.50000000  1
