# generated using pymatgen
data_Ba4ZrN4
_symmetry_space_group_name_H-M   'P 1'
_cell_length_a   6.94323767
_cell_length_b   6.96286350
_cell_length_c   10.08284458
_cell_angle_alpha   71.72494497
_cell_angle_beta   79.12360777
_cell_angle_gamma   65.87036455
_symmetry_Int_Tables_number   1
_chemical_formula_structural   Ba4ZrN4
_chemical_formula_sum   'Ba8 Zr2 N8'
_cell_volume   421.39247785
_cell_formula_units_Z   2
loop_
 _symmetry_equiv_pos_site_id
 _symmetry_equiv_pos_as_xyz
  1  'x, y, z'
loop_
 _atom_site_type_symbol
 _atom_site_label
 _atom_site_symmetry_multiplicity
 _atom_site_fract_x
 _atom_site_fract_y
 _atom_site_fract_z
 _atom_site_occupancy
  Ba  Ba0  1  0.76909100  0.57778700  0.16228100  1
  Ba  Ba1  1  0.23090900  0.42221300  0.83771900  1
  Ba  Ba2  1  0.74928400  0.23463300  0.96805900  1
  Ba  Ba3  1  0.25071600  0.76536700  0.03194100  1
  Ba  Ba4  1  0.72053500  0.49065000  0.56466100  1
  Ba  Ba5  1  0.27946500  0.50935000  0.43533900  1
  Ba  Ba6  1  0.21956200  0.97160800  0.61633800  1
  Ba  Ba7  1  0.78043800  0.02839200  0.38366200  1
  Zr  Zr8  1  0.72003500  0.84403400  0.75768600  1
  Zr  Zr9  1  0.27996500  0.15596600  0.24231400  1
  N  N10  1  0.96028400  0.68337300  0.62402200  1
  N  N11  1  0.03971600  0.31662700  0.37597800  1
  N  N12  1  0.89251000  0.81980000  0.92111300  1
  N  N13  1  0.10749000  0.18020000  0.07888700  1
  N  N14  1  0.51991200  0.66421600  0.81261200  1
  N  N15  1  0.48008800  0.33578400  0.18738800  1
  N  N16  1  0.45491300  0.84317100  0.37217000  1
  N  N17  1  0.54508700  0.15682900  0.62783000  1
