# generated using pymatgen
data_Ca3(RuN2)2
_symmetry_space_group_name_H-M   'P 1'
_cell_length_a   5.98220700
_cell_length_b   10.24453000
_cell_length_c   8.61950900
_cell_angle_alpha   90.00000000
_cell_angle_beta   90.00000000
_cell_angle_gamma   90.00000000
_symmetry_Int_Tables_number   1
_chemical_formula_structural   Ca3(RuN2)2
_chemical_formula_sum   'Ca12 Ru8 N16'
_cell_volume   528.24573916
_cell_formula_units_Z   4
loop_
 _symmetry_equiv_pos_site_id
 _symmetry_equiv_pos_as_xyz
  1  'x, y, z'
loop_
 _atom_site_type_symbol
 _atom_site_label
 _atom_site_symmetry_multiplicity
 _atom_site_fract_x
 _atom_site_fract_y
 _atom_site_fract_z
 _atom_site_occupancy
  Ca  Ca0  1  0.62442100  0.15368300  0.42265200  1
  Ca  Ca1  1  0.87557900  0.84631700  0.42265200  1
  Ca  Ca2  1  0.62442100  0.34631700  0.07734800  1
  Ca  Ca3  1  0.87557900  0.65368300  0.07734800  1
  Ca  Ca4  1  0.37557900  0.84631700  0.57734800  1
  Ca  Ca5  1  0.12442100  0.15368300  0.57734800  1
  Ca  Ca6  1  0.37557900  0.65368300  0.92265200  1
  Ca  Ca7  1  0.12442100  0.34631700  0.92265200  1
  Ca  Ca8  1  0.75000000  0.50000000  0.40132400  1
  Ca  Ca9  1  0.75000000  0.00000000  0.09867600  1
  Ca  Ca10  1  0.25000000  0.50000000  0.59867600  1
  Ca  Ca11  1  0.25000000  0.00000000  0.90132400  1
  Ru  Ru12  1  0.75000000  0.50000000  0.74397200  1
  Ru  Ru13  1  0.75000000  0.00000000  0.75602800  1
  Ru  Ru14  1  0.25000000  0.50000000  0.25602800  1
  Ru  Ru15  1  0.25000000  0.00000000  0.24397200  1
  Ru  Ru16  1  0.69369500  0.25000000  0.75000000  1
  Ru  Ru17  1  0.80630500  0.75000000  0.75000000  1
  Ru  Ru18  1  0.30630500  0.75000000  0.25000000  1
  Ru  Ru19  1  0.19369500  0.25000000  0.25000000  1
  N  N20  1  0.91802600  0.35662900  0.64072100  1
  N  N21  1  0.58197400  0.64337100  0.64072100  1
  N  N22  1  0.91802600  0.14337100  0.85927900  1
  N  N23  1  0.58197400  0.85662900  0.85927900  1
  N  N24  1  0.08197400  0.64337100  0.35927900  1
  N  N25  1  0.41802600  0.35662900  0.35927900  1
  N  N26  1  0.08197400  0.85662900  0.14072100  1
  N  N27  1  0.41802600  0.14337100  0.14072100  1
  N  N28  1  0.47095800  0.40135800  0.81688500  1
  N  N29  1  0.02904200  0.59864200  0.81688500  1
  N  N30  1  0.47095800  0.09864200  0.68311500  1
  N  N31  1  0.02904200  0.90135800  0.68311500  1
  N  N32  1  0.52904200  0.59864200  0.18311500  1
  N  N33  1  0.97095800  0.40135800  0.18311500  1
  N  N34  1  0.52904200  0.90135800  0.31688500  1
  N  N35  1  0.97095800  0.09864200  0.31688500  1
