# generated using pymatgen
data_MgTeN2
_symmetry_space_group_name_H-M   'P 1'
_cell_length_a   6.38662700
_cell_length_b   7.63576100
_cell_length_c   5.49599900
_cell_angle_alpha   90.00000000
_cell_angle_beta   90.00000000
_cell_angle_gamma   90.00000000
_symmetry_Int_Tables_number   1
_chemical_formula_structural   MgTeN2
_chemical_formula_sum   'Mg4 Te4 N8'
_cell_volume   268.02204973
_cell_formula_units_Z   4
loop_
 _symmetry_equiv_pos_site_id
 _symmetry_equiv_pos_as_xyz
  1  'x, y, z'
loop_
 _atom_site_type_symbol
 _atom_site_label
 _atom_site_symmetry_multiplicity
 _atom_site_fract_x
 _atom_site_fract_y
 _atom_site_fract_z
 _atom_site_occupancy
  Mg  Mg0  1  0.53833900  0.87287900  0.00195200  1
  Mg  Mg1  1  0.46166100  0.12712100  0.50195200  1
  Mg  Mg2  1  0.96166100  0.37287900  0.50195200  1
  Mg  Mg3  1  0.03833900  0.62712100  0.00195200  1
  Te  Te4  1  0.64278900  0.35004300  0.02704900  1
  Te  Te5  1  0.35721100  0.64995700  0.52704900  1
  Te  Te6  1  0.85721100  0.85004300  0.52704900  1
  Te  Te7  1  0.14278900  0.14995700  0.02704900  1
  N  N8  1  0.69679300  0.27243700  0.35110800  1
  N  N9  1  0.30320700  0.72756300  0.85110800  1
  N  N10  1  0.80320700  0.77243700  0.85110800  1
  N  N11  1  0.19679300  0.22756300  0.35110800  1
  N  N12  1  0.54046800  0.85828600  0.38989000  1
  N  N13  1  0.45953200  0.14171400  0.88989000  1
  N  N14  1  0.95953200  0.35828600  0.88989000  1
  N  N15  1  0.04046800  0.64171400  0.38989000  1
