# generated using pymatgen
data_YAlN2
_symmetry_space_group_name_H-M   'P 1'
_cell_length_a   5.77922024
_cell_length_b   6.89436800
_cell_length_c   5.73417139
_cell_angle_alpha   90.00000000
_cell_angle_beta   109.05912682
_cell_angle_gamma   90.00000000
_symmetry_Int_Tables_number   1
_chemical_formula_structural   YAlN2
_chemical_formula_sum   'Y4 Al4 N8'
_cell_volume   215.94833695
_cell_formula_units_Z   4
loop_
 _symmetry_equiv_pos_site_id
 _symmetry_equiv_pos_as_xyz
  1  'x, y, z'
loop_
 _atom_site_type_symbol
 _atom_site_label
 _atom_site_symmetry_multiplicity
 _atom_site_fract_x
 _atom_site_fract_y
 _atom_site_fract_z
 _atom_site_occupancy
  Y  Y0  1  0.36784600  0.90259800  0.70183100  1
  Y  Y1  1  0.63215400  0.40259800  0.79816900  1
  Y  Y2  1  0.63215400  0.09740200  0.29816900  1
  Y  Y3  1  0.36784600  0.59740200  0.20183100  1
  Al  Al4  1  0.11677400  0.35135700  0.60555500  1
  Al  Al5  1  0.88322600  0.85135700  0.89444500  1
  Al  Al6  1  0.88322600  0.64864300  0.39444500  1
  Al  Al7  1  0.11677400  0.14864300  0.10555500  1
  N  N8  1  0.22476600  0.89518400  0.03242200  1
  N  N9  1  0.77523400  0.39518400  0.46757800  1
  N  N10  1  0.77523400  0.10481600  0.96757800  1
  N  N11  1  0.22476600  0.60481600  0.53242200  1
  N  N12  1  0.26521900  0.32807900  0.95104600  1
  N  N13  1  0.73478100  0.82807900  0.54895400  1
  N  N14  1  0.73478100  0.67192100  0.04895400  1
  N  N15  1  0.26521900  0.17192100  0.45104600  1
