# generated using pymatgen
data_HfPd5
_symmetry_space_group_name_H-M   'P 1'
_cell_length_a   6.88780594
_cell_length_b   6.88780594
_cell_length_c   13.12339400
_cell_angle_alpha   90.00000000
_cell_angle_beta   90.00000000
_cell_angle_gamma   156.40719134
_symmetry_Int_Tables_number   1
_chemical_formula_structural   HfPd5
_chemical_formula_sum   'Hf1 Pd5'
_cell_volume   249.18504159
_cell_formula_units_Z   1
loop_
 _symmetry_equiv_pos_site_id
 _symmetry_equiv_pos_as_xyz
  1  'x, y, z'
loop_
 _atom_site_type_symbol
 _atom_site_label
 _atom_site_symmetry_multiplicity
 _atom_site_fract_x
 _atom_site_fract_y
 _atom_site_fract_z
 _atom_site_occupancy
  Hf  Hf0  1  0.00000000  0.00000000  0.00000000  1
  Pd  Pd1  1  0.16670100  0.83329900  0.50000000  1
  Pd  Pd2  1  0.83329900  0.16670100  0.50000000  1
  Pd  Pd3  1  0.33918500  0.66081500  0.00000000  1
  Pd  Pd4  1  0.66081500  0.33918500  0.00000000  1
  Pd  Pd5  1  0.50000000  0.50000000  0.50000000  1
