# generated using pymatgen
data_Cr4Se3N2
_symmetry_space_group_name_H-M   'P 1'
_cell_length_a   6.07712700
_cell_length_b   10.39880600
_cell_length_c   9.20964300
_cell_angle_alpha   90.00000000
_cell_angle_beta   90.00000000
_cell_angle_gamma   90.00000000
_symmetry_Int_Tables_number   1
_chemical_formula_structural   Cr4Se3N2
_chemical_formula_sum   'Cr16 Se12 N8'
_cell_volume   582.00214342
_cell_formula_units_Z   4
loop_
 _symmetry_equiv_pos_site_id
 _symmetry_equiv_pos_as_xyz
  1  'x, y, z'
loop_
 _atom_site_type_symbol
 _atom_site_label
 _atom_site_symmetry_multiplicity
 _atom_site_fract_x
 _atom_site_fract_y
 _atom_site_fract_z
 _atom_site_occupancy
  Cr  Cr0  1  0.57935800  0.25000000  0.86692700  1
  Cr  Cr1  1  0.07935800  0.25000000  0.63307300  1
  Cr  Cr2  1  0.42064200  0.75000000  0.13307300  1
  Cr  Cr3  1  0.92064200  0.75000000  0.36692700  1
  Cr  Cr4  1  0.79521600  0.25000000  0.40049200  1
  Cr  Cr5  1  0.29521600  0.25000000  0.09950800  1
  Cr  Cr6  1  0.20478400  0.75000000  0.59950800  1
  Cr  Cr7  1  0.70478400  0.75000000  0.90049200  1
  Cr  Cr8  1  0.70891700  0.47332400  0.07263100  1
  Cr  Cr9  1  0.20891700  0.02667600  0.42736900  1
  Cr  Cr10  1  0.29108300  0.97332400  0.92736900  1
  Cr  Cr11  1  0.79108300  0.52667600  0.57263100  1
  Cr  Cr12  1  0.29108300  0.52667600  0.92736900  1
  Cr  Cr13  1  0.79108300  0.97332400  0.57263100  1
  Cr  Cr14  1  0.70891700  0.02667600  0.07263100  1
  Cr  Cr15  1  0.20891700  0.47332400  0.42736900  1
  Se  Se16  1  0.88920600  0.25000000  0.14439400  1
  Se  Se17  1  0.38920600  0.25000000  0.35560600  1
  Se  Se18  1  0.11079400  0.75000000  0.85560600  1
  Se  Se19  1  0.61079400  0.75000000  0.64439400  1
  Se  Se20  1  0.58546600  0.57034000  0.32440700  1
  Se  Se21  1  0.08546600  0.92966000  0.17559300  1
  Se  Se22  1  0.41453400  0.07034000  0.67559300  1
  Se  Se23  1  0.91453400  0.42966000  0.82440700  1
  Se  Se24  1  0.41453400  0.42966000  0.67559300  1
  Se  Se25  1  0.91453400  0.07034000  0.82440700  1
  Se  Se26  1  0.58546600  0.92966000  0.32440700  1
  Se  Se27  1  0.08546600  0.57034000  0.17559300  1
  N  N28  1  0.55361700  0.62259000  0.99515600  1
  N  N29  1  0.05361700  0.87741000  0.50484400  1
  N  N30  1  0.44638300  0.12259000  0.00484400  1
  N  N31  1  0.94638300  0.37741000  0.49515600  1
  N  N32  1  0.44638300  0.37741000  0.00484400  1
  N  N33  1  0.94638300  0.12259000  0.49515600  1
  N  N34  1  0.55361700  0.87741000  0.99515600  1
  N  N35  1  0.05361700  0.62259000  0.50484400  1
