# generated using pymatgen
data_KPdN
_symmetry_space_group_name_H-M   'P 1'
_cell_length_a   10.60840100
_cell_length_b   3.74924700
_cell_length_c   6.46000100
_cell_angle_alpha   90.00000000
_cell_angle_beta   90.00000000
_cell_angle_gamma   90.00000000
_symmetry_Int_Tables_number   1
_chemical_formula_structural   KPdN
_chemical_formula_sum   'K4 Pd4 N4'
_cell_volume   256.93695070
_cell_formula_units_Z   4
loop_
 _symmetry_equiv_pos_site_id
 _symmetry_equiv_pos_as_xyz
  1  'x, y, z'
loop_
 _atom_site_type_symbol
 _atom_site_label
 _atom_site_symmetry_multiplicity
 _atom_site_fract_x
 _atom_site_fract_y
 _atom_site_fract_z
 _atom_site_occupancy
  K  K0  1  0.66060200  0.25000000  0.08693200  1
  K  K1  1  0.16060200  0.25000000  0.41306800  1
  K  K2  1  0.33939800  0.75000000  0.91306800  1
  K  K3  1  0.83939800  0.75000000  0.58693200  1
  Pd  Pd4  1  0.55411900  0.25000000  0.61298700  1
  Pd  Pd5  1  0.05411900  0.25000000  0.88701300  1
  Pd  Pd6  1  0.44588100  0.75000000  0.38701300  1
  Pd  Pd7  1  0.94588100  0.75000000  0.11298700  1
  N  N8  1  0.92374700  0.25000000  0.19651000  1
  N  N9  1  0.42374700  0.25000000  0.30349000  1
  N  N10  1  0.07625300  0.75000000  0.80349000  1
  N  N11  1  0.57625300  0.75000000  0.69651000  1
