# generated using pymatgen
data_Cd5(SiN3)2
_symmetry_space_group_name_H-M   'P 1'
_cell_length_a   5.59425078
_cell_length_b   6.00958398
_cell_length_c   13.71581665
_cell_angle_alpha   90.00000023
_cell_angle_beta   91.16690139
_cell_angle_gamma   122.48788449
_symmetry_Int_Tables_number   1
_chemical_formula_structural   Cd5(SiN3)2
_chemical_formula_sum   'Cd10 Si4 N12'
_cell_volume   388.83834269
_cell_formula_units_Z   2
loop_
 _symmetry_equiv_pos_site_id
 _symmetry_equiv_pos_as_xyz
  1  'x, y, z'
loop_
 _atom_site_type_symbol
 _atom_site_label
 _atom_site_symmetry_multiplicity
 _atom_site_fract_x
 _atom_site_fract_y
 _atom_site_fract_z
 _atom_site_occupancy
  Cd  Cd0  1  0.00000000  0.63023700  0.75000000  1
  Cd  Cd1  1  0.00000000  0.36976300  0.25000000  1
  Cd  Cd2  1  0.13123200  0.81137300  0.98101600  1
  Cd  Cd3  1  0.86876800  0.68014100  0.51898400  1
  Cd  Cd4  1  0.86876800  0.18862700  0.01898400  1
  Cd  Cd5  1  0.13123200  0.31985900  0.48101600  1
  Cd  Cd6  1  0.28795500  0.23278900  0.69977500  1
  Cd  Cd7  1  0.71204500  0.94483400  0.80022500  1
  Cd  Cd8  1  0.71204500  0.76721100  0.30022500  1
  Cd  Cd9  1  0.28795500  0.05516600  0.19977500  1
  Si  Si10  1  0.57732300  0.97360500  0.58488800  1
  Si  Si11  1  0.42267700  0.39628200  0.91511200  1
  Si  Si12  1  0.42267700  0.02639500  0.41511200  1
  Si  Si13  1  0.57732300  0.60371800  0.08488800  1
  N  N14  1  0.39791700  0.90961700  0.69432800  1
  N  N15  1  0.60208300  0.51170000  0.80567200  1
  N  N16  1  0.60208300  0.09038300  0.30567200  1
  N  N17  1  0.39791700  0.48830000  0.19432800  1
  N  N18  1  0.61812600  0.24520900  0.51487700  1
  N  N19  1  0.38187400  0.62708300  0.98512300  1
  N  N20  1  0.38187400  0.75479100  0.48512300  1
  N  N21  1  0.61812600  0.37291700  0.01487700  1
  N  N22  1  0.90548300  0.01350400  0.60841500  1
  N  N23  1  0.09451700  0.10802000  0.89158500  1
  N  N24  1  0.09451700  0.98649600  0.39158500  1
  N  N25  1  0.90548300  0.89198000  0.10841500  1
