# generated using pymatgen
data_KMgN
_symmetry_space_group_name_H-M   'P 1'
_cell_length_a   10.25385469
_cell_length_b   3.90772570
_cell_length_c   6.70191088
_cell_angle_alpha   90.00000000
_cell_angle_beta   90.00000000
_cell_angle_gamma   90.00000000
_symmetry_Int_Tables_number   1
_chemical_formula_structural   KMgN
_chemical_formula_sum   'K4 Mg4 N4'
_cell_volume   268.54055256
_cell_formula_units_Z   4
loop_
 _symmetry_equiv_pos_site_id
 _symmetry_equiv_pos_as_xyz
  1  'x, y, z'
loop_
 _atom_site_type_symbol
 _atom_site_label
 _atom_site_symmetry_multiplicity
 _atom_site_fract_x
 _atom_site_fract_y
 _atom_site_fract_z
 _atom_site_occupancy
  K  K0  1  0.66009811  0.25000000  0.05329758  1
  K  K1  1  0.16009811  0.25000000  0.44670242  1
  K  K2  1  0.33990189  0.75000000  0.94670242  1
  K  K3  1  0.83990189  0.75000000  0.55329758  1
  Mg  Mg4  1  0.54447654  0.25000000  0.60551383  1
  Mg  Mg5  1  0.04447654  0.25000000  0.89448617  1
  Mg  Mg6  1  0.45552346  0.75000000  0.39448617  1
  Mg  Mg7  1  0.95552346  0.75000000  0.10551383  1
  N  N8  1  0.93593673  0.25000000  0.17582760  1
  N  N9  1  0.43593673  0.25000000  0.32417240  1
  N  N10  1  0.06406327  0.75000000  0.82417240  1
  N  N11  1  0.56406327  0.75000000  0.67582760  1
