# generated using pymatgen
data_Zn5(SiN3)2
_symmetry_space_group_name_H-M   'P 1'
_cell_length_a   11.26263300
_cell_length_b   11.26263300
_cell_length_c   5.65845900
_cell_angle_alpha   90.00000000
_cell_angle_beta   90.00000000
_cell_angle_gamma   90.00000000
_symmetry_Int_Tables_number   1
_chemical_formula_structural   Zn5(SiN3)2
_chemical_formula_sum   'Zn20 Si8 N24'
_cell_volume   717.75799477
_cell_formula_units_Z   4
loop_
 _symmetry_equiv_pos_site_id
 _symmetry_equiv_pos_as_xyz
  1  'x, y, z'
loop_
 _atom_site_type_symbol
 _atom_site_label
 _atom_site_symmetry_multiplicity
 _atom_site_fract_x
 _atom_site_fract_y
 _atom_site_fract_z
 _atom_site_occupancy
  Zn  Zn0  1  0.22940400  0.09776300  0.91518600  1
  Zn  Zn1  1  0.27059600  0.59776300  0.91518600  1
  Zn  Zn2  1  0.77059600  0.90223700  0.91518600  1
  Zn  Zn3  1  0.72940400  0.40223700  0.91518600  1
  Zn  Zn4  1  0.90223700  0.22940400  0.08481400  1
  Zn  Zn5  1  0.59776300  0.72940400  0.08481400  1
  Zn  Zn6  1  0.09776300  0.77059600  0.08481400  1
  Zn  Zn7  1  0.40223700  0.27059600  0.08481400  1
  Zn  Zn8  1  0.50000000  0.00000000  0.00000000  1
  Zn  Zn9  1  0.00000000  0.50000000  0.00000000  1
  Zn  Zn10  1  0.43980900  0.31347700  0.59838900  1
  Zn  Zn11  1  0.06019100  0.81347700  0.59838900  1
  Zn  Zn12  1  0.56019100  0.68652300  0.59838900  1
  Zn  Zn13  1  0.93980900  0.18652300  0.59838900  1
  Zn  Zn14  1  0.68652300  0.43980900  0.40161100  1
  Zn  Zn15  1  0.81347700  0.93980900  0.40161100  1
  Zn  Zn16  1  0.31347700  0.56019100  0.40161100  1
  Zn  Zn17  1  0.18652300  0.06019100  0.40161100  1
  Zn  Zn18  1  0.50000000  0.00000000  0.50000000  1
  Zn  Zn19  1  0.00000000  0.50000000  0.50000000  1
  Si  Si20  1  0.61940500  0.20965700  0.75348600  1
  Si  Si21  1  0.88059500  0.70965700  0.75348600  1
  Si  Si22  1  0.38059500  0.79034300  0.75348600  1
  Si  Si23  1  0.11940500  0.29034300  0.75348600  1
  Si  Si24  1  0.79034300  0.61940500  0.24651400  1
  Si  Si25  1  0.70965700  0.11940500  0.24651400  1
  Si  Si26  1  0.20965700  0.38059500  0.24651400  1
  Si  Si27  1  0.29034300  0.88059500  0.24651400  1
  N  N28  1  0.47422000  0.17766800  0.84453400  1
  N  N29  1  0.02578000  0.67766800  0.84453400  1
  N  N30  1  0.52578000  0.82233200  0.84453400  1
  N  N31  1  0.97422000  0.32233200  0.84453400  1
  N  N32  1  0.82233200  0.47422000  0.15546600  1
  N  N33  1  0.67766800  0.97422000  0.15546600  1
  N  N34  1  0.17766800  0.52578000  0.15546600  1
  N  N35  1  0.32233200  0.02578000  0.15546600  1
  N  N36  1  0.62129600  0.35932400  0.66137500  1
  N  N37  1  0.87870400  0.85932400  0.66137500  1
  N  N38  1  0.37870400  0.64067600  0.66137500  1
  N  N39  1  0.12129600  0.14067600  0.66137500  1
  N  N40  1  0.64067600  0.62129600  0.33862500  1
  N  N41  1  0.85932400  0.12129600  0.33862500  1
  N  N42  1  0.35932400  0.37870400  0.33862500  1
  N  N43  1  0.14067600  0.87870400  0.33862500  1
  N  N44  1  0.21245200  0.28754800  0.00000000  1
  N  N45  1  0.28754800  0.78754800  0.00000000  1
  N  N46  1  0.78754800  0.71245200  0.00000000  1
  N  N47  1  0.71245200  0.21245200  0.00000000  1
  N  N48  1  0.62140100  0.12140100  0.50000000  1
  N  N49  1  0.87859900  0.62140100  0.50000000  1
  N  N50  1  0.37859900  0.87859900  0.50000000  1
  N  N51  1  0.12140100  0.37859900  0.50000000  1
