# generated using pymatgen
data_Ba2CaN2
_symmetry_space_group_name_H-M   'P 1'
_cell_length_a   3.83618500
_cell_length_b   3.83607750
_cell_length_c   10.32091704
_cell_angle_alpha   90.00000037
_cell_angle_beta   89.99292499
_cell_angle_gamma   119.99904608
_symmetry_Int_Tables_number   1
_chemical_formula_structural   Ba2CaN2
_chemical_formula_sum   'Ba2 Ca1 N2'
_cell_volume   131.53459900
_cell_formula_units_Z   1
loop_
 _symmetry_equiv_pos_site_id
 _symmetry_equiv_pos_as_xyz
  1  'x, y, z'
loop_
 _atom_site_type_symbol
 _atom_site_label
 _atom_site_symmetry_multiplicity
 _atom_site_fract_x
 _atom_site_fract_y
 _atom_site_fract_z
 _atom_site_occupancy
  Ba  Ba0  1  0.66662300  0.33331200  0.22101500  1
  Ba  Ba1  1  0.33337700  0.66668800  0.77898500  1
  Ca  Ca2  1  0.00000000  0.00000000  0.50000000  1
  N  N3  1  0.66661600  0.33330800  0.64905900  1
  N  N4  1  0.33338400  0.66669200  0.35094100  1
