# generated using pymatgen
data_Ba7GeN6
_symmetry_space_group_name_H-M   'P 1'
_cell_length_a   12.63546500
_cell_length_b   7.02251800
_cell_length_c   14.58923500
_cell_angle_alpha   90.00000000
_cell_angle_beta   90.00000000
_cell_angle_gamma   90.00000000
_symmetry_Int_Tables_number   1
_chemical_formula_structural   Ba7GeN6
_chemical_formula_sum   'Ba28 Ge4 N24'
_cell_volume   1294.54338547
_cell_formula_units_Z   4
loop_
 _symmetry_equiv_pos_site_id
 _symmetry_equiv_pos_as_xyz
  1  'x, y, z'
loop_
 _atom_site_type_symbol
 _atom_site_label
 _atom_site_symmetry_multiplicity
 _atom_site_fract_x
 _atom_site_fract_y
 _atom_site_fract_z
 _atom_site_occupancy
  Ba  Ba0  1  0.03654400  0.74222100  0.98262700  1
  Ba  Ba1  1  0.46345600  0.75777900  0.48262700  1
  Ba  Ba2  1  0.53654400  0.75777900  0.01737300  1
  Ba  Ba3  1  0.96345600  0.74222100  0.51737300  1
  Ba  Ba4  1  0.96345600  0.25777900  0.01737300  1
  Ba  Ba5  1  0.53654400  0.24222100  0.51737300  1
  Ba  Ba6  1  0.46345600  0.24222100  0.98262700  1
  Ba  Ba7  1  0.03654400  0.25777900  0.48262700  1
  Ba  Ba8  1  0.21853100  0.85541100  0.62630200  1
  Ba  Ba9  1  0.28146900  0.64458900  0.12630200  1
  Ba  Ba10  1  0.71853100  0.64458900  0.37369800  1
  Ba  Ba11  1  0.78146900  0.85541100  0.87369800  1
  Ba  Ba12  1  0.78146900  0.14458900  0.37369800  1
  Ba  Ba13  1  0.71853100  0.35541100  0.87369800  1
  Ba  Ba14  1  0.28146900  0.35541100  0.62630200  1
  Ba  Ba15  1  0.21853100  0.14458900  0.12630200  1
  Ba  Ba16  1  0.28861900  0.60051600  0.87197500  1
  Ba  Ba17  1  0.21138100  0.89948400  0.37197500  1
  Ba  Ba18  1  0.78861900  0.89948400  0.12802500  1
  Ba  Ba19  1  0.71138100  0.60051600  0.62802500  1
  Ba  Ba20  1  0.71138100  0.39948400  0.12802500  1
  Ba  Ba21  1  0.78861900  0.10051600  0.62802500  1
  Ba  Ba22  1  0.21138100  0.10051600  0.87197500  1
  Ba  Ba23  1  0.28861900  0.39948400  0.37197500  1
  Ba  Ba24  1  0.00000000  0.43012700  0.75000000  1
  Ba  Ba25  1  0.50000000  0.06987300  0.25000000  1
  Ba  Ba26  1  0.00000000  0.56987300  0.25000000  1
  Ba  Ba27  1  0.50000000  0.93012700  0.75000000  1
  Ge  Ge28  1  0.00000000  0.91554700  0.75000000  1
  Ge  Ge29  1  0.50000000  0.58445300  0.25000000  1
  Ge  Ge30  1  0.00000000  0.08445300  0.25000000  1
  Ge  Ge31  1  0.50000000  0.41554700  0.75000000  1
  N  N32  1  0.11871900  0.75314700  0.78943000  1
  N  N33  1  0.38128100  0.74685300  0.28943000  1
  N  N34  1  0.61871900  0.74685300  0.21057000  1
  N  N35  1  0.88128100  0.75314700  0.71057000  1
  N  N36  1  0.88128100  0.24685400  0.21057000  1
  N  N37  1  0.61871900  0.25314600  0.71057000  1
  N  N38  1  0.38128100  0.25314600  0.78943000  1
  N  N39  1  0.11871900  0.24685400  0.28943000  1
  N  N40  1  0.16401200  0.60533900  0.49880100  1
  N  N41  1  0.33598800  0.89466100  0.99880100  1
  N  N42  1  0.66401200  0.89466100  0.50119900  1
  N  N43  1  0.83598800  0.60533900  0.00119900  1
  N  N44  1  0.83598800  0.39466100  0.50119900  1
  N  N45  1  0.66401200  0.10533900  0.00119900  1
  N  N46  1  0.33598800  0.10533900  0.49880100  1
  N  N47  1  0.16401200  0.39466100  0.99880100  1
  N  N48  1  0.45984900  0.57345300  0.64614200  1
  N  N49  1  0.04015100  0.92654700  0.14614200  1
  N  N50  1  0.95984900  0.92654700  0.35385800  1
  N  N51  1  0.54015100  0.57345300  0.85385800  1
  N  N52  1  0.54015100  0.42654700  0.35385800  1
  N  N53  1  0.95984900  0.07345300  0.85385800  1
  N  N54  1  0.04015100  0.07345300  0.64614200  1
  N  N55  1  0.45984900  0.42654700  0.14614200  1
