# generated using pymatgen
data_Sr3In3N5
_symmetry_space_group_name_H-M   'P 1'
_cell_length_a   6.53636146
_cell_length_b   7.54398847
_cell_length_c   9.20705191
_cell_angle_alpha   106.27709731
_cell_angle_beta   107.57470176
_cell_angle_gamma   95.16033742
_symmetry_Int_Tables_number   1
_chemical_formula_structural   Sr3In3N5
_chemical_formula_sum   'Sr6 In6 N10'
_cell_volume   407.83283037
_cell_formula_units_Z   2
loop_
 _symmetry_equiv_pos_site_id
 _symmetry_equiv_pos_as_xyz
  1  'x, y, z'
loop_
 _atom_site_type_symbol
 _atom_site_label
 _atom_site_symmetry_multiplicity
 _atom_site_fract_x
 _atom_site_fract_y
 _atom_site_fract_z
 _atom_site_occupancy
  Sr  Sr0  1  0.80622100  0.42095300  0.60059400  1
  Sr  Sr1  1  0.19377900  0.57904700  0.39940600  1
  Sr  Sr2  1  0.67166600  0.86671800  0.88739500  1
  Sr  Sr3  1  0.32833400  0.13328200  0.11260500  1
  Sr  Sr4  1  0.65286900  0.63151700  0.19240800  1
  Sr  Sr5  1  0.34713100  0.36848300  0.80759200  1
  In  In6  1  0.89912800  0.30883700  0.96493500  1
  In  In7  1  0.10087200  0.69116300  0.03506500  1
  In  In8  1  0.72427100  0.94830300  0.56160300  1
  In  In9  1  0.27572900  0.05169700  0.43839700  1
  In  In10  1  0.15141400  0.85488000  0.71927300  1
  In  In11  1  0.84858600  0.14512000  0.28072700  1
  N  N12  1  0.98933200  0.09176700  0.79580100  1
  N  N13  1  0.01066800  0.90823300  0.20419900  1
  N  N14  1  0.86308200  0.69444000  0.49782000  1
  N  N15  1  0.13691800  0.30556000  0.50218000  1
  N  N16  1  0.75522500  0.53049800  0.87666800  1
  N  N17  1  0.24477500  0.46950200  0.12333200  1
  N  N18  1  0.40826300  0.90934900  0.61363800  1
  N  N19  1  0.59173700  0.09065100  0.38636200  1
  N  N20  1  0.31862500  0.75960700  0.91648900  1
  N  N21  1  0.68137500  0.24039300  0.08351100  1
