# generated using pymatgen
data_Li3OsN2
_symmetry_space_group_name_H-M   'P 1'
_cell_length_a   8.47050400
_cell_length_b   9.78089453
_cell_length_c   9.78089551
_cell_angle_alpha   89.99999672
_cell_angle_beta   125.26438499
_cell_angle_gamma   54.73561094
_symmetry_Int_Tables_number   1
_chemical_formula_structural   Li3OsN2
_chemical_formula_sum   'Li24 Os8 N16'
_cell_volume   467.84915738
_cell_formula_units_Z   8
loop_
 _symmetry_equiv_pos_site_id
 _symmetry_equiv_pos_as_xyz
  1  'x, y, z'
loop_
 _atom_site_type_symbol
 _atom_site_label
 _atom_site_symmetry_multiplicity
 _atom_site_fract_x
 _atom_site_fract_y
 _atom_site_fract_z
 _atom_site_occupancy
  Li  Li0  1  0.22255800  0.04198200  0.98755300  1
  Li  Li1  1  0.77744200  0.76454000  0.51244700  1
  Li  Li2  1  0.77744200  0.45801800  0.76499400  1
  Li  Li3  1  0.22255800  0.73546000  0.73500600  1
  Li  Li4  1  0.24745300  0.76499400  0.27698700  1
  Li  Li5  1  0.75254700  0.73500600  0.02953400  1
  Li  Li6  1  0.24745300  0.98755300  0.47046600  1
  Li  Li7  1  0.75254700  0.51244700  0.22301300  1
  Li  Li8  1  0.69347800  0.02953400  0.73546000  1
  Li  Li9  1  0.69347800  0.27698700  0.45801800  1
  Li  Li10  1  0.30652200  0.22301300  0.76454000  1
  Li  Li11  1  0.30652200  0.47046600  0.04198200  1
  Li  Li12  1  0.77744200  0.95801800  0.01244700  1
  Li  Li13  1  0.22255800  0.23546000  0.48755300  1
  Li  Li14  1  0.22255800  0.54198200  0.23500600  1
  Li  Li15  1  0.77744200  0.26454000  0.26499400  1
  Li  Li16  1  0.75254700  0.23500600  0.72301300  1
  Li  Li17  1  0.24745300  0.26499400  0.97046600  1
  Li  Li18  1  0.75254700  0.01244700  0.52953400  1
  Li  Li19  1  0.24745300  0.48755300  0.77698700  1
  Li  Li20  1  0.30652200  0.97046600  0.26454000  1
  Li  Li21  1  0.30652200  0.72301300  0.54198200  1
  Li  Li22  1  0.69347800  0.77698700  0.23546000  1
  Li  Li23  1  0.69347800  0.52953400  0.95801800  1
  Os  Os24  1  0.22796000  0.00000000  0.72796000  1
  Os  Os25  1  0.77204000  0.72796000  0.77204000  1
  Os  Os26  1  0.77204000  0.50000000  0.50000000  1
  Os  Os27  1  0.22796000  0.77204000  0.00000000  1
  Os  Os28  1  0.77204000  0.00000000  0.27204000  1
  Os  Os29  1  0.22796000  0.27204000  0.22796000  1
  Os  Os30  1  0.22796000  0.50000000  0.50000000  1
  Os  Os31  1  0.77204000  0.22796000  0.00000000  1
  N  N32  1  0.00000000  0.00000000  0.50000000  1
  N  N33  1  0.00000000  0.50000000  0.00000000  1
  N  N34  1  0.00000000  0.50000000  0.50000000  1
  N  N35  1  0.00000000  0.00000000  0.00000000  1
  N  N36  1  0.50000000  0.97964200  0.75000000  1
  N  N37  1  0.50000000  0.52035800  0.25000000  1
  N  N38  1  0.00000000  0.25000000  0.72964200  1
  N  N39  1  0.00000000  0.75000000  0.77035800  1
  N  N40  1  0.54071700  0.72964200  0.52035800  1
  N  N41  1  0.45928300  0.77035800  0.97964200  1
  N  N42  1  0.50000000  0.02035800  0.25000000  1
  N  N43  1  0.50000000  0.47964200  0.75000000  1
  N  N44  1  0.00000000  0.75000000  0.27035800  1
  N  N45  1  0.00000000  0.25000000  0.22964200  1
  N  N46  1  0.45928300  0.27035800  0.47964200  1
  N  N47  1  0.54071700  0.22964200  0.02035800  1
