# generated using pymatgen
data_Ba4RuN4
_symmetry_space_group_name_H-M   'P 1'
_cell_length_a   7.02839689
_cell_length_b   7.08947344
_cell_length_c   9.27457914
_cell_angle_alpha   74.16824152
_cell_angle_beta   82.43992488
_cell_angle_gamma   64.17221363
_symmetry_Int_Tables_number   1
_chemical_formula_structural   Ba4RuN4
_chemical_formula_sum   'Ba8 Ru2 N8'
_cell_volume   400.14500379
_cell_formula_units_Z   2
loop_
 _symmetry_equiv_pos_site_id
 _symmetry_equiv_pos_as_xyz
  1  'x, y, z'
loop_
 _atom_site_type_symbol
 _atom_site_label
 _atom_site_symmetry_multiplicity
 _atom_site_fract_x
 _atom_site_fract_y
 _atom_site_fract_z
 _atom_site_occupancy
  Ba  Ba0  1  0.82004700  0.61150800  0.13158500  1
  Ba  Ba1  1  0.17995300  0.38849200  0.86841500  1
  Ba  Ba2  1  0.70953500  0.21820600  0.96232900  1
  Ba  Ba3  1  0.29046500  0.78179400  0.03767100  1
  Ba  Ba4  1  0.73240700  0.52262100  0.56163500  1
  Ba  Ba5  1  0.26759300  0.47737900  0.43836500  1
  Ba  Ba6  1  0.22662000  0.93445100  0.63037800  1
  Ba  Ba7  1  0.77338000  0.06554900  0.36962200  1
  Ru  Ru8  1  0.75736200  0.86258400  0.74919100  1
  Ru  Ru9  1  0.24263800  0.13741600  0.25080900  1
  N  N10  1  0.97059600  0.72659200  0.60248200  1
  N  N11  1  0.02940400  0.27340800  0.39751800  1
  N  N12  1  0.96937000  0.83410200  0.88290000  1
  N  N13  1  0.03063000  0.16589800  0.11710000  1
  N  N14  1  0.67188700  0.63506000  0.84926500  1
  N  N15  1  0.32811300  0.36494000  0.15073500  1
  N  N16  1  0.44520400  0.86502500  0.33158200  1
  N  N17  1  0.55479600  0.13497500  0.66841800  1
