# generated using pymatgen
data_Cd(PbN)2
_symmetry_space_group_name_H-M   'P 1'
_cell_length_a   3.50130129
_cell_length_b   3.50185441
_cell_length_c   9.32675059
_cell_angle_alpha   90.00000038
_cell_angle_beta   89.94024735
_cell_angle_gamma   120.00523002
_symmetry_Int_Tables_number   1
_chemical_formula_structural   Cd(PbN)2
_chemical_formula_sum   'Cd1 Pb2 N2'
_cell_volume   99.02967649
_cell_formula_units_Z   1
loop_
 _symmetry_equiv_pos_site_id
 _symmetry_equiv_pos_as_xyz
  1  'x, y, z'
loop_
 _atom_site_type_symbol
 _atom_site_label
 _atom_site_symmetry_multiplicity
 _atom_site_fract_x
 _atom_site_fract_y
 _atom_site_fract_z
 _atom_site_occupancy
  Cd  Cd0  1  0.00000000  0.00000000  0.50000000  1
  Pb  Pb1  1  0.66838200  0.33419100  0.20060900  1
  Pb  Pb2  1  0.33161800  0.66580900  0.79939100  1
  N  N3  1  0.66539300  0.33269700  0.66077400  1
  N  N4  1  0.33460700  0.66730300  0.33922600  1
