# generated using pymatgen
data_Zn5NiN4
_symmetry_space_group_name_H-M   'P 1'
_cell_length_a   8.49860400
_cell_length_b   5.92397500
_cell_length_c   5.35896700
_cell_angle_alpha   90.00000000
_cell_angle_beta   90.00000000
_cell_angle_gamma   90.00000000
_symmetry_Int_Tables_number   1
_chemical_formula_structural   Zn5NiN4
_chemical_formula_sum   'Zn10 Ni2 N8'
_cell_volume   269.79996758
_cell_formula_units_Z   2
loop_
 _symmetry_equiv_pos_site_id
 _symmetry_equiv_pos_as_xyz
  1  'x, y, z'
loop_
 _atom_site_type_symbol
 _atom_site_label
 _atom_site_symmetry_multiplicity
 _atom_site_fract_x
 _atom_site_fract_y
 _atom_site_fract_z
 _atom_site_occupancy
  Zn  Zn0  1  0.57382100  0.51067600  0.28880400  1
  Zn  Zn1  1  0.92617900  0.51067600  0.28880400  1
  Zn  Zn2  1  0.57382100  0.98932400  0.28880400  1
  Zn  Zn3  1  0.92617900  0.98932400  0.28880400  1
  Zn  Zn4  1  0.42617900  0.48932400  0.71119600  1
  Zn  Zn5  1  0.07382100  0.48932400  0.71119600  1
  Zn  Zn6  1  0.42617900  0.01067700  0.71119600  1
  Zn  Zn7  1  0.07382100  0.01067700  0.71119600  1
  Zn  Zn8  1  0.75000000  0.75000000  0.77667800  1
  Zn  Zn9  1  0.25000000  0.25000000  0.22332200  1
  Ni  Ni10  1  0.75000000  0.25000000  0.87853600  1
  Ni  Ni11  1  0.25000000  0.75000000  0.12146400  1
  N  N12  1  0.75000000  0.99919300  0.05406400  1
  N  N13  1  0.75000000  0.50080700  0.05406400  1
  N  N14  1  0.25000000  0.00080700  0.94593600  1
  N  N15  1  0.25000000  0.49919300  0.94593600  1
  N  N16  1  0.54882400  0.75000000  0.56655600  1
  N  N17  1  0.95117600  0.75000000  0.56655600  1
  N  N18  1  0.45117600  0.25000000  0.43344400  1
  N  N19  1  0.04882400  0.25000000  0.43344400  1
