# generated using pymatgen
data_Cr2Cd3N4
_symmetry_space_group_name_H-M   'P 1'
_cell_length_a   8.09383042
_cell_length_b   8.73006690
_cell_length_c   5.84704082
_cell_angle_alpha   89.99999434
_cell_angle_beta   112.26617395
_cell_angle_gamma   122.63625476
_symmetry_Int_Tables_number   1
_chemical_formula_structural   Cr2Cd3N4
_chemical_formula_sum   'Cr4 Cd6 N8'
_cell_volume   310.70937993
_cell_formula_units_Z   2
loop_
 _symmetry_equiv_pos_site_id
 _symmetry_equiv_pos_as_xyz
  1  'x, y, z'
loop_
 _atom_site_type_symbol
 _atom_site_label
 _atom_site_symmetry_multiplicity
 _atom_site_fract_x
 _atom_site_fract_y
 _atom_site_fract_z
 _atom_site_occupancy
  Cr  Cr0  1  0.51289200  0.14815500  0.52180900  1
  Cr  Cr1  1  0.48710800  0.63526400  0.97819100  1
  Cr  Cr2  1  0.48710800  0.85184500  0.47819100  1
  Cr  Cr3  1  0.51289200  0.36473600  0.02180900  1
  Cd  Cd4  1  0.98711700  0.82388500  0.97816300  1
  Cd  Cd5  1  0.01288300  0.83676800  0.52183700  1
  Cd  Cd6  1  0.01288300  0.17611500  0.02183700  1
  Cd  Cd7  1  0.98711700  0.16323200  0.47816300  1
  Cd  Cd8  1  0.00000000  0.51369900  0.75000000  1
  Cd  Cd9  1  0.00000000  0.48630100  0.25000000  1
  N  N10  1  0.27818800  0.89950300  0.38639400  1
  N  N11  1  0.72181200  0.62131500  0.11360600  1
  N  N12  1  0.72181200  0.10049700  0.61360600  1
  N  N13  1  0.27818800  0.37868500  0.88639400  1
  N  N14  1  0.52331300  0.25162300  0.78928600  1
  N  N15  1  0.47668700  0.72831000  0.71071400  1
  N  N16  1  0.47668700  0.74837700  0.21071400  1
  N  N17  1  0.52331300  0.27169000  0.28928600  1
