# generated using pymatgen
data_Mg(GeN)4
_symmetry_space_group_name_H-M   'P 1'
_cell_length_a   5.87327900
_cell_length_b   11.43265700
_cell_length_c   7.15585500
_cell_angle_alpha   90.00000000
_cell_angle_beta   90.00000000
_cell_angle_gamma   90.00000000
_symmetry_Int_Tables_number   1
_chemical_formula_structural   Mg(GeN)4
_chemical_formula_sum   'Mg4 Ge16 N16'
_cell_volume   480.49551431
_cell_formula_units_Z   4
loop_
 _symmetry_equiv_pos_site_id
 _symmetry_equiv_pos_as_xyz
  1  'x, y, z'
loop_
 _atom_site_type_symbol
 _atom_site_label
 _atom_site_symmetry_multiplicity
 _atom_site_fract_x
 _atom_site_fract_y
 _atom_site_fract_z
 _atom_site_occupancy
  Mg  Mg0  1  0.82840900  0.25000000  0.75000000  1
  Mg  Mg1  1  0.67159100  0.75000000  0.75000000  1
  Mg  Mg2  1  0.17159100  0.75000000  0.25000000  1
  Mg  Mg3  1  0.32840900  0.25000000  0.25000000  1
  Ge  Ge4  1  0.32508200  0.35060200  0.66405500  1
  Ge  Ge5  1  0.17491800  0.64939800  0.66405500  1
  Ge  Ge6  1  0.32508200  0.14939800  0.83594500  1
  Ge  Ge7  1  0.17491800  0.85060200  0.83594500  1
  Ge  Ge8  1  0.67491800  0.64939800  0.33594500  1
  Ge  Ge9  1  0.82508200  0.35060200  0.33594500  1
  Ge  Ge10  1  0.67491800  0.85060200  0.16405500  1
  Ge  Ge11  1  0.82508200  0.14939800  0.16405500  1
  Ge  Ge12  1  0.75000000  0.50000000  0.08993900  1
  Ge  Ge13  1  0.75000000  0.00000000  0.41006100  1
  Ge  Ge14  1  0.25000000  0.50000000  0.91006100  1
  Ge  Ge15  1  0.25000000  0.00000000  0.58993900  1
  Ge  Ge16  1  0.75000000  0.50000000  0.70590100  1
  Ge  Ge17  1  0.75000000  0.00000000  0.79409900  1
  Ge  Ge18  1  0.25000000  0.50000000  0.29409900  1
  Ge  Ge19  1  0.25000000  0.00000000  0.20590100  1
  N  N20  1  0.64025000  0.36713600  0.56236500  1
  N  N21  1  0.85975000  0.63286400  0.56236500  1
  N  N22  1  0.64025000  0.13286400  0.93763500  1
  N  N23  1  0.85975000  0.86713600  0.93763500  1
  N  N24  1  0.35975000  0.63286400  0.43763500  1
  N  N25  1  0.14025000  0.36713600  0.43763500  1
  N  N26  1  0.35975000  0.86713600  0.06236500  1
  N  N27  1  0.14025000  0.13286400  0.06236500  1
  N  N28  1  0.91732000  0.08766600  0.61806400  1
  N  N29  1  0.58268000  0.91233400  0.61806400  1
  N  N30  1  0.91732000  0.41233400  0.88193600  1
  N  N31  1  0.58268000  0.58766600  0.88193600  1
  N  N32  1  0.08268000  0.91233400  0.38193600  1
  N  N33  1  0.41732000  0.08766600  0.38193600  1
  N  N34  1  0.08268000  0.58766600  0.11806400  1
  N  N35  1  0.41732000  0.41233400  0.11806400  1
