# generated using pymatgen
data_ReMoN3
_symmetry_space_group_name_H-M   'P 1'
_cell_length_a   9.32923065
_cell_length_b   5.60379126
_cell_length_c   8.55934789
_cell_angle_alpha   109.22202066
_cell_angle_beta   90.60848190
_cell_angle_gamma   122.61525483
_symmetry_Int_Tables_number   1
_chemical_formula_structural   ReMoN3
_chemical_formula_sum   'Re4 Mo4 N12'
_cell_volume   345.80568942
_cell_formula_units_Z   4
loop_
 _symmetry_equiv_pos_site_id
 _symmetry_equiv_pos_as_xyz
  1  'x, y, z'
loop_
 _atom_site_type_symbol
 _atom_site_label
 _atom_site_symmetry_multiplicity
 _atom_site_fract_x
 _atom_site_fract_y
 _atom_site_fract_z
 _atom_site_occupancy
  Re  Re0  1  0.35139000  0.34514300  0.04677600  1
  Re  Re1  1  0.64861000  0.65485700  0.95322400  1
  Re  Re2  1  0.65625900  0.63430100  0.56772300  1
  Re  Re3  1  0.34374100  0.36569900  0.43227700  1
  Mo  Mo4  1  0.07048200  0.33107000  0.56527500  1
  Mo  Mo5  1  0.92951800  0.66893000  0.43472500  1
  Mo  Mo6  1  0.74007500  0.04535800  0.30254600  1
  Mo  Mo7  1  0.25992500  0.95464200  0.69745300  1
  N  N8  1  0.81792700  0.92154200  0.46291400  1
  N  N9  1  0.18207300  0.07845800  0.53708600  1
  N  N10  1  0.91161500  0.38661400  0.24228800  1
  N  N11  1  0.08838500  0.61338600  0.75771200  1
  N  N12  1  0.70718100  0.33140100  0.47804600  1
  N  N13  1  0.29281900  0.66859900  0.52195400  1
  N  N14  1  0.70795600  0.84295900  0.79532500  1
  N  N15  1  0.29204400  0.15704100  0.20467500  1
  N  N16  1  0.82734300  0.78344100  0.10468700  1
  N  N17  1  0.17265700  0.21655900  0.89531300  1
  N  N18  1  0.47256900  0.20767400  0.89049600  1
  N  N19  1  0.52743100  0.79232600  0.10950400  1
