# generated using pymatgen
data_Zn2RuN3
_symmetry_space_group_name_H-M   'P 1'
_cell_length_a   5.69144705
_cell_length_b   5.65020514
_cell_length_c   5.34656100
_cell_angle_alpha   90.00000000
_cell_angle_beta   90.00000000
_cell_angle_gamma   119.76058564
_symmetry_Int_Tables_number   1
_chemical_formula_structural   Zn2RuN3
_chemical_formula_sum   'Zn4 Ru2 N6'
_cell_volume   149.25701812
_cell_formula_units_Z   2
loop_
 _symmetry_equiv_pos_site_id
 _symmetry_equiv_pos_as_xyz
  1  'x, y, z'
loop_
 _atom_site_type_symbol
 _atom_site_label
 _atom_site_symmetry_multiplicity
 _atom_site_fract_x
 _atom_site_fract_y
 _atom_site_fract_z
 _atom_site_occupancy
  Zn  Zn0  1  0.33549000  0.82787100  0.47404200  1
  Zn  Zn1  1  0.66451000  0.49238200  0.47404200  1
  Zn  Zn2  1  0.66451000  0.17212900  0.97404200  1
  Zn  Zn3  1  0.33549000  0.50761800  0.97404200  1
  Ru  Ru4  1  0.00000000  0.83268000  0.96239500  1
  Ru  Ru5  1  0.00000000  0.16732000  0.46239500  1
  N  N6  1  0.31906700  0.84002000  0.85421900  1
  N  N7  1  0.68093300  0.52095200  0.85421900  1
  N  N8  1  0.68093300  0.15998000  0.35421900  1
  N  N9  1  0.31906700  0.47904800  0.35421900  1
  N  N10  1  0.00000000  0.85151000  0.32546300  1
  N  N11  1  0.00000000  0.14849000  0.82546300  1
