# generated using pymatgen
data_Sr3Ti3N5
_symmetry_space_group_name_H-M   'P 1'
_cell_length_a   5.97162598
_cell_length_b   7.95057763
_cell_length_c   8.70384614
_cell_angle_alpha   109.80010596
_cell_angle_beta   103.93880581
_cell_angle_gamma   101.53716988
_symmetry_Int_Tables_number   1
_chemical_formula_structural   Sr3Ti3N5
_chemical_formula_sum   'Sr6 Ti6 N10'
_cell_volume   358.96955475
_cell_formula_units_Z   2
loop_
 _symmetry_equiv_pos_site_id
 _symmetry_equiv_pos_as_xyz
  1  'x, y, z'
loop_
 _atom_site_type_symbol
 _atom_site_label
 _atom_site_symmetry_multiplicity
 _atom_site_fract_x
 _atom_site_fract_y
 _atom_site_fract_z
 _atom_site_occupancy
  Sr  Sr0  1  0.74983300  0.43391200  0.59681400  1
  Sr  Sr1  1  0.25016700  0.56608800  0.40318600  1
  Sr  Sr2  1  0.65335500  0.84592700  0.88490300  1
  Sr  Sr3  1  0.34664500  0.15407300  0.11509700  1
  Sr  Sr4  1  0.68552000  0.68028500  0.22460700  1
  Sr  Sr5  1  0.31448000  0.31971500  0.77539300  1
  Ti  Ti6  1  0.90202800  0.31146800  0.97064900  1
  Ti  Ti7  1  0.09797200  0.68853200  0.02935100  1
  Ti  Ti8  1  0.70558100  0.98695300  0.59530600  1
  Ti  Ti9  1  0.29441900  0.01304700  0.40469400  1
  Ti  Ti10  1  0.09348600  0.87231900  0.69512600  1
  Ti  Ti11  1  0.90651400  0.12768100  0.30487400  1
  N  N12  1  0.98980100  0.09303600  0.81966900  1
  N  N13  1  0.01019900  0.90696400  0.18033100  1
  N  N14  1  0.74343400  0.73286600  0.54067600  1
  N  N15  1  0.25656600  0.26713400  0.45932400  1
  N  N16  1  0.77486000  0.50985000  0.91738400  1
  N  N17  1  0.22514000  0.49015000  0.08261600  1
  N  N18  1  0.37456700  0.94314800  0.61806600  1
  N  N19  1  0.62543300  0.05685200  0.38193400  1
  N  N20  1  0.19065400  0.75308100  0.85026000  1
  N  N21  1  0.80934600  0.24691900  0.14974000  1
