# generated using pymatgen
data_Ba4PtN4
_symmetry_space_group_name_H-M   'P 1'
_cell_length_a   6.60121369
_cell_length_b   6.50598462
_cell_length_c   9.97154297
_cell_angle_alpha   69.63377951
_cell_angle_beta   80.00756080
_cell_angle_gamma   76.89269647
_symmetry_Int_Tables_number   1
_chemical_formula_structural   Ba4PtN4
_chemical_formula_sum   'Ba8 Pt2 N8'
_cell_volume   388.91669861
_cell_formula_units_Z   2
loop_
 _symmetry_equiv_pos_site_id
 _symmetry_equiv_pos_as_xyz
  1  'x, y, z'
loop_
 _atom_site_type_symbol
 _atom_site_label
 _atom_site_symmetry_multiplicity
 _atom_site_fract_x
 _atom_site_fract_y
 _atom_site_fract_z
 _atom_site_occupancy
  Ba  Ba0  1  0.78372800  0.59630100  0.14875400  1
  Ba  Ba1  1  0.21627200  0.40369900  0.85124600  1
  Ba  Ba2  1  0.70345400  0.19017600  0.99454400  1
  Ba  Ba3  1  0.29654600  0.80982400  0.00545600  1
  Ba  Ba4  1  0.76050700  0.37845900  0.61929900  1
  Ba  Ba5  1  0.23949300  0.62154100  0.38070100  1
  Ba  Ba6  1  0.24435500  0.97699200  0.62251300  1
  Ba  Ba7  1  0.75564500  0.02300800  0.37748700  1
  Pt  Pt8  1  0.74737500  0.81318400  0.75548000  1
  Pt  Pt9  1  0.25262500  0.18681600  0.24452000  1
  N  N10  1  0.98129600  0.66475000  0.63731300  1
  N  N11  1  0.01870400  0.33525000  0.36268700  1
  N  N12  1  0.95147100  0.93035400  0.83555000  1
  N  N13  1  0.04852900  0.06964600  0.16445000  1
  N  N14  1  0.52435600  0.63271800  0.77389100  1
  N  N15  1  0.47564400  0.36728200  0.22610900  1
  N  N16  1  0.49870000  0.92003200  0.20802800  1
  N  N17  1  0.50130000  0.07996800  0.79197200  1
