# generated using pymatgen
data_NaPtN
_symmetry_space_group_name_H-M   'P 1'
_cell_length_a   3.06788900
_cell_length_b   3.06788025
_cell_length_c   10.68219300
_cell_angle_alpha   90.00000000
_cell_angle_beta   90.00000000
_cell_angle_gamma   120.00008352
_symmetry_Int_Tables_number   1
_chemical_formula_structural   NaPtN
_chemical_formula_sum   'Na2 Pt2 N2'
_cell_volume   87.07003779
_cell_formula_units_Z   2
loop_
 _symmetry_equiv_pos_site_id
 _symmetry_equiv_pos_as_xyz
  1  'x, y, z'
loop_
 _atom_site_type_symbol
 _atom_site_label
 _atom_site_symmetry_multiplicity
 _atom_site_fract_x
 _atom_site_fract_y
 _atom_site_fract_z
 _atom_site_occupancy
  Na  Na0  1  0.66667500  0.33335000  0.75372200  1
  Na  Na1  1  0.33332500  0.66665000  0.25372200  1
  Pt  Pt2  1  0.99999300  0.99998700  0.49752400  1
  Pt  Pt3  1  0.00000700  0.00001300  0.99752400  1
  N  N4  1  0.33332700  0.66665500  0.59339400  1
  N  N5  1  0.66667300  0.33334500  0.09339400  1
