# generated using pymatgen
data_K2SnN2
_symmetry_space_group_name_H-M   'P 1'
_cell_length_a   3.46071501
_cell_length_b   3.46026740
_cell_length_c   10.66103905
_cell_angle_alpha   90.00354972
_cell_angle_beta   90.00755551
_cell_angle_gamma   120.00941940
_symmetry_Int_Tables_number   1
_chemical_formula_structural   K2SnN2
_chemical_formula_sum   'K2 Sn1 N2'
_cell_volume   110.55144563
_cell_formula_units_Z   1
loop_
 _symmetry_equiv_pos_site_id
 _symmetry_equiv_pos_as_xyz
  1  'x, y, z'
loop_
 _atom_site_type_symbol
 _atom_site_label
 _atom_site_symmetry_multiplicity
 _atom_site_fract_x
 _atom_site_fract_y
 _atom_site_fract_z
 _atom_site_occupancy
  K  K0  1  0.66666600  0.33335200  0.27139100  1
  K  K1  1  0.33333400  0.66664800  0.72860900  1
  Sn  Sn2  1  0.00000000  0.00000000  0.00000000  1
  N  N3  1  0.66661200  0.33325600  0.89162900  1
  N  N4  1  0.33338800  0.66674400  0.10837100  1
