# generated using pymatgen
data_CsMgN
_symmetry_space_group_name_H-M   'P 1'
_cell_length_a   10.84719000
_cell_length_b   3.93904900
_cell_length_c   7.47435200
_cell_angle_alpha   90.00000000
_cell_angle_beta   90.00000000
_cell_angle_gamma   90.00000000
_symmetry_Int_Tables_number   1
_chemical_formula_structural   CsMgN
_chemical_formula_sum   'Cs4 Mg4 N4'
_cell_volume   319.36121910
_cell_formula_units_Z   4
loop_
 _symmetry_equiv_pos_site_id
 _symmetry_equiv_pos_as_xyz
  1  'x, y, z'
loop_
 _atom_site_type_symbol
 _atom_site_label
 _atom_site_symmetry_multiplicity
 _atom_site_fract_x
 _atom_site_fract_y
 _atom_site_fract_z
 _atom_site_occupancy
  Cs  Cs0  1  0.67058800  0.25000000  0.02457900  1
  Cs  Cs1  1  0.17058800  0.25000000  0.47542100  1
  Cs  Cs2  1  0.32941200  0.75000000  0.97542100  1
  Cs  Cs3  1  0.82941200  0.75000000  0.52457900  1
  Mg  Mg4  1  0.51832500  0.25000000  0.61023000  1
  Mg  Mg5  1  0.01832500  0.25000000  0.88977000  1
  Mg  Mg6  1  0.48167500  0.75000000  0.38977000  1
  Mg  Mg7  1  0.98167500  0.75000000  0.11023000  1
  N  N8  1  0.96812400  0.25000000  0.17283000  1
  N  N9  1  0.46812400  0.25000000  0.32717000  1
  N  N10  1  0.03187600  0.75000000  0.82717000  1
  N  N11  1  0.53187600  0.75000000  0.67283000  1
