# generated using pymatgen
data_Ba7ZrN6
_symmetry_space_group_name_H-M   'P 1'
_cell_length_a   12.49340500
_cell_length_b   7.32672100
_cell_length_c   15.03471000
_cell_angle_alpha   90.00000000
_cell_angle_beta   90.00000000
_cell_angle_gamma   90.00000000
_symmetry_Int_Tables_number   1
_chemical_formula_structural   Ba7ZrN6
_chemical_formula_sum   'Ba28 Zr4 N24'
_cell_volume   1376.21259552
_cell_formula_units_Z   4
loop_
 _symmetry_equiv_pos_site_id
 _symmetry_equiv_pos_as_xyz
  1  'x, y, z'
loop_
 _atom_site_type_symbol
 _atom_site_label
 _atom_site_symmetry_multiplicity
 _atom_site_fract_x
 _atom_site_fract_y
 _atom_site_fract_z
 _atom_site_occupancy
  Ba  Ba0  1  0.00557600  0.74116800  0.97344700  1
  Ba  Ba1  1  0.49442400  0.75883200  0.47344700  1
  Ba  Ba2  1  0.50557600  0.75883200  0.02655300  1
  Ba  Ba3  1  0.99442400  0.74116800  0.52655300  1
  Ba  Ba4  1  0.99442400  0.25883200  0.02655300  1
  Ba  Ba5  1  0.50557600  0.24116800  0.52655300  1
  Ba  Ba6  1  0.49442400  0.24116800  0.97344700  1
  Ba  Ba7  1  0.00557600  0.25883200  0.47344700  1
  Ba  Ba8  1  0.26953800  0.72888900  0.62710400  1
  Ba  Ba9  1  0.23046200  0.77111100  0.12710400  1
  Ba  Ba10  1  0.76953800  0.77111100  0.37289600  1
  Ba  Ba11  1  0.73046200  0.72888900  0.87289600  1
  Ba  Ba12  1  0.73046200  0.27111100  0.37289600  1
  Ba  Ba13  1  0.76953800  0.22888900  0.87289600  1
  Ba  Ba14  1  0.23046200  0.22888900  0.62710400  1
  Ba  Ba15  1  0.26953800  0.27111100  0.12710400  1
  Ba  Ba16  1  0.27987400  0.57207800  0.87747000  1
  Ba  Ba17  1  0.22012600  0.92792200  0.37747000  1
  Ba  Ba18  1  0.77987400  0.92792200  0.12253000  1
  Ba  Ba19  1  0.72012600  0.57207800  0.62253000  1
  Ba  Ba20  1  0.72012600  0.42792200  0.12253000  1
  Ba  Ba21  1  0.77987400  0.07207800  0.62253000  1
  Ba  Ba22  1  0.22012600  0.07207800  0.87747000  1
  Ba  Ba23  1  0.27987400  0.42792200  0.37747000  1
  Ba  Ba24  1  0.00000000  0.44195000  0.75000000  1
  Ba  Ba25  1  0.50000000  0.05805000  0.25000000  1
  Ba  Ba26  1  0.00000000  0.55805000  0.25000000  1
  Ba  Ba27  1  0.50000000  0.94195000  0.75000000  1
  Zr  Zr28  1  0.00000000  0.93395100  0.75000000  1
  Zr  Zr29  1  0.50000000  0.56604900  0.25000000  1
  Zr  Zr30  1  0.00000000  0.06604900  0.25000000  1
  Zr  Zr31  1  0.50000000  0.43395100  0.75000000  1
  N  N32  1  0.13232700  0.75815600  0.78040500  1
  N  N33  1  0.36767300  0.74184400  0.28040500  1
  N  N34  1  0.63232700  0.74184400  0.21959500  1
  N  N35  1  0.86767300  0.75815600  0.71959500  1
  N  N36  1  0.86767300  0.24184400  0.21959500  1
  N  N37  1  0.63232700  0.25815600  0.71959500  1
  N  N38  1  0.36767300  0.25815600  0.78040500  1
  N  N39  1  0.13232700  0.24184400  0.28040500  1
  N  N40  1  0.16441000  0.51665900  0.51735700  1
  N  N41  1  0.33559000  0.98334100  0.01735700  1
  N  N42  1  0.66441000  0.98334100  0.48264300  1
  N  N43  1  0.83559000  0.51665900  0.98264300  1
  N  N44  1  0.83559000  0.48334100  0.48264300  1
  N  N45  1  0.66441000  0.01665900  0.98264300  1
  N  N46  1  0.33559000  0.01665900  0.51735700  1
  N  N47  1  0.16441000  0.48334100  0.01735700  1
  N  N48  1  0.48174800  0.60818500  0.63964800  1
  N  N49  1  0.01825200  0.89181500  0.13964800  1
  N  N50  1  0.98174800  0.89181500  0.36035200  1
  N  N51  1  0.51825200  0.60818500  0.86035200  1
  N  N52  1  0.51825200  0.39181500  0.36035200  1
  N  N53  1  0.98174800  0.10818500  0.86035200  1
  N  N54  1  0.01825200  0.10818500  0.63964800  1
  N  N55  1  0.48174800  0.39181500  0.13964800  1
