# generated using pymatgen
data_SrRhN2
_symmetry_space_group_name_H-M   'P 1'
_cell_length_a   6.08802180
_cell_length_b   8.35707000
_cell_length_c   5.32945896
_cell_angle_alpha   90.00000000
_cell_angle_beta   110.66380197
_cell_angle_gamma   90.00000000
_symmetry_Int_Tables_number   1
_chemical_formula_structural   SrRhN2
_chemical_formula_sum   'Sr4 Rh4 N8'
_cell_volume   253.70834272
_cell_formula_units_Z   4
loop_
 _symmetry_equiv_pos_site_id
 _symmetry_equiv_pos_as_xyz
  1  'x, y, z'
loop_
 _atom_site_type_symbol
 _atom_site_label
 _atom_site_symmetry_multiplicity
 _atom_site_fract_x
 _atom_site_fract_y
 _atom_site_fract_z
 _atom_site_occupancy
  Sr  Sr0  1  0.33402100  0.89685800  0.65449900  1
  Sr  Sr1  1  0.66597900  0.39685800  0.84550100  1
  Sr  Sr2  1  0.66597900  0.10314200  0.34550100  1
  Sr  Sr3  1  0.33402100  0.60314200  0.15449900  1
  Rh  Rh4  1  0.10650600  0.35822600  0.57021200  1
  Rh  Rh5  1  0.89349400  0.85822600  0.92978800  1
  Rh  Rh6  1  0.89349400  0.64177400  0.42978800  1
  Rh  Rh7  1  0.10650600  0.14177400  0.07021200  1
  N  N8  1  0.24196000  0.91536900  0.09174300  1
  N  N9  1  0.75804000  0.41536900  0.40825700  1
  N  N10  1  0.75804000  0.08463100  0.90825700  1
  N  N11  1  0.24196000  0.58463100  0.59174300  1
  N  N12  1  0.23289600  0.32231700  0.95913700  1
  N  N13  1  0.76710400  0.82231700  0.54086300  1
  N  N14  1  0.76710400  0.67768300  0.04086300  1
  N  N15  1  0.23289600  0.17768300  0.45913700  1
