# generated using pymatgen
data_SrReN2
_symmetry_space_group_name_H-M   'P 1'
_cell_length_a   6.92622416
_cell_length_b   7.41009000
_cell_length_c   5.13795924
_cell_angle_alpha   90.00000000
_cell_angle_beta   111.78027324
_cell_angle_gamma   90.00000000
_symmetry_Int_Tables_number   1
_chemical_formula_structural   SrReN2
_chemical_formula_sum   'Sr4 Re4 N8'
_cell_volume   244.87572523
_cell_formula_units_Z   4
loop_
 _symmetry_equiv_pos_site_id
 _symmetry_equiv_pos_as_xyz
  1  'x, y, z'
loop_
 _atom_site_type_symbol
 _atom_site_label
 _atom_site_symmetry_multiplicity
 _atom_site_fract_x
 _atom_site_fract_y
 _atom_site_fract_z
 _atom_site_occupancy
  Sr  Sr0  1  0.33039600  0.91124000  0.66521600  1
  Sr  Sr1  1  0.66960400  0.41124000  0.83478400  1
  Sr  Sr2  1  0.66960400  0.08876000  0.33478400  1
  Sr  Sr3  1  0.33039600  0.58876000  0.16521600  1
  Re  Re4  1  0.14046500  0.34347400  0.57026700  1
  Re  Re5  1  0.85953500  0.84347400  0.92973300  1
  Re  Re6  1  0.85953500  0.65652600  0.42973300  1
  Re  Re7  1  0.14046500  0.15652600  0.07026700  1
  N  N8  1  0.17993100  0.90416800  0.08998000  1
  N  N9  1  0.82006900  0.40416800  0.41002000  1
  N  N10  1  0.82006900  0.09583200  0.91002000  1
  N  N11  1  0.17993100  0.59583200  0.58998000  1
  N  N12  1  0.34606500  0.24990900  0.92295800  1
  N  N13  1  0.65393500  0.74990900  0.57704200  1
  N  N14  1  0.65393500  0.75009100  0.07704200  1
  N  N15  1  0.34606500  0.25009100  0.42295800  1
