# generated using pymatgen
data_Mn4GeN4
_symmetry_space_group_name_H-M   'P 1'
_cell_length_a   4.71926100
_cell_length_b   12.01316700
_cell_length_c   7.08470800
_cell_angle_alpha   90.00000000
_cell_angle_beta   90.00000000
_cell_angle_gamma   90.00000000
_symmetry_Int_Tables_number   1
_chemical_formula_structural   Mn4GeN4
_chemical_formula_sum   'Mn16 Ge4 N16'
_cell_volume   401.65526713
_cell_formula_units_Z   4
loop_
 _symmetry_equiv_pos_site_id
 _symmetry_equiv_pos_as_xyz
  1  'x, y, z'
loop_
 _atom_site_type_symbol
 _atom_site_label
 _atom_site_symmetry_multiplicity
 _atom_site_fract_x
 _atom_site_fract_y
 _atom_site_fract_z
 _atom_site_occupancy
  Mn  Mn0  1  0.95674500  0.31400800  0.60777900  1
  Mn  Mn1  1  0.54325500  0.68599200  0.60777900  1
  Mn  Mn2  1  0.95674500  0.18599200  0.89222100  1
  Mn  Mn3  1  0.54325500  0.81400800  0.89222100  1
  Mn  Mn4  1  0.04325500  0.68599200  0.39222100  1
  Mn  Mn5  1  0.45674500  0.31400800  0.39222100  1
  Mn  Mn6  1  0.04325500  0.81400800  0.10777900  1
  Mn  Mn7  1  0.45674500  0.18599200  0.10777900  1
  Mn  Mn8  1  0.75000000  0.50000000  0.25322100  1
  Mn  Mn9  1  0.75000000  0.00000000  0.24677900  1
  Mn  Mn10  1  0.25000000  0.50000000  0.74677900  1
  Mn  Mn11  1  0.25000000  0.00000000  0.75322100  1
  Mn  Mn12  1  0.48551500  0.25000000  0.75000000  1
  Mn  Mn13  1  0.01448500  0.75000000  0.75000000  1
  Mn  Mn14  1  0.51448500  0.75000000  0.25000000  1
  Mn  Mn15  1  0.98551500  0.25000000  0.25000000  1
  Ge  Ge16  1  0.75000000  0.50000000  0.89052900  1
  Ge  Ge17  1  0.75000000  0.00000000  0.60947100  1
  Ge  Ge18  1  0.25000000  0.50000000  0.10947100  1
  Ge  Ge19  1  0.25000000  0.00000000  0.39052900  1
  N  N20  1  0.32651200  0.37587500  0.62378400  1
  N  N21  1  0.17348800  0.62412500  0.62378400  1
  N  N22  1  0.32651200  0.12412500  0.87621600  1
  N  N23  1  0.17348800  0.87587500  0.87621600  1
  N  N24  1  0.67348800  0.62412500  0.37621600  1
  N  N25  1  0.82651200  0.37587500  0.37621600  1
  N  N26  1  0.67348800  0.87587500  0.12378400  1
  N  N27  1  0.82651200  0.12412500  0.12378400  1
  N  N28  1  0.78371300  0.17140400  0.64712100  1
  N  N29  1  0.71628700  0.82859600  0.64712100  1
  N  N30  1  0.78371300  0.32859600  0.85287900  1
  N  N31  1  0.71628700  0.67140400  0.85287900  1
  N  N32  1  0.21628700  0.82859600  0.35287900  1
  N  N33  1  0.28371300  0.17140400  0.35287900  1
  N  N34  1  0.21628700  0.67140400  0.14712100  1
  N  N35  1  0.28371300  0.32859600  0.14712100  1
