# generated using pymatgen
data_EuC2
_symmetry_space_group_name_H-M   'P 1'
_cell_length_a   4.02683103
_cell_length_b   4.02683103
_cell_length_c   7.41705378
_cell_angle_alpha   76.34300803
_cell_angle_beta   76.34300803
_cell_angle_gamma   64.66385565
_symmetry_Int_Tables_number   1
_chemical_formula_structural   EuC2
_chemical_formula_sum   'Eu2 C4'
_cell_volume   104.37175557
_cell_formula_units_Z   2
loop_
 _symmetry_equiv_pos_site_id
 _symmetry_equiv_pos_as_xyz
  1  'x, y, z'
loop_
 _atom_site_type_symbol
 _atom_site_label
 _atom_site_symmetry_multiplicity
 _atom_site_fract_x
 _atom_site_fract_y
 _atom_site_fract_z
 _atom_site_occupancy
  Eu  Eu0  1  0.18377200  0.81622800  0.75000000  1
  Eu  Eu1  1  0.81622800  0.18377200  0.25000000  1
  C  C2  1  0.85765000  0.57384700  0.55866100  1
  C  C3  1  0.42615300  0.14235000  0.94133900  1
  C  C4  1  0.14235000  0.42615300  0.44133900  1
  C  C5  1  0.57384700  0.85765000  0.05866100  1
