# generated using pymatgen
data_Sr3Sc3N5
_symmetry_space_group_name_H-M   'P 1'
_cell_length_a   6.22965294
_cell_length_b   7.81454905
_cell_length_c   9.15485205
_cell_angle_alpha   108.25120141
_cell_angle_beta   105.62299954
_cell_angle_gamma   98.36071590
_symmetry_Int_Tables_number   1
_chemical_formula_structural   Sr3Sc3N5
_chemical_formula_sum   'Sr6 Sc6 N10'
_cell_volume   394.54772590
_cell_formula_units_Z   2
loop_
 _symmetry_equiv_pos_site_id
 _symmetry_equiv_pos_as_xyz
  1  'x, y, z'
loop_
 _atom_site_type_symbol
 _atom_site_label
 _atom_site_symmetry_multiplicity
 _atom_site_fract_x
 _atom_site_fract_y
 _atom_site_fract_z
 _atom_site_occupancy
  Sr  Sr0  1  0.77826700  0.43318800  0.59787400  1
  Sr  Sr1  1  0.22173300  0.56681200  0.40212600  1
  Sr  Sr2  1  0.67573200  0.85389700  0.89118800  1
  Sr  Sr3  1  0.32426800  0.14610300  0.10881200  1
  Sr  Sr4  1  0.67708900  0.62454700  0.20245500  1
  Sr  Sr5  1  0.32291100  0.37545300  0.79754500  1
  Sc  Sc6  1  0.89551500  0.30761400  0.96543100  1
  Sc  Sc7  1  0.10448500  0.69238600  0.03456900  1
  Sc  Sc8  1  0.71769000  0.96057000  0.57399500  1
  Sc  Sc9  1  0.28231000  0.03943000  0.42600500  1
  Sc  Sc10  1  0.13851500  0.86802100  0.70887400  1
  Sc  Sc11  1  0.86148500  0.13197900  0.29112600  1
  N  N12  1  0.99130600  0.09082200  0.80327000  1
  N  N13  1  0.00869400  0.90917800  0.19673000  1
  N  N14  1  0.82584300  0.71049400  0.51400400  1
  N  N15  1  0.17415700  0.28950600  0.48599600  1
  N  N16  1  0.76930500  0.51361800  0.88849900  1
  N  N17  1  0.23069500  0.48638200  0.11150100  1
  N  N18  1  0.39740000  0.92058200  0.60744500  1
  N  N19  1  0.60260000  0.07941800  0.39255500  1
  N  N20  1  0.26768200  0.75626200  0.88199400  1
  N  N21  1  0.73231800  0.24373800  0.11800600  1
