# generated using pymatgen
data_PbC7N10
_symmetry_space_group_name_H-M   'P 1'
_cell_length_a   5.87313214
_cell_length_b   5.70645200
_cell_length_c   8.18294052
_cell_angle_alpha   90.00000000
_cell_angle_beta   106.42498810
_cell_angle_gamma   90.00000000
_symmetry_Int_Tables_number   1
_chemical_formula_structural   PbC7N10
_chemical_formula_sum   'Pb2 C14 N20'
_cell_volume   263.05727418
_cell_formula_units_Z   2
loop_
 _symmetry_equiv_pos_site_id
 _symmetry_equiv_pos_as_xyz
  1  'x, y, z'
loop_
 _atom_site_type_symbol
 _atom_site_label
 _atom_site_symmetry_multiplicity
 _atom_site_fract_x
 _atom_site_fract_y
 _atom_site_fract_z
 _atom_site_occupancy
  Pb  Pb0  1  0.96321600  0.10872100  0.67463500  1
  Pb  Pb1  1  0.96321600  0.89127900  0.17463500  1
  C  C2  1  0.53935000  0.97472300  0.82728700  1
  C  C3  1  0.53935000  0.02527700  0.32728600  1
  C  C4  1  0.36019600  0.02930500  0.02102400  1
  C  C5  1  0.36019600  0.97069500  0.52102400  1
  C  C6  1  0.11051900  0.39061100  0.07367300  1
  C  C7  1  0.11051900  0.60938900  0.57367300  1
  C  C8  1  0.66280800  0.36753500  0.98936400  1
  C  C9  1  0.66280800  0.63246500  0.48936400  1
  C  C10  1  0.84063500  0.62919100  0.80880100  1
  C  C11  1  0.84063500  0.37080900  0.30880100  1
  C  C12  1  0.29704100  0.62146600  0.88631100  1
  C  C13  1  0.29704100  0.37853400  0.38631100  1
  C  C14  1  0.48340300  0.37720200  0.68638100  1
  C  C15  1  0.48340300  0.62279800  0.18638100  1
  N  N16  1  0.74744800  0.84445000  0.83435600  1
  N  N17  1  0.74744800  0.15555000  0.33435600  1
  N  N18  1  0.57168300  0.12807500  0.97724400  1
  N  N19  1  0.57168300  0.87192500  0.47724400  1
  N  N20  1  0.32028200  0.87343900  0.86831500  1
  N  N21  1  0.32028200  0.12656100  0.36831500  1
  N  N22  1  0.15655200  0.16768000  0.01343400  1
  N  N23  1  0.15655200  0.83232000  0.51343400  1
  N  N24  1  0.28541900  0.50528300  0.72549900  1
  N  N25  1  0.28541900  0.49471700  0.22549900  1
  N  N26  1  0.44267500  0.11699400  0.67514300  1
  N  N27  1  0.44267500  0.88300600  0.17514300  1
  N  N28  1  0.88247200  0.39720000  0.12422900  1
  N  N29  1  0.88247200  0.60280000  0.62422900  1
  N  N30  1  0.07973100  0.58780900  0.93921900  1
  N  N31  1  0.07973100  0.41219100  0.43921900  1
  N  N32  1  0.70219300  0.41391700  0.82221700  1
  N  N33  1  0.70219300  0.58608300  0.32221700  1
  N  N34  1  0.49667700  0.53940300  0.02217100  1
  N  N35  1  0.49667700  0.46059700  0.52217100  1
