# generated using pymatgen
data_Sr4SnN4
_symmetry_space_group_name_H-M   'P 1'
_cell_length_a   13.09728000
_cell_length_b   3.83735300
_cell_length_c   17.16561900
_cell_angle_alpha   90.00000000
_cell_angle_beta   90.00000000
_cell_angle_gamma   90.00000000
_symmetry_Int_Tables_number   1
_chemical_formula_structural   Sr4SnN4
_chemical_formula_sum   'Sr16 Sn4 N16'
_cell_volume   862.72490045
_cell_formula_units_Z   4
loop_
 _symmetry_equiv_pos_site_id
 _symmetry_equiv_pos_as_xyz
  1  'x, y, z'
loop_
 _atom_site_type_symbol
 _atom_site_label
 _atom_site_symmetry_multiplicity
 _atom_site_fract_x
 _atom_site_fract_y
 _atom_site_fract_z
 _atom_site_occupancy
  Sr  Sr0  1  0.54906600  0.25000000  0.90281200  1
  Sr  Sr1  1  0.04906600  0.25000000  0.59718800  1
  Sr  Sr2  1  0.45093400  0.75000000  0.09718800  1
  Sr  Sr3  1  0.95093400  0.75000000  0.40281200  1
  Sr  Sr4  1  0.62539300  0.25000000  0.46706900  1
  Sr  Sr5  1  0.12539300  0.25000000  0.03293100  1
  Sr  Sr6  1  0.37460700  0.75000000  0.53293100  1
  Sr  Sr7  1  0.87460700  0.75000000  0.96706900  1
  Sr  Sr8  1  0.82659800  0.25000000  0.75373900  1
  Sr  Sr9  1  0.32659800  0.25000000  0.74626100  1
  Sr  Sr10  1  0.17340200  0.75000000  0.24626100  1
  Sr  Sr11  1  0.67340200  0.75000000  0.25373900  1
  Sr  Sr12  1  0.91629100  0.25000000  0.16561300  1
  Sr  Sr13  1  0.41629100  0.25000000  0.33438700  1
  Sr  Sr14  1  0.08370900  0.75000000  0.83438700  1
  Sr  Sr15  1  0.58370900  0.75000000  0.66561300  1
  Sn  Sn16  1  0.68296800  0.25000000  0.07534000  1
  Sn  Sn17  1  0.18296800  0.25000000  0.42466000  1
  Sn  Sn18  1  0.31703200  0.75000000  0.92466000  1
  Sn  Sn19  1  0.81703200  0.75000000  0.57534000  1
  N  N20  1  0.29334300  0.25000000  0.20547000  1
  N  N21  1  0.79334300  0.25000000  0.29453000  1
  N  N22  1  0.70665700  0.75000000  0.79453000  1
  N  N23  1  0.20665700  0.75000000  0.70547000  1
  N  N24  1  0.00846600  0.25000000  0.92201000  1
  N  N25  1  0.50846600  0.25000000  0.57799000  1
  N  N26  1  0.99153400  0.75000000  0.07799000  1
  N  N27  1  0.49153400  0.75000000  0.42201000  1
  N  N28  1  0.88418100  0.25000000  0.32004100  1
  N  N29  1  0.38418100  0.25000000  0.17995900  1
  N  N30  1  0.11581900  0.75000000  0.67995900  1
  N  N31  1  0.61581900  0.75000000  0.82004100  1
  N  N32  1  0.94488000  0.25000000  0.86207800  1
  N  N33  1  0.44488000  0.25000000  0.63792200  1
  N  N34  1  0.05512000  0.75000000  0.13792200  1
  N  N35  1  0.55512000  0.75000000  0.36207800  1
