# generated using pymatgen
data_TiCoN2
_symmetry_space_group_name_H-M   'P 1'
_cell_length_a   2.94688000
_cell_length_b   2.94685840
_cell_length_c   9.42023600
_cell_angle_alpha   90.00000000
_cell_angle_beta   90.00000000
_cell_angle_gamma   120.00024247
_symmetry_Int_Tables_number   1
_chemical_formula_structural   TiCoN2
_chemical_formula_sum   'Ti2 Co2 N4'
_cell_volume   70.84563102
_cell_formula_units_Z   2
loop_
 _symmetry_equiv_pos_site_id
 _symmetry_equiv_pos_as_xyz
  1  'x, y, z'
loop_
 _atom_site_type_symbol
 _atom_site_label
 _atom_site_symmetry_multiplicity
 _atom_site_fract_x
 _atom_site_fract_y
 _atom_site_fract_z
 _atom_site_occupancy
  Ti  Ti0  1  0.66678600  0.33357200  0.25000000  1
  Ti  Ti1  1  0.33321400  0.66642800  0.75000000  1
  Co  Co2  1  0.00000000  0.00000000  0.00000000  1
  Co  Co3  1  0.00000000  0.00000000  0.50000000  1
  N  N4  1  0.66657900  0.33315800  0.88327500  1
  N  N5  1  0.33342100  0.66684200  0.11672500  1
  N  N6  1  0.33342100  0.66684200  0.38327500  1
  N  N7  1  0.66657900  0.33315800  0.61672500  1
