# generated using pymatgen
data_Mg5CdN4
_symmetry_space_group_name_H-M   'P 1'
_cell_length_a   7.53758100
_cell_length_b   6.81929000
_cell_length_c   5.25499900
_cell_angle_alpha   90.00000000
_cell_angle_beta   90.00000000
_cell_angle_gamma   90.00000000
_symmetry_Int_Tables_number   1
_chemical_formula_structural   Mg5CdN4
_chemical_formula_sum   'Mg10 Cd2 N8'
_cell_volume   270.11194472
_cell_formula_units_Z   2
loop_
 _symmetry_equiv_pos_site_id
 _symmetry_equiv_pos_as_xyz
  1  'x, y, z'
loop_
 _atom_site_type_symbol
 _atom_site_label
 _atom_site_symmetry_multiplicity
 _atom_site_fract_x
 _atom_site_fract_y
 _atom_site_fract_z
 _atom_site_occupancy
  Mg  Mg0  1  0.55731900  0.50145200  0.25514100  1
  Mg  Mg1  1  0.94268100  0.50145200  0.25514100  1
  Mg  Mg2  1  0.55731900  0.99854800  0.25514100  1
  Mg  Mg3  1  0.94268100  0.99854800  0.25514100  1
  Mg  Mg4  1  0.44268100  0.49854800  0.74485900  1
  Mg  Mg5  1  0.05731900  0.49854800  0.74485900  1
  Mg  Mg6  1  0.44268100  0.00145200  0.74485900  1
  Mg  Mg7  1  0.05731900  0.00145200  0.74485900  1
  Mg  Mg8  1  0.75000000  0.75000000  0.74084700  1
  Mg  Mg9  1  0.25000000  0.25000000  0.25915300  1
  Cd  Cd10  1  0.75000000  0.25000000  0.72368700  1
  Cd  Cd11  1  0.25000000  0.75000000  0.27631300  1
  N  N12  1  0.75000000  0.98786800  0.97769600  1
  N  N13  1  0.75000000  0.51213200  0.97769600  1
  N  N14  1  0.25000000  0.01213200  0.02230400  1
  N  N15  1  0.25000000  0.48786800  0.02230400  1
  N  N16  1  0.51515700  0.75000000  0.51429600  1
  N  N17  1  0.98484300  0.75000000  0.51429600  1
  N  N18  1  0.48484300  0.25000000  0.48570400  1
  N  N19  1  0.01515700  0.25000000  0.48570400  1
