# generated using pymatgen
data_Zn3(GaN2)2
_symmetry_space_group_name_H-M   'P 1'
_cell_length_a   5.35060800
_cell_length_b   10.83914000
_cell_length_c   8.02397600
_cell_angle_alpha   90.00000000
_cell_angle_beta   90.00000000
_cell_angle_gamma   90.00000000
_symmetry_Int_Tables_number   1
_chemical_formula_structural   Zn3(GaN2)2
_chemical_formula_sum   'Zn12 Ga8 N16'
_cell_volume   465.35842541
_cell_formula_units_Z   4
loop_
 _symmetry_equiv_pos_site_id
 _symmetry_equiv_pos_as_xyz
  1  'x, y, z'
loop_
 _atom_site_type_symbol
 _atom_site_label
 _atom_site_symmetry_multiplicity
 _atom_site_fract_x
 _atom_site_fract_y
 _atom_site_fract_z
 _atom_site_occupancy
  Zn  Zn0  1  0.72643600  0.14629300  0.37553100  1
  Zn  Zn1  1  0.77356400  0.85370700  0.37553100  1
  Zn  Zn2  1  0.72643600  0.35370700  0.12446900  1
  Zn  Zn3  1  0.77356400  0.64629300  0.12446900  1
  Zn  Zn4  1  0.27356400  0.85370700  0.62446900  1
  Zn  Zn5  1  0.22643600  0.14629300  0.62446900  1
  Zn  Zn6  1  0.27356400  0.64629300  0.87553100  1
  Zn  Zn7  1  0.22643600  0.35370700  0.87553100  1
  Zn  Zn8  1  0.75000000  0.50000000  0.44487100  1
  Zn  Zn9  1  0.75000000  0.00000000  0.05512900  1
  Zn  Zn10  1  0.25000000  0.50000000  0.55512900  1
  Zn  Zn11  1  0.25000000  0.00000000  0.94487100  1
  Ga  Ga12  1  0.75000000  0.50000000  0.79851800  1
  Ga  Ga13  1  0.75000000  0.00000000  0.70148200  1
  Ga  Ga14  1  0.25000000  0.50000000  0.20148200  1
  Ga  Ga15  1  0.25000000  0.00000000  0.29851800  1
  Ga  Ga16  1  0.77781900  0.25000000  0.75000000  1
  Ga  Ga17  1  0.72218100  0.75000000  0.75000000  1
  Ga  Ga18  1  0.22218100  0.75000000  0.25000000  1
  Ga  Ga19  1  0.27781900  0.25000000  0.25000000  1
  N  N20  1  0.99599800  0.39592600  0.67170200  1
  N  N21  1  0.50400200  0.60407400  0.67170200  1
  N  N22  1  0.99599800  0.10407400  0.82829800  1
  N  N23  1  0.50400200  0.89592600  0.82829800  1
  N  N24  1  0.00400200  0.60407400  0.32829800  1
  N  N25  1  0.49599800  0.39592600  0.32829800  1
  N  N26  1  0.00400200  0.89592600  0.17170200  1
  N  N27  1  0.49599800  0.10407400  0.17170200  1
  N  N28  1  0.58917600  0.35652300  0.89538500  1
  N  N29  1  0.91082400  0.64347700  0.89538500  1
  N  N30  1  0.58917600  0.14347700  0.60461500  1
  N  N31  1  0.91082400  0.85652300  0.60461500  1
  N  N32  1  0.41082400  0.64347700  0.10461500  1
  N  N33  1  0.08917600  0.35652300  0.10461500  1
  N  N34  1  0.41082400  0.85652300  0.39538500  1
  N  N35  1  0.08917600  0.14347700  0.39538500  1
