# generated using pymatgen
data_SrCa5N4
_symmetry_space_group_name_H-M   'P 1'
_cell_length_a   8.75717800
_cell_length_b   7.69861100
_cell_length_c   5.95390500
_cell_angle_alpha   90.00000000
_cell_angle_beta   90.00000000
_cell_angle_gamma   90.00000000
_symmetry_Int_Tables_number   1
_chemical_formula_structural   SrCa5N4
_chemical_formula_sum   'Sr2 Ca10 N8'
_cell_volume   401.40100364
_cell_formula_units_Z   2
loop_
 _symmetry_equiv_pos_site_id
 _symmetry_equiv_pos_as_xyz
  1  'x, y, z'
loop_
 _atom_site_type_symbol
 _atom_site_label
 _atom_site_symmetry_multiplicity
 _atom_site_fract_x
 _atom_site_fract_y
 _atom_site_fract_z
 _atom_site_occupancy
  Sr  Sr0  1  0.75000000  0.25000000  0.72755000  1
  Sr  Sr1  1  0.25000000  0.75000000  0.27245000  1
  Ca  Ca2  1  0.56195600  0.50092000  0.25342700  1
  Ca  Ca3  1  0.93804400  0.50092000  0.25342700  1
  Ca  Ca4  1  0.56195600  0.99908000  0.25342700  1
  Ca  Ca5  1  0.93804400  0.99908000  0.25342700  1
  Ca  Ca6  1  0.43804400  0.49908000  0.74657300  1
  Ca  Ca7  1  0.06195600  0.49908000  0.74657300  1
  Ca  Ca8  1  0.43804400  0.00092000  0.74657300  1
  Ca  Ca9  1  0.06195600  0.00092000  0.74657300  1
  Ca  Ca10  1  0.75000000  0.75000000  0.74242000  1
  Ca  Ca11  1  0.25000000  0.25000000  0.25758000  1
  N  N12  1  0.75000000  0.99489700  0.97503400  1
  N  N13  1  0.75000000  0.50510300  0.97503400  1
  N  N14  1  0.25000000  0.00510300  0.02496600  1
  N  N15  1  0.25000000  0.49489700  0.02496600  1
  N  N16  1  0.50723500  0.75000000  0.50932200  1
  N  N17  1  0.99276500  0.75000000  0.50932200  1
  N  N18  1  0.49276500  0.25000000  0.49067800  1
  N  N19  1  0.00723500  0.25000000  0.49067800  1
