# generated using pymatgen
data_Y2Mn3N4
_symmetry_space_group_name_H-M   'P 1'
_cell_length_a   6.14438330
_cell_length_b   7.11926181
_cell_length_c   6.52837110
_cell_angle_alpha   90.00000039
_cell_angle_beta   77.77175551
_cell_angle_gamma   125.40348603
_symmetry_Int_Tables_number   1
_chemical_formula_structural   Y2Mn3N4
_chemical_formula_sum   'Y4 Mn6 N8'
_cell_volume   224.77272019
_cell_formula_units_Z   2
loop_
 _symmetry_equiv_pos_site_id
 _symmetry_equiv_pos_as_xyz
  1  'x, y, z'
loop_
 _atom_site_type_symbol
 _atom_site_label
 _atom_site_symmetry_multiplicity
 _atom_site_fract_x
 _atom_site_fract_y
 _atom_site_fract_z
 _atom_site_occupancy
  Y  Y0  1  0.58363600  0.18851500  0.74611200  1
  Y  Y1  1  0.41636400  0.60488000  0.75388800  1
  Y  Y2  1  0.41636400  0.81148500  0.25388800  1
  Y  Y3  1  0.58363600  0.39512000  0.24611200  1
  Mn  Mn4  1  0.05529700  0.89743800  0.08117100  1
  Mn  Mn5  1  0.94470300  0.84214000  0.41882800  1
  Mn  Mn6  1  0.94470300  0.10256200  0.91882900  1
  Mn  Mn7  1  0.05529700  0.15786000  0.58117100  1
  Mn  Mn8  1  0.00000000  0.75755200  0.75000000  1
  Mn  Mn9  1  0.00000000  0.24244800  0.25000000  1
  N  N10  1  0.25699100  0.03046800  0.52626000  1
  N  N11  1  0.74300900  0.77347700  0.97374000  1
  N  N12  1  0.74300900  0.96953200  0.47374000  1
  N  N13  1  0.25699100  0.22652300  0.02626000  1
  N  N14  1  0.76460200  0.20780500  0.07177300  1
  N  N15  1  0.23539800  0.44320300  0.42822700  1
  N  N16  1  0.23539800  0.79219500  0.92822700  1
  N  N17  1  0.76460200  0.55679700  0.57177300  1
