# generated using pymatgen
data_Sr4SnN4
_symmetry_space_group_name_H-M   'P 1'
_cell_length_a   6.47230646
_cell_length_b   6.53397410
_cell_length_c   9.63897472
_cell_angle_alpha   71.38092844
_cell_angle_beta   79.42108475
_cell_angle_gamma   67.89975121
_symmetry_Int_Tables_number   1
_chemical_formula_structural   Sr4SnN4
_chemical_formula_sum   'Sr8 Sn2 N8'
_cell_volume   356.97790213
_cell_formula_units_Z   2
loop_
 _symmetry_equiv_pos_site_id
 _symmetry_equiv_pos_as_xyz
  1  'x, y, z'
loop_
 _atom_site_type_symbol
 _atom_site_label
 _atom_site_symmetry_multiplicity
 _atom_site_fract_x
 _atom_site_fract_y
 _atom_site_fract_z
 _atom_site_occupancy
  Sr  Sr0  1  0.77060600  0.57718500  0.17611900  1
  Sr  Sr1  1  0.22939400  0.42281500  0.82388100  1
  Sr  Sr2  1  0.74155300  0.23016200  0.98125200  1
  Sr  Sr3  1  0.25844700  0.76983800  0.01874800  1
  Sr  Sr4  1  0.72903000  0.48842200  0.56948500  1
  Sr  Sr5  1  0.27097000  0.51157800  0.43051500  1
  Sr  Sr6  1  0.23215300  0.95668400  0.60616200  1
  Sr  Sr7  1  0.76784700  0.04331600  0.39383800  1
  Sn  Sn8  1  0.71506400  0.84826200  0.75674700  1
  Sn  Sn9  1  0.28493600  0.15173800  0.24325300  1
  N  N10  1  0.97968900  0.70015000  0.60845000  1
  N  N11  1  0.02031100  0.29985000  0.39155000  1
  N  N12  1  0.89229400  0.83266400  0.92619600  1
  N  N13  1  0.10770600  0.16733600  0.07380400  1
  N  N14  1  0.51366500  0.62988500  0.80569600  1
  N  N15  1  0.48633500  0.37011500  0.19430400  1
  N  N16  1  0.49353100  0.82075600  0.36711800  1
  N  N17  1  0.50646900  0.17924400  0.63288200  1
