# generated using pymatgen
data_Ba(OsN2)2
_symmetry_space_group_name_H-M   'P 1'
_cell_length_a   11.19183641
_cell_length_b   11.19183641
_cell_length_c   11.19183641
_cell_angle_alpha   90.00000000
_cell_angle_beta   90.00000000
_cell_angle_gamma   90.00000000
_symmetry_Int_Tables_number   1
_chemical_formula_structural   Ba(OsN2)2
_chemical_formula_sum   'Ba12 Os24 N48'
_cell_volume   1401.85811651
_cell_formula_units_Z   12
loop_
 _symmetry_equiv_pos_site_id
 _symmetry_equiv_pos_as_xyz
  1  'x, y, z'
loop_
 _atom_site_type_symbol
 _atom_site_label
 _atom_site_symmetry_multiplicity
 _atom_site_fract_x
 _atom_site_fract_y
 _atom_site_fract_z
 _atom_site_occupancy
  Ba  Ba0  1  0.50000000  0.50000000  0.00000000  1
  Ba  Ba1  1  0.50000000  -0.00000000  0.50000000  1
  Ba  Ba2  1  -0.00000000  0.50000000  0.50000000  1
  Ba  Ba3  1  -0.00000000  -0.00000000  0.00000000  1
  Ba  Ba4  1  0.13670132  0.86329868  0.36329868  1
  Ba  Ba5  1  0.86329868  0.36329868  0.13670132  1
  Ba  Ba6  1  0.36329868  0.13670132  0.86329868  1
  Ba  Ba7  1  0.63670132  0.63670132  0.63670132  1
  Ba  Ba8  1  0.86329868  0.13670132  0.63670132  1
  Ba  Ba9  1  0.13670132  0.63670132  0.86329868  1
  Ba  Ba10  1  0.63670132  0.86329868  0.13670132  1
  Ba  Ba11  1  0.36329868  0.36329868  0.36329868  1
  Os  Os12  1  0.40189069  0.68474828  0.34680339  1
  Os  Os13  1  0.59810931  0.18474828  0.15319661  1
  Os  Os14  1  0.09810931  0.31525172  0.84680339  1
  Os  Os15  1  0.90189069  0.81525172  0.65319661  1
  Os  Os16  1  0.34680339  0.40189069  0.68474828  1
  Os  Os17  1  0.15319661  0.59810931  0.18474828  1
  Os  Os18  1  0.84680339  0.09810931  0.31525172  1
  Os  Os19  1  0.65319661  0.90189069  0.81525172  1
  Os  Os20  1  0.68474828  0.34680339  0.40189069  1
  Os  Os21  1  0.18474828  0.15319661  0.59810931  1
  Os  Os22  1  0.31525172  0.84680339  0.09810931  1
  Os  Os23  1  0.81525172  0.65319661  0.90189069  1
  Os  Os24  1  0.59810931  0.31525172  0.65319661  1
  Os  Os25  1  0.40189069  0.81525172  0.84680339  1
  Os  Os26  1  0.90189069  0.68474828  0.15319661  1
  Os  Os27  1  0.09810931  0.18474828  0.34680339  1
  Os  Os28  1  0.65319661  0.59810931  0.31525172  1
  Os  Os29  1  0.84680339  0.40189069  0.81525172  1
  Os  Os30  1  0.15319661  0.90189069  0.68474828  1
  Os  Os31  1  0.34680339  0.09810931  0.18474828  1
  Os  Os32  1  0.31525172  0.65319661  0.59810931  1
  Os  Os33  1  0.81525172  0.84680339  0.40189069  1
  Os  Os34  1  0.68474828  0.15319661  0.90189069  1
  Os  Os35  1  0.18474828  0.34680339  0.09810931  1
  N  N36  1  0.38502448  0.81700768  0.25329270  1
  N  N37  1  0.61497552  0.31700768  0.24670730  1
  N  N38  1  0.11497552  0.18299232  0.75329270  1
  N  N39  1  0.88502448  0.68299232  0.74670730  1
  N  N40  1  0.25329270  0.38502448  0.81700768  1
  N  N41  1  0.24670730  0.61497552  0.31700768  1
  N  N42  1  0.75329270  0.11497552  0.18299232  1
  N  N43  1  0.74670730  0.88502448  0.68299232  1
  N  N44  1  0.81700768  0.25329270  0.38502448  1
  N  N45  1  0.31700768  0.24670730  0.61497552  1
  N  N46  1  0.18299232  0.75329270  0.11497552  1
  N  N47  1  0.68299232  0.74670730  0.88502448  1
  N  N48  1  0.61497552  0.18299232  0.74670730  1
  N  N49  1  0.38502448  0.68299232  0.75329270  1
  N  N50  1  0.88502448  0.81700768  0.24670730  1
  N  N51  1  0.11497552  0.31700768  0.25329270  1
  N  N52  1  0.74670730  0.61497552  0.18299232  1
  N  N53  1  0.75329270  0.38502448  0.68299232  1
  N  N54  1  0.24670730  0.88502448  0.81700768  1
  N  N55  1  0.25329270  0.11497552  0.31700768  1
  N  N56  1  0.18299232  0.74670730  0.61497552  1
  N  N57  1  0.68299232  0.75329270  0.38502448  1
  N  N58  1  0.81700768  0.24670730  0.88502448  1
  N  N59  1  0.31700768  0.25329270  0.11497552  1
  N  N60  1  0.44293321  0.72587627  0.50961032  1
  N  N61  1  0.55706679  0.22587627  0.99038968  1
  N  N62  1  0.05706679  0.27412373  0.00961032  1
  N  N63  1  0.94293321  0.77412373  0.49038968  1
  N  N64  1  0.50961032  0.44293321  0.72587627  1
  N  N65  1  0.99038968  0.55706679  0.22587627  1
  N  N66  1  0.00961032  0.05706679  0.27412373  1
  N  N67  1  0.49038968  0.94293321  0.77412373  1
  N  N68  1  0.72587627  0.50961032  0.44293321  1
  N  N69  1  0.22587627  0.99038968  0.55706679  1
  N  N70  1  0.27412373  0.00961032  0.05706679  1
  N  N71  1  0.77412373  0.49038968  0.94293321  1
  N  N72  1  0.55706679  0.27412373  0.49038968  1
  N  N73  1  0.44293321  0.77412373  0.00961032  1
  N  N74  1  0.94293321  0.72587627  0.99038968  1
  N  N75  1  0.05706679  0.22587627  0.50961032  1
  N  N76  1  0.49038968  0.55706679  0.27412373  1
  N  N77  1  0.00961032  0.44293321  0.77412373  1
  N  N78  1  0.99038968  0.94293321  0.72587627  1
  N  N79  1  0.50961032  0.05706679  0.22587627  1
  N  N80  1  0.27412373  0.49038968  0.55706679  1
  N  N81  1  0.77412373  0.00961032  0.44293321  1
  N  N82  1  0.72587627  0.99038968  0.94293321  1
  N  N83  1  0.22587627  0.50961032  0.05706679  1
