# generated using pymatgen
data_ZrInN2
_symmetry_space_group_name_H-M   'P 1'
_cell_length_a   3.91367000
_cell_length_b   3.91367000
_cell_length_c   8.33079400
_cell_angle_alpha   90.00000000
_cell_angle_beta   90.00000000
_cell_angle_gamma   90.00000000
_symmetry_Int_Tables_number   1
_chemical_formula_structural   ZrInN2
_chemical_formula_sum   'Zr2 In2 N4'
_cell_volume   127.60121275
_cell_formula_units_Z   2
loop_
 _symmetry_equiv_pos_site_id
 _symmetry_equiv_pos_as_xyz
  1  'x, y, z'
loop_
 _atom_site_type_symbol
 _atom_site_label
 _atom_site_symmetry_multiplicity
 _atom_site_fract_x
 _atom_site_fract_y
 _atom_site_fract_z
 _atom_site_occupancy
  Zr  Zr0  1  0.75000000  0.75000000  0.60758900  1
  Zr  Zr1  1  0.25000000  0.25000000  0.39241100  1
  In  In2  1  0.75000000  0.75000000  0.12627200  1
  In  In3  1  0.25000000  0.25000000  0.87372800  1
  N  N4  1  0.75000000  0.25000000  0.50000000  1
  N  N5  1  0.25000000  0.75000000  0.50000000  1
  N  N6  1  0.75000000  0.75000000  0.86125400  1
  N  N7  1  0.25000000  0.25000000  0.13874600  1
