# generated using pymatgen
data_Ca5Zr2N6
_symmetry_space_group_name_H-M   'P 1'
_cell_length_a   6.44897755
_cell_length_b   6.94538065
_cell_length_c   13.46294211
_cell_angle_alpha   89.99999889
_cell_angle_beta   105.99015485
_cell_angle_gamma   122.58069701
_symmetry_Int_Tables_number   1
_chemical_formula_structural   Ca5Zr2N6
_chemical_formula_sum   'Ca10 Zr4 N12'
_cell_volume   480.19964690
_cell_formula_units_Z   2
loop_
 _symmetry_equiv_pos_site_id
 _symmetry_equiv_pos_as_xyz
  1  'x, y, z'
loop_
 _atom_site_type_symbol
 _atom_site_label
 _atom_site_symmetry_multiplicity
 _atom_site_fract_x
 _atom_site_fract_y
 _atom_site_fract_z
 _atom_site_occupancy
  Ca  Ca0  1  0.04235500  0.77591500  0.02888500  1
  Ca  Ca1  1  0.95764500  0.73355900  0.47111500  1
  Ca  Ca2  1  0.95764500  0.22408500  0.97111500  1
  Ca  Ca3  1  0.04235500  0.26644100  0.52888500  1
  Ca  Ca4  1  0.33296000  0.00403800  0.71318700  1
  Ca  Ca5  1  0.66704000  0.67107900  0.78681300  1
  Ca  Ca6  1  0.66704000  0.99596200  0.28681300  1
  Ca  Ca7  1  0.33296000  0.32892100  0.21318700  1
  Ca  Ca8  1  0.00000000  0.41539100  0.75000000  1
  Ca  Ca9  1  0.00000000  0.58460900  0.25000000  1
  Zr  Zr10  1  0.55272800  0.83793900  0.56312000  1
  Zr  Zr11  1  0.44727200  0.28521100  0.93688000  1
  Zr  Zr12  1  0.44727200  0.16206100  0.43688000  1
  Zr  Zr13  1  0.55272800  0.71478900  0.06312000  1
  N  N14  1  0.91976200  0.90551100  0.60720800  1
  N  N15  1  0.08023800  0.98574900  0.89279200  1
  N  N16  1  0.08023800  0.09448900  0.39279200  1
  N  N17  1  0.91976200  0.01425100  0.10720800  1
  N  N18  1  0.29958500  0.63958000  0.64673000  1
  N  N19  1  0.70041500  0.33999400  0.85327000  1
  N  N20  1  0.70041500  0.36042000  0.35327000  1
  N  N21  1  0.29958500  0.66000600  0.14673000  1
  N  N22  1  0.61981200  0.16368700  0.59736100  1
  N  N23  1  0.38018800  0.54387400  0.90263900  1
  N  N24  1  0.38018800  0.83631300  0.40263900  1
  N  N25  1  0.61981200  0.45612600  0.09736100  1
