# generated using pymatgen
data_Ba4SnN4
_symmetry_space_group_name_H-M   'P 1'
_cell_length_a   6.87077386
_cell_length_b   7.04132289
_cell_length_c   9.87175282
_cell_angle_alpha   72.21767280
_cell_angle_beta   80.39319340
_cell_angle_gamma   66.79751354
_symmetry_Int_Tables_number   1
_chemical_formula_structural   Ba4SnN4
_chemical_formula_sum   'Ba8 Sn2 N8'
_cell_volume   417.39671034
_cell_formula_units_Z   2
loop_
 _symmetry_equiv_pos_site_id
 _symmetry_equiv_pos_as_xyz
  1  'x, y, z'
loop_
 _atom_site_type_symbol
 _atom_site_label
 _atom_site_symmetry_multiplicity
 _atom_site_fract_x
 _atom_site_fract_y
 _atom_site_fract_z
 _atom_site_occupancy
  Ba  Ba0  1  0.77460600  0.56927500  0.15853900  1
  Ba  Ba1  1  0.22539400  0.43072500  0.84146100  1
  Ba  Ba2  1  0.74363400  0.22742700  0.96524700  1
  Ba  Ba3  1  0.25636600  0.77257300  0.03475300  1
  Ba  Ba4  1  0.71812200  0.50824900  0.56044800  1
  Ba  Ba5  1  0.28187800  0.49175100  0.43955200  1
  Ba  Ba6  1  0.21576400  0.96468300  0.61617400  1
  Ba  Ba7  1  0.78423600  0.03531700  0.38382600  1
  Sn  Sn8  1  0.72586500  0.84377200  0.75657500  1
  Sn  Sn9  1  0.27413500  0.15622800  0.24342500  1
  N  N10  1  0.97632900  0.68576300  0.61523800  1
  N  N11  1  0.02367100  0.31423700  0.38476200  1
  N  N12  1  0.91607200  0.81420800  0.91899200  1
  N  N13  1  0.08392800  0.18579200  0.08100800  1
  N  N14  1  0.52463300  0.65826800  0.81696300  1
  N  N15  1  0.47536700  0.34173200  0.18303700  1
  N  N16  1  0.45264800  0.83787800  0.36468700  1
  N  N17  1  0.54735200  0.16212200  0.63531300  1
