# generated using pymatgen
data_K3YN2
_symmetry_space_group_name_H-M   'P 1'
_cell_length_a   11.08359600
_cell_length_b   12.79823466
_cell_length_c   12.79823399
_cell_angle_alpha   90.00000008
_cell_angle_beta   125.26439055
_cell_angle_gamma   54.73561155
_symmetry_Int_Tables_number   1
_chemical_formula_structural   K3YN2
_chemical_formula_sum   'K24 Y8 N16'
_cell_volume   1048.14213399
_cell_formula_units_Z   8
loop_
 _symmetry_equiv_pos_site_id
 _symmetry_equiv_pos_as_xyz
  1  'x, y, z'
loop_
 _atom_site_type_symbol
 _atom_site_label
 _atom_site_symmetry_multiplicity
 _atom_site_fract_x
 _atom_site_fract_y
 _atom_site_fract_z
 _atom_site_occupancy
  K  K0  1  0.17992900  0.07362800  0.94857900  1
  K  K1  1  0.82007100  0.75355700  0.55142100  1
  K  K2  1  0.82007100  0.42637200  0.76865000  1
  K  K3  1  0.17992900  0.74644300  0.73135000  1
  K  K4  1  0.28277100  0.76865000  0.30497800  1
  K  K5  1  0.71722900  0.73135000  0.02220700  1
  K  K6  1  0.28277100  0.94857900  0.47779300  1
  K  K7  1  0.71722900  0.55142100  0.19502200  1
  K  K8  1  0.67281500  0.02220700  0.74644300  1
  K  K9  1  0.67281500  0.30497800  0.42637200  1
  K  K10  1  0.32718500  0.19502200  0.75355700  1
  K  K11  1  0.32718500  0.47779300  0.07362800  1
  K  K12  1  0.82007100  0.92637200  0.05142100  1
  K  K13  1  0.17992900  0.24644300  0.44857900  1
  K  K14  1  0.17992900  0.57362800  0.23135000  1
  K  K15  1  0.82007100  0.25355700  0.26865000  1
  K  K16  1  0.71722900  0.23135000  0.69502200  1
  K  K17  1  0.28277100  0.26865000  0.97779300  1
  K  K18  1  0.71722900  0.05142100  0.52220700  1
  K  K19  1  0.28277100  0.44857900  0.80497800  1
  K  K20  1  0.32718500  0.97779300  0.25355700  1
  K  K21  1  0.32718500  0.69502200  0.57362800  1
  K  K22  1  0.67281500  0.80497800  0.24644300  1
  K  K23  1  0.67281500  0.52220700  0.92637200  1
  Y  Y24  1  0.20707100  0.00000000  0.70707100  1
  Y  Y25  1  0.79292900  0.70707100  0.79292900  1
  Y  Y26  1  0.79292900  0.50000000  0.50000000  1
  Y  Y27  1  0.20707100  0.79292900  0.00000000  1
  Y  Y28  1  0.79292900  0.00000000  0.29292900  1
  Y  Y29  1  0.20707100  0.29292900  0.20707100  1
  Y  Y30  1  0.20707100  0.50000000  0.50000000  1
  Y  Y31  1  0.79292900  0.20707100  0.00000000  1
  N  N32  1  0.00000000  0.00000000  0.50000000  1
  N  N33  1  0.00000000  0.50000000  0.00000000  1
  N  N34  1  0.00000000  0.50000000  0.50000000  1
  N  N35  1  0.00000000  0.00000000  0.00000000  1
  N  N36  1  0.50000000  0.91469900  0.75000000  1
  N  N37  1  0.50000000  0.58530100  0.25000000  1
  N  N38  1  0.00000000  0.25000000  0.66469900  1
  N  N39  1  0.00000000  0.75000000  0.83530100  1
  N  N40  1  0.67060200  0.66469900  0.58530100  1
  N  N41  1  0.32939800  0.83530100  0.91469900  1
  N  N42  1  0.50000000  0.08530100  0.25000000  1
  N  N43  1  0.50000000  0.41469900  0.75000000  1
  N  N44  1  0.00000000  0.75000000  0.33530100  1
  N  N45  1  0.00000000  0.25000000  0.16469900  1
  N  N46  1  0.32939800  0.33530100  0.41469900  1
  N  N47  1  0.67060200  0.16469900  0.08530100  1
