# generated using pymatgen
data_V2PbN4
_symmetry_space_group_name_H-M   'P 1'
_cell_length_a   10.63563935
_cell_length_b   10.63563935
_cell_length_c   10.63563935
_cell_angle_alpha   90.00000000
_cell_angle_beta   90.00000000
_cell_angle_gamma   90.00000000
_symmetry_Int_Tables_number   1
_chemical_formula_structural   V2PbN4
_chemical_formula_sum   'V24 Pb12 N48'
_cell_volume   1203.06974856
_cell_formula_units_Z   12
loop_
 _symmetry_equiv_pos_site_id
 _symmetry_equiv_pos_as_xyz
  1  'x, y, z'
loop_
 _atom_site_type_symbol
 _atom_site_label
 _atom_site_symmetry_multiplicity
 _atom_site_fract_x
 _atom_site_fract_y
 _atom_site_fract_z
 _atom_site_occupancy
  V  V0  1  0.37833314  0.70252046  0.35825127  1
  V  V1  1  0.62166686  0.20252046  0.14174873  1
  V  V2  1  0.12166686  0.29747954  0.85825127  1
  V  V3  1  0.87833314  0.79747954  0.64174873  1
  V  V4  1  0.35825127  0.37833314  0.70252046  1
  V  V5  1  0.14174873  0.62166686  0.20252046  1
  V  V6  1  0.85825127  0.12166686  0.29747954  1
  V  V7  1  0.64174873  0.87833314  0.79747954  1
  V  V8  1  0.70252046  0.35825127  0.37833314  1
  V  V9  1  0.20252046  0.14174873  0.62166686  1
  V  V10  1  0.29747954  0.85825127  0.12166686  1
  V  V11  1  0.79747954  0.64174873  0.87833314  1
  V  V12  1  0.62166686  0.29747954  0.64174873  1
  V  V13  1  0.37833314  0.79747954  0.85825127  1
  V  V14  1  0.87833314  0.70252046  0.14174873  1
  V  V15  1  0.12166686  0.20252046  0.35825127  1
  V  V16  1  0.64174873  0.62166686  0.29747954  1
  V  V17  1  0.85825127  0.37833314  0.79747954  1
  V  V18  1  0.14174873  0.87833314  0.70252046  1
  V  V19  1  0.35825127  0.12166686  0.20252046  1
  V  V20  1  0.29747954  0.64174873  0.62166686  1
  V  V21  1  0.79747954  0.85825127  0.37833314  1
  V  V22  1  0.70252046  0.14174873  0.87833314  1
  V  V23  1  0.20252046  0.35825127  0.12166686  1
  Pb  Pb24  1  0.50000000  0.50000000  -0.00000000  1
  Pb  Pb25  1  0.50000000  0.00000000  0.50000000  1
  Pb  Pb26  1  0.00000000  0.50000000  0.50000000  1
  Pb  Pb27  1  0.00000000  0.00000000  -0.00000000  1
  Pb  Pb28  1  0.12210925  0.87789075  0.37789075  1
  Pb  Pb29  1  0.87789075  0.37789075  0.12210925  1
  Pb  Pb30  1  0.37789075  0.12210925  0.87789075  1
  Pb  Pb31  1  0.62210925  0.62210925  0.62210925  1
  Pb  Pb32  1  0.87789075  0.12210925  0.62210925  1
  Pb  Pb33  1  0.12210925  0.62210925  0.87789075  1
  Pb  Pb34  1  0.62210925  0.87789075  0.12210925  1
  Pb  Pb35  1  0.37789075  0.37789075  0.37789075  1
  N  N36  1  0.35867367  0.85696097  0.27923264  1
  N  N37  1  0.64132633  0.35696097  0.22076736  1
  N  N38  1  0.14132633  0.14303903  0.77923264  1
  N  N39  1  0.85867367  0.64303903  0.72076736  1
  N  N40  1  0.27923264  0.35867367  0.85696097  1
  N  N41  1  0.22076736  0.64132633  0.35696097  1
  N  N42  1  0.77923264  0.14132633  0.14303903  1
  N  N43  1  0.72076736  0.85867367  0.64303903  1
  N  N44  1  0.85696097  0.27923264  0.35867367  1
  N  N45  1  0.35696097  0.22076736  0.64132633  1
  N  N46  1  0.14303903  0.77923264  0.14132633  1
  N  N47  1  0.64303903  0.72076736  0.85867367  1
  N  N48  1  0.64132633  0.14303903  0.72076736  1
  N  N49  1  0.35867367  0.64303903  0.77923264  1
  N  N50  1  0.85867367  0.85696097  0.22076736  1
  N  N51  1  0.14132633  0.35696097  0.27923264  1
  N  N52  1  0.72076736  0.64132633  0.14303903  1
  N  N53  1  0.77923264  0.35867367  0.64303903  1
  N  N54  1  0.22076736  0.85867367  0.85696097  1
  N  N55  1  0.27923264  0.14132633  0.35696097  1
  N  N56  1  0.14303903  0.72076736  0.64132633  1
  N  N57  1  0.64303903  0.77923264  0.35867367  1
  N  N58  1  0.85696097  0.22076736  0.85867367  1
  N  N59  1  0.35696097  0.27923264  0.14132633  1
  N  N60  1  0.41465932  0.72107224  0.52367736  1
  N  N61  1  0.58534068  0.22107224  0.97632264  1
  N  N62  1  0.08534068  0.27892776  0.02367736  1
  N  N63  1  0.91465932  0.77892776  0.47632264  1
  N  N64  1  0.52367736  0.41465932  0.72107224  1
  N  N65  1  0.97632264  0.58534068  0.22107224  1
  N  N66  1  0.02367736  0.08534068  0.27892776  1
  N  N67  1  0.47632264  0.91465932  0.77892776  1
  N  N68  1  0.72107224  0.52367736  0.41465932  1
  N  N69  1  0.22107224  0.97632264  0.58534068  1
  N  N70  1  0.27892776  0.02367736  0.08534068  1
  N  N71  1  0.77892776  0.47632264  0.91465932  1
  N  N72  1  0.58534068  0.27892776  0.47632264  1
  N  N73  1  0.41465932  0.77892776  0.02367736  1
  N  N74  1  0.91465932  0.72107224  0.97632264  1
  N  N75  1  0.08534068  0.22107224  0.52367736  1
  N  N76  1  0.47632264  0.58534068  0.27892776  1
  N  N77  1  0.02367736  0.41465932  0.77892776  1
  N  N78  1  0.97632264  0.91465932  0.72107224  1
  N  N79  1  0.52367736  0.08534068  0.22107224  1
  N  N80  1  0.27892776  0.47632264  0.58534068  1
  N  N81  1  0.77892776  0.02367736  0.41465932  1
  N  N82  1  0.72107224  0.97632264  0.91465932  1
  N  N83  1  0.22107224  0.52367736  0.08534068  1
