# generated using pymatgen
data_RbMgN
_symmetry_space_group_name_H-M   'P 1'
_cell_length_a   10.74472800
_cell_length_b   3.92303900
_cell_length_c   6.99187000
_cell_angle_alpha   90.00000000
_cell_angle_beta   90.00000000
_cell_angle_gamma   90.00000000
_symmetry_Int_Tables_number   1
_chemical_formula_structural   RbMgN
_chemical_formula_sum   'Rb4 Mg4 N4'
_cell_volume   294.72121326
_cell_formula_units_Z   4
loop_
 _symmetry_equiv_pos_site_id
 _symmetry_equiv_pos_as_xyz
  1  'x, y, z'
loop_
 _atom_site_type_symbol
 _atom_site_label
 _atom_site_symmetry_multiplicity
 _atom_site_fract_x
 _atom_site_fract_y
 _atom_site_fract_z
 _atom_site_occupancy
  Rb  Rb0  1  0.66268300  0.25000000  0.04504000  1
  Rb  Rb1  1  0.16268300  0.25000000  0.45496000  1
  Rb  Rb2  1  0.33731700  0.75000000  0.95496000  1
  Rb  Rb3  1  0.83731700  0.75000000  0.54504000  1
  Mg  Mg4  1  0.53859800  0.25000000  0.60491900  1
  Mg  Mg5  1  0.03859800  0.25000000  0.89508100  1
  Mg  Mg6  1  0.46140200  0.75000000  0.39508100  1
  Mg  Mg7  1  0.96140200  0.75000000  0.10491900  1
  N  N8  1  0.94194200  0.25000000  0.17090900  1
  N  N9  1  0.44194200  0.25000000  0.32909100  1
  N  N10  1  0.05805800  0.75000000  0.82909100  1
  N  N11  1  0.55805800  0.75000000  0.67090900  1
