# generated using pymatgen
data_Cr3Pb3N5
_symmetry_space_group_name_H-M   'P 1'
_cell_length_a   5.78619720
_cell_length_b   7.48372801
_cell_length_c   8.41383104
_cell_angle_alpha   104.21041845
_cell_angle_beta   99.19769832
_cell_angle_gamma   96.95622558
_symmetry_Int_Tables_number   1
_chemical_formula_structural   Cr3Pb3N5
_chemical_formula_sum   'Cr6 Pb6 N10'
_cell_volume   343.71933171
_cell_formula_units_Z   2
loop_
 _symmetry_equiv_pos_site_id
 _symmetry_equiv_pos_as_xyz
  1  'x, y, z'
loop_
 _atom_site_type_symbol
 _atom_site_label
 _atom_site_symmetry_multiplicity
 _atom_site_fract_x
 _atom_site_fract_y
 _atom_site_fract_z
 _atom_site_occupancy
  Cr  Cr0  1  0.93368000  0.32310500  0.97294600  1
  Cr  Cr1  1  0.06632000  0.67689500  0.02705400  1
  Cr  Cr2  1  0.68557600  0.99904600  0.60286900  1
  Cr  Cr3  1  0.31442400  0.00095400  0.39713100  1
  Cr  Cr4  1  0.08676900  0.92793600  0.72218800  1
  Cr  Cr5  1  0.91323100  0.07206400  0.27781200  1
  Pb  Pb6  1  0.76000700  0.44718200  0.54029100  1
  Pb  Pb7  1  0.23999300  0.55281800  0.45970900  1
  Pb  Pb8  1  0.56852300  0.80295700  0.86591200  1
  Pb  Pb9  1  0.43147700  0.19704300  0.13408800  1
  Pb  Pb10  1  0.61846300  0.67005500  0.22811500  1
  Pb  Pb11  1  0.38153700  0.32994500  0.77188500  1
  N  N12  1  0.93228700  0.14285700  0.77529000  1
  N  N13  1  0.06771300  0.85714300  0.22471000  1
  N  N14  1  0.82583400  0.79578900  0.57118700  1
  N  N15  1  0.17416600  0.20421100  0.42881300  1
  N  N16  1  0.77582000  0.52554300  0.96610600  1
  N  N17  1  0.22418000  0.47445700  0.03389400  1
  N  N18  1  0.34942800  0.94920800  0.60573100  1
  N  N19  1  0.65057200  0.05079200  0.39426900  1
  N  N20  1  0.11766600  0.80840400  0.88064700  1
  N  N21  1  0.88233400  0.19159600  0.11935300  1
