# generated using pymatgen
data_Mn2Si5N8
_symmetry_space_group_name_H-M   'P 1'
_cell_length_a   10.80003668
_cell_length_b   9.80955242
_cell_length_c   13.37527432
_cell_angle_alpha   90.00000000
_cell_angle_beta   90.00000000
_cell_angle_gamma   90.00000000
_symmetry_Int_Tables_number   1
_chemical_formula_structural   Mn2Si5N8
_chemical_formula_sum   'Mn16 Si40 N64'
_cell_volume   1417.02372201
_cell_formula_units_Z   8
loop_
 _symmetry_equiv_pos_site_id
 _symmetry_equiv_pos_as_xyz
  1  'x, y, z'
loop_
 _atom_site_type_symbol
 _atom_site_label
 _atom_site_symmetry_multiplicity
 _atom_site_fract_x
 _atom_site_fract_y
 _atom_site_fract_z
 _atom_site_occupancy
  Mn  Mn0  1  0.08553565  0.13622330  0.00496520  1
  Mn  Mn1  1  0.58553565  0.36377670  0.99503480  1
  Mn  Mn2  1  0.91446435  0.63622330  0.49503480  1
  Mn  Mn3  1  0.41446435  0.86377670  0.50496520  1
  Mn  Mn4  1  0.91446435  0.86377670  0.99503480  1
  Mn  Mn5  1  0.41446435  0.63622330  0.00496520  1
  Mn  Mn6  1  0.08553565  0.36377670  0.50496520  1
  Mn  Mn7  1  0.58553565  0.13622330  0.49503480  1
  Mn  Mn8  1  0.36114813  0.08698891  0.05872259  1
  Mn  Mn9  1  0.86114813  0.41301109  0.94127741  1
  Mn  Mn10  1  0.63885187  0.58698891  0.44127741  1
  Mn  Mn11  1  0.13885187  0.91301109  0.55872259  1
  Mn  Mn12  1  0.63885187  0.91301109  0.94127741  1
  Mn  Mn13  1  0.13885187  0.58698891  0.05872259  1
  Mn  Mn14  1  0.36114813  0.41301109  0.55872259  1
  Mn  Mn15  1  0.86114813  0.08698891  0.44127741  1
  Si  Si16  1  0.39606693  0.23693398  0.83766702  1
  Si  Si17  1  0.89606693  0.26306602  0.16233298  1
  Si  Si18  1  0.60393307  0.73693398  0.66233298  1
  Si  Si19  1  0.10393307  0.76306602  0.33766702  1
  Si  Si20  1  0.60393307  0.76306602  0.16233298  1
  Si  Si21  1  0.10393307  0.73693398  0.83766702  1
  Si  Si22  1  0.39606693  0.26306602  0.33766702  1
  Si  Si23  1  0.89606693  0.23693398  0.66233298  1
  Si  Si24  1  0.16096724  0.23902518  0.71795559  1
  Si  Si25  1  0.66096724  0.26097482  0.28204441  1
  Si  Si26  1  0.83903276  0.73902518  0.78204441  1
  Si  Si27  1  0.33903276  0.76097482  0.21795559  1
  Si  Si28  1  0.83903276  0.76097482  0.28204441  1
  Si  Si29  1  0.33903276  0.73902518  0.71795559  1
  Si  Si30  1  0.16096724  0.26097482  0.21795559  1
  Si  Si31  1  0.66096724  0.23902518  0.78204441  1
  Si  Si32  1  0.25278843  0.98177918  0.83458040  1
  Si  Si33  1  0.75278843  0.51822082  0.16541960  1
  Si  Si34  1  0.74721157  0.48177918  0.66541960  1
  Si  Si35  1  0.24721157  0.01822082  0.33458040  1
  Si  Si36  1  0.74721157  0.01822082  0.16541960  1
  Si  Si37  1  0.24721157  0.48177918  0.83458040  1
  Si  Si38  1  0.25278843  0.51822082  0.33458040  1
  Si  Si39  1  0.75278843  0.98177918  0.66541960  1
  Si  Si40  1  0.98240349  0.00555799  0.78571749  1
  Si  Si41  1  0.48240349  0.49444201  0.21428251  1
  Si  Si42  1  0.01759651  0.50555799  0.71428251  1
  Si  Si43  1  0.51759651  0.99444201  0.28571749  1
  Si  Si44  1  0.01759651  0.99444201  0.21428251  1
  Si  Si45  1  0.51759651  0.50555799  0.78571749  1
  Si  Si46  1  0.98240349  0.49444201  0.28571749  1
  Si  Si47  1  0.48240349  0.00555799  0.71428251  1
  Si  Si48  1  0.82341988  0.14348554  0.96416525  1
  Si  Si49  1  0.32341988  0.35651446  0.03583475  1
  Si  Si50  1  0.17658012  0.64348554  0.53583475  1
  Si  Si51  1  0.67658012  0.85651446  0.46416525  1
  Si  Si52  1  0.17658012  0.85651446  0.03583475  1
  Si  Si53  1  0.67658012  0.64348554  0.96416525  1
  Si  Si54  1  0.82341988  0.35651446  0.46416525  1
  Si  Si55  1  0.32341988  0.14348554  0.53583475  1
  N  N56  1  0.91638703  0.25513716  0.03505974  1
  N  N57  1  0.41638703  0.24486284  0.96494026  1
  N  N58  1  0.08361297  0.75513716  0.46494026  1
  N  N59  1  0.58361297  0.74486284  0.53505974  1
  N  N60  1  0.08361297  0.74486284  0.96494026  1
  N  N61  1  0.58361297  0.75513716  0.03505974  1
  N  N62  1  0.91638703  0.24486284  0.53505974  1
  N  N63  1  0.41638703  0.25513716  0.46494026  1
  N  N64  1  0.93756592  0.05002546  0.90364130  1
  N  N65  1  0.43756592  0.44997454  0.09635870  1
  N  N66  1  0.06243408  0.55002546  0.59635870  1
  N  N67  1  0.56243408  0.94997454  0.40364130  1
  N  N68  1  0.06243408  0.94997454  0.09635870  1
  N  N69  1  0.56243408  0.55002546  0.90364130  1
  N  N70  1  0.93756592  0.44997454  0.40364130  1
  N  N71  1  0.43756592  0.05002546  0.59635870  1
  N  N72  1  0.72674678  0.25788835  0.90013328  1
  N  N73  1  0.22674678  0.24211165  0.09986672  1
  N  N74  1  0.27325322  0.75788835  0.59986672  1
  N  N75  1  0.77325322  0.74211165  0.40013328  1
  N  N76  1  0.27325322  0.74211165  0.09986672  1
  N  N77  1  0.77325322  0.75788835  0.90013328  1
  N  N78  1  0.72674678  0.24211165  0.40013328  1
  N  N79  1  0.22674678  0.25788835  0.59986672  1
  N  N80  1  0.25753058  0.97321632  0.96340028  1
  N  N81  1  0.75753058  0.52678368  0.03659972  1
  N  N82  1  0.74246942  0.47321632  0.53659972  1
  N  N83  1  0.24246942  0.02678368  0.46340028  1
  N  N84  1  0.74246942  0.02678368  0.03659972  1
  N  N85  1  0.24246942  0.47321632  0.96340028  1
  N  N86  1  0.25753058  0.52678368  0.46340028  1
  N  N87  1  0.75753058  0.97321632  0.53659972  1
  N  N88  1  0.02128924  0.14655961  0.71098039  1
  N  N89  1  0.52128924  0.35344039  0.28901961  1
  N  N90  1  0.97871076  0.64655961  0.78901961  1
  N  N91  1  0.47871076  0.85344039  0.21098039  1
  N  N92  1  0.97871076  0.85344039  0.28901961  1
  N  N93  1  0.47871076  0.64655961  0.71098039  1
  N  N94  1  0.02128924  0.35344039  0.21098039  1
  N  N95  1  0.52128924  0.14655961  0.78901961  1
  N  N96  1  0.37320367  0.89912545  0.77209262  1
  N  N97  1  0.87320367  0.60087455  0.22790738  1
  N  N98  1  0.62679633  0.39912545  0.72790738  1
  N  N99  1  0.12679633  0.10087455  0.27209262  1
  N  N100  1  0.62679633  0.10087455  0.22790738  1
  N  N101  1  0.12679633  0.39912545  0.77209262  1
  N  N102  1  0.37320367  0.60087455  0.27209262  1
  N  N103  1  0.87320367  0.89912545  0.72790738  1
  N  N104  1  0.26021716  0.15360941  0.79979097  1
  N  N105  1  0.76021716  0.34639059  0.20020903  1
  N  N106  1  0.73978284  0.65360941  0.70020903  1
  N  N107  1  0.23978284  0.84639059  0.29979097  1
  N  N108  1  0.73978284  0.84639059  0.20020903  1
  N  N109  1  0.23978284  0.65360941  0.79979097  1
  N  N110  1  0.26021716  0.34639059  0.29979097  1
  N  N111  1  0.76021716  0.15360941  0.70020903  1
  N  N112  1  0.11665840  0.90459291  0.79028608  1
  N  N113  1  0.61665840  0.59540709  0.20971392  1
  N  N114  1  0.88334160  0.40459291  0.70971392  1
  N  N115  1  0.38334160  0.09540709  0.29028608  1
  N  N116  1  0.88334160  0.09540709  0.20971392  1
  N  N117  1  0.38334160  0.40459291  0.79028608  1
  N  N118  1  0.11665840  0.59540709  0.29028608  1
  N  N119  1  0.61665840  0.90459291  0.70971392  1
