# generated using pymatgen
data_Mg5(SiN3)2
_symmetry_space_group_name_H-M   'P 1'
_cell_length_a   5.40176556
_cell_length_b   5.30679973
_cell_length_c   12.10971295
_cell_angle_alpha   90.00000265
_cell_angle_beta   94.13612627
_cell_angle_gamma   119.42012186
_symmetry_Int_Tables_number   1
_chemical_formula_structural   Mg5(SiN3)2
_chemical_formula_sum   'Mg10 Si4 N12'
_cell_volume   301.33323073
_cell_formula_units_Z   2
loop_
 _symmetry_equiv_pos_site_id
 _symmetry_equiv_pos_as_xyz
  1  'x, y, z'
loop_
 _atom_site_type_symbol
 _atom_site_label
 _atom_site_symmetry_multiplicity
 _atom_site_fract_x
 _atom_site_fract_y
 _atom_site_fract_z
 _atom_site_occupancy
  Mg  Mg0  1  0.00000000  0.38995300  0.75000000  1
  Mg  Mg1  1  0.00000000  0.61004700  0.25000000  1
  Mg  Mg2  1  0.19291400  0.85258500  0.02294100  1
  Mg  Mg3  1  0.80708600  0.65967200  0.47705900  1
  Mg  Mg4  1  0.80708600  0.14741500  0.97705900  1
  Mg  Mg5  1  0.19291400  0.34032800  0.52294100  1
  Mg  Mg6  1  0.29121300  0.06895100  0.71866300  1
  Mg  Mg7  1  0.70878700  0.77773900  0.78133700  1
  Mg  Mg8  1  0.70878700  0.93104900  0.28133700  1
  Mg  Mg9  1  0.29121300  0.22226100  0.21866300  1
  Si  Si10  1  0.57255400  0.93106500  0.58551100  1
  Si  Si11  1  0.42744600  0.35851000  0.91448900  1
  Si  Si12  1  0.42744600  0.06893500  0.41448900  1
  Si  Si13  1  0.57255400  0.64149000  0.08551100  1
  N  N14  1  0.33605100  0.70999800  0.67712300  1
  N  N15  1  0.66394900  0.37394700  0.82287700  1
  N  N16  1  0.66394900  0.29000200  0.32287700  1
  N  N17  1  0.33605100  0.62605300  0.17712300  1
  N  N18  1  0.53825800  0.24281300  0.55028100  1
  N  N19  1  0.46174200  0.70455500  0.94971900  1
  N  N20  1  0.46174200  0.75718700  0.44971900  1
  N  N21  1  0.53825800  0.29544500  0.05028100  1
  N  N22  1  0.91661600  0.02267800  0.62950800  1
  N  N23  1  0.08338400  0.10606200  0.87049200  1
  N  N24  1  0.08338400  0.97732200  0.37049200  1
  N  N25  1  0.91661600  0.89393800  0.12950800  1
