# generated using pymatgen
data_NaCdN
_symmetry_space_group_name_H-M   'P 1'
_cell_length_a   3.78109400
_cell_length_b   3.85308828
_cell_length_c   8.65886600
_cell_angle_alpha   90.00000000
_cell_angle_beta   90.00000000
_cell_angle_gamma   119.38381207
_symmetry_Int_Tables_number   1
_chemical_formula_structural   NaCdN
_chemical_formula_sum   'Na2 Cd2 N2'
_cell_volume   109.92116445
_cell_formula_units_Z   2
loop_
 _symmetry_equiv_pos_site_id
 _symmetry_equiv_pos_as_xyz
  1  'x, y, z'
loop_
 _atom_site_type_symbol
 _atom_site_label
 _atom_site_symmetry_multiplicity
 _atom_site_fract_x
 _atom_site_fract_y
 _atom_site_fract_z
 _atom_site_occupancy
  Na  Na0  1  0.67393100  0.34786200  0.75924700  1
  Na  Na1  1  0.32606900  0.65213800  0.25924700  1
  Cd  Cd2  1  0.00050700  0.00101500  0.52623200  1
  Cd  Cd3  1  0.99949300  0.99898500  0.02623200  1
  N  N4  1  0.32841300  0.65682500  0.55916000  1
  N  N5  1  0.67158700  0.34317500  0.05916000  1
