# generated using pymatgen
data_Ca3(TaN2)2
_symmetry_space_group_name_H-M   'P 1'
_cell_length_a   8.46179730
_cell_length_b   7.96915371
_cell_length_c   5.34081294
_cell_angle_alpha   90.00000421
_cell_angle_beta   93.58686564
_cell_angle_gamma   118.09209473
_symmetry_Int_Tables_number   1
_chemical_formula_structural   Ca3(TaN2)2
_chemical_formula_sum   'Ca6 Ta4 N8'
_cell_volume   316.92055839
_cell_formula_units_Z   2
loop_
 _symmetry_equiv_pos_site_id
 _symmetry_equiv_pos_as_xyz
  1  'x, y, z'
loop_
 _atom_site_type_symbol
 _atom_site_label
 _atom_site_symmetry_multiplicity
 _atom_site_fract_x
 _atom_site_fract_y
 _atom_site_fract_z
 _atom_site_occupancy
  Ca  Ca0  1  0.26820800  0.00966900  0.00863300  1
  Ca  Ca1  1  0.73179200  0.74146000  0.49136700  1
  Ca  Ca2  1  0.73179200  0.99033100  0.99136700  1
  Ca  Ca3  1  0.26820800  0.25854000  0.50863300  1
  Ca  Ca4  1  0.00000000  0.60398600  0.75000000  1
  Ca  Ca5  1  0.00000000  0.39601400  0.25000000  1
  Ta  Ta6  1  0.61846600  0.20679600  0.56227000  1
  Ta  Ta7  1  0.38153400  0.58833100  0.93773000  1
  Ta  Ta8  1  0.38153400  0.79320400  0.43773000  1
  Ta  Ta9  1  0.61846600  0.41166900  0.06227000  1
  N  N10  1  0.33892300  0.00114900  0.55749000  1
  N  N11  1  0.66107700  0.66222600  0.94251000  1
  N  N12  1  0.66107700  0.99885100  0.44251000  1
  N  N13  1  0.33892300  0.33777400  0.05749000  1
  N  N14  1  0.76968700  0.31031400  0.89360900  1
  N  N15  1  0.23031300  0.54062700  0.60639100  1
  N  N16  1  0.23031300  0.68968600  0.10639100  1
  N  N17  1  0.76968700  0.45937300  0.39360900  1
