# generated using pymatgen
data_CrSi7N10
_symmetry_space_group_name_H-M   'P 1'
_cell_length_a   6.73594871
_cell_length_b   6.90526400
_cell_length_c   9.71030420
_cell_angle_alpha   90.00000000
_cell_angle_beta   104.14478059
_cell_angle_gamma   90.00000000
_symmetry_Int_Tables_number   1
_chemical_formula_structural   CrSi7N10
_chemical_formula_sum   'Cr2 Si14 N20'
_cell_volume   437.96653023
_cell_formula_units_Z   2
loop_
 _symmetry_equiv_pos_site_id
 _symmetry_equiv_pos_as_xyz
  1  'x, y, z'
loop_
 _atom_site_type_symbol
 _atom_site_label
 _atom_site_symmetry_multiplicity
 _atom_site_fract_x
 _atom_site_fract_y
 _atom_site_fract_z
 _atom_site_occupancy
  Cr  Cr0  1  0.92789500  0.92096300  0.65332400  1
  Cr  Cr1  1  0.92789500  0.07903700  0.15332400  1
  Si  Si2  1  0.54494100  0.98030600  0.82710400  1
  Si  Si3  1  0.54494100  0.01969400  0.32710400  1
  Si  Si4  1  0.35493900  0.01953200  0.02415900  1
  Si  Si5  1  0.35493900  0.98046800  0.52415900  1
  Si  Si6  1  0.11713200  0.39871800  0.07446600  1
  Si  Si7  1  0.11713200  0.60128200  0.57446600  1
  Si  Si8  1  0.66020900  0.36566600  0.99081200  1
  Si  Si9  1  0.66020900  0.63433400  0.49081200  1
  Si  Si10  1  0.84888400  0.62075900  0.81098400  1
  Si  Si11  1  0.84888400  0.37924100  0.31098400  1
  Si  Si12  1  0.30018000  0.62360100  0.88420200  1
  Si  Si13  1  0.30018000  0.37639900  0.38420200  1
  Si  Si14  1  0.48503900  0.36985100  0.68844700  1
  Si  Si15  1  0.48503900  0.63014900  0.18844700  1
  N  N16  1  0.74934200  0.84935000  0.80510700  1
  N  N17  1  0.74934200  0.15065000  0.30510700  1
  N  N18  1  0.56880600  0.13304100  0.97722300  1
  N  N19  1  0.56880600  0.86695900  0.47722300  1
  N  N20  1  0.33241400  0.86878800  0.87416100  1
  N  N21  1  0.33241400  0.13121200  0.37416100  1
  N  N22  1  0.15416000  0.15879200  0.04169800  1
  N  N23  1  0.15416000  0.84120800  0.54169800  1
  N  N24  1  0.28945200  0.50800700  0.72513400  1
  N  N25  1  0.28945200  0.49199300  0.22513400  1
  N  N26  1  0.45037500  0.12220000  0.67592500  1
  N  N27  1  0.45037500  0.87780000  0.17592500  1
  N  N28  1  0.88475000  0.37905000  0.13044300  1
  N  N29  1  0.88475000  0.62095000  0.63044300  1
  N  N30  1  0.07738100  0.57315500  0.93758300  1
  N  N31  1  0.07738100  0.42684500  0.43758300  1
  N  N32  1  0.70043500  0.42020400  0.82467500  1
  N  N33  1  0.70043500  0.57979600  0.32467500  1
  N  N34  1  0.49596700  0.53825000  0.02385200  1
  N  N35  1  0.49596700  0.46175000  0.52385200  1
