# generated using pymatgen
data_Ba(MnN)2
_symmetry_space_group_name_H-M   'P 1'
_cell_length_a   6.54418106
_cell_length_b   6.24450341
_cell_length_c   9.66010238
_cell_angle_alpha   89.99999773
_cell_angle_beta   42.43290002
_cell_angle_gamma   61.50359789
_symmetry_Int_Tables_number   1
_chemical_formula_structural   Ba(MnN)2
_chemical_formula_sum   'Ba2 Mn4 N4'
_cell_volume   188.34217918
_cell_formula_units_Z   2
loop_
 _symmetry_equiv_pos_site_id
 _symmetry_equiv_pos_as_xyz
  1  'x, y, z'
loop_
 _atom_site_type_symbol
 _atom_site_label
 _atom_site_symmetry_multiplicity
 _atom_site_fract_x
 _atom_site_fract_y
 _atom_site_fract_z
 _atom_site_occupancy
  Ba  Ba0  1  0.00000000  0.00000000  0.25000000  1
  Ba  Ba1  1  0.00000000  0.00000000  0.75000000  1
  Mn  Mn2  1  0.72892600  0.50000000  0.63553700  1
  Mn  Mn3  1  0.27107400  0.50000000  0.36446300  1
  Mn  Mn4  1  0.27107400  0.22892600  0.86446300  1
  Mn  Mn5  1  0.72892600  0.77107400  0.13553700  1
  N  N6  1  0.67967500  0.50000000  0.16016300  1
  N  N7  1  0.32032500  0.50000000  0.83983700  1
  N  N8  1  0.32032500  0.17967500  0.33983700  1
  N  N9  1  0.67967500  0.82032500  0.66016300  1
