# generated using pymatgen
data_Cd7SnN6
_symmetry_space_group_name_H-M   'P 1'
_cell_length_a   12.07415100
_cell_length_b   6.49851100
_cell_length_c   12.14957800
_cell_angle_alpha   90.00000000
_cell_angle_beta   90.00000000
_cell_angle_gamma   90.00000000
_symmetry_Int_Tables_number   1
_chemical_formula_structural   Cd7SnN6
_chemical_formula_sum   'Cd28 Sn4 N24'
_cell_volume   953.30452572
_cell_formula_units_Z   4
loop_
 _symmetry_equiv_pos_site_id
 _symmetry_equiv_pos_as_xyz
  1  'x, y, z'
loop_
 _atom_site_type_symbol
 _atom_site_label
 _atom_site_symmetry_multiplicity
 _atom_site_fract_x
 _atom_site_fract_y
 _atom_site_fract_z
 _atom_site_occupancy
  Cd  Cd0  1  0.02841300  0.72650300  0.99689500  1
  Cd  Cd1  1  0.47158700  0.77349700  0.49689500  1
  Cd  Cd2  1  0.52841300  0.77349700  0.00310500  1
  Cd  Cd3  1  0.97158700  0.72650300  0.50310500  1
  Cd  Cd4  1  0.97158700  0.27349700  0.00310500  1
  Cd  Cd5  1  0.52841300  0.22650300  0.50310500  1
  Cd  Cd6  1  0.47158700  0.22650300  0.99689500  1
  Cd  Cd7  1  0.02841300  0.27349700  0.49689500  1
  Cd  Cd8  1  0.22434400  0.73589000  0.68092200  1
  Cd  Cd9  1  0.27565600  0.76411000  0.18092200  1
  Cd  Cd10  1  0.72434400  0.76411000  0.31907800  1
  Cd  Cd11  1  0.77565600  0.73589000  0.81907800  1
  Cd  Cd12  1  0.77565600  0.26411000  0.31907800  1
  Cd  Cd13  1  0.72434400  0.23589000  0.81907800  1
  Cd  Cd14  1  0.27565600  0.23589000  0.68092200  1
  Cd  Cd15  1  0.22434400  0.26411000  0.18092200  1
  Cd  Cd16  1  0.27297200  0.51386800  0.93979000  1
  Cd  Cd17  1  0.22702800  0.98613200  0.43979000  1
  Cd  Cd18  1  0.77297200  0.98613200  0.06021000  1
  Cd  Cd19  1  0.72702800  0.51386800  0.56021000  1
  Cd  Cd20  1  0.72702800  0.48613200  0.06021000  1
  Cd  Cd21  1  0.77297200  0.01386800  0.56021000  1
  Cd  Cd22  1  0.22702800  0.01386800  0.93979000  1
  Cd  Cd23  1  0.27297200  0.48613200  0.43979000  1
  Cd  Cd24  1  0.00000000  0.51002200  0.75000000  1
  Cd  Cd25  1  0.50000000  0.98997800  0.25000000  1
  Cd  Cd26  1  0.00000000  0.48997800  0.25000000  1
  Cd  Cd27  1  0.50000000  0.01002200  0.75000000  1
  Sn  Sn28  1  0.00000000  0.01978200  0.75000000  1
  Sn  Sn29  1  0.50000000  0.48021800  0.25000000  1
  Sn  Sn30  1  0.00000000  0.98021800  0.25000000  1
  Sn  Sn31  1  0.50000000  0.51978200  0.75000000  1
  N  N32  1  0.10730900  0.80284400  0.82658100  1
  N  N33  1  0.39269100  0.69715600  0.32658100  1
  N  N34  1  0.60730900  0.69715600  0.17341900  1
  N  N35  1  0.89269100  0.80284400  0.67341900  1
  N  N36  1  0.89269100  0.19715600  0.17341900  1
  N  N37  1  0.60730900  0.30284400  0.67341900  1
  N  N38  1  0.39269100  0.30284400  0.82658100  1
  N  N39  1  0.10730900  0.19715600  0.32658100  1
  N  N40  1  0.15333100  0.70521000  0.51114800  1
  N  N41  1  0.34666900  0.79479000  0.01114800  1
  N  N42  1  0.65333100  0.79479000  0.48885200  1
  N  N43  1  0.84666900  0.70521000  0.98885200  1
  N  N44  1  0.84666900  0.29479000  0.48885200  1
  N  N45  1  0.65333100  0.20521000  0.98885200  1
  N  N46  1  0.34666900  0.20521000  0.51114800  1
  N  N47  1  0.15333100  0.29479000  0.01114800  1
  N  N48  1  0.40612000  0.73955300  0.66575500  1
  N  N49  1  0.09388000  0.76044700  0.16575500  1
  N  N50  1  0.90612000  0.76044700  0.33424500  1
  N  N51  1  0.59388000  0.73955300  0.83424500  1
  N  N52  1  0.59388000  0.26044700  0.33424500  1
  N  N53  1  0.90612000  0.23955300  0.83424500  1
  N  N54  1  0.09388000  0.23955300  0.66575500  1
  N  N55  1  0.40612000  0.26044700  0.16575500  1
