# generated using pymatgen
data_Na15Os7N19
_symmetry_space_group_name_H-M   'P 1'
_cell_length_a   6.23898460
_cell_length_b   11.69317182
_cell_length_c   17.81377133
_cell_angle_alpha   89.29037992
_cell_angle_beta   94.75476727
_cell_angle_gamma   100.88653126
_symmetry_Int_Tables_number   1
_chemical_formula_structural   Na15Os7N19
_chemical_formula_sum   'Na30 Os14 N38'
_cell_volume   1271.79002226
_cell_formula_units_Z   2
loop_
 _symmetry_equiv_pos_site_id
 _symmetry_equiv_pos_as_xyz
  1  'x, y, z'
loop_
 _atom_site_type_symbol
 _atom_site_label
 _atom_site_symmetry_multiplicity
 _atom_site_fract_x
 _atom_site_fract_y
 _atom_site_fract_z
 _atom_site_occupancy
  Na  Na0  1  0.52934700  0.62634900  0.44267000  1
  Na  Na1  1  0.47065300  0.37365100  0.55733000  1
  Na  Na2  1  0.59462300  0.12910300  0.64101700  1
  Na  Na3  1  0.40537700  0.87089700  0.35898300  1
  Na  Na4  1  0.72768700  0.03219000  0.20299200  1
  Na  Na5  1  0.27231300  0.96781000  0.79700800  1
  Na  Na6  1  0.90248700  0.03028700  0.39440100  1
  Na  Na7  1  0.09751300  0.96971300  0.60559900  1
  Na  Na8  1  0.82519300  0.78867700  0.28637400  1
  Na  Na9  1  0.17480700  0.21132300  0.71362600  1
  Na  Na10  1  0.82694200  0.15927700  0.83050700  1
  Na  Na11  1  0.17305800  0.84072300  0.16949300  1
  Na  Na12  1  0.87227800  0.90818500  0.88721500  1
  Na  Na13  1  0.12772200  0.09181500  0.11278500  1
  Na  Na14  1  0.71388800  0.08908100  0.00635000  1
  Na  Na15  1  0.28611200  0.91091900  0.99365000  1
  Na  Na16  1  0.59802700  0.89629700  0.53529900  1
  Na  Na17  1  0.40197300  0.10370300  0.46470100  1
  Na  Na18  1  0.67394500  0.49595700  0.28741000  1
  Na  Na19  1  0.32605500  0.50404300  0.71259000  1
  Na  Na20  1  0.98934200  0.34988900  0.02094500  1
  Na  Na21  1  0.01065800  0.65011100  0.97905500  1
  Na  Na22  1  0.88388900  0.65999100  0.79362600  1
  Na  Na23  1  0.11611100  0.34000900  0.20637400  1
  Na  Na24  1  0.78351900  0.26410500  0.37020500  1
  Na  Na25  1  0.21648100  0.73589500  0.62979500  1
  Na  Na26  1  0.55830100  0.35849200  0.84411500  1
  Na  Na27  1  0.44169900  0.64150800  0.15588500  1
  Na  Na28  1  0.00000000  0.50000000  0.50000000  1
  Na  Na29  1  0.50000000  0.50000000  0.00000000  1
  Os  Os30  1  0.60579400  0.26401800  0.13083900  1
  Os  Os31  1  0.39420600  0.73598200  0.86916100  1
  Os  Os32  1  0.81447000  0.39143900  0.69649100  1
  Os  Os33  1  0.18553000  0.60856100  0.30350900  1
  Os  Os34  1  0.71034200  0.64446800  0.61108200  1
  Os  Os35  1  0.28965800  0.35553200  0.38891800  1
  Os  Os36  1  0.99950900  0.78252800  0.45425300  1
  Os  Os37  1  0.00049100  0.21747200  0.54574700  1
  Os  Os38  1  0.91623900  0.55245500  0.13380400  1
  Os  Os39  1  0.08376100  0.44754500  0.86619600  1
  Os  Os40  1  0.68967400  0.88626600  0.71643600  1
  Os  Os41  1  0.31032600  0.11373400  0.28356400  1
  Os  Os42  1  0.70801600  0.80802900  0.05482700  1
  Os  Os43  1  0.29198400  0.19197100  0.94517300  1
  N  N44  1  0.85091700  0.20933300  0.11839700  1
  N  N45  1  0.14908300  0.79066700  0.88160300  1
  N  N46  1  0.89293700  0.30447200  0.61621500  1
  N  N47  1  0.10706300  0.69552800  0.38378500  1
  N  N48  1  0.56210700  0.07251100  0.32472000  1
  N  N49  1  0.43789300  0.92748900  0.67528000  1
  N  N50  1  0.60793000  0.78416200  0.79338300  1
  N  N51  1  0.39207000  0.21583800  0.20661700  1
  N  N52  1  0.71063200  0.42090500  0.16201300  1
  N  N53  1  0.28936800  0.57909500  0.83798700  1
  N  N54  1  0.57291000  0.40518400  0.41413100  1
  N  N55  1  0.42709000  0.59481600  0.58586900  1
  N  N56  1  0.78375200  0.09783800  0.51790000  1
  N  N57  1  0.21624800  0.90216200  0.48210000  1
  N  N58  1  0.90119100  0.67595100  0.52821100  1
  N  N59  1  0.09880900  0.32404900  0.47178900  1
  N  N60  1  0.97213100  0.90261100  0.06072800  1
  N  N61  1  0.02786900  0.09738900  0.93927200  1
  N  N62  1  0.75087400  0.83057500  0.41888000  1
  N  N63  1  0.24912600  0.16942500  0.58112000  1
  N  N64  1  0.80869300  0.80939600  0.64046100  1
  N  N65  1  0.19130700  0.19060400  0.35953900  1
  N  N66  1  0.85557900  0.47223900  0.91302500  1
  N  N67  1  0.14442100  0.52776100  0.08697500  1
  N  N68  1  0.59459300  0.79728000  0.95387900  1
  N  N69  1  0.40540700  0.20272000  0.04612100  1
  N  N70  1  0.74956800  0.66022200  0.08434600  1
  N  N71  1  0.25043200  0.33977800  0.91565400  1
  N  N72  1  0.89863200  0.00974200  0.74791200  1
  N  N73  1  0.10136800  0.99025800  0.25208800  1
  N  N74  1  0.98872800  0.65555600  0.22407800  1
  N  N75  1  0.01127200  0.34444400  0.77592200  1
  N  N76  1  0.86831700  0.54838000  0.67149900  1
  N  N77  1  0.13168300  0.45162000  0.32850100  1
  N  N78  1  0.53431100  0.34169100  0.71331100  1
  N  N79  1  0.46568900  0.65830900  0.28668900  1
  N  N80  1  0.52455200  0.86229900  0.11274500  1
  N  N81  1  0.47544800  0.13770100  0.88725500  1
