# generated using pymatgen
data_YGaN2
_symmetry_space_group_name_H-M   'P 1'
_cell_length_a   5.86372753
_cell_length_b   6.98796900
_cell_length_c   5.83806309
_cell_angle_alpha   90.00000000
_cell_angle_beta   109.34840785
_cell_angle_gamma   90.00000000
_symmetry_Int_Tables_number   1
_chemical_formula_structural   YGaN2
_chemical_formula_sum   'Y4 Ga4 N8'
_cell_volume   225.70712926
_cell_formula_units_Z   4
loop_
 _symmetry_equiv_pos_site_id
 _symmetry_equiv_pos_as_xyz
  1  'x, y, z'
loop_
 _atom_site_type_symbol
 _atom_site_label
 _atom_site_symmetry_multiplicity
 _atom_site_fract_x
 _atom_site_fract_y
 _atom_site_fract_z
 _atom_site_occupancy
  Y  Y0  1  0.38314500  0.89473500  0.70860100  1
  Y  Y1  1  0.61685500  0.39473500  0.79139900  1
  Y  Y2  1  0.61685500  0.10526500  0.29139900  1
  Y  Y3  1  0.38314500  0.60526500  0.20860100  1
  Ga  Ga4  1  0.10894600  0.34516100  0.61598600  1
  Ga  Ga5  1  0.89105400  0.84516100  0.88401400  1
  Ga  Ga6  1  0.89105400  0.65483900  0.38401400  1
  Ga  Ga7  1  0.10894600  0.15483900  0.11598600  1
  N  N8  1  0.23645200  0.89534900  0.03155700  1
  N  N9  1  0.76354800  0.39534900  0.46844300  1
  N  N10  1  0.76354800  0.10465100  0.96844300  1
  N  N11  1  0.23645200  0.60465100  0.53155700  1
  N  N12  1  0.27319200  0.33747200  0.96831600  1
  N  N13  1  0.72680800  0.83747200  0.53168400  1
  N  N14  1  0.72680800  0.66252800  0.03168400  1
  N  N15  1  0.27319200  0.16252800  0.46831600  1
