# generated using pymatgen
data_Si3Bi5N9
_symmetry_space_group_name_H-M   'P 1'
_cell_length_a   8.09617923
_cell_length_b   11.90140996
_cell_length_c   15.86515000
_cell_angle_alpha   90.00000000
_cell_angle_beta   90.00000000
_cell_angle_gamma   137.30735820
_symmetry_Int_Tables_number   1
_chemical_formula_structural   Si3Bi5N9
_chemical_formula_sum   'Si12 Bi20 N36'
_cell_volume   1036.55946340
_cell_formula_units_Z   4
loop_
 _symmetry_equiv_pos_site_id
 _symmetry_equiv_pos_as_xyz
  1  'x, y, z'
loop_
 _atom_site_type_symbol
 _atom_site_label
 _atom_site_symmetry_multiplicity
 _atom_site_fract_x
 _atom_site_fract_y
 _atom_site_fract_z
 _atom_site_occupancy
  Si  Si0  1  0.00000000  0.77200400  0.02596300  1
  Si  Si1  1  0.00000000  0.22799600  0.97403700  1
  Si  Si2  1  0.00000000  0.72799600  0.52596300  1
  Si  Si3  1  0.00000000  0.27200400  0.47403700  1
  Si  Si4  1  0.00000000  0.20395600  0.76917200  1
  Si  Si5  1  0.00000000  0.79604400  0.23082800  1
  Si  Si6  1  0.00000000  0.29604400  0.26917200  1
  Si  Si7  1  0.00000000  0.70395600  0.73082800  1
  Si  Si8  1  0.50000000  0.77964300  0.75000000  1
  Si  Si9  1  0.50000000  0.72035700  0.25000000  1
  Si  Si10  1  0.50000000  0.22035700  0.25000000  1
  Si  Si11  1  0.50000000  0.27964300  0.75000000  1
  Bi  Bi12  1  0.00000000  0.51630500  0.86770600  1
  Bi  Bi13  1  0.00000000  0.48369500  0.13229400  1
  Bi  Bi14  1  0.00000000  0.98369500  0.36770600  1
  Bi  Bi15  1  0.00000000  0.01630500  0.63229400  1
  Bi  Bi16  1  0.38942300  0.96534700  0.87465100  1
  Bi  Bi17  1  0.38942300  0.42407700  0.12534900  1
  Bi  Bi18  1  0.38942300  0.92407700  0.37465100  1
  Bi  Bi19  1  0.38942300  0.46534700  0.62534900  1
  Bi  Bi20  1  0.61057700  0.03465300  0.12534900  1
  Bi  Bi21  1  0.61057700  0.57592300  0.87465100  1
  Bi  Bi22  1  0.61057700  0.07592300  0.62534900  1
  Bi  Bi23  1  0.61057700  0.53465300  0.37465100  1
  Bi  Bi24  1  0.00000000  0.48410400  0.63918800  1
  Bi  Bi25  1  0.00000000  0.51589600  0.36081200  1
  Bi  Bi26  1  0.00000000  0.01589600  0.13918800  1
  Bi  Bi27  1  0.00000000  0.98410400  0.86081200  1
  Bi  Bi28  1  0.50463400  0.25231600  0.00000000  1
  Bi  Bi29  1  0.50463400  0.75231600  0.50000000  1
  Bi  Bi30  1  0.49536600  0.74768400  0.00000000  1
  Bi  Bi31  1  0.49536600  0.24768400  0.50000000  1
  N  N32  1  0.00000000  0.30926700  0.69135600  1
  N  N33  1  0.00000000  0.69073300  0.30864400  1
  N  N34  1  0.00000000  0.19073300  0.19135600  1
  N  N35  1  0.00000000  0.80926700  0.80864400  1
  N  N36  1  0.00000000  0.24992900  0.86841000  1
  N  N37  1  0.00000000  0.75007100  0.13159000  1
  N  N38  1  0.00000000  0.25007100  0.36841000  1
  N  N39  1  0.00000000  0.74992900  0.63159000  1
  N  N40  1  0.00000000  0.65031100  0.96341200  1
  N  N41  1  0.00000000  0.34968900  0.03658800  1
  N  N42  1  0.00000000  0.84968900  0.46341200  1
  N  N43  1  0.00000000  0.15031100  0.53658800  1
  N  N44  1  0.76575400  0.49182500  0.76209900  1
  N  N45  1  0.76575400  0.27393100  0.23790100  1
  N  N46  1  0.76575400  0.77393100  0.26209900  1
  N  N47  1  0.76575400  0.99182500  0.73790100  1
  N  N48  1  0.23424600  0.50817500  0.23790100  1
  N  N49  1  0.23424600  0.72606900  0.76209900  1
  N  N50  1  0.23424600  0.22606900  0.73790100  1
  N  N51  1  0.23424600  0.00817500  0.26209900  1
  N  N52  1  0.45851200  0.18528700  0.84486700  1
  N  N53  1  0.45851200  0.27322500  0.15513300  1
  N  N54  1  0.45851200  0.77322500  0.34486700  1
  N  N55  1  0.45851200  0.68528700  0.65513300  1
  N  N56  1  0.54148800  0.81471300  0.15513300  1
  N  N57  1  0.54148800  0.72677500  0.84486700  1
  N  N58  1  0.54148800  0.22677500  0.65513300  1
  N  N59  1  0.54148800  0.31471300  0.34486700  1
  N  N60  1  0.25681500  0.97972200  0.99287500  1
  N  N61  1  0.25681500  0.27709300  0.00712500  1
  N  N62  1  0.25681500  0.77709300  0.49287500  1
  N  N63  1  0.25681500  0.47972200  0.50712500  1
  N  N64  1  0.74318500  0.02027800  0.00712500  1
  N  N65  1  0.74318500  0.72290700  0.99287500  1
  N  N66  1  0.74318500  0.22290700  0.50712500  1
  N  N67  1  0.74318500  0.52027800  0.49287500  1
