# generated using pymatgen
data_NbCr3(AgS4)2
_symmetry_space_group_name_H-M   'P 1'
_cell_length_a   6.94068576
_cell_length_b   13.28775968
_cell_length_c   5.99964147
_cell_angle_alpha   90.23044743
_cell_angle_beta   90.26148288
_cell_angle_gamma   90.50755295
_symmetry_Int_Tables_number   1
_chemical_formula_structural   NbCr3(AgS4)2
_chemical_formula_sum   'Nb2 Cr6 Ag4 S16'
_cell_volume   553.29188256
_cell_formula_units_Z   2
loop_
 _symmetry_equiv_pos_site_id
 _symmetry_equiv_pos_as_xyz
  1  'x, y, z'
loop_
 _atom_site_type_symbol
 _atom_site_label
 _atom_site_symmetry_multiplicity
 _atom_site_fract_x
 _atom_site_fract_y
 _atom_site_fract_z
 _atom_site_occupancy
  Nb  Nb0  1  0.01940900  0.25161000  0.99311300  1
  Nb  Nb1  1  0.23032900  0.75051700  0.49940700  1
  Cr  Cr2  1  0.00316400  0.75057200  0.00110100  1
  Cr  Cr3  1  0.49299200  0.25127500  0.00506700  1
  Cr  Cr4  1  0.49905700  0.74852700  0.00024800  1
  Cr  Cr5  1  0.24844700  0.24910300  0.50440900  1
  Cr  Cr6  1  0.75807300  0.75046600  0.50229700  1
  Cr  Cr7  1  0.75036400  0.24905000  0.50565700  1
  Ag  Ag8  1  0.98145000  0.99789500  0.34305200  1
  Ag  Ag9  1  0.51712800  0.50239500  0.63268800  1
  Ag  Ag10  1  0.98838100  0.49693900  0.02287200  1
  Ag  Ag11  1  0.51065000  0.00064400  0.95409900  1
  S  S12  1  0.25786900  0.36020700  0.82459500  1
  S  S13  1  0.74666000  0.65062100  0.83362600  1
  S  S14  1  0.74137300  0.14938000  0.16780100  1
  S  S15  1  0.24896900  0.85736300  0.16041600  1
  S  S16  1  0.24933200  0.14200000  0.17850400  1
  S  S17  1  0.75699700  0.84933900  0.16869300  1
  S  S18  1  0.73832500  0.35285300  0.83665900  1
  S  S19  1  0.24802800  0.64324100  0.83976300  1
  S  S20  1  0.00105500  0.14304400  0.65936600  1
  S  S21  1  0.99803800  0.85819600  0.67737300  1
  S  S22  1  0.50033300  0.34628600  0.34427800  1
  S  S23  1  0.50853500  0.65110700  0.33797400  1
  S  S24  1  0.00217200  0.35265400  0.34133200  1
  S  S25  1  0.99468300  0.64197700  0.32518300  1
  S  S26  1  0.49811100  0.15344700  0.67279300  1
  S  S27  1  0.51007600  0.84929300  0.66763200  1
