# generated using pymatgen
data_Mg2Si5N8
_symmetry_space_group_name_H-M   'P 1'
_cell_length_a   10.48666589
_cell_length_b   9.59685038
_cell_length_c   13.39396346
_cell_angle_alpha   90.00000000
_cell_angle_beta   90.00000000
_cell_angle_gamma   90.00000000
_symmetry_Int_Tables_number   1
_chemical_formula_structural   Mg2Si5N8
_chemical_formula_sum   'Mg16 Si40 N64'
_cell_volume   1347.95460019
_cell_formula_units_Z   8
loop_
 _symmetry_equiv_pos_site_id
 _symmetry_equiv_pos_as_xyz
  1  'x, y, z'
loop_
 _atom_site_type_symbol
 _atom_site_label
 _atom_site_symmetry_multiplicity
 _atom_site_fract_x
 _atom_site_fract_y
 _atom_site_fract_z
 _atom_site_occupancy
  Mg  Mg0  1  0.09852521  0.12691238  0.00711764  1
  Mg  Mg1  1  0.59852521  0.37308762  0.99288236  1
  Mg  Mg2  1  0.90147479  0.62691238  0.49288236  1
  Mg  Mg3  1  0.40147479  0.87308762  0.50711764  1
  Mg  Mg4  1  0.90147479  0.87308762  0.99288236  1
  Mg  Mg5  1  0.40147479  0.62691238  0.00711764  1
  Mg  Mg6  1  0.09852521  0.37308762  0.50711764  1
  Mg  Mg7  1  0.59852521  0.12691238  0.49288236  1
  Mg  Mg8  1  0.37380548  0.06433925  0.07785213  1
  Mg  Mg9  1  0.87380548  0.43566075  0.92214787  1
  Mg  Mg10  1  0.62619452  0.56433925  0.42214787  1
  Mg  Mg11  1  0.12619452  0.93566075  0.57785213  1
  Mg  Mg12  1  0.62619452  0.93566075  0.92214787  1
  Mg  Mg13  1  0.12619452  0.56433925  0.07785213  1
  Mg  Mg14  1  0.37380548  0.43566075  0.57785213  1
  Mg  Mg15  1  0.87380548  0.06433925  0.42214787  1
  Si  Si16  1  0.40608203  0.21572932  0.85290684  1
  Si  Si17  1  0.90608203  0.28427068  0.14709316  1
  Si  Si18  1  0.59391797  0.71572932  0.64709316  1
  Si  Si19  1  0.09391797  0.78427068  0.35290684  1
  Si  Si20  1  0.59391797  0.78427068  0.14709316  1
  Si  Si21  1  0.09391797  0.71572932  0.85290684  1
  Si  Si22  1  0.40608203  0.28427068  0.35290684  1
  Si  Si23  1  0.90608203  0.21572932  0.64709316  1
  Si  Si24  1  0.17099215  0.22777727  0.72388692  1
  Si  Si25  1  0.67099215  0.27222273  0.27611308  1
  Si  Si26  1  0.82900785  0.72777727  0.77611308  1
  Si  Si27  1  0.32900785  0.77222273  0.22388692  1
  Si  Si28  1  0.82900785  0.77222273  0.27611308  1
  Si  Si29  1  0.32900785  0.72777727  0.72388692  1
  Si  Si30  1  0.17099215  0.27222273  0.22388692  1
  Si  Si31  1  0.67099215  0.22777727  0.77611308  1
  Si  Si32  1  0.25471180  0.96143239  0.84818138  1
  Si  Si33  1  0.75471180  0.53856761  0.15181862  1
  Si  Si34  1  0.74528820  0.46143239  0.65181862  1
  Si  Si35  1  0.24528820  0.03856761  0.34818138  1
  Si  Si36  1  0.74528820  0.03856761  0.15181862  1
  Si  Si37  1  0.24528820  0.46143239  0.84818138  1
  Si  Si38  1  0.25471180  0.53856761  0.34818138  1
  Si  Si39  1  0.75471180  0.96143239  0.65181862  1
  Si  Si40  1  0.98587579  0.99012951  0.78351457  1
  Si  Si41  1  0.48587579  0.50987049  0.21648543  1
  Si  Si42  1  0.01412421  0.49012951  0.71648543  1
  Si  Si43  1  0.51412421  0.00987049  0.28351457  1
  Si  Si44  1  0.01412421  0.00987049  0.21648543  1
  Si  Si45  1  0.51412421  0.49012951  0.78351457  1
  Si  Si46  1  0.98587579  0.50987049  0.28351457  1
  Si  Si47  1  0.48587579  0.99012951  0.71648543  1
  Si  Si48  1  0.83590155  0.15781889  0.95478360  1
  Si  Si49  1  0.33590155  0.34218111  0.04521640  1
  Si  Si50  1  0.16409845  0.65781889  0.54521640  1
  Si  Si51  1  0.66409845  0.84218111  0.45478360  1
  Si  Si52  1  0.16409845  0.84218111  0.04521640  1
  Si  Si53  1  0.66409845  0.65781889  0.95478360  1
  Si  Si54  1  0.83590155  0.34218111  0.45478360  1
  Si  Si55  1  0.33590155  0.15781889  0.54521640  1
  N  N56  1  0.93510318  0.27244653  0.02212619  1
  N  N57  1  0.43510318  0.22755347  0.97787381  1
  N  N58  1  0.06489682  0.77244653  0.47787381  1
  N  N59  1  0.56489682  0.72755347  0.52212619  1
  N  N60  1  0.06489682  0.72755347  0.97787381  1
  N  N61  1  0.56489682  0.77244653  0.02212619  1
  N  N62  1  0.93510318  0.22755347  0.52212619  1
  N  N63  1  0.43510318  0.27244653  0.47787381  1
  N  N64  1  0.94570509  0.05091696  0.89712222  1
  N  N65  1  0.44570509  0.44908304  0.10287778  1
  N  N66  1  0.05429491  0.55091696  0.60287778  1
  N  N67  1  0.55429491  0.94908304  0.39712222  1
  N  N68  1  0.05429491  0.94908304  0.10287778  1
  N  N69  1  0.55429491  0.55091696  0.89712222  1
  N  N70  1  0.94570509  0.44908304  0.39712222  1
  N  N71  1  0.44570509  0.05091696  0.60287778  1
  N  N72  1  0.74003047  0.27180245  0.88802620  1
  N  N73  1  0.24003047  0.22819755  0.11197380  1
  N  N74  1  0.25996953  0.77180245  0.61197380  1
  N  N75  1  0.75996953  0.72819755  0.38802620  1
  N  N76  1  0.25996953  0.72819755  0.11197380  1
  N  N77  1  0.75996953  0.77180245  0.88802620  1
  N  N78  1  0.74003047  0.22819755  0.38802620  1
  N  N79  1  0.24003047  0.27180245  0.61197380  1
  N  N80  1  0.25522952  0.95909620  0.97553856  1
  N  N81  1  0.75522952  0.54090380  0.02446144  1
  N  N82  1  0.74477048  0.45909620  0.52446144  1
  N  N83  1  0.24477048  0.04090380  0.47553856  1
  N  N84  1  0.74477048  0.04090380  0.02446144  1
  N  N85  1  0.24477048  0.45909620  0.97553856  1
  N  N86  1  0.25522952  0.54090380  0.47553856  1
  N  N87  1  0.75522952  0.95909620  0.52446144  1
  N  N88  1  0.03683863  0.11793743  0.69628498  1
  N  N89  1  0.53683863  0.38206257  0.30371502  1
  N  N90  1  0.96316137  0.61793743  0.80371502  1
  N  N91  1  0.46316137  0.88206257  0.19628498  1
  N  N92  1  0.96316137  0.88206257  0.30371502  1
  N  N93  1  0.46316137  0.61793743  0.69628498  1
  N  N94  1  0.03683863  0.38206257  0.19628498  1
  N  N95  1  0.53683863  0.11793743  0.80371502  1
  N  N96  1  0.38079581  0.88148782  0.78333720  1
  N  N97  1  0.88079581  0.61851218  0.21666280  1
  N  N98  1  0.61920419  0.38148782  0.71666280  1
  N  N99  1  0.11920419  0.11851218  0.28333720  1
  N  N100  1  0.61920419  0.11851218  0.21666280  1
  N  N101  1  0.11920419  0.38148782  0.78333720  1
  N  N102  1  0.38079581  0.61851218  0.28333720  1
  N  N103  1  0.88079581  0.88148782  0.71666280  1
  N  N104  1  0.26307850  0.13664677  0.81240095  1
  N  N105  1  0.76307850  0.36335323  0.18759905  1
  N  N106  1  0.73692150  0.63664677  0.68759905  1
  N  N107  1  0.23692150  0.86335323  0.31240095  1
  N  N108  1  0.73692150  0.86335323  0.18759905  1
  N  N109  1  0.23692150  0.63664677  0.81240095  1
  N  N110  1  0.26307850  0.36335323  0.31240095  1
  N  N111  1  0.76307850  0.13664677  0.68759905  1
  N  N112  1  0.11676366  0.88164254  0.80074232  1
  N  N113  1  0.61676366  0.61835746  0.19925768  1
  N  N114  1  0.88323634  0.38164254  0.69925768  1
  N  N115  1  0.38323634  0.11835746  0.30074232  1
  N  N116  1  0.88323634  0.11835746  0.19925768  1
  N  N117  1  0.38323634  0.38164254  0.80074232  1
  N  N118  1  0.11676366  0.61835746  0.30074232  1
  N  N119  1  0.61676366  0.88164254  0.69925768  1
