# generated using pymatgen
data_Sc(MnN)3
_symmetry_space_group_name_H-M   'P 1'
_cell_length_a   7.41176368
_cell_length_b   7.40329137
_cell_length_c   3.78546200
_cell_angle_alpha   90.00000000
_cell_angle_beta   90.00000000
_cell_angle_gamma   120.63752364
_symmetry_Int_Tables_number   1
_chemical_formula_structural   Sc(MnN)3
_chemical_formula_sum   'Sc2 Mn6 N6'
_cell_volume   178.71868978
_cell_formula_units_Z   2
loop_
 _symmetry_equiv_pos_site_id
 _symmetry_equiv_pos_as_xyz
  1  'x, y, z'
loop_
 _atom_site_type_symbol
 _atom_site_label
 _atom_site_symmetry_multiplicity
 _atom_site_fract_x
 _atom_site_fract_y
 _atom_site_fract_z
 _atom_site_occupancy
  Sc  Sc0  1  0.66874500  0.33004000  0.75000000  1
  Sc  Sc1  1  0.33125500  0.66996000  0.25000000  1
  Mn  Mn2  1  0.86447400  0.73236800  0.25000000  1
  Mn  Mn3  1  0.86915600  0.13169100  0.25000000  1
  Mn  Mn4  1  0.26699000  0.13479200  0.25000000  1
  Mn  Mn5  1  0.13552600  0.26763200  0.75000000  1
  Mn  Mn6  1  0.13084400  0.86830900  0.75000000  1
  Mn  Mn7  1  0.73301000  0.86520800  0.75000000  1
  N  N8  1  0.82616900  0.65661400  0.75000000  1
  N  N9  1  0.83177600  0.16957400  0.75000000  1
  N  N10  1  0.34262600  0.17288900  0.75000000  1
  N  N11  1  0.17383100  0.34338600  0.25000000  1
  N  N12  1  0.16822400  0.83042600  0.25000000  1
  N  N13  1  0.65737400  0.82711100  0.25000000  1
