# generated using pymatgen
data_Ba3Ta3N5
_symmetry_space_group_name_H-M   'P 1'
_cell_length_a   6.05541459
_cell_length_b   8.50245068
_cell_length_c   9.24172648
_cell_angle_alpha   110.55714772
_cell_angle_beta   100.57408191
_cell_angle_gamma   103.17334816
_symmetry_Int_Tables_number   1
_chemical_formula_structural   Ba3Ta3N5
_chemical_formula_sum   'Ba6 Ta6 N10'
_cell_volume   415.27718030
_cell_formula_units_Z   2
loop_
 _symmetry_equiv_pos_site_id
 _symmetry_equiv_pos_as_xyz
  1  'x, y, z'
loop_
 _atom_site_type_symbol
 _atom_site_label
 _atom_site_symmetry_multiplicity
 _atom_site_fract_x
 _atom_site_fract_y
 _atom_site_fract_z
 _atom_site_occupancy
  Ba  Ba0  1  0.75815700  0.43854100  0.60437000  1
  Ba  Ba1  1  0.24184300  0.56145900  0.39563000  1
  Ba  Ba2  1  0.63440900  0.81903800  0.91072900  1
  Ba  Ba3  1  0.36559100  0.18096200  0.08927100  1
  Ba  Ba4  1  0.69782900  0.69388700  0.26175500  1
  Ba  Ba5  1  0.30217100  0.30611300  0.73824500  1
  Ta  Ta6  1  0.89313100  0.30873200  0.96411200  1
  Ta  Ta7  1  0.10686900  0.69126800  0.03588800  1
  Ta  Ta8  1  0.66133900  0.00286400  0.63767500  1
  Ta  Ta9  1  0.33866100  0.99713600  0.36232500  1
  Ta  Ta10  1  0.07874900  0.88018100  0.69882600  1
  Ta  Ta11  1  0.92125100  0.11981900  0.30117400  1
  N  N12  1  0.99563300  0.09832100  0.81737200  1
  N  N13  1  0.00436700  0.90167900  0.18262800  1
  N  N14  1  0.72385900  0.76431700  0.58418100  1
  N  N15  1  0.27614100  0.23568300  0.41581900  1
  N  N16  1  0.77470600  0.50838300  0.94716000  1
  N  N17  1  0.22529400  0.49161700  0.05284000  1
  N  N18  1  0.27269800  0.93005700  0.54637900  1
  N  N19  1  0.72730200  0.06994300  0.45362100  1
  N  N20  1  0.14523500  0.76657500  0.85394500  1
  N  N21  1  0.85476500  0.23342500  0.14605500  1
