# generated using pymatgen
data_CrGa2N3
_symmetry_space_group_name_H-M   'P 1'
_cell_length_a   5.58138154
_cell_length_b   5.61158982
_cell_length_c   5.21048100
_cell_angle_alpha   90.00000000
_cell_angle_beta   90.00000000
_cell_angle_gamma   120.17919938
_symmetry_Int_Tables_number   1
_chemical_formula_structural   CrGa2N3
_chemical_formula_sum   'Cr2 Ga4 N6'
_cell_volume   141.07466369
_cell_formula_units_Z   2
loop_
 _symmetry_equiv_pos_site_id
 _symmetry_equiv_pos_as_xyz
  1  'x, y, z'
loop_
 _atom_site_type_symbol
 _atom_site_label
 _atom_site_symmetry_multiplicity
 _atom_site_fract_x
 _atom_site_fract_y
 _atom_site_fract_z
 _atom_site_occupancy
  Cr  Cr0  1  0.00000000  0.65287300  0.49170200  1
  Cr  Cr1  1  0.00000000  0.34712700  0.99170200  1
  Ga  Ga2  1  0.33633600  0.33048600  0.49490600  1
  Ga  Ga3  1  0.66366400  0.99415000  0.49490600  1
  Ga  Ga4  1  0.66366400  0.66951400  0.99490600  1
  Ga  Ga5  1  0.33633600  0.00585000  0.99490600  1
  N  N6  1  0.33299700  0.33395200  0.87151500  1
  N  N7  1  0.66700300  0.00095500  0.87151500  1
  N  N8  1  0.66700300  0.66604800  0.37151500  1
  N  N9  1  0.33299700  0.99904500  0.37151500  1
  N  N10  1  0.00000000  0.67399100  0.86345600  1
  N  N11  1  0.00000000  0.32600900  0.36345600  1
