# generated using pymatgen
data_In2GaN3
_symmetry_space_group_name_H-M   'P 1'
_cell_length_a   6.26356793
_cell_length_b   11.21946778
_cell_length_c   11.07518918
_cell_angle_alpha   89.99999849
_cell_angle_beta   89.99803581
_cell_angle_gamma   153.58730040
_symmetry_Int_Tables_number   1
_chemical_formula_structural   In2GaN3
_chemical_formula_sum   'In8 Ga4 N12'
_cell_volume   346.21261139
_cell_formula_units_Z   4
loop_
 _symmetry_equiv_pos_site_id
 _symmetry_equiv_pos_as_xyz
  1  'x, y, z'
loop_
 _atom_site_type_symbol
 _atom_site_label
 _atom_site_symmetry_multiplicity
 _atom_site_fract_x
 _atom_site_fract_y
 _atom_site_fract_z
 _atom_site_occupancy
  In  In0  1  0.49041100  0.07576700  0.88800700  1
  In  In1  1  0.50958900  0.58535600  0.61199300  1
  In  In2  1  0.50958900  0.92423300  0.11199300  1
  In  In3  1  0.49041100  0.41464400  0.38800700  1
  In  In4  1  0.49048000  0.91450900  0.61192100  1
  In  In5  1  0.50952000  0.42403000  0.88807900  1
  In  In6  1  0.50952000  0.08549100  0.38807900  1
  In  In7  1  0.49048000  0.57597000  0.11192100  1
  Ga  Ga8  1  0.50002000  0.24994500  0.65180600  1
  Ga  Ga9  1  0.49998000  0.74992400  0.84819400  1
  Ga  Ga10  1  0.49998000  0.75005500  0.34819400  1
  Ga  Ga11  1  0.50002000  0.25007600  0.15180600  1
  N  N12  1  0.00000000  0.58196900  0.75000000  1
  N  N13  1  0.00000000  0.41803100  0.25000000  1
  N  N14  1  0.75271100  0.23666700  0.57556200  1
  N  N15  1  0.24728900  0.48395600  0.92443800  1
  N  N16  1  0.24728900  0.76333300  0.42443800  1
  N  N17  1  0.75271100  0.51604400  0.07556200  1
  N  N18  1  0.24741600  0.98418400  0.07548900  1
  N  N19  1  0.75258400  0.73676700  0.42451100  1
  N  N20  1  0.75258400  0.01581600  0.92451100  1
  N  N21  1  0.24741600  0.26323300  0.57548900  1
  N  N22  1  0.00000000  0.91789000  0.75000000  1
  N  N23  1  0.00000000  0.08211000  0.25000000  1
