# generated using pymatgen
data_GaBi2N3
_symmetry_space_group_name_H-M   'P 1'
_cell_length_a   6.05549146
_cell_length_b   10.60719845
_cell_length_c   14.52333115
_cell_angle_alpha   89.99999790
_cell_angle_beta   88.14103778
_cell_angle_gamma   151.14372626
_symmetry_Int_Tables_number   1
_chemical_formula_structural   GaBi2N3
_chemical_formula_sum   'Ga4 Bi8 N12'
_cell_volume   449.19308417
_cell_formula_units_Z   4
loop_
 _symmetry_equiv_pos_site_id
 _symmetry_equiv_pos_as_xyz
  1  'x, y, z'
loop_
 _atom_site_type_symbol
 _atom_site_label
 _atom_site_symmetry_multiplicity
 _atom_site_fract_x
 _atom_site_fract_y
 _atom_site_fract_z
 _atom_site_occupancy
  Ga  Ga0  1  0.57288500  0.32918100  0.67305100  1
  Ga  Ga1  1  0.42711500  0.75629600  0.82694900  1
  Ga  Ga2  1  0.42711500  0.67081900  0.32694900  1
  Ga  Ga3  1  0.57288500  0.24370400  0.17305100  1
  Bi  Bi4  1  0.48149600  0.10704100  0.91980300  1
  Bi  Bi5  1  0.51850400  0.62554500  0.58019700  1
  Bi  Bi6  1  0.51850400  0.89295900  0.08019700  1
  Bi  Bi7  1  0.48149600  0.37445500  0.41980300  1
  Bi  Bi8  1  0.59329400  0.97786900  0.63663400  1
  Bi  Bi9  1  0.40670600  0.38457500  0.86336600  1
  Bi  Bi10  1  0.40670600  0.02213100  0.36336600  1
  Bi  Bi11  1  0.59329400  0.61542500  0.13663400  1
  N  N12  1  0.00000000  0.63499800  0.75000000  1
  N  N13  1  0.00000000  0.36500200  0.25000000  1
  N  N14  1  0.78269400  0.27287600  0.62730100  1
  N  N15  1  0.21730600  0.49018200  0.87269900  1
  N  N16  1  0.21730600  0.72712400  0.37269900  1
  N  N17  1  0.78269400  0.50981800  0.12730100  1
  N  N18  1  0.45684500  0.07088600  0.07177200  1
  N  N19  1  0.54315500  0.61404100  0.42822800  1
  N  N20  1  0.54315500  0.92911400  0.92822800  1
  N  N21  1  0.45684500  0.38595900  0.57177200  1
  N  N22  1  0.00000000  0.08522200  0.75000000  1
  N  N23  1  0.00000000  0.91477800  0.25000000  1
