# generated using pymatgen
data_Sr(ZnN)2
_symmetry_space_group_name_H-M   'P 1'
_cell_length_a   6.10860522
_cell_length_b   10.40602030
_cell_length_c   6.32441550
_cell_angle_alpha   89.99999891
_cell_angle_beta   89.98901193
_cell_angle_gamma   31.59738336
_symmetry_Int_Tables_number   1
_chemical_formula_structural   Sr(ZnN)2
_chemical_formula_sum   'Sr3 Zn6 N6'
_cell_volume   210.63690150
_cell_formula_units_Z   3
loop_
 _symmetry_equiv_pos_site_id
 _symmetry_equiv_pos_as_xyz
  1  'x, y, z'
loop_
 _atom_site_type_symbol
 _atom_site_label
 _atom_site_symmetry_multiplicity
 _atom_site_fract_x
 _atom_site_fract_y
 _atom_site_fract_z
 _atom_site_occupancy
  Sr  Sr0  1  0.00000000  0.32467600  0.50000000  1
  Sr  Sr1  1  0.00000000  0.67532400  0.50000000  1
  Sr  Sr2  1  0.00000000  0.50000000  0.00000000  1
  Zn  Zn3  1  0.71492200  0.98011800  0.86208200  1
  Zn  Zn4  1  0.71492200  0.30495900  0.86208200  1
  Zn  Zn5  1  0.28507800  0.01988200  0.13791800  1
  Zn  Zn6  1  0.28507800  0.69504100  0.13791800  1
  Zn  Zn7  1  0.26270300  0.86864800  0.64927100  1
  Zn  Zn8  1  0.73729700  0.13135200  0.35072900  1
  N  N9  1  0.38952000  0.97263500  0.80305200  1
  N  N10  1  0.38952000  0.63784500  0.80305200  1
  N  N11  1  0.61048000  0.02736500  0.19694800  1
  N  N12  1  0.61048000  0.36215500  0.19694800  1
  N  N13  1  0.52272700  0.23863600  0.67827800  1
  N  N14  1  0.47727300  0.76136400  0.32172200  1
