# generated using pymatgen
data_Bi4Se3N2
_symmetry_space_group_name_H-M   'P 1'
_cell_length_a   7.18223500
_cell_length_b   15.75968700
_cell_length_c   4.03448000
_cell_angle_alpha   90.00000000
_cell_angle_beta   90.00000000
_cell_angle_gamma   90.00000000
_symmetry_Int_Tables_number   1
_chemical_formula_structural   Bi4Se3N2
_chemical_formula_sum   'Bi8 Se6 N4'
_cell_volume   456.66188570
_cell_formula_units_Z   2
loop_
 _symmetry_equiv_pos_site_id
 _symmetry_equiv_pos_as_xyz
  1  'x, y, z'
loop_
 _atom_site_type_symbol
 _atom_site_label
 _atom_site_symmetry_multiplicity
 _atom_site_fract_x
 _atom_site_fract_y
 _atom_site_fract_z
 _atom_site_occupancy
  Bi  Bi0  1  0.70506000  0.93410500  0.50000000  1
  Bi  Bi1  1  0.29494000  0.06589500  0.50000000  1
  Bi  Bi2  1  0.20506000  0.56589500  0.00000000  1
  Bi  Bi3  1  0.79494000  0.43410500  0.00000000  1
  Bi  Bi4  1  0.78153100  0.64748500  0.50000000  1
  Bi  Bi5  1  0.21846900  0.35251500  0.50000000  1
  Bi  Bi6  1  0.28153100  0.85251500  0.00000000  1
  Bi  Bi7  1  0.71846900  0.14748500  0.00000000  1
  Se  Se8  1  0.50000000  0.50000000  0.50000000  1
  Se  Se9  1  0.00000000  0.00000000  0.00000000  1
  Se  Se10  1  0.84811600  0.28796800  0.50000000  1
  Se  Se11  1  0.15188400  0.71203200  0.50000000  1
  Se  Se12  1  0.34811600  0.21203200  0.00000000  1
  Se  Se13  1  0.65188400  0.78796800  0.00000000  1
  N  N14  1  0.61601900  0.07569700  0.50000000  1
  N  N15  1  0.38398100  0.92430300  0.50000000  1
  N  N16  1  0.11601900  0.42430300  0.00000000  1
  N  N17  1  0.88398100  0.57569700  0.00000000  1
