# generated using pymatgen
data_Zn4RuN4
_symmetry_space_group_name_H-M   'P 1'
_cell_length_a   5.66107751
_cell_length_b   5.73587826
_cell_length_c   8.68293267
_cell_angle_alpha   63.15464336
_cell_angle_beta   87.61145363
_cell_angle_gamma   68.17526080
_symmetry_Int_Tables_number   1
_chemical_formula_structural   Zn4RuN4
_chemical_formula_sum   'Zn8 Ru2 N8'
_cell_volume   230.80256649
_cell_formula_units_Z   2
loop_
 _symmetry_equiv_pos_site_id
 _symmetry_equiv_pos_as_xyz
  1  'x, y, z'
loop_
 _atom_site_type_symbol
 _atom_site_label
 _atom_site_symmetry_multiplicity
 _atom_site_fract_x
 _atom_site_fract_y
 _atom_site_fract_z
 _atom_site_occupancy
  Zn  Zn0  1  0.84591000  0.63639500  0.24805400  1
  Zn  Zn1  1  0.15409000  0.36360500  0.75194600  1
  Zn  Zn2  1  0.73459300  0.26103300  0.00003800  1
  Zn  Zn3  1  0.26540700  0.73896700  0.99996200  1
  Zn  Zn4  1  0.63107500  0.57200400  0.61159300  1
  Zn  Zn5  1  0.36892500  0.42799600  0.38840700  1
  Zn  Zn6  1  0.14923900  0.96979600  0.63528800  1
  Zn  Zn7  1  0.85076100  0.03020400  0.36471200  1
  Ru  Ru8  1  0.72059800  0.90692000  0.78770300  1
  Ru  Ru9  1  0.27940200  0.09308000  0.21229700  1
  N  N10  1  0.89565900  0.75627000  0.62536400  1
  N  N11  1  0.10434100  0.24373000  0.37463600  1
  N  N12  1  0.86407500  0.85398100  0.99355900  1
  N  N13  1  0.13592500  0.14601900  0.00644100  1
  N  N14  1  0.49804000  0.69404600  0.80934300  1
  N  N15  1  0.50196000  0.30595400  0.19065700  1
  N  N16  1  0.52730300  0.72353800  0.34733200  1
  N  N17  1  0.47269700  0.27646200  0.65266800  1
