# generated using pymatgen
data_Ba3(TiN2)2
_symmetry_space_group_name_H-M   'P 1'
_cell_length_a   6.38170625
_cell_length_b   10.64392585
_cell_length_c   10.38243401
_cell_angle_alpha   90.00000000
_cell_angle_beta   90.00000000
_cell_angle_gamma   90.00000000
_symmetry_Int_Tables_number   1
_chemical_formula_structural   Ba3(TiN2)2
_chemical_formula_sum   'Ba12 Ti8 N16'
_cell_volume   705.24144986
_cell_formula_units_Z   4
loop_
 _symmetry_equiv_pos_site_id
 _symmetry_equiv_pos_as_xyz
  1  'x, y, z'
loop_
 _atom_site_type_symbol
 _atom_site_label
 _atom_site_symmetry_multiplicity
 _atom_site_fract_x
 _atom_site_fract_y
 _atom_site_fract_z
 _atom_site_occupancy
  Ba  Ba0  1  0.61820995  0.15892333  0.41995358  1
  Ba  Ba1  1  0.88179005  0.84107667  0.41995358  1
  Ba  Ba2  1  0.61820995  0.34107667  0.08004642  1
  Ba  Ba3  1  0.88179005  0.65892333  0.08004642  1
  Ba  Ba4  1  0.38179005  0.84107667  0.58004642  1
  Ba  Ba5  1  0.11820995  0.15892333  0.58004642  1
  Ba  Ba6  1  0.38179005  0.65892333  0.91995358  1
  Ba  Ba7  1  0.11820995  0.34107667  0.91995358  1
  Ba  Ba8  1  0.75000000  0.50000000  0.40055838  1
  Ba  Ba9  1  0.75000000  0.00000000  0.09944162  1
  Ba  Ba10  1  0.25000000  0.50000000  0.59944162  1
  Ba  Ba11  1  0.25000000  0.00000000  0.90055838  1
  Ti  Ti12  1  0.75000000  0.50000000  0.73403200  1
  Ti  Ti13  1  0.75000000  0.00000000  0.76596800  1
  Ti  Ti14  1  0.25000000  0.50000000  0.26596800  1
  Ti  Ti15  1  0.25000000  0.00000000  0.23403200  1
  Ti  Ti16  1  0.64657251  0.25000000  0.75000000  1
  Ti  Ti17  1  0.85342749  0.75000000  0.75000000  1
  Ti  Ti18  1  0.35342749  0.75000000  0.25000000  1
  Ti  Ti19  1  0.14657251  0.25000000  0.25000000  1
  N  N20  1  0.83456409  0.35078031  0.63736545  1
  N  N21  1  0.66543591  0.64921969  0.63736545  1
  N  N22  1  0.83456409  0.14921969  0.86263455  1
  N  N23  1  0.66543591  0.85078031  0.86263455  1
  N  N24  1  0.16543591  0.64921969  0.36263455  1
  N  N25  1  0.33456409  0.35078031  0.36263455  1
  N  N26  1  0.16543591  0.85078031  0.13736545  1
  N  N27  1  0.33456409  0.14921969  0.13736545  1
  N  N28  1  0.52609972  0.41147947  0.82752406  1
  N  N29  1  0.97390028  0.58852053  0.82752406  1
  N  N30  1  0.52609972  0.08852053  0.67247594  1
  N  N31  1  0.97390028  0.91147947  0.67247594  1
  N  N32  1  0.47390028  0.58852053  0.17247594  1
  N  N33  1  0.02609972  0.41147947  0.17247594  1
  N  N34  1  0.47390028  0.91147947  0.32752406  1
  N  N35  1  0.02609972  0.08852053  0.32752406  1
