# generated using pymatgen
data_Mg2MnFe3S8
_symmetry_space_group_name_H-M   'P 1'
_cell_length_a   7.02943762
_cell_length_b   7.01669612
_cell_length_c   7.02368142
_cell_angle_alpha   59.95188749
_cell_angle_beta   59.95470847
_cell_angle_gamma   59.97418523
_symmetry_Int_Tables_number   1
_chemical_formula_structural   Mg2MnFe3S8
_chemical_formula_sum   'Mg2 Mn1 Fe3 S8'
_cell_volume   244.74365756
_cell_formula_units_Z   1
loop_
 _symmetry_equiv_pos_site_id
 _symmetry_equiv_pos_as_xyz
  1  'x, y, z'
loop_
 _atom_site_type_symbol
 _atom_site_label
 _atom_site_symmetry_multiplicity
 _atom_site_fract_x
 _atom_site_fract_y
 _atom_site_fract_z
 _atom_site_occupancy
  Mg  Mg0  1  0.87430600  0.87826200  0.87347500  1
  Mg  Mg1  1  0.12569800  0.12175800  0.12652000  1
  Mn  Mn2  1  0.50000000  0.99996300  0.50004400  1
  Fe  Fe3  1  0.50000200  0.50000200  0.49997500  1
  Fe  Fe4  1  0.50001500  0.49999700  0.00000300  1
  Fe  Fe5  1  0.00000100  0.49999900  0.50000700  1
  S  S6  1  0.74157600  0.71976300  0.74213900  1
  S  S7  1  0.25800600  0.28036100  0.70387200  1
  S  S8  1  0.26754300  0.69594700  0.26837700  1
  S  S9  1  0.70398700  0.27974700  0.25794200  1
  S  S10  1  0.73243600  0.30407000  0.73160000  1
  S  S11  1  0.29603100  0.72022200  0.74205700  1
  S  S12  1  0.25841500  0.28025200  0.25785700  1
  S  S13  1  0.74198700  0.71965400  0.29613400  1
