# generated using pymatgen
data_Sr(SbN2)2
_symmetry_space_group_name_H-M   'P 1'
_cell_length_a   19.78732300
_cell_length_b   19.78733255
_cell_length_c   8.90559300
_cell_angle_alpha   90.00000000
_cell_angle_beta   90.00000000
_cell_angle_gamma   119.99965348
_symmetry_Int_Tables_number   1
_chemical_formula_structural   Sr(SbN2)2
_chemical_formula_sum   'Sr24 Sb48 N96'
_cell_volume   3019.73816078
_cell_formula_units_Z   24
loop_
 _symmetry_equiv_pos_site_id
 _symmetry_equiv_pos_as_xyz
  1  'x, y, z'
loop_
 _atom_site_type_symbol
 _atom_site_label
 _atom_site_symmetry_multiplicity
 _atom_site_fract_x
 _atom_site_fract_y
 _atom_site_fract_z
 _atom_site_occupancy
  Sr  Sr0  1  0.99998300  0.99998400  0.32306000  1
  Sr  Sr1  1  0.00001700  0.00001600  0.82306000  1
  Sr  Sr2  1  0.32920000  0.15335900  0.30629500  1
  Sr  Sr3  1  0.82416000  0.67080100  0.30630200  1
  Sr  Sr4  1  0.84664300  0.17584000  0.30629400  1
  Sr  Sr5  1  0.67080000  0.84664100  0.80629500  1
  Sr  Sr6  1  0.17584000  0.32919900  0.80630200  1
  Sr  Sr7  1  0.15335700  0.82416000  0.80629400  1
  Sr  Sr8  1  0.12963700  0.32974100  0.30378000  1
  Sr  Sr9  1  0.20010000  0.87036800  0.30376800  1
  Sr  Sr10  1  0.67027800  0.79991100  0.30375200  1
  Sr  Sr11  1  0.87036300  0.67025900  0.80378000  1
  Sr  Sr12  1  0.79990000  0.12963200  0.80376800  1
  Sr  Sr13  1  0.32972200  0.20008900  0.80375200  1
  Sr  Sr14  1  0.66665500  0.33333900  0.32172500  1
  Sr  Sr15  1  0.33334500  0.66666100  0.82172500  1
  Sr  Sr16  1  0.66667000  0.33333700  0.81530400  1
  Sr  Sr17  1  0.33333000  0.66666300  0.31530400  1
  Sr  Sr18  1  0.47565000  0.46882600  0.81645600  1
  Sr  Sr19  1  0.99317100  0.52434800  0.81644900  1
  Sr  Sr20  1  0.53117600  0.00682900  0.81645600  1
  Sr  Sr21  1  0.52435000  0.53117400  0.31645600  1
  Sr  Sr22  1  0.00682900  0.47565200  0.31644900  1
  Sr  Sr23  1  0.46882400  0.99317100  0.31645600  1
  Sb  Sb24  1  0.98623700  0.15161200  0.59862700  1
  Sb  Sb25  1  0.16537100  0.01376400  0.59863100  1
  Sb  Sb26  1  0.84838700  0.83462800  0.59863100  1
  Sb  Sb27  1  0.01376300  0.84838800  0.09862700  1
  Sb  Sb28  1  0.83462900  0.98623600  0.09863100  1
  Sb  Sb29  1  0.15161300  0.16537200  0.09863100  1
  Sb  Sb30  1  0.16110600  0.17560300  0.49500700  1
  Sb  Sb31  1  0.01449300  0.83889500  0.49501000  1
  Sb  Sb32  1  0.82440000  0.98550700  0.49502400  1
  Sb  Sb33  1  0.83889400  0.82439700  0.99500700  1
  Sb  Sb34  1  0.98550700  0.16110500  0.99501000  1
  Sb  Sb35  1  0.17560000  0.01449300  0.99502400  1
  Sb  Sb36  1  0.33859900  0.33773000  0.51869300  1
  Sb  Sb37  1  0.99912800  0.66140100  0.51869200  1
  Sb  Sb38  1  0.66227000  0.00087100  0.51869300  1
  Sb  Sb39  1  0.66140100  0.66227000  0.01869300  1
  Sb  Sb40  1  0.00087200  0.33859900  0.01869200  1
  Sb  Sb41  1  0.33773000  0.99912900  0.01869300  1
  Sb  Sb42  1  0.32543200  0.32334200  0.11408100  1
  Sb  Sb43  1  0.99791300  0.67456900  0.11407900  1
  Sb  Sb44  1  0.67665800  0.00208700  0.11407900  1
  Sb  Sb45  1  0.67456800  0.67665800  0.61408100  1
  Sb  Sb46  1  0.00208700  0.32543100  0.61407900  1
  Sb  Sb47  1  0.32334200  0.99791300  0.61407900  1
  Sb  Sb48  1  0.50457900  0.34317800  0.13907900  1
  Sb  Sb49  1  0.83859900  0.49542000  0.13907100  1
  Sb  Sb50  1  0.65682200  0.16140200  0.13906900  1
  Sb  Sb51  1  0.49542100  0.65682200  0.63907900  1
  Sb  Sb52  1  0.16140100  0.50458000  0.63907100  1
  Sb  Sb53  1  0.34317800  0.83859800  0.63906900  1
  Sb  Sb54  1  0.51687500  0.35682200  0.53547000  1
  Sb  Sb55  1  0.83994400  0.48312200  0.53545600  1
  Sb  Sb56  1  0.64317700  0.16005700  0.53545900  1
  Sb  Sb57  1  0.48312500  0.64317800  0.03547000  1
  Sb  Sb58  1  0.16005600  0.51687800  0.03545600  1
  Sb  Sb59  1  0.35682300  0.83994300  0.03545900  1
  Sb  Sb60  1  0.30950500  0.48652100  0.14142900  1
  Sb  Sb61  1  0.17701900  0.69049700  0.14142600  1
  Sb  Sb62  1  0.51348200  0.82298400  0.14143700  1
  Sb  Sb63  1  0.69049500  0.51347900  0.64142900  1
  Sb  Sb64  1  0.82298100  0.30950300  0.64142600  1
  Sb  Sb65  1  0.48651800  0.17701600  0.64143700  1
  Sb  Sb66  1  0.32275700  0.50093600  0.53269900  1
  Sb  Sb67  1  0.17817800  0.67724500  0.53269600  1
  Sb  Sb68  1  0.49906700  0.82182300  0.53270100  1
  Sb  Sb69  1  0.67724300  0.49906400  0.03269900  1
  Sb  Sb70  1  0.82182200  0.32275500  0.03269600  1
  Sb  Sb71  1  0.50093300  0.17817700  0.03270100  1
  N  N72  1  0.60658900  0.38249500  0.02897600  1
  N  N73  1  0.77591000  0.39341200  0.02896600  1
  N  N74  1  0.61750200  0.22408900  0.02895800  1
  N  N75  1  0.39341100  0.61750500  0.52897600  1
  N  N76  1  0.22409000  0.60658800  0.52896600  1
  N  N77  1  0.38249800  0.77591100  0.52895800  1
  N  N78  1  0.20379600  0.10468900  0.45843900  1
  N  N79  1  0.90089500  0.79623000  0.45839700  1
  N  N80  1  0.89532000  0.09910600  0.45842200  1
  N  N81  1  0.79620400  0.89531100  0.95843900  1
  N  N82  1  0.09910500  0.20377000  0.95839700  1
  N  N83  1  0.10468000  0.90089400  0.95842200  1
  N  N84  1  0.05710100  0.10606100  0.59278800  1
  N  N85  1  0.04895800  0.94289900  0.59280200  1
  N  N86  1  0.89393300  0.95104200  0.59284200  1
  N  N87  1  0.94289900  0.89393900  0.09278800  1
  N  N88  1  0.95104200  0.05710100  0.09280200  1
  N  N89  1  0.10606700  0.04895800  0.09284200  1
  N  N90  1  0.26347100  0.21442400  0.03442700  1
  N  N91  1  0.95095800  0.73653200  0.03442600  1
  N  N92  1  0.78557700  0.04904200  0.03442900  1
  N  N93  1  0.73652900  0.78557600  0.53442700  1
  N  N94  1  0.04904200  0.26346800  0.53442600  1
  N  N95  1  0.21442300  0.95095800  0.53442900  1
  N  N96  1  0.23418700  0.27143600  0.61896700  1
  N  N97  1  0.03723800  0.76581000  0.61897400  1
  N  N98  1  0.72856700  0.96275800  0.61897700  1
  N  N99  1  0.76581300  0.72856400  0.11896700  1
  N  N100  1  0.96276200  0.23419000  0.11897400  1
  N  N101  1  0.27143300  0.03724200  0.11897700  1
  N  N102  1  0.55942600  0.28313200  0.55395300  1
  N  N103  1  0.72370400  0.44057300  0.55392900  1
  N  N104  1  0.71686500  0.27629700  0.55393600  1
  N  N105  1  0.44057400  0.71686800  0.05395300  1
  N  N106  1  0.27629600  0.55942700  0.05392900  1
  N  N107  1  0.28313500  0.72370300  0.05393600  1
  N  N108  1  0.13310200  0.20221000  0.29574900  1
  N  N109  1  0.06910700  0.86691400  0.29575600  1
  N  N110  1  0.79783000  0.93089300  0.29576800  1
  N  N111  1  0.86689800  0.79779000  0.79574900  1
  N  N112  1  0.93089300  0.13308600  0.79575600  1
  N  N113  1  0.20217000  0.06910700  0.79576800  1
  N  N114  1  0.41120200  0.31255500  0.63020700  1
  N  N115  1  0.90134700  0.58879500  0.63019400  1
  N  N116  1  0.68744700  0.09865300  0.63019500  1
  N  N117  1  0.58879800  0.68744500  0.13020700  1
  N  N118  1  0.09865300  0.41120500  0.13019400  1
  N  N119  1  0.31255300  0.90134700  0.13019500  1
  N  N120  1  0.39009100  0.45228100  0.56801700  1
  N  N121  1  0.06219000  0.60991200  0.56802100  1
  N  N122  1  0.54772000  0.93781100  0.56802400  1
  N  N123  1  0.60990900  0.54771900  0.06801700  1
  N  N124  1  0.93781000  0.39008800  0.06802100  1
  N  N125  1  0.45228000  0.06218900  0.06802400  1
  N  N126  1  0.43041500  0.36421500  0.01707900  1
  N  N127  1  0.93379600  0.56958900  0.01706600  1
  N  N128  1  0.63579200  0.06620200  0.01707000  1
  N  N129  1  0.56958500  0.63578500  0.51707900  1
  N  N130  1  0.06620400  0.43041100  0.51706600  1
  N  N131  1  0.36420800  0.93379800  0.51707000  1
  N  N132  1  0.53997000  0.40598500  0.33083100  1
  N  N133  1  0.86603100  0.46004500  0.33082200  1
  N  N134  1  0.59401500  0.13397000  0.33082100  1
  N  N135  1  0.46003000  0.59401500  0.83083100  1
  N  N136  1  0.13396900  0.53995500  0.83082200  1
  N  N137  1  0.40598500  0.86603000  0.83082100  1
  N  N138  1  0.27127900  0.38124700  0.04178400  1
  N  N139  1  0.10996800  0.72872000  0.04177600  1
  N  N140  1  0.61875600  0.89003000  0.04178800  1
  N  N141  1  0.72872100  0.61875300  0.54178400  1
  N  N142  1  0.89003200  0.27128000  0.54177600  1
  N  N143  1  0.38124400  0.10997000  0.54178800  1
  N  N144  1  0.87708800  0.42476800  0.66374300  1
  N  N145  1  0.54767500  0.12290600  0.66373700  1
  N  N146  1  0.57523000  0.45232200  0.66375000  1
  N  N147  1  0.12291200  0.57523200  0.16374300  1
  N  N148  1  0.45232500  0.87709400  0.16373700  1
  N  N149  1  0.42477000  0.54767800  0.16375000  1
  N  N150  1  0.26069800  0.45616000  0.34546800  1
  N  N151  1  0.19545400  0.73930300  0.34546600  1
  N  N152  1  0.54385800  0.80455400  0.34547600  1
  N  N153  1  0.73930200  0.54384000  0.84546800  1
  N  N154  1  0.80454600  0.26069700  0.84546600  1
  N  N155  1  0.45614200  0.19544600  0.84547600  1
  N  N156  1  0.34071200  0.29483300  0.31992600  1
  N  N157  1  0.95412700  0.65930300  0.31992400  1
  N  N158  1  0.70518200  0.04586700  0.31992700  1
  N  N159  1  0.65928800  0.70516700  0.81992600  1
  N  N160  1  0.04587300  0.34069700  0.81992400  1
  N  N161  1  0.29481800  0.95413300  0.81992700  1
  N  N162  1  0.23801600  0.46891300  0.68820700  1
  N  N163  1  0.23089500  0.76198700  0.68820100  1
  N  N164  1  0.53108300  0.76910300  0.68821800  1
  N  N165  1  0.76198400  0.53108700  0.18820700  1
  N  N166  1  0.76910500  0.23801300  0.18820100  1
  N  N167  1  0.46891700  0.23089700  0.18821800  1
