# generated using pymatgen
data_MgV3CrS8
_symmetry_space_group_name_H-M   'P 1'
_cell_length_a   6.96194620
_cell_length_b   7.07710193
_cell_length_c   6.96371915
_cell_angle_alpha   60.46589820
_cell_angle_beta   59.95113777
_cell_angle_gamma   60.47660504
_symmetry_Int_Tables_number   1
_chemical_formula_structural   MgV3CrS8
_chemical_formula_sum   'Mg1 V3 Cr1 S8'
_cell_volume   244.23421296
_cell_formula_units_Z   1
loop_
 _symmetry_equiv_pos_site_id
 _symmetry_equiv_pos_as_xyz
  1  'x, y, z'
loop_
 _atom_site_type_symbol
 _atom_site_label
 _atom_site_symmetry_multiplicity
 _atom_site_fract_x
 _atom_site_fract_y
 _atom_site_fract_z
 _atom_site_occupancy
  Mg  Mg0  1  0.12846200  0.11389800  0.12913700  1
  V  V1  1  0.51655900  0.51035800  0.51624300  1
  V  V2  1  0.51639700  0.51062300  0.95635500  1
  V  V3  1  0.95664600  0.51051500  0.51617900  1
  Cr  Cr4  1  0.50455600  0.98640500  0.50488700  1
  S  S5  1  0.74739300  0.74705300  0.74765200  1
  S  S6  1  0.26245200  0.26749400  0.70749400  1
  S  S7  1  0.26576000  0.70259300  0.26565700  1
  S  S8  1  0.70765900  0.26733700  0.26241000  1
  S  S9  1  0.75112000  0.24691600  0.75108900  1
  S  S10  1  0.25812400  0.74720000  0.74739400  1
  S  S11  1  0.26257300  0.26732400  0.26248100  1
  S  S12  1  0.74731400  0.74727900  0.25800600  1
