# generated using pymatgen
data_ZrCrAgS4
_symmetry_space_group_name_H-M   'P 1'
_cell_length_a   14.08267127
_cell_length_b   3.63743300
_cell_length_c   6.10882741
_cell_angle_alpha   90.00000000
_cell_angle_beta   114.38607278
_cell_angle_gamma   90.00000000
_symmetry_Int_Tables_number   1
_chemical_formula_structural   ZrCrAgS4
_chemical_formula_sum   'Zr2 Cr2 Ag2 S8'
_cell_volume   285.00554945
_cell_formula_units_Z   2
loop_
 _symmetry_equiv_pos_site_id
 _symmetry_equiv_pos_as_xyz
  1  'x, y, z'
loop_
 _atom_site_type_symbol
 _atom_site_label
 _atom_site_symmetry_multiplicity
 _atom_site_fract_x
 _atom_site_fract_y
 _atom_site_fract_z
 _atom_site_occupancy
  Zr  Zr0  1  0.24573500  0.00000000  0.22666300  1
  Zr  Zr1  1  0.74573500  0.50000000  0.22666300  1
  Cr  Cr2  1  0.75466500  0.00000000  0.77064200  1
  Cr  Cr3  1  0.25466500  0.50000000  0.77064200  1
  Ag  Ag4  1  0.99722900  0.50000000  0.48193500  1
  Ag  Ag5  1  0.49722900  0.00000000  0.48193500  1
  S  S6  1  0.12988500  0.50000000  0.95884100  1
  S  S7  1  0.86561200  0.50000000  0.01503900  1
  S  S8  1  0.62988500  0.00000000  0.95884100  1
  S  S9  1  0.36561200  0.00000000  0.01503900  1
  S  S10  1  0.15023500  0.00000000  0.51216900  1
  S  S11  1  0.85663700  0.00000000  0.53471100  1
  S  S12  1  0.65023500  0.50000000  0.51216900  1
  S  S13  1  0.35663700  0.50000000  0.53471100  1
