# generated using pymatgen
data_Ba3B3N5
_symmetry_space_group_name_H-M   'P 1'
_cell_length_a   7.38808946
_cell_length_b   6.67294860
_cell_length_c   11.77835545
_cell_angle_alpha   96.20148198
_cell_angle_beta   139.34680952
_cell_angle_gamma   91.33290500
_symmetry_Int_Tables_number   1
_chemical_formula_structural   Ba3B3N5
_chemical_formula_sum   'Ba6 B6 N10'
_cell_volume   371.08906370
_cell_formula_units_Z   2
loop_
 _symmetry_equiv_pos_site_id
 _symmetry_equiv_pos_as_xyz
  1  'x, y, z'
loop_
 _atom_site_type_symbol
 _atom_site_label
 _atom_site_symmetry_multiplicity
 _atom_site_fract_x
 _atom_site_fract_y
 _atom_site_fract_z
 _atom_site_occupancy
  Ba  Ba0  1  0.69701400  0.28351200  0.63514700  1
  Ba  Ba1  1  0.30298600  0.71648800  0.36485300  1
  Ba  Ba2  1  0.56657800  0.88591200  0.85971900  1
  Ba  Ba3  1  0.43342200  0.11408800  0.14028100  1
  Ba  Ba4  1  0.74438000  0.66827100  0.29846800  1
  Ba  Ba5  1  0.25562000  0.33172900  0.70153200  1
  B  B6  1  0.93023900  0.41389400  0.02464100  1
  B  B7  1  0.06976100  0.58610600  0.97535900  1
  B  B8  1  0.88907000  0.90647800  0.59274900  1
  B  B9  1  0.11093000  0.09352200  0.40725100  1
  B  B10  1  0.07542100  0.78752400  0.79391800  1
  B  B11  1  0.92457900  0.21247600  0.20608200  1
  N  N12  1  0.10056200  0.01017500  0.78576600  1
  N  N13  1  0.89943800  0.98982500  0.21423400  1
  N  N14  1  0.92889100  0.68013800  0.61680800  1
  N  N15  1  0.07110900  0.31986200  0.38319200  1
  N  N16  1  0.77598000  0.53931600  0.88186800  1
  N  N17  1  0.22402000  0.46068400  0.11813200  1
  N  N18  1  0.31847400  0.01436500  0.56474500  1
  N  N19  1  0.68152600  0.98563500  0.43525500  1
  N  N20  1  0.17762100  0.70506900  0.93886700  1
  N  N21  1  0.82237900  0.29493100  0.06113300  1
