# generated using pymatgen
data_MgInWS4
_symmetry_space_group_name_H-M   'P 1'
_cell_length_a   7.54634853
_cell_length_b   7.57007150
_cell_length_c   7.56918750
_cell_angle_alpha   59.98645377
_cell_angle_beta   60.10538005
_cell_angle_gamma   60.08512534
_symmetry_Int_Tables_number   1
_chemical_formula_structural   MgInWS4
_chemical_formula_sum   'Mg2 In2 W2 S8'
_cell_volume   306.16126662
_cell_formula_units_Z   2
loop_
 _symmetry_equiv_pos_site_id
 _symmetry_equiv_pos_as_xyz
  1  'x, y, z'
loop_
 _atom_site_type_symbol
 _atom_site_label
 _atom_site_symmetry_multiplicity
 _atom_site_fract_x
 _atom_site_fract_y
 _atom_site_fract_z
 _atom_site_occupancy
  Mg  Mg0  1  0.87373200  0.87620100  0.87623200  1
  Mg  Mg1  1  0.12618000  0.12380000  0.12379400  1
  In  In2  1  0.49997400  0.50012300  0.49989800  1
  In  In3  1  0.99994200  0.49996100  0.50011000  1
  W  W4  1  0.49998400  0.50001300  0.99998700  1
  W  W5  1  0.50008100  0.99982300  0.50000800  1
  S  S6  1  0.72227900  0.74728200  0.74744300  1
  S  S7  1  0.26769000  0.23935100  0.72528500  1
  S  S8  1  0.26771800  0.72527500  0.23927500  1
  S  S9  1  0.71705700  0.25261700  0.25259500  1
  S  S10  1  0.73225600  0.27479700  0.76073600  1
  S  S11  1  0.28299100  0.74734600  0.74744100  1
  S  S12  1  0.27774400  0.25269400  0.25262200  1
  S  S13  1  0.73237500  0.76071200  0.27457500  1
