# generated using pymatgen
data_Ca4SeN4
_symmetry_space_group_name_H-M   'P 1'
_cell_length_a   12.96823700
_cell_length_b   3.64929100
_cell_length_c   13.47036500
_cell_angle_alpha   90.00000000
_cell_angle_beta   90.00000000
_cell_angle_gamma   90.00000000
_symmetry_Int_Tables_number   1
_chemical_formula_structural   Ca4SeN4
_chemical_formula_sum   'Ca16 Se4 N16'
_cell_volume   637.48328016
_cell_formula_units_Z   4
loop_
 _symmetry_equiv_pos_site_id
 _symmetry_equiv_pos_as_xyz
  1  'x, y, z'
loop_
 _atom_site_type_symbol
 _atom_site_label
 _atom_site_symmetry_multiplicity
 _atom_site_fract_x
 _atom_site_fract_y
 _atom_site_fract_z
 _atom_site_occupancy
  Ca  Ca0  1  0.00787400  0.25000000  0.11561700  1
  Ca  Ca1  1  0.50787400  0.25000000  0.38438300  1
  Ca  Ca2  1  0.99212600  0.75000000  0.88438300  1
  Ca  Ca3  1  0.49212600  0.75000000  0.61561700  1
  Ca  Ca4  1  0.76661000  0.25000000  0.03150100  1
  Ca  Ca5  1  0.26661000  0.25000000  0.46849900  1
  Ca  Ca6  1  0.23339000  0.75000000  0.96849900  1
  Ca  Ca7  1  0.73339000  0.75000000  0.53150100  1
  Ca  Ca8  1  0.45977400  0.25000000  0.86815700  1
  Ca  Ca9  1  0.95977400  0.25000000  0.63184300  1
  Ca  Ca10  1  0.54022600  0.75000000  0.13184300  1
  Ca  Ca11  1  0.04022600  0.75000000  0.36815700  1
  Ca  Ca12  1  0.24067200  0.25000000  0.74144300  1
  Ca  Ca13  1  0.74067200  0.25000000  0.75855700  1
  Ca  Ca14  1  0.75932800  0.75000000  0.25855700  1
  Ca  Ca15  1  0.25932800  0.75000000  0.24144300  1
  Se  Se16  1  0.36570200  0.25000000  0.08765600  1
  Se  Se17  1  0.86570200  0.25000000  0.41234400  1
  Se  Se18  1  0.63429800  0.75000000  0.91234400  1
  Se  Se19  1  0.13429800  0.75000000  0.58765600  1
  N  N20  1  0.66729600  0.25000000  0.16578900  1
  N  N21  1  0.16729600  0.25000000  0.33421100  1
  N  N22  1  0.33270400  0.75000000  0.83421100  1
  N  N23  1  0.83270400  0.75000000  0.66578900  1
  N  N24  1  0.13211600  0.25000000  0.87740600  1
  N  N25  1  0.63211600  0.25000000  0.62259400  1
  N  N26  1  0.86788400  0.75000000  0.12259400  1
  N  N27  1  0.36788400  0.75000000  0.37740600  1
  N  N28  1  0.09339900  0.25000000  0.96755400  1
  N  N29  1  0.59339900  0.25000000  0.53244600  1
  N  N30  1  0.90660100  0.75000000  0.03244600  1
  N  N31  1  0.40660100  0.75000000  0.46755400  1
  N  N32  1  0.61033900  0.25000000  0.24923200  1
  N  N33  1  0.11033900  0.25000000  0.25076800  1
  N  N34  1  0.38966100  0.75000000  0.75076800  1
  N  N35  1  0.88966100  0.75000000  0.74923200  1
