# generated using pymatgen
data_Sr(CoN)2
_symmetry_space_group_name_H-M   'P 1'
_cell_length_a   3.34999200
_cell_length_b   3.34998962
_cell_length_c   6.17473300
_cell_angle_alpha   89.99999627
_cell_angle_beta   90.00012409
_cell_angle_gamma   119.99998668
_symmetry_Int_Tables_number   1
_chemical_formula_structural   Sr(CoN)2
_chemical_formula_sum   'Sr1 Co2 N2'
_cell_volume   60.01172410
_cell_formula_units_Z   1
loop_
 _symmetry_equiv_pos_site_id
 _symmetry_equiv_pos_as_xyz
  1  'x, y, z'
loop_
 _atom_site_type_symbol
 _atom_site_label
 _atom_site_symmetry_multiplicity
 _atom_site_fract_x
 _atom_site_fract_y
 _atom_site_fract_z
 _atom_site_occupancy
  Sr  Sr0  1  0.00000000  0.00000000  0.50000000  1
  Co  Co1  1  0.66666900  0.33333500  0.11897900  1
  Co  Co2  1  0.33333100  0.66666500  0.88102100  1
  N  N3  1  0.66666400  0.33333200  0.80484700  1
  N  N4  1  0.33333600  0.66666800  0.19515300  1
