# generated using pymatgen
data_Y4S3N2
_symmetry_space_group_name_H-M   'P 1'
_cell_length_a   6.59596600
_cell_length_b   14.70670800
_cell_length_c   3.82746200
_cell_angle_alpha   90.00000000
_cell_angle_beta   90.00000000
_cell_angle_gamma   90.00000000
_symmetry_Int_Tables_number   1
_chemical_formula_structural   Y4S3N2
_chemical_formula_sum   'Y8 S6 N4'
_cell_volume   371.28274440
_cell_formula_units_Z   2
loop_
 _symmetry_equiv_pos_site_id
 _symmetry_equiv_pos_as_xyz
  1  'x, y, z'
loop_
 _atom_site_type_symbol
 _atom_site_label
 _atom_site_symmetry_multiplicity
 _atom_site_fract_x
 _atom_site_fract_y
 _atom_site_fract_z
 _atom_site_occupancy
  Y  Y0  1  0.71343900  0.93649300  0.50000000  1
  Y  Y1  1  0.28656100  0.06350700  0.50000000  1
  Y  Y2  1  0.21343900  0.56350700  0.00000000  1
  Y  Y3  1  0.78656100  0.43649300  0.00000000  1
  Y  Y4  1  0.78526500  0.65547700  0.50000000  1
  Y  Y5  1  0.21473500  0.34452300  0.50000000  1
  Y  Y6  1  0.28526500  0.84452300  0.00000000  1
  Y  Y7  1  0.71473500  0.15547700  0.00000000  1
  S  S8  1  0.50000000  0.50000000  0.50000000  1
  S  S9  1  0.00000000  0.00000000  0.00000000  1
  S  S10  1  0.79782900  0.29759100  0.50000000  1
  S  S11  1  0.20217100  0.70240900  0.50000000  1
  S  S12  1  0.29782900  0.20240900  0.00000000  1
  S  S13  1  0.70217100  0.79759100  0.00000000  1
  N  N14  1  0.62353700  0.08388500  0.50000000  1
  N  N15  1  0.37646300  0.91611500  0.50000000  1
  N  N16  1  0.12353700  0.41611500  0.00000000  1
  N  N17  1  0.87646300  0.58388500  0.00000000  1
