# generated using pymatgen
data_FeGeN2
_symmetry_space_group_name_H-M   'P 1'
_cell_length_a   5.25355900
_cell_length_b   10.65351100
_cell_length_c   13.01680100
_cell_angle_alpha   90.00000000
_cell_angle_beta   90.00000000
_cell_angle_gamma   90.00000000
_symmetry_Int_Tables_number   1
_chemical_formula_structural   FeGeN2
_chemical_formula_sum   'Fe16 Ge16 N32'
_cell_volume   728.53536437
_cell_formula_units_Z   16
loop_
 _symmetry_equiv_pos_site_id
 _symmetry_equiv_pos_as_xyz
  1  'x, y, z'
loop_
 _atom_site_type_symbol
 _atom_site_label
 _atom_site_symmetry_multiplicity
 _atom_site_fract_x
 _atom_site_fract_y
 _atom_site_fract_z
 _atom_site_occupancy
  Fe  Fe0  1  0.64470600  0.95449300  0.44453700  1
  Fe  Fe1  1  0.14470500  0.54550700  0.55546300  1
  Fe  Fe2  1  0.35529500  0.45449300  0.05546300  1
  Fe  Fe3  1  0.85529400  0.04550700  0.94453700  1
  Fe  Fe4  1  0.35529500  0.04550700  0.55546300  1
  Fe  Fe5  1  0.85529400  0.45449300  0.44453700  1
  Fe  Fe6  1  0.64470600  0.54550700  0.94453700  1
  Fe  Fe7  1  0.14470500  0.95449300  0.05546300  1
  Fe  Fe8  1  0.78051200  0.30239000  0.30625800  1
  Fe  Fe9  1  0.28051200  0.19761000  0.69374200  1
  Fe  Fe10  1  0.21948800  0.80239000  0.19374200  1
  Fe  Fe11  1  0.71948800  0.69761000  0.80625800  1
  Fe  Fe12  1  0.21948800  0.69761000  0.69374200  1
  Fe  Fe13  1  0.71948800  0.80239000  0.30625800  1
  Fe  Fe14  1  0.78051200  0.19761000  0.80625800  1
  Fe  Fe15  1  0.28051200  0.30239000  0.19374200  1
  Ge  Ge16  1  0.61716400  0.04672900  0.18546900  1
  Ge  Ge17  1  0.11716400  0.45327100  0.81453100  1
  Ge  Ge18  1  0.38283600  0.54672900  0.31453100  1
  Ge  Ge19  1  0.88283600  0.95327100  0.68546900  1
  Ge  Ge20  1  0.38283600  0.95327100  0.81453100  1
  Ge  Ge21  1  0.88283600  0.54672900  0.18546900  1
  Ge  Ge22  1  0.61716400  0.45327100  0.68546900  1
  Ge  Ge23  1  0.11716400  0.04672900  0.31453100  1
  Ge  Ge24  1  0.78789500  0.29391900  0.05999700  1
  Ge  Ge25  1  0.28789500  0.20608100  0.94000300  1
  Ge  Ge26  1  0.21210500  0.79391900  0.44000300  1
  Ge  Ge27  1  0.71210500  0.70608100  0.55999700  1
  Ge  Ge28  1  0.21210500  0.70608100  0.94000300  1
  Ge  Ge29  1  0.71210500  0.79391900  0.05999700  1
  Ge  Ge30  1  0.78789500  0.20608100  0.55999700  1
  Ge  Ge31  1  0.28789500  0.29391900  0.44000300  1
  N  N32  1  0.72129000  0.48969500  0.30609100  1
  N  N33  1  0.22129000  0.01030500  0.69390900  1
  N  N34  1  0.27871000  0.98969500  0.19390900  1
  N  N35  1  0.77871000  0.51030500  0.80609100  1
  N  N36  1  0.27871000  0.51030500  0.69390900  1
  N  N37  1  0.77871000  0.98969500  0.30609100  1
  N  N38  1  0.72129000  0.01030500  0.80609100  1
  N  N39  1  0.22129000  0.48969500  0.19390900  1
  N  N40  1  0.64759600  0.29481900  0.44946900  1
  N  N41  1  0.14759600  0.20518100  0.55053100  1
  N  N42  1  0.35240400  0.79481900  0.05053100  1
  N  N43  1  0.85240400  0.70518100  0.94946900  1
  N  N44  1  0.35240400  0.70518100  0.55053100  1
  N  N45  1  0.85240400  0.79481900  0.44946900  1
  N  N46  1  0.64759600  0.20518100  0.94946900  1
  N  N47  1  0.14759600  0.29481900  0.05053100  1
  N  N48  1  0.71519900  0.46906500  0.07250400  1
  N  N49  1  0.21519900  0.03093500  0.92749600  1
  N  N50  1  0.28480100  0.96906500  0.42749600  1
  N  N51  1  0.78480100  0.53093500  0.57250400  1
  N  N52  1  0.28480100  0.53093500  0.92749600  1
  N  N53  1  0.78480100  0.96906500  0.07250400  1
  N  N54  1  0.71519900  0.03093500  0.57250400  1
  N  N55  1  0.21519900  0.46906500  0.42749600  1
  N  N56  1  0.64094600  0.22185400  0.17926100  1
  N  N57  1  0.14094600  0.27814600  0.82073900  1
  N  N58  1  0.35905400  0.72185400  0.32073900  1
  N  N59  1  0.85905400  0.77814600  0.67926100  1
  N  N60  1  0.35905400  0.77814600  0.82073900  1
  N  N61  1  0.85905400  0.72185400  0.17926100  1
  N  N62  1  0.64094600  0.27814600  0.67926100  1
  N  N63  1  0.14094600  0.22185400  0.32073900  1
