# generated using pymatgen
data_ZnRuN2
_symmetry_space_group_name_H-M   'P 1'
_cell_length_a   5.69018600
_cell_length_b   6.45177700
_cell_length_c   5.37339800
_cell_angle_alpha   90.00000000
_cell_angle_beta   90.00000000
_cell_angle_gamma   90.00000000
_symmetry_Int_Tables_number   1
_chemical_formula_structural   ZnRuN2
_chemical_formula_sum   'Zn4 Ru4 N8'
_cell_volume   197.26717267
_cell_formula_units_Z   4
loop_
 _symmetry_equiv_pos_site_id
 _symmetry_equiv_pos_as_xyz
  1  'x, y, z'
loop_
 _atom_site_type_symbol
 _atom_site_label
 _atom_site_symmetry_multiplicity
 _atom_site_fract_x
 _atom_site_fract_y
 _atom_site_fract_z
 _atom_site_occupancy
  Zn  Zn0  1  0.58213700  0.88030800  0.00187800  1
  Zn  Zn1  1  0.41786300  0.11969200  0.50187800  1
  Zn  Zn2  1  0.91786300  0.38030800  0.50187800  1
  Zn  Zn3  1  0.08213700  0.61969200  0.00187800  1
  Ru  Ru4  1  0.56301700  0.36778000  0.00140200  1
  Ru  Ru5  1  0.43698300  0.63222000  0.50140200  1
  Ru  Ru6  1  0.93698300  0.86778000  0.50140200  1
  Ru  Ru7  1  0.06301700  0.13222000  0.00140200  1
  N  N8  1  0.58124000  0.38045200  0.36178800  1
  N  N9  1  0.41876000  0.61954800  0.86178800  1
  N  N10  1  0.91876000  0.88045200  0.86178800  1
  N  N11  1  0.08124000  0.11954800  0.36178800  1
  N  N12  1  0.61227100  0.86964600  0.38493300  1
  N  N13  1  0.38772900  0.13035400  0.88493300  1
  N  N14  1  0.88772900  0.36964600  0.88493300  1
  N  N15  1  0.11227100  0.63035400  0.38493300  1
