# generated using pymatgen
data_Sr3Cr3N5
_symmetry_space_group_name_H-M   'P 1'
_cell_length_a   5.68794587
_cell_length_b   7.19475100
_cell_length_c   8.63791797
_cell_angle_alpha   107.87871921
_cell_angle_beta   103.16157069
_cell_angle_gamma   95.34112570
_symmetry_Int_Tables_number   1
_chemical_formula_structural   Sr3Cr3N5
_chemical_formula_sum   'Sr6 Cr6 N10'
_cell_volume   322.47820996
_cell_formula_units_Z   2
loop_
 _symmetry_equiv_pos_site_id
 _symmetry_equiv_pos_as_xyz
  1  'x, y, z'
loop_
 _atom_site_type_symbol
 _atom_site_label
 _atom_site_symmetry_multiplicity
 _atom_site_fract_x
 _atom_site_fract_y
 _atom_site_fract_z
 _atom_site_occupancy
  Sr  Sr0  1  0.81340100  0.42061300  0.61132100  1
  Sr  Sr1  1  0.18659900  0.57938700  0.38867900  1
  Sr  Sr2  1  0.66188500  0.86847500  0.88240200  1
  Sr  Sr3  1  0.33811500  0.13152500  0.11759800  1
  Sr  Sr4  1  0.65233700  0.67958000  0.20861400  1
  Sr  Sr5  1  0.34766300  0.32042000  0.79138600  1
  Cr  Cr6  1  0.91399900  0.32324600  0.97295200  1
  Cr  Cr7  1  0.08600100  0.67675400  0.02704800  1
  Cr  Cr8  1  0.69099100  0.96095300  0.57230700  1
  Cr  Cr9  1  0.30900900  0.03904700  0.42769300  1
  Cr  Cr10  1  0.09722900  0.88735900  0.69970000  1
  Cr  Cr11  1  0.90277100  0.11264100  0.30030000  1
  N  N12  1  0.92749400  0.11373700  0.78225200  1
  N  N13  1  0.07250600  0.88626300  0.21774800  1
  N  N14  1  0.82171400  0.72839500  0.52024200  1
  N  N15  1  0.17828600  0.27160500  0.47975800  1
  N  N16  1  0.76830700  0.53045900  0.92196600  1
  N  N17  1  0.23169300  0.46954100  0.07803400  1
  N  N18  1  0.37257700  0.93842600  0.61597500  1
  N  N19  1  0.62742300  0.06157400  0.38402500  1
  N  N20  1  0.16242100  0.78514000  0.87093000  1
  N  N21  1  0.83757900  0.21486000  0.12907000  1
