# generated using pymatgen
data_Sr2MoN3
_symmetry_space_group_name_H-M   'P 1'
_cell_length_a   6.34402835
_cell_length_b   11.23512413
_cell_length_c   12.52897509
_cell_angle_alpha   89.99999845
_cell_angle_beta   90.92108504
_cell_angle_gamma   152.31165767
_symmetry_Int_Tables_number   1
_chemical_formula_structural   Sr2MoN3
_chemical_formula_sum   'Sr8 Mo4 N12'
_cell_volume   414.70143783
_cell_formula_units_Z   4
loop_
 _symmetry_equiv_pos_site_id
 _symmetry_equiv_pos_as_xyz
  1  'x, y, z'
loop_
 _atom_site_type_symbol
 _atom_site_label
 _atom_site_symmetry_multiplicity
 _atom_site_fract_x
 _atom_site_fract_y
 _atom_site_fract_z
 _atom_site_occupancy
  Sr  Sr0  1  0.46606600  0.03461500  0.85643100  1
  Sr  Sr1  1  0.53393400  0.56854900  0.64356900  1
  Sr  Sr2  1  0.53393400  0.96538500  0.14356900  1
  Sr  Sr3  1  0.46606600  0.43145100  0.35643100  1
  Sr  Sr4  1  0.54569200  0.88512200  0.58203200  1
  Sr  Sr5  1  0.45430800  0.33943000  0.91796800  1
  Sr  Sr6  1  0.45430800  0.11487800  0.41796800  1
  Sr  Sr7  1  0.54569200  0.66057000  0.08203200  1
  Mo  Mo8  1  0.53325500  0.26720500  0.66115100  1
  Mo  Mo9  1  0.46674500  0.73395000  0.83884900  1
  Mo  Mo10  1  0.46674500  0.73279500  0.33884900  1
  Mo  Mo11  1  0.53325500  0.26605000  0.16115100  1
  N  N12  1  0.00000000  0.58804200  0.75000000  1
  N  N13  1  0.00000000  0.41195800  0.25000000  1
  N  N14  1  0.62695500  0.15276500  0.62967900  1
  N  N15  1  0.37304500  0.52580800  0.87032100  1
  N  N16  1  0.37304500  0.84723500  0.37032100  1
  N  N17  1  0.62695500  0.47419200  0.12967900  1
  N  N18  1  0.43228300  0.12141400  0.03960700  1
  N  N19  1  0.56771700  0.68913100  0.46039300  1
  N  N20  1  0.56771700  0.87858600  0.96039300  1
  N  N21  1  0.43228300  0.31086900  0.53960700  1
  N  N22  1  0.00000000  0.00630900  0.75000000  1
  N  N23  1  0.00000000  0.99369100  0.25000000  1
