# generated using pymatgen
data_Ba3Mo3N5
_symmetry_space_group_name_H-M   'P 1'
_cell_length_a   6.22112474
_cell_length_b   7.56947297
_cell_length_c   9.27630302
_cell_angle_alpha   106.97330630
_cell_angle_beta   101.83391268
_cell_angle_gamma   94.62373844
_symmetry_Int_Tables_number   1
_chemical_formula_structural   Ba3Mo3N5
_chemical_formula_sum   'Ba6 Mo6 N10'
_cell_volume   404.28875479
_cell_formula_units_Z   2
loop_
 _symmetry_equiv_pos_site_id
 _symmetry_equiv_pos_as_xyz
  1  'x, y, z'
loop_
 _atom_site_type_symbol
 _atom_site_label
 _atom_site_symmetry_multiplicity
 _atom_site_fract_x
 _atom_site_fract_y
 _atom_site_fract_z
 _atom_site_occupancy
  Ba  Ba0  1  0.81658800  0.42599000  0.61342600  1
  Ba  Ba1  1  0.18341200  0.57401000  0.38657400  1
  Ba  Ba2  1  0.65104600  0.86590100  0.88287800  1
  Ba  Ba3  1  0.34895400  0.13409900  0.11712200  1
  Ba  Ba4  1  0.64552800  0.65718600  0.21320000  1
  Ba  Ba5  1  0.35447200  0.34281400  0.78680000  1
  Mo  Mo6  1  0.91700900  0.31721200  0.97201800  1
  Mo  Mo7  1  0.08299100  0.68278800  0.02798200  1
  Mo  Mo8  1  0.69487600  0.95769100  0.57110500  1
  Mo  Mo9  1  0.30512400  0.04230900  0.42889500  1
  Mo  Mo10  1  0.10986500  0.90061500  0.70157700  1
  Mo  Mo11  1  0.89013500  0.09938500  0.29842300  1
  N  N12  1  0.91813800  0.11750700  0.77670800  1
  N  N13  1  0.08186200  0.88249300  0.22329200  1
  N  N14  1  0.86243200  0.74238600  0.52563500  1
  N  N15  1  0.13756800  0.25761400  0.47436500  1
  N  N16  1  0.77588400  0.53643300  0.93399000  1
  N  N17  1  0.22411600  0.46356700  0.06601000  1
  N  N18  1  0.38035900  0.94301000  0.61807300  1
  N  N19  1  0.61964100  0.05699000  0.38192700  1
  N  N20  1  0.15371100  0.78958900  0.86961700  1
  N  N21  1  0.84628900  0.21041100  0.13038300  1
