# generated using pymatgen
data_LuMgTiS4
_symmetry_space_group_name_H-M   'P 1'
_cell_length_a   7.68933686
_cell_length_b   7.55697552
_cell_length_c   7.55661659
_cell_angle_alpha   58.81141475
_cell_angle_beta   59.41595062
_cell_angle_gamma   59.42008748
_symmetry_Int_Tables_number   1
_chemical_formula_structural   LuMgTiS4
_chemical_formula_sum   'Lu2 Mg2 Ti2 S8'
_cell_volume   304.92107388
_cell_formula_units_Z   2
loop_
 _symmetry_equiv_pos_site_id
 _symmetry_equiv_pos_as_xyz
  1  'x, y, z'
loop_
 _atom_site_type_symbol
 _atom_site_label
 _atom_site_symmetry_multiplicity
 _atom_site_fract_x
 _atom_site_fract_y
 _atom_site_fract_z
 _atom_site_occupancy
  Lu  Lu0  1  0.49999900  0.50001700  0.49997400  1
  Lu  Lu1  1  0.00000500  0.49999100  0.50000900  1
  Mg  Mg2  1  0.87717900  0.87285100  0.87286300  1
  Mg  Mg3  1  0.12282200  0.12715700  0.12715000  1
  Ti  Ti4  1  0.49999700  0.50000900  0.99999000  1
  Ti  Ti5  1  0.50000600  0.99998700  0.50000000  1
  S  S6  1  0.72554700  0.75013900  0.75018400  1
  S  S7  1  0.26611400  0.23898800  0.72877700  1
  S  S8  1  0.26613200  0.72876800  0.23900300  1
  S  S9  1  0.72586600  0.24987400  0.24985700  1
  S  S10  1  0.73385200  0.27122900  0.76098900  1
  S  S11  1  0.27413600  0.75011500  0.75014100  1
  S  S12  1  0.27445100  0.24985900  0.24983600  1
  S  S13  1  0.73389800  0.76101100  0.27122900  1
