# generated using pymatgen
data_Na3Si3N5
_symmetry_space_group_name_H-M   'P 1'
_cell_length_a   5.36504723
_cell_length_b   6.78556857
_cell_length_c   7.97034162
_cell_angle_alpha   108.20858619
_cell_angle_beta   97.59391394
_cell_angle_gamma   97.83431905
_symmetry_Int_Tables_number   1
_chemical_formula_structural   Na3Si3N5
_chemical_formula_sum   'Na6 Si6 N10'
_cell_volume   268.30829435
_cell_formula_units_Z   2
loop_
 _symmetry_equiv_pos_site_id
 _symmetry_equiv_pos_as_xyz
  1  'x, y, z'
loop_
 _atom_site_type_symbol
 _atom_site_label
 _atom_site_symmetry_multiplicity
 _atom_site_fract_x
 _atom_site_fract_y
 _atom_site_fract_z
 _atom_site_occupancy
  Na  Na0  1  0.83319530  0.43069215  0.61907196  1
  Na  Na1  1  0.16680470  0.56930785  0.38092804  1
  Na  Na2  1  0.64700560  0.83439864  0.89744129  1
  Na  Na3  1  0.35299440  0.16560136  0.10255871  1
  Na  Na4  1  0.65412374  0.61727475  0.21942238  1
  Na  Na5  1  0.34587626  0.38272525  0.78057762  1
  Si  Si6  1  0.91905668  0.31863727  0.97904411  1
  Si  Si7  1  0.08094332  0.68136273  0.02095589  1
  Si  Si8  1  0.69244469  0.95677311  0.58483614  1
  Si  Si9  1  0.30755531  0.04322689  0.41516386  1
  Si  Si10  1  0.09950600  0.88821024  0.71208073  1
  Si  Si11  1  0.90049400  0.11178976  0.28791927  1
  N  N12  1  0.92938066  0.11006934  0.77562055  1
  N  N13  1  0.07061934  0.88993066  0.22437945  1
  N  N14  1  0.83328155  0.73877427  0.54540683  1
  N  N15  1  0.16671845  0.26122573  0.45459317  1
  N  N16  1  0.77761855  0.51528968  0.92581736  1
  N  N17  1  0.22238145  0.48471032  0.07418264  1
  N  N18  1  0.36145257  0.94875578  0.60161358  1
  N  N19  1  0.63854743  0.05124422  0.39838642  1
  N  N20  1  0.20513634  0.79590348  0.87644531  1
  N  N21  1  0.79486366  0.20409652  0.12355469  1
