# generated using pymatgen
data_Ca2MgN2
_symmetry_space_group_name_H-M   'P 1'
_cell_length_a   3.58884260
_cell_length_b   3.59747274
_cell_length_c   8.23097514
_cell_angle_alpha   90.00000037
_cell_angle_beta   89.92828484
_cell_angle_gamma   120.07957480
_symmetry_Int_Tables_number   1
_chemical_formula_structural   Ca2MgN2
_chemical_formula_sum   'Ca2 Mg1 N2'
_cell_volume   91.95695763
_cell_formula_units_Z   1
loop_
 _symmetry_equiv_pos_site_id
 _symmetry_equiv_pos_as_xyz
  1  'x, y, z'
loop_
 _atom_site_type_symbol
 _atom_site_label
 _atom_site_symmetry_multiplicity
 _atom_site_fract_x
 _atom_site_fract_y
 _atom_site_fract_z
 _atom_site_occupancy
  Ca  Ca0  1  0.66744500  0.33372200  0.27556300  1
  Ca  Ca1  1  0.33255500  0.66627800  0.72443700  1
  Mg  Mg2  1  0.00000000  0.00000000  0.00000000  1
  N  N3  1  0.66442800  0.33221400  0.84164700  1
  N  N4  1  0.33557200  0.66778600  0.15835300  1
