# generated using pymatgen
data_DyMg2Mo3S8
_symmetry_space_group_name_H-M   'P 1'
_cell_length_a   7.48385029
_cell_length_b   7.48367702
_cell_length_c   7.48387003
_cell_angle_alpha   60.89952088
_cell_angle_beta   60.90222503
_cell_angle_gamma   60.89927702
_symmetry_Int_Tables_number   1
_chemical_formula_structural   DyMg2Mo3S8
_chemical_formula_sum   'Dy1 Mg2 Mo3 S8'
_cell_volume   302.39636894
_cell_formula_units_Z   1
loop_
 _symmetry_equiv_pos_site_id
 _symmetry_equiv_pos_as_xyz
  1  'x, y, z'
loop_
 _atom_site_type_symbol
 _atom_site_label
 _atom_site_symmetry_multiplicity
 _atom_site_fract_x
 _atom_site_fract_y
 _atom_site_fract_z
 _atom_site_occupancy
  Dy  Dy0  1  0.49999700  0.50002100  0.49998000  1
  Mg  Mg1  1  0.87636700  0.87638300  0.87636300  1
  Mg  Mg2  1  0.12363700  0.12361900  0.12363300  1
  Mo  Mo3  1  0.49999800  0.49999400  0.00000400  1
  Mo  Mo4  1  0.00000300  0.49999500  0.50000300  1
  Mo  Mo5  1  0.49999700  0.00000100  0.50000400  1
  S  S6  1  0.73855500  0.73853800  0.73856300  1
  S  S7  1  0.24706600  0.24705600  0.72520900  1
  S  S8  1  0.24706600  0.72520700  0.24704900  1
  S  S9  1  0.72521000  0.24706800  0.24705500  1
  S  S10  1  0.75293000  0.27478400  0.75295100  1
  S  S11  1  0.27478500  0.75293000  0.75294800  1
  S  S12  1  0.26144500  0.26144400  0.26145100  1
  S  S13  1  0.75294700  0.75295400  0.27478800  1
