# generated using pymatgen
data_Zn3Bi3N5
_symmetry_space_group_name_H-M   'P 1'
_cell_length_a   6.40323167
_cell_length_b   6.32081099
_cell_length_c   9.49706766
_cell_angle_alpha   92.95931515
_cell_angle_beta   99.77503044
_cell_angle_gamma   86.86881169
_symmetry_Int_Tables_number   1
_chemical_formula_structural   Zn3Bi3N5
_chemical_formula_sum   'Zn6 Bi6 N10'
_cell_volume   377.88420693
_cell_formula_units_Z   2
loop_
 _symmetry_equiv_pos_site_id
 _symmetry_equiv_pos_as_xyz
  1  'x, y, z'
loop_
 _atom_site_type_symbol
 _atom_site_label
 _atom_site_symmetry_multiplicity
 _atom_site_fract_x
 _atom_site_fract_y
 _atom_site_fract_z
 _atom_site_occupancy
  Zn  Zn0  1  0.89856100  0.29764200  0.95571700  1
  Zn  Zn1  1  0.10143900  0.70235800  0.04428300  1
  Zn  Zn2  1  0.68268700  0.88485000  0.48533000  1
  Zn  Zn3  1  0.31731300  0.11515000  0.51467000  1
  Zn  Zn4  1  0.05235500  0.90442000  0.71860000  1
  Zn  Zn5  1  0.94764500  0.09558000  0.28140000  1
  Bi  Bi6  1  0.80320100  0.38414000  0.57793300  1
  Bi  Bi7  1  0.19679900  0.61586000  0.42206700  1
  Bi  Bi8  1  0.54396800  0.87635400  0.83995800  1
  Bi  Bi9  1  0.45603200  0.12364600  0.16004200  1
  Bi  Bi10  1  0.69204400  0.61331100  0.16536300  1
  Bi  Bi11  1  0.30795600  0.38668900  0.83463700  1
  N  N12  1  0.99561500  0.21348500  0.77007200  1
  N  N13  1  0.00438500  0.78651500  0.22992800  1
  N  N14  1  0.94091000  0.71691800  0.54952900  1
  N  N15  1  0.05909000  0.28308200  0.45047100  1
  N  N16  1  0.76110900  0.61755500  0.94456800  1
  N  N17  1  0.23889100  0.38244500  0.05543200  1
  N  N18  1  0.44866100  0.84841200  0.60388000  1
  N  N19  1  0.55133900  0.15158800  0.39612000  1
  N  N20  1  0.23473900  0.73723400  0.87014500  1
  N  N21  1  0.76526100  0.26276600  0.12985500  1
