# generated using pymatgen
data_Zr(ZnN)4
_symmetry_space_group_name_H-M   'P 1'
_cell_length_a   5.58482704
_cell_length_b   5.65026455
_cell_length_c   8.81205883
_cell_angle_alpha   65.95788784
_cell_angle_beta   87.27991613
_cell_angle_gamma   65.21354073
_symmetry_Int_Tables_number   1
_chemical_formula_structural   Zr(ZnN)4
_chemical_formula_sum   'Zr2 Zn8 N8'
_cell_volume   227.98741814
_cell_formula_units_Z   2
loop_
 _symmetry_equiv_pos_site_id
 _symmetry_equiv_pos_as_xyz
  1  'x, y, z'
loop_
 _atom_site_type_symbol
 _atom_site_label
 _atom_site_symmetry_multiplicity
 _atom_site_fract_x
 _atom_site_fract_y
 _atom_site_fract_z
 _atom_site_occupancy
  Zr  Zr0  1  0.76695300  0.74037400  0.80896100  1
  Zr  Zr1  1  0.23304700  0.25962600  0.19103900  1
  Zn  Zn2  1  0.66754900  0.62880900  0.21281900  1
  Zn  Zn3  1  0.33245100  0.37119100  0.78718100  1
  Zn  Zn4  1  0.80024000  0.11532800  0.06837600  1
  Zn  Zn5  1  0.19976000  0.88467200  0.93162400  1
  Zn  Zn6  1  0.76794500  0.46674500  0.55411500  1
  Zn  Zn7  1  0.23205500  0.53325500  0.44588500  1
  Zn  Zn8  1  0.26782600  0.92507400  0.55593000  1
  Zn  Zn9  1  0.73217400  0.07492600  0.44407000  1
  N  N10  1  0.96071200  0.67013100  0.60321500  1
  N  N11  1  0.03928800  0.32986900  0.39678500  1
  N  N12  1  0.89673800  0.75888000  0.03337200  1
  N  N13  1  0.10326200  0.24112000  0.96662800  1
  N  N14  1  0.41554100  0.69000000  0.79870800  1
  N  N15  1  0.58445900  0.31000000  0.20129200  1
  N  N16  1  0.40245200  0.80302600  0.34897200  1
  N  N17  1  0.59754800  0.19697400  0.65102800  1
