# generated using pymatgen
data_Sr4CrN4
_symmetry_space_group_name_H-M   'P 1'
_cell_length_a   11.84899400
_cell_length_b   5.25894700
_cell_length_c   11.66886900
_cell_angle_alpha   90.00000000
_cell_angle_beta   90.00000000
_cell_angle_gamma   90.00000000
_symmetry_Int_Tables_number   1
_chemical_formula_structural   Sr4CrN4
_chemical_formula_sum   'Sr16 Cr4 N16'
_cell_volume   727.12493475
_cell_formula_units_Z   4
loop_
 _symmetry_equiv_pos_site_id
 _symmetry_equiv_pos_as_xyz
  1  'x, y, z'
loop_
 _atom_site_type_symbol
 _atom_site_label
 _atom_site_symmetry_multiplicity
 _atom_site_fract_x
 _atom_site_fract_y
 _atom_site_fract_z
 _atom_site_occupancy
  Sr  Sr0  1  0.55410100  0.25000000  0.89010400  1
  Sr  Sr1  1  0.05410100  0.25000000  0.60989600  1
  Sr  Sr2  1  0.44589900  0.75000000  0.10989600  1
  Sr  Sr3  1  0.94589900  0.75000000  0.39010400  1
  Sr  Sr4  1  0.72371000  0.25000000  0.52502300  1
  Sr  Sr5  1  0.22371000  0.25000000  0.97497700  1
  Sr  Sr6  1  0.27629000  0.75000000  0.47497700  1
  Sr  Sr7  1  0.77629000  0.75000000  0.02502300  1
  Sr  Sr8  1  0.86526200  0.25000000  0.83602600  1
  Sr  Sr9  1  0.36526200  0.25000000  0.66397400  1
  Sr  Sr10  1  0.13473800  0.75000000  0.16397400  1
  Sr  Sr11  1  0.63473800  0.75000000  0.33602600  1
  Sr  Sr12  1  0.90921500  0.25000000  0.18605500  1
  Sr  Sr13  1  0.40921500  0.25000000  0.31394500  1
  Sr  Sr14  1  0.09078500  0.75000000  0.81394500  1
  Sr  Sr15  1  0.59078500  0.75000000  0.68605500  1
  Cr  Cr16  1  0.63613200  0.25000000  0.14758300  1
  Cr  Cr17  1  0.13613200  0.25000000  0.35241700  1
  Cr  Cr18  1  0.36386800  0.75000000  0.85241700  1
  Cr  Cr19  1  0.86386800  0.75000000  0.64758300  1
  N  N20  1  0.49675800  0.25000000  0.10973000  1
  N  N21  1  0.99675800  0.25000000  0.39027000  1
  N  N22  1  0.50324200  0.75000000  0.89027000  1
  N  N23  1  0.00324200  0.75000000  0.60973000  1
  N  N24  1  0.73370700  0.25000000  0.03419400  1
  N  N25  1  0.23370700  0.25000000  0.46580600  1
  N  N26  1  0.26629300  0.75000000  0.96580600  1
  N  N27  1  0.76629300  0.75000000  0.53419400  1
  N  N28  1  0.67318500  0.25000000  0.29145400  1
  N  N29  1  0.17318500  0.25000000  0.20854600  1
  N  N30  1  0.32681500  0.75000000  0.70854600  1
  N  N31  1  0.82681500  0.75000000  0.79145400  1
  N  N32  1  0.06995000  0.25000000  0.83189000  1
  N  N33  1  0.56995000  0.25000000  0.66811000  1
  N  N34  1  0.93005000  0.75000000  0.16811000  1
  N  N35  1  0.43005000  0.75000000  0.33189000  1
