# generated using pymatgen
data_Ba3Os3N5
_symmetry_space_group_name_H-M   'P 1'
_cell_length_a   5.91183670
_cell_length_b   8.22246256
_cell_length_c   9.76611434
_cell_angle_alpha   107.18475395
_cell_angle_beta   105.57032308
_cell_angle_gamma   98.93291012
_symmetry_Int_Tables_number   1
_chemical_formula_structural   Ba3Os3N5
_chemical_formula_sum   'Ba6 Os6 N10'
_cell_volume   422.46039632
_cell_formula_units_Z   2
loop_
 _symmetry_equiv_pos_site_id
 _symmetry_equiv_pos_as_xyz
  1  'x, y, z'
loop_
 _atom_site_type_symbol
 _atom_site_label
 _atom_site_symmetry_multiplicity
 _atom_site_fract_x
 _atom_site_fract_y
 _atom_site_fract_z
 _atom_site_occupancy
  Ba  Ba0  1  0.77155300  0.42275700  0.60348500  1
  Ba  Ba1  1  0.22844700  0.57724300  0.39651500  1
  Ba  Ba2  1  0.63267700  0.83773600  0.90244600  1
  Ba  Ba3  1  0.36732300  0.16226400  0.09755400  1
  Ba  Ba4  1  0.71027700  0.73779000  0.25122500  1
  Ba  Ba5  1  0.28972300  0.26221000  0.74877500  1
  Os  Os6  1  0.89456900  0.34348500  0.98704700  1
  Os  Os7  1  0.10543100  0.65651500  0.01295300  1
  Os  Os8  1  0.62212300  0.96358600  0.62350800  1
  Os  Os9  1  0.37787700  0.03641400  0.37649200  1
  Os  Os10  1  0.03726600  0.83813700  0.69006600  1
  Os  Os11  1  0.96273400  0.16186300  0.30993400  1
  N  N12  1  0.72437200  0.15381400  0.80673700  1
  N  N13  1  0.27562800  0.84618600  0.19326300  1
  N  N14  1  0.70798600  0.73462600  0.53934900  1
  N  N15  1  0.29201400  0.26537400  0.46065100  1
  N  N16  1  0.75831400  0.51750300  0.89813300  1
  N  N17  1  0.24168600  0.48249700  0.10186700  1
  N  N18  1  0.29215000  0.89407000  0.62530400  1
  N  N19  1  0.70785000  0.10593000  0.37469600  1
  N  N20  1  0.08128800  0.79219900  0.86916000  1
  N  N21  1  0.91871200  0.20780100  0.13084000  1
