# generated using pymatgen
data_Mg2TiFe3S8
_symmetry_space_group_name_H-M   'P 1'
_cell_length_a   7.14252824
_cell_length_b   6.96344466
_cell_length_c   7.13538936
_cell_angle_alpha   59.18336092
_cell_angle_beta   59.86244039
_cell_angle_gamma   59.14501130
_symmetry_Int_Tables_number   1
_chemical_formula_structural   Mg2TiFe3S8
_chemical_formula_sum   'Mg2 Ti1 Fe3 S8'
_cell_volume   247.47607487
_cell_formula_units_Z   1
loop_
 _symmetry_equiv_pos_site_id
 _symmetry_equiv_pos_as_xyz
  1  'x, y, z'
loop_
 _atom_site_type_symbol
 _atom_site_label
 _atom_site_symmetry_multiplicity
 _atom_site_fract_x
 _atom_site_fract_y
 _atom_site_fract_z
 _atom_site_occupancy
  Mg  Mg0  1  0.87431100  0.87698300  0.87375400  1
  Mg  Mg1  1  0.12572300  0.12300800  0.12622200  1
  Ti  Ti2  1  0.50000100  0.00000000  0.49999800  1
  Fe  Fe3  1  0.50005500  0.50001900  0.49993700  1
  Fe  Fe4  1  0.50003900  0.49998400  0.00001900  1
  Fe  Fe5  1  0.99992600  0.50001700  0.50002700  1
  S  S6  1  0.74471900  0.71934800  0.74479600  1
  S  S7  1  0.25442600  0.28123900  0.70927600  1
  S  S8  1  0.26955100  0.69215000  0.26947800  1
  S  S9  1  0.70912400  0.28132000  0.25446100  1
  S  S10  1  0.73038200  0.30778300  0.73059400  1
  S  S11  1  0.29092400  0.71863700  0.74553900  1
  S  S12  1  0.25524700  0.28067900  0.25522700  1
  S  S13  1  0.74557700  0.71882700  0.29067200  1
