# generated using pymatgen
data_Os(C2N3)3
_symmetry_space_group_name_H-M   'P 1'
_cell_length_a   7.77464983
_cell_length_b   13.85073586
_cell_length_c   11.35461500
_cell_angle_alpha   90.00000000
_cell_angle_beta   90.00000000
_cell_angle_gamma   27.03075774
_symmetry_Int_Tables_number   1
_chemical_formula_structural   Os(C2N3)3
_chemical_formula_sum   'Os2 C12 N18'
_cell_volume   555.68685264
_cell_formula_units_Z   2
loop_
 _symmetry_equiv_pos_site_id
 _symmetry_equiv_pos_as_xyz
  1  'x, y, z'
loop_
 _atom_site_type_symbol
 _atom_site_label
 _atom_site_symmetry_multiplicity
 _atom_site_fract_x
 _atom_site_fract_y
 _atom_site_fract_z
 _atom_site_occupancy
  Os  Os0  1  0.00000000  0.27983800  0.25000000  1
  Os  Os1  1  0.00000000  0.72016200  0.75000000  1
  C  C2  1  0.68176600  0.79226200  0.25000000  1
  C  C3  1  0.68176600  0.52597100  0.75000000  1
  C  C4  1  0.31823400  0.20773800  0.75000000  1
  C  C5  1  0.31823400  0.47402900  0.25000000  1
  C  C6  1  0.68124300  0.30272700  0.90249800  1
  C  C7  1  0.68124300  0.01603000  0.09750200  1
  C  C8  1  0.68124300  0.30272700  0.59750200  1
  C  C9  1  0.68124300  0.01603000  0.40249800  1
  C  C10  1  0.31875700  0.69727300  0.09750200  1
  C  C11  1  0.31875700  0.98397000  0.90249800  1
  C  C12  1  0.31875700  0.69727300  0.40249800  1
  C  C13  1  0.31875700  0.98397000  0.59750200  1
  N  N14  1  0.00000000  0.58725800  0.25000000  1
  N  N15  1  0.00000000  0.41274200  0.75000000  1
  N  N16  1  0.38271800  0.97961800  0.25000000  1
  N  N17  1  0.38271800  0.63766200  0.75000000  1
  N  N18  1  0.61728200  0.02038200  0.75000000  1
  N  N19  1  0.61728200  0.36233800  0.25000000  1
  N  N20  1  0.00000000  0.11825600  0.94873000  1
  N  N21  1  0.00000000  0.88174400  0.05127000  1
  N  N22  1  0.00000000  0.11825600  0.55127000  1
  N  N23  1  0.00000000  0.88174400  0.44873000  1
  N  N24  1  0.38060700  0.47390300  0.86507600  1
  N  N25  1  0.38060700  0.14549000  0.13492400  1
  N  N26  1  0.38060700  0.47390300  0.63492400  1
  N  N27  1  0.38060700  0.14549000  0.36507600  1
  N  N28  1  0.61939300  0.52609700  0.13492400  1
  N  N29  1  0.61939300  0.85451000  0.86507600  1
  N  N30  1  0.61939300  0.52609700  0.36507600  1
  N  N31  1  0.61939300  0.85451000  0.63492400  1
