# generated using pymatgen
data_VZnN2
_symmetry_space_group_name_H-M   'P 1'
_cell_length_a   5.60252100
_cell_length_b   6.42218700
_cell_length_c   5.24750200
_cell_angle_alpha   90.00000000
_cell_angle_beta   90.00000000
_cell_angle_gamma   90.00000000
_symmetry_Int_Tables_number   1
_chemical_formula_structural   VZnN2
_chemical_formula_sum   'V4 Zn4 N8'
_cell_volume   188.80741792
_cell_formula_units_Z   4
loop_
 _symmetry_equiv_pos_site_id
 _symmetry_equiv_pos_as_xyz
  1  'x, y, z'
loop_
 _atom_site_type_symbol
 _atom_site_label
 _atom_site_symmetry_multiplicity
 _atom_site_fract_x
 _atom_site_fract_y
 _atom_site_fract_z
 _atom_site_occupancy
  V  V0  1  0.57576300  0.37608900  0.99756600  1
  V  V1  1  0.42423700  0.62391100  0.49756600  1
  V  V2  1  0.92423700  0.87608900  0.49756600  1
  V  V3  1  0.07576300  0.12391100  0.99756600  1
  Zn  Zn4  1  0.58433400  0.87716100  0.00151300  1
  Zn  Zn5  1  0.41566600  0.12283900  0.50151300  1
  Zn  Zn6  1  0.91566600  0.37716100  0.50151300  1
  Zn  Zn7  1  0.08433400  0.62283900  0.00151300  1
  N  N8  1  0.57256300  0.38739400  0.35628800  1
  N  N9  1  0.42743700  0.61260600  0.85628800  1
  N  N10  1  0.92743700  0.88739400  0.85628800  1
  N  N11  1  0.07256300  0.11260600  0.35628800  1
  N  N12  1  0.60205500  0.86071200  0.39463400  1
  N  N13  1  0.39794500  0.13928800  0.89463400  1
  N  N14  1  0.89794500  0.36071200  0.89463400  1
  N  N15  1  0.10205500  0.63928800  0.39463400  1
