# generated using pymatgen
data_SmMgCrS4
_symmetry_space_group_name_H-M   'P 1'
_cell_length_a   7.75261871
_cell_length_b   7.63767766
_cell_length_c   7.63756261
_cell_angle_alpha   59.30960496
_cell_angle_beta   59.49929695
_cell_angle_gamma   59.50135012
_symmetry_Int_Tables_number   1
_chemical_formula_structural   SmMgCrS4
_chemical_formula_sum   'Sm2 Mg2 Cr2 S8'
_cell_volume   315.67846347
_cell_formula_units_Z   2
loop_
 _symmetry_equiv_pos_site_id
 _symmetry_equiv_pos_as_xyz
  1  'x, y, z'
loop_
 _atom_site_type_symbol
 _atom_site_label
 _atom_site_symmetry_multiplicity
 _atom_site_fract_x
 _atom_site_fract_y
 _atom_site_fract_z
 _atom_site_occupancy
  Sm  Sm0  1  0.49995700  0.50006200  0.49996400  1
  Sm  Sm1  1  0.99999400  0.50001300  0.49998800  1
  Mg  Mg2  1  0.87382100  0.87616700  0.87619100  1
  Mg  Mg3  1  0.12616100  0.12382400  0.12385500  1
  Cr  Cr4  1  0.50014900  0.49993100  0.99988100  1
  Cr  Cr5  1  0.49997700  0.99997800  0.50010400  1
  S  S6  1  0.70604300  0.75744700  0.75745100  1
  S  S7  1  0.27230900  0.22368200  0.73167500  1
  S  S8  1  0.27235000  0.73164000  0.22361200  1
  S  S9  1  0.72089200  0.24256700  0.24256200  1
  S  S10  1  0.72764900  0.26832500  0.77631400  1
  S  S11  1  0.27907800  0.75742600  0.75745800  1
  S  S12  1  0.29399000  0.24256400  0.24258000  1
  S  S13  1  0.72763400  0.77636900  0.26836600  1
