# generated using pymatgen
data_La3Mg2CrS8
_symmetry_space_group_name_H-M   'P 1'
_cell_length_a   8.08296009
_cell_length_b   7.92790546
_cell_length_c   8.08319500
_cell_angle_alpha   59.34958083
_cell_angle_beta   59.99835870
_cell_angle_gamma   59.35121592
_symmetry_Int_Tables_number   1
_chemical_formula_structural   La3Mg2CrS8
_chemical_formula_sum   'La3 Mg2 Cr1 S8'
_cell_volume   362.62432468
_cell_formula_units_Z   1
loop_
 _symmetry_equiv_pos_site_id
 _symmetry_equiv_pos_as_xyz
  1  'x, y, z'
loop_
 _atom_site_type_symbol
 _atom_site_label
 _atom_site_symmetry_multiplicity
 _atom_site_fract_x
 _atom_site_fract_y
 _atom_site_fract_z
 _atom_site_occupancy
  La  La0  1  0.50001000  0.50001100  0.49996200  1
  La  La1  1  0.50001100  0.49998100  0.00000800  1
  La  La2  1  0.99997900  0.50000800  0.50004400  1
  Mg  Mg3  1  0.87371600  0.87883400  0.87371800  1
  Mg  Mg4  1  0.12627400  0.12118800  0.12626200  1
  Cr  Cr5  1  0.50000500  0.99999700  0.50001700  1
  S  S6  1  0.72640700  0.78143600  0.72642500  1
  S  S7  1  0.27359400  0.21856600  0.73425900  1
  S  S8  1  0.25180500  0.74458100  0.25179700  1
  S  S9  1  0.73426100  0.21857100  0.27357400  1
  S  S10  1  0.74818300  0.25541000  0.74818100  1
  S  S11  1  0.26573400  0.78142300  0.72642800  1
  S  S12  1  0.27358700  0.21854800  0.27360100  1
  S  S13  1  0.72643700  0.78144200  0.26572600  1
