# generated using pymatgen
data_MgPbN2
_symmetry_space_group_name_H-M   'P 1'
_cell_length_a   6.16844100
_cell_length_b   7.09866000
_cell_length_c   5.73066500
_cell_angle_alpha   90.00000000
_cell_angle_beta   90.00000000
_cell_angle_gamma   90.00000000
_symmetry_Int_Tables_number   1
_chemical_formula_structural   MgPbN2
_chemical_formula_sum   'Mg4 Pb4 N8'
_cell_volume   250.93244148
_cell_formula_units_Z   4
loop_
 _symmetry_equiv_pos_site_id
 _symmetry_equiv_pos_as_xyz
  1  'x, y, z'
loop_
 _atom_site_type_symbol
 _atom_site_label
 _atom_site_symmetry_multiplicity
 _atom_site_fract_x
 _atom_site_fract_y
 _atom_site_fract_z
 _atom_site_occupancy
  Mg  Mg0  1  0.58293200  0.87481300  0.00204600  1
  Mg  Mg1  1  0.41706800  0.12518700  0.50204600  1
  Mg  Mg2  1  0.91706800  0.37481300  0.50204600  1
  Mg  Mg3  1  0.08293200  0.62518700  0.00204600  1
  Pb  Pb4  1  0.58835300  0.37538100  0.00333700  1
  Pb  Pb5  1  0.41164700  0.62461900  0.50333700  1
  Pb  Pb6  1  0.91164700  0.87538100  0.50333700  1
  Pb  Pb7  1  0.08835300  0.12461900  0.00333700  1
  N  N8  1  0.58852800  0.36748800  0.39268200  1
  N  N9  1  0.41147200  0.63251200  0.89268200  1
  N  N10  1  0.91147200  0.86748800  0.89268200  1
  N  N11  1  0.08852800  0.13251200  0.39268200  1
  N  N12  1  0.57492900  0.88279200  0.37193500  1
  N  N13  1  0.42507100  0.11720800  0.87193500  1
  N  N14  1  0.92507100  0.38279200  0.87193500  1
  N  N15  1  0.07492900  0.61720800  0.37193500  1
