# generated using pymatgen
data_SrRuN2
_symmetry_space_group_name_H-M   'P 1'
_cell_length_a   6.14965298
_cell_length_b   8.18006900
_cell_length_c   5.38123149
_cell_angle_alpha   90.00000000
_cell_angle_beta   111.36237654
_cell_angle_gamma   90.00000000
_symmetry_Int_Tables_number   1
_chemical_formula_structural   SrRuN2
_chemical_formula_sum   'Sr4 Ru4 N8'
_cell_volume   252.10219218
_cell_formula_units_Z   4
loop_
 _symmetry_equiv_pos_site_id
 _symmetry_equiv_pos_as_xyz
  1  'x, y, z'
loop_
 _atom_site_type_symbol
 _atom_site_label
 _atom_site_symmetry_multiplicity
 _atom_site_fract_x
 _atom_site_fract_y
 _atom_site_fract_z
 _atom_site_occupancy
  Sr  Sr0  1  0.33625700  0.89832300  0.65623200  1
  Sr  Sr1  1  0.66374300  0.39832300  0.84376800  1
  Sr  Sr2  1  0.66374300  0.10167700  0.34376800  1
  Sr  Sr3  1  0.33625700  0.60167700  0.15623200  1
  Ru  Ru4  1  0.11064700  0.35706200  0.57373200  1
  Ru  Ru5  1  0.88935300  0.85706200  0.92626800  1
  Ru  Ru6  1  0.88935300  0.64293800  0.42626800  1
  Ru  Ru7  1  0.11064700  0.14293800  0.07373200  1
  N  N8  1  0.23258400  0.91593200  0.07799200  1
  N  N9  1  0.76741600  0.41593200  0.42200800  1
  N  N10  1  0.76741600  0.08406800  0.92200800  1
  N  N11  1  0.23258400  0.58406800  0.57799200  1
  N  N12  1  0.24915500  0.31536300  0.95357400  1
  N  N13  1  0.75084500  0.81536300  0.54642600  1
  N  N14  1  0.75084500  0.68463700  0.04642600  1
  N  N15  1  0.24915500  0.18463700  0.45357400  1
