# generated using pymatgen
data_Mn(CdN)4
_symmetry_space_group_name_H-M   'P 1'
_cell_length_a   6.28069360
_cell_length_b   6.25389607
_cell_length_c   9.01557833
_cell_angle_alpha   66.61432496
_cell_angle_beta   89.05917999
_cell_angle_gamma   62.84511176
_symmetry_Int_Tables_number   1
_chemical_formula_structural   Mn(CdN)4
_chemical_formula_sum   'Mn2 Cd8 N8'
_cell_volume   283.26070494
_cell_formula_units_Z   2
loop_
 _symmetry_equiv_pos_site_id
 _symmetry_equiv_pos_as_xyz
  1  'x, y, z'
loop_
 _atom_site_type_symbol
 _atom_site_label
 _atom_site_symmetry_multiplicity
 _atom_site_fract_x
 _atom_site_fract_y
 _atom_site_fract_z
 _atom_site_occupancy
  Mn  Mn0  1  0.69326100  0.92163400  0.77295600  1
  Mn  Mn1  1  0.30673900  0.07836600  0.22704400  1
  Cd  Cd2  1  0.82722500  0.61634700  0.20918500  1
  Cd  Cd3  1  0.17277500  0.38365300  0.79081500  1
  Cd  Cd4  1  0.74287800  0.25779600  0.00145900  1
  Cd  Cd5  1  0.25712200  0.74220400  0.99854100  1
  Cd  Cd6  1  0.67058200  0.52655400  0.62143300  1
  Cd  Cd7  1  0.32941800  0.47344600  0.37856700  1
  Cd  Cd8  1  0.14733400  0.05152600  0.62072300  1
  Cd  Cd9  1  0.85266600  0.94847400  0.37927700  1
  N  N10  1  0.91420800  0.82800000  0.65876400  1
  N  N11  1  0.08579200  0.17200000  0.34123600  1
  N  N12  1  0.83187300  0.87952900  0.95330000  1
  N  N13  1  0.16812700  0.12047100  0.04670000  1
  N  N14  1  0.53608000  0.72790800  0.80604900  1
  N  N15  1  0.46392000  0.27209200  0.19395100  1
  N  N16  1  0.51756800  0.74195000  0.34112000  1
  N  N17  1  0.48243200  0.25805000  0.65888000  1
