# generated using pymatgen
data_Ca3In3N5
_symmetry_space_group_name_H-M   'P 1'
_cell_length_a   6.52384731
_cell_length_b   7.21377383
_cell_length_c   8.90040621
_cell_angle_alpha   104.74253477
_cell_angle_beta   111.15390234
_cell_angle_gamma   93.79001257
_symmetry_Int_Tables_number   1
_chemical_formula_structural   Ca3In3N5
_chemical_formula_sum   'Ca6 In6 N10'
_cell_volume   371.94399818
_cell_formula_units_Z   2
loop_
 _symmetry_equiv_pos_site_id
 _symmetry_equiv_pos_as_xyz
  1  'x, y, z'
loop_
 _atom_site_type_symbol
 _atom_site_label
 _atom_site_symmetry_multiplicity
 _atom_site_fract_x
 _atom_site_fract_y
 _atom_site_fract_z
 _atom_site_occupancy
  Ca  Ca0  1  0.81799200  0.42687300  0.59284200  1
  Ca  Ca1  1  0.18200800  0.57312700  0.40715800  1
  Ca  Ca2  1  0.68462600  0.86164500  0.89409700  1
  Ca  Ca3  1  0.31537400  0.13835500  0.10590300  1
  Ca  Ca4  1  0.60978700  0.60355000  0.19646100  1
  Ca  Ca5  1  0.39021300  0.39645000  0.80353900  1
  In  In6  1  0.89051100  0.30570500  0.96374900  1
  In  In7  1  0.10948900  0.69429500  0.03625100  1
  In  In8  1  0.72506800  0.94039700  0.56219000  1
  In  In9  1  0.27493200  0.05960300  0.43781000  1
  In  In10  1  0.17220300  0.84871300  0.72616000  1
  In  In11  1  0.82779700  0.15128700  0.27384000  1
  N  N12  1  0.97799000  0.05087700  0.82160700  1
  N  N13  1  0.02201000  0.94912300  0.17839300  1
  N  N14  1  0.87245000  0.68846000  0.48363700  1
  N  N15  1  0.12755000  0.31154000  0.51636300  1
  N  N16  1  0.76493300  0.53319800  0.84728500  1
  N  N17  1  0.23506700  0.46680200  0.15271500  1
  N  N18  1  0.41041500  0.88350400  0.60618300  1
  N  N19  1  0.58958500  0.11649600  0.39381700  1
  N  N20  1  0.35943100  0.73818600  0.93473700  1
  N  N21  1  0.64056900  0.26181400  0.06526300  1
