# generated using pymatgen
data_Ba5Hf2N6
_symmetry_space_group_name_H-M   'P 1'
_cell_length_a   6.76065813
_cell_length_b   7.47593269
_cell_length_c   14.96414338
_cell_angle_alpha   89.99999939
_cell_angle_beta   95.29358311
_cell_angle_gamma   123.56617759
_symmetry_Int_Tables_number   1
_chemical_formula_structural   Ba5Hf2N6
_chemical_formula_sum   'Ba10 Hf4 N12'
_cell_volume   626.32800078
_cell_formula_units_Z   2
loop_
 _symmetry_equiv_pos_site_id
 _symmetry_equiv_pos_as_xyz
  1  'x, y, z'
loop_
 _atom_site_type_symbol
 _atom_site_label
 _atom_site_symmetry_multiplicity
 _atom_site_fract_x
 _atom_site_fract_y
 _atom_site_fract_z
 _atom_site_occupancy
  Ba  Ba0  1  0.07847600  0.76958500  0.97900900  1
  Ba  Ba1  1  0.92152400  0.69110900  0.52099100  1
  Ba  Ba2  1  0.92152400  0.23041500  0.02099100  1
  Ba  Ba3  1  0.07847600  0.30889100  0.47900900  1
  Ba  Ba4  1  0.30965000  0.10577900  0.70593500  1
  Ba  Ba5  1  0.69035000  0.79612900  0.79406500  1
  Ba  Ba6  1  0.69035000  0.89422100  0.29406500  1
  Ba  Ba7  1  0.30965000  0.20387100  0.20593500  1
  Ba  Ba8  1  0.00000000  0.40807800  0.75000000  1
  Ba  Ba9  1  0.00000000  0.59192200  0.25000000  1
  Hf  Hf10  1  0.55128800  0.90346200  0.57719100  1
  Hf  Hf11  1  0.44871200  0.35217400  0.92280900  1
  Hf  Hf12  1  0.44871200  0.09653800  0.42280900  1
  Hf  Hf13  1  0.55128800  0.64782600  0.07719100  1
  N  N14  1  0.87923800  0.96043900  0.62074600  1
  N  N15  1  0.12076200  0.08120100  0.87925400  1
  N  N16  1  0.12076200  0.03956100  0.37925400  1
  N  N17  1  0.87923800  0.91879900  0.12074600  1
  N  N18  1  0.29079100  0.74528600  0.66206600  1
  N  N19  1  0.70920900  0.45449500  0.83793400  1
  N  N20  1  0.70920900  0.25471400  0.33793400  1
  N  N21  1  0.29079100  0.54550500  0.16206600  1
  N  N22  1  0.60188900  0.20257600  0.55615900  1
  N  N23  1  0.39811100  0.60068700  0.94384100  1
  N  N24  1  0.39811100  0.79742400  0.44384100  1
  N  N25  1  0.60188900  0.39931300  0.05615900  1
