# generated using pymatgen
data_Mg5ZnN4
_symmetry_space_group_name_H-M   'P 1'
_cell_length_a   7.14735600
_cell_length_b   6.75933600
_cell_length_c   5.18337800
_cell_angle_alpha   90.00000000
_cell_angle_beta   90.00000000
_cell_angle_gamma   90.00000000
_symmetry_Int_Tables_number   1
_chemical_formula_structural   Mg5ZnN4
_chemical_formula_sum   'Mg10 Zn2 N8'
_cell_volume   250.41614795
_cell_formula_units_Z   2
loop_
 _symmetry_equiv_pos_site_id
 _symmetry_equiv_pos_as_xyz
  1  'x, y, z'
loop_
 _atom_site_type_symbol
 _atom_site_label
 _atom_site_symmetry_multiplicity
 _atom_site_fract_x
 _atom_site_fract_y
 _atom_site_fract_z
 _atom_site_occupancy
  Mg  Mg0  1  0.55086400  0.50258500  0.24938300  1
  Mg  Mg1  1  0.94913600  0.50258500  0.24938300  1
  Mg  Mg2  1  0.55086400  0.99741500  0.24938300  1
  Mg  Mg3  1  0.94913600  0.99741500  0.24938300  1
  Mg  Mg4  1  0.44913600  0.49741500  0.75061700  1
  Mg  Mg5  1  0.05086400  0.49741500  0.75061700  1
  Mg  Mg6  1  0.44913600  0.00258500  0.75061700  1
  Mg  Mg7  1  0.05086400  0.00258500  0.75061700  1
  Mg  Mg8  1  0.75000000  0.75000000  0.72242900  1
  Mg  Mg9  1  0.25000000  0.25000000  0.27757100  1
  Zn  Zn10  1  0.75000000  0.25000000  0.72668600  1
  Zn  Zn11  1  0.25000000  0.75000000  0.27331400  1
  N  N12  1  0.75000000  0.99874200  0.95292600  1
  N  N13  1  0.75000000  0.50125800  0.95292600  1
  N  N14  1  0.25000000  0.00125800  0.04707400  1
  N  N15  1  0.25000000  0.49874200  0.04707400  1
  N  N16  1  0.50202100  0.75000000  0.50263900  1
  N  N17  1  0.99797900  0.75000000  0.50263900  1
  N  N18  1  0.49797900  0.25000000  0.49736100  1
  N  N19  1  0.00202100  0.25000000  0.49736100  1
