# generated using pymatgen
data_Mn2CrN3
_symmetry_space_group_name_H-M   'P 1'
_cell_length_a   5.26181520
_cell_length_b   5.04566791
_cell_length_c   5.04058600
_cell_angle_alpha   90.00000000
_cell_angle_beta   90.00000000
_cell_angle_gamma   118.65018307
_symmetry_Int_Tables_number   1
_chemical_formula_structural   Mn2CrN3
_chemical_formula_sum   'Mn4 Cr2 N6'
_cell_volume   117.43938583
_cell_formula_units_Z   2
loop_
 _symmetry_equiv_pos_site_id
 _symmetry_equiv_pos_as_xyz
  1  'x, y, z'
loop_
 _atom_site_type_symbol
 _atom_site_label
 _atom_site_symmetry_multiplicity
 _atom_site_fract_x
 _atom_site_fract_y
 _atom_site_fract_z
 _atom_site_occupancy
  Mn  Mn0  1  0.37569400  0.36535800  0.47679700  1
  Mn  Mn1  1  0.62430600  0.98966400  0.47679700  1
  Mn  Mn2  1  0.62430600  0.63464200  0.97679700  1
  Mn  Mn3  1  0.37569400  0.01033600  0.97679700  1
  Cr  Cr4  1  0.00000000  0.65872700  0.53429800  1
  Cr  Cr5  1  0.00000000  0.34127300  0.03429800  1
  N  N6  1  0.29218900  0.31242600  0.83978900  1
  N  N7  1  0.70781100  0.02023600  0.83978900  1
  N  N8  1  0.70781100  0.68757400  0.33978900  1
  N  N9  1  0.29218900  0.97976400  0.33978900  1
  N  N10  1  0.00000000  0.68544500  0.90452900  1
  N  N11  1  0.00000000  0.31455500  0.40452900  1
