# generated using pymatgen
data_Ir(C2N3)3
_symmetry_space_group_name_H-M   'P 1'
_cell_length_a   7.72568931
_cell_length_b   13.70366302
_cell_length_c   11.54861200
_cell_angle_alpha   90.00000000
_cell_angle_beta   90.00000000
_cell_angle_gamma   27.51507473
_symmetry_Int_Tables_number   1
_chemical_formula_structural   Ir(C2N3)3
_chemical_formula_sum   'Ir2 C12 N18'
_cell_volume   564.84427244
_cell_formula_units_Z   2
loop_
 _symmetry_equiv_pos_site_id
 _symmetry_equiv_pos_as_xyz
  1  'x, y, z'
loop_
 _atom_site_type_symbol
 _atom_site_label
 _atom_site_symmetry_multiplicity
 _atom_site_fract_x
 _atom_site_fract_y
 _atom_site_fract_z
 _atom_site_occupancy
  Ir  Ir0  1  0.00000000  0.28094700  0.25000000  1
  Ir  Ir1  1  0.00000000  0.71905300  0.75000000  1
  C  C2  1  0.68325900  0.79216700  0.25000000  1
  C  C3  1  0.68325900  0.52457600  0.75000000  1
  C  C4  1  0.31674100  0.20783300  0.75000000  1
  C  C5  1  0.31674100  0.47542400  0.25000000  1
  C  C6  1  0.68306600  0.30242300  0.89946000  1
  C  C7  1  0.68306600  0.01451100  0.10054000  1
  C  C8  1  0.68306600  0.30242300  0.60054000  1
  C  C9  1  0.68306600  0.01451100  0.39946000  1
  C  C10  1  0.31693400  0.69757700  0.10054000  1
  C  C11  1  0.31693400  0.98548900  0.89946000  1
  C  C12  1  0.31693400  0.69757700  0.39946000  1
  C  C13  1  0.31693400  0.98548900  0.60054000  1
  N  N14  1  0.00000000  0.58839300  0.25000000  1
  N  N15  1  0.00000000  0.41160700  0.75000000  1
  N  N16  1  0.38305300  0.97786500  0.25000000  1
  N  N17  1  0.38305300  0.63908200  0.75000000  1
  N  N18  1  0.61694700  0.02213500  0.75000000  1
  N  N19  1  0.61694700  0.36091800  0.25000000  1
  N  N20  1  0.00000000  0.11879700  0.94383500  1
  N  N21  1  0.00000000  0.88120300  0.05616500  1
  N  N22  1  0.00000000  0.11879700  0.55616500  1
  N  N23  1  0.00000000  0.88120300  0.44383500  1
  N  N24  1  0.38219600  0.47250200  0.86468300  1
  N  N25  1  0.38219600  0.14530200  0.13531700  1
  N  N26  1  0.38219600  0.47250200  0.63531700  1
  N  N27  1  0.38219600  0.14530200  0.36468300  1
  N  N28  1  0.61780400  0.52749800  0.13531700  1
  N  N29  1  0.61780400  0.85469800  0.86468300  1
  N  N30  1  0.61780400  0.52749800  0.36468300  1
  N  N31  1  0.61780400  0.85469800  0.63531700  1
