# generated using pymatgen
data_Sr4RuN4
_symmetry_space_group_name_H-M   'P 1'
_cell_length_a   10.69541000
_cell_length_b   4.12403200
_cell_length_c   16.31277200
_cell_angle_alpha   90.00000000
_cell_angle_beta   90.00000000
_cell_angle_gamma   90.00000000
_symmetry_Int_Tables_number   1
_chemical_formula_structural   Sr4RuN4
_chemical_formula_sum   'Sr16 Ru4 N16'
_cell_volume   719.52722352
_cell_formula_units_Z   4
loop_
 _symmetry_equiv_pos_site_id
 _symmetry_equiv_pos_as_xyz
  1  'x, y, z'
loop_
 _atom_site_type_symbol
 _atom_site_label
 _atom_site_symmetry_multiplicity
 _atom_site_fract_x
 _atom_site_fract_y
 _atom_site_fract_z
 _atom_site_occupancy
  Sr  Sr0  1  0.58819200  0.25000000  0.91949000  1
  Sr  Sr1  1  0.08819200  0.25000000  0.58051000  1
  Sr  Sr2  1  0.41180800  0.75000000  0.08051000  1
  Sr  Sr3  1  0.91180800  0.75000000  0.41949000  1
  Sr  Sr4  1  0.64609400  0.25000000  0.51994600  1
  Sr  Sr5  1  0.14609400  0.25000000  0.98005400  1
  Sr  Sr6  1  0.35390600  0.75000000  0.48005400  1
  Sr  Sr7  1  0.85390600  0.75000000  0.01994600  1
  Sr  Sr8  1  0.71475200  0.25000000  0.73446400  1
  Sr  Sr9  1  0.21475200  0.25000000  0.76553600  1
  Sr  Sr10  1  0.28524800  0.75000000  0.26553600  1
  Sr  Sr11  1  0.78524800  0.75000000  0.23446400  1
  Sr  Sr12  1  0.04211500  0.25000000  0.17204600  1
  Sr  Sr13  1  0.54211500  0.25000000  0.32795400  1
  Sr  Sr14  1  0.95788500  0.75000000  0.82795400  1
  Sr  Sr15  1  0.45788500  0.75000000  0.67204600  1
  Ru  Ru16  1  0.62920400  0.25000000  0.12952700  1
  Ru  Ru17  1  0.12920400  0.25000000  0.37047300  1
  Ru  Ru18  1  0.37079600  0.75000000  0.87047300  1
  Ru  Ru19  1  0.87079600  0.75000000  0.62952700  1
  N  N20  1  0.30209800  0.25000000  0.36628300  1
  N  N21  1  0.80209800  0.25000000  0.13371700  1
  N  N22  1  0.69790200  0.75000000  0.63371700  1
  N  N23  1  0.19790200  0.75000000  0.86628300  1
  N  N24  1  0.94067000  0.25000000  0.91785500  1
  N  N25  1  0.44067000  0.25000000  0.58214500  1
  N  N26  1  0.05933000  0.75000000  0.08214500  1
  N  N27  1  0.55933000  0.75000000  0.41785500  1
  N  N28  1  0.97213600  0.25000000  0.32437700  1
  N  N29  1  0.47213600  0.25000000  0.17562300  1
  N  N30  1  0.02786400  0.75000000  0.67562300  1
  N  N31  1  0.52786400  0.75000000  0.82437700  1
  N  N32  1  0.81911200  0.25000000  0.88863600  1
  N  N33  1  0.31911200  0.25000000  0.61136400  1
  N  N34  1  0.18088800  0.75000000  0.11136400  1
  N  N35  1  0.68088800  0.75000000  0.38863600  1
