# generated using pymatgen
data_InCN2
_symmetry_space_group_name_H-M   'P 1'
_cell_length_a   5.43684038
_cell_length_b   5.43684059
_cell_length_c   5.43684032
_cell_angle_alpha   40.32186839
_cell_angle_beta   40.32187200
_cell_angle_gamma   40.32188081
_symmetry_Int_Tables_number   1
_chemical_formula_structural   InCN2
_chemical_formula_sum   'In1 C1 N2'
_cell_volume   60.66865037
_cell_formula_units_Z   1
loop_
 _symmetry_equiv_pos_site_id
 _symmetry_equiv_pos_as_xyz
  1  'x, y, z'
loop_
 _atom_site_type_symbol
 _atom_site_label
 _atom_site_symmetry_multiplicity
 _atom_site_fract_x
 _atom_site_fract_y
 _atom_site_fract_z
 _atom_site_occupancy
  In  In0  1  0.00000000  0.00000000  0.00000000  1
  C  C1  1  0.50000000  0.50000000  0.50000000  1
  N  N2  1  0.58317600  0.58317600  0.58317600  1
  N  N3  1  0.41682400  0.41682400  0.41682400  1
