# generated using pymatgen
data_Sr2MnN2
_symmetry_space_group_name_H-M   'P 1'
_cell_length_a   6.34674032
_cell_length_b   11.46712470
_cell_length_c   12.31864600
_cell_angle_alpha   90.00000000
_cell_angle_beta   90.00000000
_cell_angle_gamma   25.39310838
_symmetry_Int_Tables_number   1
_chemical_formula_structural   Sr2MnN2
_chemical_formula_sum   'Sr8 Mn4 N8'
_cell_volume   384.45882162
_cell_formula_units_Z   4
loop_
 _symmetry_equiv_pos_site_id
 _symmetry_equiv_pos_as_xyz
  1  'x, y, z'
loop_
 _atom_site_type_symbol
 _atom_site_label
 _atom_site_symmetry_multiplicity
 _atom_site_fract_x
 _atom_site_fract_y
 _atom_site_fract_z
 _atom_site_occupancy
  Sr  Sr0  1  0.00000000  0.44458200  0.86064900  1
  Sr  Sr1  1  0.00000000  0.55541800  0.13935100  1
  Sr  Sr2  1  0.00000000  0.05541800  0.36064900  1
  Sr  Sr3  1  0.00000000  0.94458200  0.63935100  1
  Sr  Sr4  1  0.00000000  0.14048500  0.92802600  1
  Sr  Sr5  1  0.00000000  0.85951500  0.07197400  1
  Sr  Sr6  1  0.00000000  0.35951500  0.42802600  1
  Sr  Sr7  1  0.00000000  0.64048500  0.57197400  1
  Mn  Mn8  1  0.00000000  0.26461000  0.66602200  1
  Mn  Mn9  1  0.00000000  0.73539000  0.33397800  1
  Mn  Mn10  1  0.00000000  0.23539000  0.16602200  1
  Mn  Mn11  1  0.00000000  0.76461000  0.83397800  1
  N  N12  1  0.00000000  0.41628400  0.63597700  1
  N  N13  1  0.00000000  0.58371600  0.36402300  1
  N  N14  1  0.00000000  0.08371600  0.13597700  1
  N  N15  1  0.00000000  0.91628400  0.86402300  1
  N  N16  1  0.00000000  0.15485100  0.56575900  1
  N  N17  1  0.00000000  0.84514900  0.43424100  1
  N  N18  1  0.00000000  0.34514900  0.06575900  1
  N  N19  1  0.00000000  0.65485100  0.93424100  1
