# generated using pymatgen
data_Sr7TeN6
_symmetry_space_group_name_H-M   'P 1'
_cell_length_a   6.91327000
_cell_length_b   9.88167631
_cell_length_c   9.88167631
_cell_angle_alpha   79.73715312
_cell_angle_beta   69.52476487
_cell_angle_gamma   69.52476487
_symmetry_Int_Tables_number   1
_chemical_formula_structural   Sr7TeN6
_chemical_formula_sum   'Sr14 Te2 N12'
_cell_volume   591.26292246
_cell_formula_units_Z   2
loop_
 _symmetry_equiv_pos_site_id
 _symmetry_equiv_pos_as_xyz
  1  'x, y, z'
loop_
 _atom_site_type_symbol
 _atom_site_label
 _atom_site_symmetry_multiplicity
 _atom_site_fract_x
 _atom_site_fract_y
 _atom_site_fract_z
 _atom_site_occupancy
  Sr  Sr0  1  0.28362600  0.94982700  0.05017300  1
  Sr  Sr1  1  0.71637400  0.05017300  0.94982700  1
  Sr  Sr2  1  0.21637400  0.44982700  0.55017300  1
  Sr  Sr3  1  0.78362600  0.55017300  0.44982700  1
  Sr  Sr4  1  0.76469200  0.15381700  0.58644900  1
  Sr  Sr5  1  0.49504100  0.58644900  0.15381700  1
  Sr  Sr6  1  0.73530800  0.91355100  0.34618300  1
  Sr  Sr7  1  0.00495900  0.34618300  0.91355100  1
  Sr  Sr8  1  0.23530800  0.84618300  0.41355100  1
  Sr  Sr9  1  0.50495900  0.41355100  0.84618300  1
  Sr  Sr10  1  0.26469200  0.08644900  0.65381700  1
  Sr  Sr11  1  0.99504100  0.65381700  0.08644900  1
  Sr  Sr12  1  0.25000000  0.25000000  0.25000000  1
  Sr  Sr13  1  0.75000000  0.75000000  0.75000000  1
  Te  Te14  1  0.75000000  0.25000000  0.25000000  1
  Te  Te15  1  0.25000000  0.75000000  0.75000000  1
  N  N16  1  0.01765700  0.07021200  0.30168500  1
  N  N17  1  0.61044600  0.30168500  0.07021200  1
  N  N18  1  0.48234300  0.19831500  0.42978800  1
  N  N19  1  0.88955400  0.42978800  0.19831500  1
  N  N20  1  0.98234300  0.92978800  0.69831500  1
  N  N21  1  0.38955400  0.69831500  0.92978800  1
  N  N22  1  0.51765700  0.80168500  0.57021200  1
  N  N23  1  0.11044600  0.57021200  0.80168500  1
  N  N24  1  0.88553900  0.35189000  0.64811000  1
  N  N25  1  0.11446100  0.64811000  0.35189000  1
  N  N26  1  0.61446100  0.85189000  0.14811000  1
  N  N27  1  0.38553900  0.14811000  0.85189000  1
