# generated using pymatgen
data_Sn(CN)2
_symmetry_space_group_name_H-M   'P 1'
_cell_length_a   8.17675400
_cell_length_b   7.83780100
_cell_length_c   14.40950500
_cell_angle_alpha   90.00000000
_cell_angle_beta   90.00000000
_cell_angle_gamma   90.00000000
_symmetry_Int_Tables_number   1
_chemical_formula_structural   Sn(CN)2
_chemical_formula_sum   'Sn8 C16 N16'
_cell_volume   923.47305202
_cell_formula_units_Z   8
loop_
 _symmetry_equiv_pos_site_id
 _symmetry_equiv_pos_as_xyz
  1  'x, y, z'
loop_
 _atom_site_type_symbol
 _atom_site_label
 _atom_site_symmetry_multiplicity
 _atom_site_fract_x
 _atom_site_fract_y
 _atom_site_fract_z
 _atom_site_occupancy
  Sn  Sn0  1  0.47315900  0.27001800  0.38051400  1
  Sn  Sn1  1  0.97315900  0.22998200  0.61948600  1
  Sn  Sn2  1  0.52684100  0.77001800  0.11948600  1
  Sn  Sn3  1  0.02684100  0.72998200  0.88051400  1
  Sn  Sn4  1  0.52684100  0.72998200  0.61948600  1
  Sn  Sn5  1  0.02684100  0.77001800  0.38051400  1
  Sn  Sn6  1  0.47315900  0.22998200  0.88051400  1
  Sn  Sn7  1  0.97315900  0.27001800  0.11948600  1
  C  C8  1  0.70648700  0.35697800  0.29803700  1
  C  C9  1  0.20648700  0.14302200  0.70196300  1
  C  C10  1  0.29351300  0.85697800  0.20196300  1
  C  C11  1  0.79351300  0.64302200  0.79803700  1
  C  C12  1  0.29351300  0.64302200  0.70196300  1
  C  C13  1  0.79351300  0.85697800  0.29803700  1
  C  C14  1  0.70648700  0.14302200  0.79803700  1
  C  C15  1  0.20648700  0.35697800  0.20196300  1
  C  C16  1  0.41260400  0.54644300  0.41645300  1
  C  C17  1  0.91260400  0.95355700  0.58354700  1
  C  C18  1  0.58739600  0.04644300  0.08354700  1
  C  C19  1  0.08739600  0.45355700  0.91645300  1
  C  C20  1  0.58739600  0.45355700  0.58354700  1
  C  C21  1  0.08739600  0.04644300  0.41645300  1
  C  C22  1  0.41260400  0.95355700  0.91645300  1
  C  C23  1  0.91260400  0.54644300  0.08354700  1
  N  N24  1  0.82452100  0.34740100  0.25215700  1
  N  N25  1  0.32452100  0.15259900  0.74784300  1
  N  N26  1  0.17547900  0.84740100  0.24784300  1
  N  N27  1  0.67547900  0.65259900  0.75215700  1
  N  N28  1  0.17547900  0.65259900  0.74784300  1
  N  N29  1  0.67547900  0.84740100  0.25215700  1
  N  N30  1  0.82452100  0.15259900  0.75215700  1
  N  N31  1  0.32452100  0.34740100  0.24784300  1
  N  N32  1  0.36516100  0.67563700  0.44792800  1
  N  N33  1  0.86516100  0.82436300  0.55207200  1
  N  N34  1  0.63483900  0.17563700  0.05207200  1
  N  N35  1  0.13483900  0.32436300  0.94792800  1
  N  N36  1  0.63483900  0.32436300  0.55207200  1
  N  N37  1  0.13483900  0.17563700  0.44792800  1
  N  N38  1  0.36516100  0.82436300  0.94792800  1
  N  N39  1  0.86516100  0.67563700  0.05207200  1
