# generated using pymatgen
data_InGeN2
_symmetry_space_group_name_H-M   'P 1'
_cell_length_a   5.79843700
_cell_length_b   10.77225100
_cell_length_c   14.18052600
_cell_angle_alpha   90.00000000
_cell_angle_beta   90.00000000
_cell_angle_gamma   90.00000000
_symmetry_Int_Tables_number   1
_chemical_formula_structural   InGeN2
_chemical_formula_sum   'In16 Ge16 N32'
_cell_volume   885.74711731
_cell_formula_units_Z   16
loop_
 _symmetry_equiv_pos_site_id
 _symmetry_equiv_pos_as_xyz
  1  'x, y, z'
loop_
 _atom_site_type_symbol
 _atom_site_label
 _atom_site_symmetry_multiplicity
 _atom_site_fract_x
 _atom_site_fract_y
 _atom_site_fract_z
 _atom_site_occupancy
  In  In0  1  0.80313900  0.99961200  0.41920400  1
  In  In1  1  0.30313900  0.50038800  0.58079600  1
  In  In2  1  0.19686100  0.49961200  0.08079600  1
  In  In3  1  0.69686100  0.00038800  0.91920400  1
  In  In4  1  0.19686100  0.00038800  0.58079600  1
  In  In5  1  0.69686100  0.49961200  0.41920400  1
  In  In6  1  0.80313900  0.50038800  0.91920400  1
  In  In7  1  0.30313900  0.99961200  0.08079600  1
  In  In8  1  0.89879300  0.22737300  0.32171800  1
  In  In9  1  0.39879300  0.27262700  0.67828200  1
  In  In10  1  0.10120700  0.72737300  0.17828200  1
  In  In11  1  0.60120700  0.77262700  0.82171800  1
  In  In12  1  0.10120700  0.77262700  0.67828200  1
  In  In13  1  0.60120700  0.72737300  0.32171800  1
  In  In14  1  0.89879300  0.27262700  0.82171800  1
  In  In15  1  0.39879300  0.22737300  0.17828200  1
  Ge  Ge16  1  0.79086000  0.99468600  0.18771100  1
  Ge  Ge17  1  0.29086000  0.50531400  0.81228900  1
  Ge  Ge18  1  0.20914000  0.49468600  0.31228900  1
  Ge  Ge19  1  0.70914000  0.00531400  0.68771100  1
  Ge  Ge20  1  0.20914000  0.00531400  0.81228900  1
  Ge  Ge21  1  0.70914000  0.49468600  0.18771100  1
  Ge  Ge22  1  0.79086000  0.50531400  0.68771100  1
  Ge  Ge23  1  0.29086000  0.99468600  0.31228900  1
  Ge  Ge24  1  0.86952000  0.26258700  0.06048800  1
  Ge  Ge25  1  0.36952000  0.23741300  0.93951200  1
  Ge  Ge26  1  0.13048000  0.76258600  0.43951200  1
  Ge  Ge27  1  0.63048000  0.73741400  0.56048800  1
  Ge  Ge28  1  0.13048000  0.73741400  0.93951200  1
  Ge  Ge29  1  0.63048000  0.76258600  0.06048800  1
  Ge  Ge30  1  0.86952000  0.23741300  0.56048800  1
  Ge  Ge31  1  0.36952000  0.26258700  0.43951200  1
  N  N32  1  0.41793100  0.43151500  0.21956500  1
  N  N33  1  0.91793100  0.06848500  0.78043500  1
  N  N34  1  0.58206900  0.93151500  0.28043500  1
  N  N35  1  0.08206900  0.56848500  0.71956500  1
  N  N36  1  0.58206900  0.56848500  0.78043500  1
  N  N37  1  0.08206900  0.93151500  0.21956500  1
  N  N38  1  0.41793100  0.06848500  0.71956500  1
  N  N39  1  0.91793100  0.43151500  0.28043500  1
  N  N40  1  0.69408900  0.29968800  0.45862500  1
  N  N41  1  0.19408900  0.20031200  0.54137500  1
  N  N42  1  0.30591100  0.79968800  0.04137500  1
  N  N43  1  0.80591100  0.70031200  0.95862500  1
  N  N44  1  0.30591100  0.70031200  0.54137500  1
  N  N45  1  0.80591100  0.79968800  0.45862500  1
  N  N46  1  0.69408900  0.20031200  0.95862500  1
  N  N47  1  0.19408900  0.29968800  0.04137500  1
  N  N48  1  0.77438200  0.42666100  0.07166400  1
  N  N49  1  0.27438200  0.07333900  0.92833600  1
  N  N50  1  0.22561800  0.92666100  0.42833600  1
  N  N51  1  0.72561800  0.57333900  0.57166400  1
  N  N52  1  0.22561800  0.57333900  0.92833600  1
  N  N53  1  0.72561800  0.92666100  0.07166400  1
  N  N54  1  0.77438200  0.07333900  0.57166400  1
  N  N55  1  0.27438200  0.42666100  0.42833600  1
  N  N56  1  0.79394700  0.17276000  0.17334000  1
  N  N57  1  0.29394700  0.32724000  0.82666000  1
  N  N58  1  0.20605300  0.67276000  0.32666000  1
  N  N59  1  0.70605300  0.82724000  0.67334000  1
  N  N60  1  0.20605300  0.82724000  0.82666000  1
  N  N61  1  0.70605300  0.67276000  0.17334000  1
  N  N62  1  0.79394700  0.32724000  0.67334000  1
  N  N63  1  0.29394700  0.17276000  0.32666000  1
