# generated using pymatgen
data_Cd7SiN6
_symmetry_space_group_name_H-M   'P 1'
_cell_length_a   5.92420032
_cell_length_b   5.92420032
_cell_length_c   13.53187400
_cell_angle_alpha   89.99999033
_cell_angle_beta   90.00000967
_cell_angle_gamma   119.68853840
_symmetry_Int_Tables_number   1
_chemical_formula_structural   Cd7SiN6
_chemical_formula_sum   'Cd14 Si2 N12'
_cell_volume   412.57465013
_cell_formula_units_Z   2
loop_
 _symmetry_equiv_pos_site_id
 _symmetry_equiv_pos_as_xyz
  1  'x, y, z'
loop_
 _atom_site_type_symbol
 _atom_site_label
 _atom_site_symmetry_multiplicity
 _atom_site_fract_x
 _atom_site_fract_y
 _atom_site_fract_z
 _atom_site_occupancy
  Cd  Cd0  1  0.74748900  0.74748900  0.96555000  1
  Cd  Cd1  1  0.25251100  0.25251100  0.46555000  1
  Cd  Cd2  1  0.25251100  0.25251100  0.03445000  1
  Cd  Cd3  1  0.74748900  0.74748900  0.53445000  1
  Cd  Cd4  1  0.98028200  0.41791000  0.62106800  1
  Cd  Cd5  1  0.01971800  0.58209000  0.12106800  1
  Cd  Cd6  1  0.58209000  0.01971800  0.37893200  1
  Cd  Cd7  1  0.41791000  0.98028200  0.87893200  1
  Cd  Cd8  1  0.01971800  0.58209000  0.37893200  1
  Cd  Cd9  1  0.98028200  0.41791000  0.87893200  1
  Cd  Cd10  1  0.41791000  0.98028200  0.62106800  1
  Cd  Cd11  1  0.58209000  0.01971800  0.12106800  1
  Cd  Cd12  1  0.40783400  0.40783400  0.75000000  1
  Cd  Cd13  1  0.59216600  0.59216600  0.25000000  1
  Si  Si14  1  0.89281700  0.89281700  0.75000000  1
  Si  Si15  1  0.10718300  0.10718300  0.25000000  1
  N  N16  1  0.85116000  0.57344200  0.75000000  1
  N  N17  1  0.14884000  0.42655800  0.25000000  1
  N  N18  1  0.42655800  0.14884000  0.25000000  1
  N  N19  1  0.57344200  0.85116000  0.75000000  1
  N  N20  1  0.66908600  0.33091400  0.50000000  1
  N  N21  1  0.33091400  0.66908600  0.00000000  1
  N  N22  1  0.33091400  0.66908600  0.50000000  1
  N  N23  1  0.66908600  0.33091400  0.00000000  1
  N  N24  1  0.06877500  0.06877600  0.64286100  1
  N  N25  1  0.93122400  0.93122500  0.14286100  1
  N  N26  1  0.93122500  0.93122400  0.35713900  1
  N  N27  1  0.06877600  0.06877500  0.85713900  1
