# generated using pymatgen
data_Zn2CdN2
_symmetry_space_group_name_H-M   'P 1'
_cell_length_a   7.69539600
_cell_length_b   7.69539600
_cell_length_c   7.69539600
_cell_angle_alpha   90.00000000
_cell_angle_beta   90.00000000
_cell_angle_gamma   90.00000000
_symmetry_Int_Tables_number   1
_chemical_formula_structural   Zn2CdN2
_chemical_formula_sum   'Zn4 Cd2 N4'
_cell_volume   455.71457607
_cell_formula_units_Z   2
loop_
 _symmetry_equiv_pos_site_id
 _symmetry_equiv_pos_as_xyz
  1  'x, y, z'
loop_
 _atom_site_type_symbol
 _atom_site_label
 _atom_site_symmetry_multiplicity
 _atom_site_fract_x
 _atom_site_fract_y
 _atom_site_fract_z
 _atom_site_occupancy
  Zn  Zn0  1  0.30625100  0.30625100  0.69374900  1
  Zn  Zn1  1  0.30625100  0.69374900  0.30625100  1
  Zn  Zn2  1  0.69374900  0.30625100  0.30625100  1
  Zn  Zn3  1  0.69374900  0.69374900  0.69374900  1
  Cd  Cd4  1  0.00000000  0.00000000  0.00000000  1
  Cd  Cd5  1  0.50000000  0.50000000  0.50000000  1
  N  N6  1  0.16222500  0.16222500  0.83777500  1
  N  N7  1  0.16222500  0.83777500  0.16222500  1
  N  N8  1  0.83777500  0.16222500  0.16222500  1
  N  N9  1  0.83777500  0.83777500  0.83777500  1
