# generated using pymatgen
data_Sr3(AuN2)2
_symmetry_space_group_name_H-M   'P 1'
_cell_length_a   6.84621800
_cell_length_b   10.85282700
_cell_length_c   11.31215000
_cell_angle_alpha   90.00000000
_cell_angle_beta   90.00000000
_cell_angle_gamma   90.00000000
_symmetry_Int_Tables_number   1
_chemical_formula_structural   Sr3(AuN2)2
_chemical_formula_sum   'Sr12 Au8 N16'
_cell_volume   840.50201597
_cell_formula_units_Z   4
loop_
 _symmetry_equiv_pos_site_id
 _symmetry_equiv_pos_as_xyz
  1  'x, y, z'
loop_
 _atom_site_type_symbol
 _atom_site_label
 _atom_site_symmetry_multiplicity
 _atom_site_fract_x
 _atom_site_fract_y
 _atom_site_fract_z
 _atom_site_occupancy
  Sr  Sr0  1  0.62528300  0.14051200  0.44130600  1
  Sr  Sr1  1  0.87471700  0.85948800  0.44130600  1
  Sr  Sr2  1  0.62528300  0.35948800  0.05869400  1
  Sr  Sr3  1  0.87471700  0.64051200  0.05869400  1
  Sr  Sr4  1  0.37471700  0.85948800  0.55869400  1
  Sr  Sr5  1  0.12528300  0.14051200  0.55869400  1
  Sr  Sr6  1  0.37471700  0.64051200  0.94130600  1
  Sr  Sr7  1  0.12528300  0.35948800  0.94130600  1
  Sr  Sr8  1  0.75000000  0.50000000  0.32199200  1
  Sr  Sr9  1  0.75000000  0.00000000  0.17800800  1
  Sr  Sr10  1  0.25000000  0.50000000  0.67800800  1
  Sr  Sr11  1  0.25000000  0.00000000  0.82199200  1
  Au  Au12  1  0.75000000  0.50000000  0.83277600  1
  Au  Au13  1  0.75000000  0.00000000  0.66722400  1
  Au  Au14  1  0.25000000  0.50000000  0.16722400  1
  Au  Au15  1  0.25000000  0.00000000  0.33277600  1
  Au  Au16  1  0.49640500  0.25000000  0.75000000  1
  Au  Au17  1  0.00359500  0.75000000  0.75000000  1
  Au  Au18  1  0.50359500  0.75000000  0.25000000  1
  Au  Au19  1  0.99640500  0.25000000  0.25000000  1
  N  N20  1  0.04778900  0.30012500  0.72659500  1
  N  N21  1  0.45221100  0.69987500  0.72659500  1
  N  N22  1  0.04778900  0.19987500  0.77340500  1
  N  N23  1  0.45221100  0.80012500  0.77340500  1
  N  N24  1  0.95221100  0.69987500  0.27340500  1
  N  N25  1  0.54778900  0.30012500  0.27340500  1
  N  N26  1  0.95221100  0.80012500  0.22659500  1
  N  N27  1  0.54778900  0.19987500  0.22659500  1
  N  N28  1  0.47033200  0.41635500  0.84918000  1
  N  N29  1  0.02966800  0.58364500  0.84918000  1
  N  N30  1  0.47033200  0.08364500  0.65082000  1
  N  N31  1  0.02966800  0.91635500  0.65082000  1
  N  N32  1  0.52966800  0.58364500  0.15082000  1
  N  N33  1  0.97033200  0.41635500  0.15082000  1
  N  N34  1  0.52966800  0.91635500  0.34918000  1
  N  N35  1  0.97033200  0.08364500  0.34918000  1
