# generated using pymatgen
data_Eu2Fe2O5
_symmetry_space_group_name_H-M   'P 1'
_cell_length_a   8.74493731
_cell_length_b   8.74493731
_cell_length_c   8.74493731
_cell_angle_alpha   143.26019207
_cell_angle_beta   141.95892134
_cell_angle_gamma   53.91892942
_symmetry_Int_Tables_number   1
_chemical_formula_structural   Eu2Fe2O5
_chemical_formula_sum   'Eu4 Fe4 O10'
_cell_volume   244.89464615
_cell_formula_units_Z   2
loop_
 _symmetry_equiv_pos_site_id
 _symmetry_equiv_pos_as_xyz
  1  'x, y, z'
loop_
 _atom_site_type_symbol
 _atom_site_label
 _atom_site_symmetry_multiplicity
 _atom_site_fract_x
 _atom_site_fract_y
 _atom_site_fract_z
 _atom_site_occupancy
  Eu  Eu0  1  0.90684800  0.38990900  0.52083100  1
  Eu  Eu1  1  0.09315200  0.61398300  0.48306100  1
  Eu  Eu2  1  0.36907800  0.88990900  0.48306100  1
  Eu  Eu3  1  0.63092200  0.11398300  0.52083100  1
  Fe  Fe4  1  0.00000000  0.00955600  0.00955600  1
  Fe  Fe5  1  0.50000000  0.50955600  0.00955600  1
  Fe  Fe6  1  0.69710200  0.72385000  0.92095200  1
  Fe  Fe7  1  0.30289800  0.22385000  0.02674800  1
  O  O8  1  0.27058500  0.27295500  0.51355600  1
  O  O9  1  0.72941500  0.24297200  0.00237100  1
  O  O10  1  0.25939900  0.77295500  0.00237100  1
  O  O11  1  0.74060100  0.74297200  0.51355600  1
  O  O12  1  0.93272600  0.90140100  0.09840500  1
  O  O13  1  0.06727400  0.16567900  0.96867600  1
  O  O14  1  0.30299700  0.40140100  0.96867600  1
  O  O15  1  0.69700300  0.66567900  0.09840500  1
  O  O16  1  0.65035500  0.34369500  0.49405100  1
  O  O17  1  0.34964500  0.84369500  0.69334000  1
