# generated using pymatgen
data_Ba5(CN3)2
_symmetry_space_group_name_H-M   'P 1'
_cell_length_a   6.12403000
_cell_length_b   7.27107717
_cell_length_c   14.12123505
_cell_angle_alpha   89.99999637
_cell_angle_beta   90.28598255
_cell_angle_gamma   126.41654632
_symmetry_Int_Tables_number   1
_chemical_formula_structural   Ba5(CN3)2
_chemical_formula_sum   'Ba10 C4 N12'
_cell_volume   505.99529383
_cell_formula_units_Z   2
loop_
 _symmetry_equiv_pos_site_id
 _symmetry_equiv_pos_as_xyz
  1  'x, y, z'
loop_
 _atom_site_type_symbol
 _atom_site_label
 _atom_site_symmetry_multiplicity
 _atom_site_fract_x
 _atom_site_fract_y
 _atom_site_fract_z
 _atom_site_occupancy
  Ba  Ba0  1  0.07376000  0.77539100  0.99680000  1
  Ba  Ba1  1  0.92624000  0.70163100  0.50320000  1
  Ba  Ba2  1  0.92624000  0.22460900  0.00320000  1
  Ba  Ba3  1  0.07376000  0.29836900  0.49680000  1
  Ba  Ba4  1  0.34571800  0.06457900  0.68159400  1
  Ba  Ba5  1  0.65428200  0.71886100  0.81840600  1
  Ba  Ba6  1  0.65428200  0.93542100  0.31840600  1
  Ba  Ba7  1  0.34571800  0.28113900  0.18159400  1
  Ba  Ba8  1  0.00000000  0.33206300  0.75000000  1
  Ba  Ba9  1  0.00000000  0.66793700  0.25000000  1
  C  C10  1  0.55878600  0.80771100  0.59163300  1
  C  C11  1  0.44121400  0.24892600  0.90836700  1
  C  C12  1  0.44121400  0.19228900  0.40836700  1
  C  C13  1  0.55878600  0.75107400  0.09163300  1
  N  N14  1  0.80353400  0.95914800  0.64147100  1
  N  N15  1  0.19646600  0.15561500  0.85852900  1
  N  N16  1  0.19646600  0.04085200  0.35852900  1
  N  N17  1  0.80353400  0.84438500  0.14147100  1
  N  N18  1  0.31725300  0.67698600  0.64367900  1
  N  N19  1  0.68274700  0.35973400  0.85632100  1
  N  N20  1  0.68274700  0.32301400  0.35632100  1
  N  N21  1  0.31725300  0.64026600  0.14367900  1
  N  N22  1  0.44232500  0.21205600  0.50480600  1
  N  N23  1  0.55767500  0.76973100  0.99519400  1
  N  N24  1  0.55767500  0.78794400  0.49519400  1
  N  N25  1  0.44232500  0.23026900  0.00480600  1
