# generated using pymatgen
data_Na3AuN2
_symmetry_space_group_name_H-M   'P 1'
_cell_length_a   8.78978163
_cell_length_b   8.33877304
_cell_length_c   13.03728597
_cell_angle_alpha   89.99999659
_cell_angle_beta   137.86925650
_cell_angle_gamma   118.31669229
_symmetry_Int_Tables_number   1
_chemical_formula_structural   Na3AuN2
_chemical_formula_sum   'Na12 Au4 N8'
_cell_volume   453.27466339
_cell_formula_units_Z   4
loop_
 _symmetry_equiv_pos_site_id
 _symmetry_equiv_pos_as_xyz
  1  'x, y, z'
loop_
 _atom_site_type_symbol
 _atom_site_label
 _atom_site_symmetry_multiplicity
 _atom_site_fract_x
 _atom_site_fract_y
 _atom_site_fract_z
 _atom_site_occupancy
  Na  Na0  1  0.00000000  0.50000000  0.36893300  1
  Na  Na1  1  0.00000000  0.00000000  0.88106700  1
  Na  Na2  1  0.00000000  0.50000000  0.13106700  1
  Na  Na3  1  0.00000000  0.00000000  0.11893300  1
  Na  Na4  1  0.55728100  0.50000000  0.52864000  1
  Na  Na5  1  0.44271900  0.50000000  0.97136000  1
  Na  Na6  1  0.55728100  0.00000000  0.27864000  1
  Na  Na7  1  0.44271900  0.00000000  0.72136000  1
  Na  Na8  1  0.44271900  0.94271900  0.97136000  1
  Na  Na9  1  0.55728100  0.05728100  0.52864000  1
  Na  Na10  1  0.44271900  0.44271900  0.72136000  1
  Na  Na11  1  0.55728100  0.55728100  0.27864000  1
  Au  Au12  1  0.00000000  0.50000000  0.59752800  1
  Au  Au13  1  0.00000000  0.00000000  0.65247200  1
  Au  Au14  1  0.00000000  0.50000000  0.90247200  1
  Au  Au15  1  0.00000000  0.00000000  0.34752800  1
  N  N16  1  0.53787800  0.26893900  0.36669400  1
  N  N17  1  0.46212200  0.73106100  0.82881700  1
  N  N18  1  0.53787800  0.76893900  0.42118300  1
  N  N19  1  0.46212200  0.23106100  0.88330600  1
  N  N20  1  0.00000000  0.73106100  0.90224500  1
  N  N21  1  0.00000000  0.26893900  0.90224500  1
  N  N22  1  0.00000000  0.23106100  0.34775500  1
  N  N23  1  0.00000000  0.76893900  0.34775500  1
