# generated using pymatgen
data_Sr3(NbN2)2
_symmetry_space_group_name_H-M   'P 1'
_cell_length_a   9.56078845
_cell_length_b   8.32808137
_cell_length_c   6.17748395
_cell_angle_alpha   89.99999544
_cell_angle_beta   70.00639301
_cell_angle_gamma   115.81922414
_symmetry_Int_Tables_number   1
_chemical_formula_structural   Sr3(NbN2)2
_chemical_formula_sum   'Sr6 Nb4 N8'
_cell_volume   409.58468644
_cell_formula_units_Z   2
loop_
 _symmetry_equiv_pos_site_id
 _symmetry_equiv_pos_as_xyz
  1  'x, y, z'
loop_
 _atom_site_type_symbol
 _atom_site_label
 _atom_site_symmetry_multiplicity
 _atom_site_fract_x
 _atom_site_fract_y
 _atom_site_fract_z
 _atom_site_occupancy
  Sr  Sr0  1  0.28118700  0.99083300  0.07576000  1
  Sr  Sr1  1  0.71881300  0.70964600  0.42424000  1
  Sr  Sr2  1  0.71881300  0.00916700  0.92424000  1
  Sr  Sr3  1  0.28118700  0.29035400  0.57576000  1
  Sr  Sr4  1  0.00000000  0.75464400  0.75000000  1
  Sr  Sr5  1  0.00000000  0.24535600  0.25000000  1
  Nb  Nb6  1  0.58296800  0.18232200  0.52534500  1
  Nb  Nb7  1  0.41703200  0.59935500  0.97465500  1
  Nb  Nb8  1  0.41703200  0.81767800  0.47465500  1
  Nb  Nb9  1  0.58296800  0.40064500  0.02534500  1
  N  N10  1  0.32967700  0.99556500  0.62691600  1
  N  N11  1  0.67032300  0.66588800  0.87308400  1
  N  N12  1  0.67032300  0.00443500  0.37308400  1
  N  N13  1  0.32967700  0.33411200  0.12691600  1
  N  N14  1  0.60393600  0.21554500  0.83100600  1
  N  N15  1  0.39606400  0.61160900  0.66899400  1
  N  N16  1  0.39606400  0.78445500  0.16899400  1
  N  N17  1  0.60393600  0.38839100  0.33100600  1
