# generated using pymatgen
data_CrW2N3
_symmetry_space_group_name_H-M   'P 1'
_cell_length_a   6.15559040
_cell_length_b   2.80874076
_cell_length_c   11.40106516
_cell_angle_alpha   89.99999470
_cell_angle_beta   22.16912890
_cell_angle_gamma   76.81207678
_symmetry_Int_Tables_number   1
_chemical_formula_structural   CrW2N3
_chemical_formula_sum   'Cr1 W2 N3'
_cell_volume   59.24591297
_cell_formula_units_Z   1
loop_
 _symmetry_equiv_pos_site_id
 _symmetry_equiv_pos_as_xyz
  1  'x, y, z'
loop_
 _atom_site_type_symbol
 _atom_site_label
 _atom_site_symmetry_multiplicity
 _atom_site_fract_x
 _atom_site_fract_y
 _atom_site_fract_z
 _atom_site_occupancy
  Cr  Cr0  1  0.00000000  0.00000000  0.00000000  1
  W  W1  1  0.00000000  0.00000000  0.64507200  1
  W  W2  1  0.00000000  0.00000000  0.35492800  1
  N  N3  1  0.00000000  0.50000000  0.50000000  1
  N  N4  1  0.00000000  0.00000000  0.82466200  1
  N  N5  1  0.00000000  0.00000000  0.17533800  1
