# generated using pymatgen
data_Sr8Fe7CoO24
_symmetry_space_group_name_H-M   'P 1'
_cell_length_a   7.81807300
_cell_length_b   7.81807300
_cell_length_c   7.81807300
_cell_angle_alpha   90.00000000
_cell_angle_beta   90.00000000
_cell_angle_gamma   90.00000000
_symmetry_Int_Tables_number   1
_chemical_formula_structural   Sr8Fe7CoO24
_chemical_formula_sum   'Sr8 Fe7 Co1 O24'
_cell_volume   477.85833308
_cell_formula_units_Z   1
loop_
 _symmetry_equiv_pos_site_id
 _symmetry_equiv_pos_as_xyz
  1  'x, y, z'
loop_
 _atom_site_type_symbol
 _atom_site_label
 _atom_site_symmetry_multiplicity
 _atom_site_fract_x
 _atom_site_fract_y
 _atom_site_fract_z
 _atom_site_occupancy
  Sr  Sr0  1  0.25051800  0.24948200  0.24948200  1
  Sr  Sr1  1  0.25051800  0.24948200  0.75051800  1
  Sr  Sr2  1  0.25051800  0.75051800  0.24948200  1
  Sr  Sr3  1  0.25051800  0.75051800  0.75051800  1
  Sr  Sr4  1  0.74948200  0.24948200  0.24948200  1
  Sr  Sr5  1  0.74948200  0.24948200  0.75051800  1
  Sr  Sr6  1  0.74948200  0.75051800  0.24948200  1
  Sr  Sr7  1  0.74948200  0.75051800  0.75051800  1
  Fe  Fe8  1  0.00000000  0.00000000  0.00000000  1
  Fe  Fe9  1  0.00000000  0.00000000  0.50000000  1
  Fe  Fe10  1  0.00000000  0.50000000  0.00000000  1
  Fe  Fe11  1  0.50000000  0.00000000  0.00000000  1
  Fe  Fe12  1  0.50000000  0.00000000  0.50000000  1
  Fe  Fe13  1  0.50000000  0.50000000  0.00000000  1
  Fe  Fe14  1  0.50000000  0.50000000  0.50000000  1
  Co  Co15  1  0.00000000  0.50000000  0.50000000  1
  O  O16  1  0.25162100  0.00000000  0.00000000  1
  O  O17  1  0.24832000  0.00000000  0.50000000  1
  O  O18  1  0.24832000  0.50000000  0.00000000  1
  O  O19  1  0.24218600  0.50000000  0.50000000  1
  O  O20  1  0.74837900  0.00000000  0.00000000  1
  O  O21  1  0.75168000  0.00000000  0.50000000  1
  O  O22  1  0.75168000  0.50000000  0.00000000  1
  O  O23  1  0.75781400  0.50000000  0.50000000  1
  O  O24  1  0.00000000  0.25168000  0.00000000  1
  O  O25  1  0.00000000  0.25781400  0.50000000  1
  O  O26  1  0.00000000  0.74832000  0.00000000  1
  O  O27  1  0.00000000  0.74218600  0.50000000  1
  O  O28  1  0.50000000  0.24837900  0.00000000  1
  O  O29  1  0.50000000  0.25168000  0.50000000  1
  O  O30  1  0.50000000  0.75162100  0.00000000  1
  O  O31  1  0.50000000  0.74832000  0.50000000  1
  O  O32  1  0.00000000  0.00000000  0.25168000  1
  O  O33  1  0.00000000  0.00000000  0.74832000  1
  O  O34  1  0.00000000  0.50000000  0.25781400  1
  O  O35  1  0.00000000  0.50000000  0.74218600  1
  O  O36  1  0.50000000  0.00000000  0.24837900  1
  O  O37  1  0.50000000  0.00000000  0.75162100  1
  O  O38  1  0.50000000  0.50000000  0.25168000  1
  O  O39  1  0.50000000  0.50000000  0.74832000  1
