# generated using pymatgen
data_Sr32Mn32O79
_symmetry_space_group_name_H-M   'P 1'
_cell_length_a   11.46131340
_cell_length_b   10.97197749
_cell_length_c   18.87255347
_cell_angle_alpha   90.00000000
_cell_angle_beta   90.00000000
_cell_angle_gamma   121.48661204
_symmetry_Int_Tables_number   1
_chemical_formula_structural   Sr32Mn32O79
_chemical_formula_sum   'Sr32 Mn32 O79'
_cell_volume   2023.84811740
_cell_formula_units_Z   1
loop_
 _symmetry_equiv_pos_site_id
 _symmetry_equiv_pos_as_xyz
  1  'x, y, z'
loop_
 _atom_site_type_symbol
 _atom_site_label
 _atom_site_symmetry_multiplicity
 _atom_site_fract_x
 _atom_site_fract_y
 _atom_site_fract_z
 _atom_site_occupancy
  Sr  Sr0  1  0.99993904  0.99987808  0.00579895  1
  Sr  Sr1  1  0.00000698  0.00001395  0.49718573  1
  Sr  Sr2  1  0.00125984  0.50244306  0.00024722  1
  Sr  Sr3  1  0.00012514  0.50007685  0.49875363  1
  Sr  Sr4  1  0.49801801  0.99603601  0.01976632  1
  Sr  Sr5  1  0.49980451  -0.00039098  0.49719257  1
  Sr  Sr6  1  0.50118322  0.50244306  0.00024722  1
  Sr  Sr7  1  0.49995171  0.50007685  0.49875363  1
  Sr  Sr8  1  0.00000698  0.00001395  0.25281427  1
  Sr  Sr9  1  0.99993904  0.99987808  0.74420105  1
  Sr  Sr10  1  0.00012514  0.50007685  0.25124637  1
  Sr  Sr11  1  0.00125984  0.50244306  0.74975278  1
  Sr  Sr12  1  0.49980451  -0.00039098  0.25280743  1
  Sr  Sr13  1  0.49801801  0.99603601  0.73023368  1
  Sr  Sr14  1  0.49995171  0.50007685  0.25124637  1
  Sr  Sr15  1  0.50118322  0.50244306  0.74975278  1
  Sr  Sr16  1  0.34145930  0.18329379  0.37500000  1
  Sr  Sr17  1  0.32467845  0.17996189  0.87500000  1
  Sr  Sr18  1  0.34054004  0.68108107  0.37500000  1
  Sr  Sr19  1  0.34609158  0.69218416  0.87500000  1
  Sr  Sr20  1  0.84183349  0.18329379  0.37500000  1
  Sr  Sr21  1  0.85528244  0.17996189  0.87500000  1
  Sr  Sr22  1  0.84098211  0.68196523  0.37500000  1
  Sr  Sr23  1  0.84499314  0.68998727  0.87500000  1
  Sr  Sr24  1  0.15851984  0.31703867  0.12483974  1
  Sr  Sr25  1  0.15851984  0.31703867  0.62516026  1
  Sr  Sr26  1  0.15553369  0.81565962  0.12549054  1
  Sr  Sr27  1  0.15553369  0.81565962  0.62450946  1
  Sr  Sr28  1  0.66081019  0.32161938  0.12645310  1
  Sr  Sr29  1  0.66081019  0.32161938  0.62354690  1
  Sr  Sr30  1  0.66012694  0.81565962  0.12549054  1
  Sr  Sr31  1  0.66012694  0.81565962  0.62450946  1
  Mn  Mn32  1  0.34019687  0.17874798  0.18946393  1
  Mn  Mn33  1  0.33906124  0.17637618  0.69302001  1
  Mn  Mn34  1  0.33821476  0.67643052  0.19135843  1
  Mn  Mn35  1  0.33691384  0.67382868  0.69102666  1
  Mn  Mn36  1  0.83855011  0.17874798  0.18946393  1
  Mn  Mn37  1  0.83731394  0.17637618  0.69302001  1
  Mn  Mn38  1  0.83935811  0.67871723  0.19076305  1
  Mn  Mn39  1  0.83787683  0.67575467  0.69186741  1
  Mn  Mn40  1  0.16126742  0.32253385  0.44132774  1
  Mn  Mn41  1  0.16283055  0.32566011  0.94131567  1
  Mn  Mn42  1  0.16136243  0.82250982  0.44100750  1
  Mn  Mn43  1  0.16466992  0.82597000  0.94105727  1
  Mn  Mn44  1  0.66127953  0.32255805  0.44113630  1
  Mn  Mn45  1  0.66281175  0.32562249  0.94196303  1
  Mn  Mn46  1  0.66114838  0.82250982  0.44100750  1
  Mn  Mn47  1  0.66130108  0.82597000  0.94105727  1
  Mn  Mn48  1  0.33906124  0.17637618  0.05697999  1
  Mn  Mn49  1  0.34019687  0.17874798  0.56053607  1
  Mn  Mn50  1  0.33691384  0.67382868  0.05897334  1
  Mn  Mn51  1  0.33821476  0.67643052  0.55864157  1
  Mn  Mn52  1  0.83731394  0.17637618  0.05697999  1
  Mn  Mn53  1  0.83855011  0.17874798  0.56053607  1
  Mn  Mn54  1  0.83787683  0.67575467  0.05813259  1
  Mn  Mn55  1  0.83935811  0.67871723  0.55923695  1
  Mn  Mn56  1  0.16126742  0.32253385  0.30867226  1
  Mn  Mn57  1  0.16283055  0.32566011  0.80868433  1
  Mn  Mn58  1  0.16136243  0.82250982  0.30899250  1
  Mn  Mn59  1  0.16466992  0.82597000  0.80894273  1
  Mn  Mn60  1  0.66127953  0.32255805  0.30886370  1
  Mn  Mn61  1  0.66281175  0.32562249  0.80803697  1
  Mn  Mn62  1  0.66114838  0.82250982  0.30899250  1
  Mn  Mn63  1  0.66130108  0.82597000  0.80894273  1
  O  O64  1  0.09718999  0.41561401  0.37500000  1
  O  O65  1  0.09900739  0.41661429  0.87500000  1
  O  O66  1  0.09788397  0.91484420  0.37500000  1
  O  O67  1  0.09861562  0.91483352  0.87500000  1
  O  O68  1  0.59778747  0.41492916  0.37500000  1
  O  O69  1  0.59053028  0.40208243  0.87500000  1
  O  O70  1  0.59749891  0.91461613  0.37500000  1
  O  O71  1  0.60191396  0.92515207  0.87500000  1
  O  O72  1  0.42903024  0.34738492  0.12197529  1
  O  O73  1  0.42903024  0.34738492  0.62802471  1
  O  O74  1  0.42252548  0.84505096  0.12585584  1
  O  O75  1  0.42252548  0.84505096  0.62414416  1
  O  O76  1  0.91835468  0.34738492  0.12197529  1
  O  O77  1  0.91835468  0.34738492  0.62802471  1
  O  O78  1  0.92399155  0.84798310  0.12484319  1
  O  O79  1  0.92399155  0.84798310  0.62515681  1
  O  O80  1  0.31842402  0.41561401  0.37500000  1
  O  O81  1  0.31760689  0.41661429  0.87500000  1
  O  O82  1  0.31711722  0.91461613  0.37500000  1
  O  O83  1  0.32323811  0.92515207  0.87500000  1
  O  O84  1  0.81714169  0.41492916  0.37500000  1
  O  O85  1  0.81155215  0.40208243  0.87500000  1
  O  O86  1  0.81696023  0.91484420  0.37500000  1
  O  O87  1  0.81621791  0.91483352  0.87500000  1
  O  O88  1  0.40314494  0.08473871  0.12271441  1
  O  O89  1  0.40314494  0.08473871  0.62728559  1
  O  O90  1  0.40127128  0.58334211  0.12533542  1
  O  O91  1  0.40127128  0.58334211  0.62466458  1
  O  O92  1  0.90186509  0.08591769  0.12258750  1
  O  O93  1  0.90186509  0.08591769  0.62741250  1
  O  O94  1  0.90221745  0.58568973  0.12536691  1
  O  O95  1  0.90221745  0.58568973  0.62463309  1
  O  O96  1  0.07629608  0.15259217  0.37500000  1
  O  O97  1  0.07745374  0.15490749  0.87500000  1
  O  O98  1  0.07606573  0.65272917  0.37500000  1
  O  O99  1  0.07956724  0.65526466  0.87500000  1
  O  O100  1  0.57629802  0.15259604  0.37500000  1
  O  O101  1  0.57666345  0.65272917  0.37500000  1
  O  O102  1  0.57569742  0.65526466  0.87500000  1
  O  O103  1  0.18405260  0.08591769  0.12258750  1
  O  O104  1  0.18405260  0.08591769  0.62741250  1
  O  O105  1  0.18207083  0.58334211  0.12533542  1
  O  O106  1  0.18207083  0.58334211  0.62466458  1
  O  O107  1  0.68159377  0.08473871  0.12271441  1
  O  O108  1  0.68159377  0.08473871  0.62728559  1
  O  O109  1  0.68347228  0.58568973  0.12536691  1
  O  O110  1  0.68347228  0.58568973  0.62463309  1
  O  O111  1  0.25099483  0.25128026  0.99925258  1
  O  O112  1  0.25051647  0.24985842  0.50139461  1
  O  O113  1  0.24961488  0.74968047  0.00072710  1
  O  O114  1  0.24994612  0.75022744  0.49999567  1
  O  O115  1  0.73904505  0.23221608  0.99292031  1
  O  O116  1  0.74959998  0.24973346  0.50054828  1
  O  O117  1  0.74978495  0.75104215  0.99991905  1
  O  O118  1  0.75066143  0.75146666  0.50014633  1
  O  O119  1  0.99934195  0.24985842  0.50139461  1
  O  O120  1  0.00028543  0.25128026  0.99925258  1
  O  O121  1  0.00080523  0.75146666  0.50014633  1
  O  O122  1  0.00125720  0.75104215  0.99991905  1
  O  O123  1  0.50013349  0.24973346  0.50054828  1
  O  O124  1  0.49317103  0.23221608  0.99292031  1
  O  O125  1  0.50028132  0.75022744  0.49999567  1
  O  O126  1  0.50006558  0.74968047  0.00072710  1
  O  O127  1  0.25051647  0.24985842  0.24860539  1
  O  O128  1  0.25099483  0.25128026  0.75074742  1
  O  O129  1  0.24994612  0.75022744  0.25000433  1
  O  O130  1  0.24961488  0.74968047  0.74927290  1
  O  O131  1  0.74959998  0.24973346  0.24945172  1
  O  O132  1  0.73904505  0.23221608  0.75707969  1
  O  O133  1  0.75066143  0.75146666  0.24985367  1
  O  O134  1  0.74978495  0.75104215  0.75008095  1
  O  O135  1  0.99934195  0.24985842  0.24860539  1
  O  O136  1  0.00028543  0.25128026  0.75074742  1
  O  O137  1  0.00080523  0.75146666  0.24985367  1
  O  O138  1  0.00125720  0.75104215  0.75008095  1
  O  O139  1  0.50013349  0.24973346  0.24945172  1
  O  O140  1  0.49317103  0.23221608  0.75707969  1
  O  O141  1  0.50028132  0.75022744  0.25000433  1
  O  O142  1  0.50006558  0.74968047  0.74927290  1
