# generated using pymatgen
data_YMg2Cr3S8
_symmetry_space_group_name_H-M   'P 1'
_cell_length_a   7.41941341
_cell_length_b   7.41895760
_cell_length_c   7.41912434
_cell_angle_alpha   59.43458259
_cell_angle_beta   59.43489118
_cell_angle_gamma   59.43556041
_symmetry_Int_Tables_number   1
_chemical_formula_structural   YMg2Cr3S8
_chemical_formula_sum   'Y1 Mg2 Cr3 S8'
_cell_volume   285.05674442
_cell_formula_units_Z   1
loop_
 _symmetry_equiv_pos_site_id
 _symmetry_equiv_pos_as_xyz
  1  'x, y, z'
loop_
 _atom_site_type_symbol
 _atom_site_label
 _atom_site_symmetry_multiplicity
 _atom_site_fract_x
 _atom_site_fract_y
 _atom_site_fract_z
 _atom_site_occupancy
  Y  Y0  1  0.50000900  0.49998000  0.50000500  1
  Mg  Mg1  1  0.87525200  0.87521400  0.87529700  1
  Mg  Mg2  1  0.12479600  0.12473700  0.12481500  1
  Cr  Cr3  1  0.49994500  0.50020800  0.99987200  1
  Cr  Cr4  1  0.99995500  0.49981800  0.50015600  1
  Cr  Cr5  1  0.50002000  0.00004000  0.49978900  1
  S  S6  1  0.73604200  0.73608300  0.73601400  1
  S  S7  1  0.24477200  0.24466600  0.72068100  1
  S  S8  1  0.24467700  0.72064200  0.24480600  1
  S  S9  1  0.72067600  0.24476300  0.24467600  1
  S  S10  1  0.75524100  0.27927700  0.75537900  1
  S  S11  1  0.27929900  0.75534500  0.75526600  1
  S  S12  1  0.26396200  0.26398000  0.26392600  1
  S  S13  1  0.75535500  0.75524000  0.27932000  1
