# generated using pymatgen
data_Co2CuN2
_symmetry_space_group_name_H-M   'P 1'
_cell_length_a   2.76289300
_cell_length_b   2.81589600
_cell_length_c   11.88860900
_cell_angle_alpha   90.00000000
_cell_angle_beta   90.00000000
_cell_angle_gamma   90.00000000
_symmetry_Int_Tables_number   1
_chemical_formula_structural   Co2CuN2
_chemical_formula_sum   'Co4 Cu2 N4'
_cell_volume   92.49360803
_cell_formula_units_Z   2
loop_
 _symmetry_equiv_pos_site_id
 _symmetry_equiv_pos_as_xyz
  1  'x, y, z'
loop_
 _atom_site_type_symbol
 _atom_site_label
 _atom_site_symmetry_multiplicity
 _atom_site_fract_x
 _atom_site_fract_y
 _atom_site_fract_z
 _atom_site_occupancy
  Co  Co0  1  0.75000000  0.71886000  0.08671800  1
  Co  Co1  1  0.75000000  0.71886000  0.41328200  1
  Co  Co2  1  0.25000000  0.28114000  0.91328200  1
  Co  Co3  1  0.25000000  0.28114000  0.58671800  1
  Cu  Cu4  1  0.75000000  0.75990400  0.75000000  1
  Cu  Cu5  1  0.25000000  0.24009600  0.25000000  1
  N  N6  1  0.75000000  0.73208300  0.58713100  1
  N  N7  1  0.75000000  0.73208300  0.91286900  1
  N  N8  1  0.25000000  0.26791700  0.41286900  1
  N  N9  1  0.25000000  0.26791700  0.08713100  1
