# generated using pymatgen
data_Ba(RuN2)2
_symmetry_space_group_name_H-M   'P 1'
_cell_length_a   11.16467192
_cell_length_b   11.16467192
_cell_length_c   11.16467192
_cell_angle_alpha   90.00000000
_cell_angle_beta   90.00000000
_cell_angle_gamma   90.00000000
_symmetry_Int_Tables_number   1
_chemical_formula_structural   Ba(RuN2)2
_chemical_formula_sum   'Ba12 Ru24 N48'
_cell_volume   1391.67522810
_cell_formula_units_Z   12
loop_
 _symmetry_equiv_pos_site_id
 _symmetry_equiv_pos_as_xyz
  1  'x, y, z'
loop_
 _atom_site_type_symbol
 _atom_site_label
 _atom_site_symmetry_multiplicity
 _atom_site_fract_x
 _atom_site_fract_y
 _atom_site_fract_z
 _atom_site_occupancy
  Ba  Ba0  1  0.50000000  0.50000000  -0.00000000  1
  Ba  Ba1  1  0.50000000  0.00000000  0.50000000  1
  Ba  Ba2  1  -0.00000000  0.50000000  0.50000000  1
  Ba  Ba3  1  -0.00000000  -0.00000000  -0.00000000  1
  Ba  Ba4  1  0.12371777  0.87628223  0.37628223  1
  Ba  Ba5  1  0.87628223  0.37628223  0.12371777  1
  Ba  Ba6  1  0.37628223  0.12371777  0.87628223  1
  Ba  Ba7  1  0.62371777  0.62371777  0.62371777  1
  Ba  Ba8  1  0.87628223  0.12371777  0.62371777  1
  Ba  Ba9  1  0.12371777  0.62371777  0.87628223  1
  Ba  Ba10  1  0.62371777  0.87628223  0.12371777  1
  Ba  Ba11  1  0.37628223  0.37628223  0.37628223  1
  Ru  Ru12  1  0.38635204  0.69712794  0.35217035  1
  Ru  Ru13  1  0.61364796  0.19712794  0.14782965  1
  Ru  Ru14  1  0.11364796  0.30287206  0.85217035  1
  Ru  Ru15  1  0.88635204  0.80287206  0.64782965  1
  Ru  Ru16  1  0.35217035  0.38635204  0.69712794  1
  Ru  Ru17  1  0.14782965  0.61364796  0.19712794  1
  Ru  Ru18  1  0.85217035  0.11364796  0.30287206  1
  Ru  Ru19  1  0.64782965  0.88635204  0.80287206  1
  Ru  Ru20  1  0.69712794  0.35217035  0.38635204  1
  Ru  Ru21  1  0.19712794  0.14782965  0.61364796  1
  Ru  Ru22  1  0.30287206  0.85217035  0.11364796  1
  Ru  Ru23  1  0.80287206  0.64782965  0.88635204  1
  Ru  Ru24  1  0.61364796  0.30287206  0.64782965  1
  Ru  Ru25  1  0.38635204  0.80287206  0.85217035  1
  Ru  Ru26  1  0.88635204  0.69712794  0.14782965  1
  Ru  Ru27  1  0.11364796  0.19712794  0.35217035  1
  Ru  Ru28  1  0.64782965  0.61364796  0.30287206  1
  Ru  Ru29  1  0.85217035  0.38635204  0.80287206  1
  Ru  Ru30  1  0.14782965  0.88635204  0.69712794  1
  Ru  Ru31  1  0.35217035  0.11364796  0.19712794  1
  Ru  Ru32  1  0.30287206  0.64782965  0.61364796  1
  Ru  Ru33  1  0.80287206  0.85217035  0.38635204  1
  Ru  Ru34  1  0.69712794  0.14782965  0.88635204  1
  Ru  Ru35  1  0.19712794  0.35217035  0.11364796  1
  N  N36  1  0.36956050  0.83902647  0.27084421  1
  N  N37  1  0.63043950  0.33902647  0.22915579  1
  N  N38  1  0.13043950  0.16097353  0.77084421  1
  N  N39  1  0.86956050  0.66097353  0.72915579  1
  N  N40  1  0.27084421  0.36956050  0.83902647  1
  N  N41  1  0.22915579  0.63043950  0.33902647  1
  N  N42  1  0.77084421  0.13043950  0.16097353  1
  N  N43  1  0.72915579  0.86956050  0.66097353  1
  N  N44  1  0.83902647  0.27084421  0.36956050  1
  N  N45  1  0.33902647  0.22915579  0.63043950  1
  N  N46  1  0.16097353  0.77084421  0.13043950  1
  N  N47  1  0.66097353  0.72915579  0.86956050  1
  N  N48  1  0.63043950  0.16097353  0.72915579  1
  N  N49  1  0.36956050  0.66097353  0.77084421  1
  N  N50  1  0.86956050  0.83902647  0.22915579  1
  N  N51  1  0.13043950  0.33902647  0.27084421  1
  N  N52  1  0.72915579  0.63043950  0.16097353  1
  N  N53  1  0.77084421  0.36956050  0.66097353  1
  N  N54  1  0.22915579  0.86956050  0.83902647  1
  N  N55  1  0.27084421  0.13043950  0.33902647  1
  N  N56  1  0.16097353  0.72915579  0.63043950  1
  N  N57  1  0.66097353  0.77084421  0.36956050  1
  N  N58  1  0.83902647  0.22915579  0.86956050  1
  N  N59  1  0.33902647  0.27084421  0.13043950  1
  N  N60  1  0.42204332  0.72206185  0.51609488  1
  N  N61  1  0.57795668  0.22206185  0.98390512  1
  N  N62  1  0.07795668  0.27793815  0.01609488  1
  N  N63  1  0.92204332  0.77793815  0.48390512  1
  N  N64  1  0.51609488  0.42204332  0.72206185  1
  N  N65  1  0.98390512  0.57795668  0.22206185  1
  N  N66  1  0.01609488  0.07795668  0.27793815  1
  N  N67  1  0.48390512  0.92204332  0.77793815  1
  N  N68  1  0.72206185  0.51609488  0.42204332  1
  N  N69  1  0.22206185  0.98390512  0.57795668  1
  N  N70  1  0.27793815  0.01609488  0.07795668  1
  N  N71  1  0.77793815  0.48390512  0.92204332  1
  N  N72  1  0.57795668  0.27793815  0.48390512  1
  N  N73  1  0.42204332  0.77793815  0.01609488  1
  N  N74  1  0.92204332  0.72206185  0.98390512  1
  N  N75  1  0.07795668  0.22206185  0.51609488  1
  N  N76  1  0.48390512  0.57795668  0.27793815  1
  N  N77  1  0.01609488  0.42204332  0.77793815  1
  N  N78  1  0.98390512  0.92204332  0.72206185  1
  N  N79  1  0.51609488  0.07795668  0.22206185  1
  N  N80  1  0.27793815  0.48390512  0.57795668  1
  N  N81  1  0.77793815  0.01609488  0.42204332  1
  N  N82  1  0.72206185  0.98390512  0.92204332  1
  N  N83  1  0.22206185  0.51609488  0.07795668  1
