# generated using pymatgen
data_Mg2TiAl3S8
_symmetry_space_group_name_H-M   'P 1'
_cell_length_a   7.28223821
_cell_length_b   7.28828490
_cell_length_c   7.28046600
_cell_angle_alpha   60.03911396
_cell_angle_beta   60.01009968
_cell_angle_gamma   60.02735084
_symmetry_Int_Tables_number   1
_chemical_formula_structural   Mg2TiAl3S8
_chemical_formula_sum   'Mg2 Ti1 Al3 S8'
_cell_volume   273.39182957
_cell_formula_units_Z   1
loop_
 _symmetry_equiv_pos_site_id
 _symmetry_equiv_pos_as_xyz
  1  'x, y, z'
loop_
 _atom_site_type_symbol
 _atom_site_label
 _atom_site_symmetry_multiplicity
 _atom_site_fract_x
 _atom_site_fract_y
 _atom_site_fract_z
 _atom_site_occupancy
  Mg  Mg0  1  0.87488900  0.87541600  0.87486200  1
  Mg  Mg1  1  0.12512400  0.12458000  0.12513300  1
  Ti  Ti2  1  0.50000100  0.99999700  0.50001200  1
  Al  Al3  1  0.50000000  0.50001400  0.49998200  1
  Al  Al4  1  0.49999900  0.49999100  0.99999900  1
  Al  Al5  1  0.99999600  0.49998900  0.50001400  1
  S  S6  1  0.74118200  0.73355600  0.74124800  1
  S  S7  1  0.25883900  0.26647000  0.71594400  1
  S  S8  1  0.26234000  0.71256300  0.26253000  1
  S  S9  1  0.71583800  0.26669500  0.25873800  1
  S  S10  1  0.73764800  0.28744000  0.73746700  1
  S  S11  1  0.28416100  0.73330400  0.74125700  1
  S  S12  1  0.25881500  0.26644300  0.25875700  1
  S  S13  1  0.74117200  0.73353500  0.28405800  1
