# generated using pymatgen
data_ZrCrAgS4
_symmetry_space_group_name_H-M   'P 1'
_cell_length_a   11.37668500
_cell_length_b   3.62352500
_cell_length_c   13.16192300
_cell_angle_alpha   90.00000000
_cell_angle_beta   90.00000000
_cell_angle_gamma   90.00000000
_symmetry_Int_Tables_number   1
_chemical_formula_structural   ZrCrAgS4
_chemical_formula_sum   'Zr4 Cr4 Ag4 S16'
_cell_volume   542.58319827
_cell_formula_units_Z   4
loop_
 _symmetry_equiv_pos_site_id
 _symmetry_equiv_pos_as_xyz
  1  'x, y, z'
loop_
 _atom_site_type_symbol
 _atom_site_label
 _atom_site_symmetry_multiplicity
 _atom_site_fract_x
 _atom_site_fract_y
 _atom_site_fract_z
 _atom_site_occupancy
  Zr  Zr0  1  0.93467900  0.75000000  0.89989700  1
  Zr  Zr1  1  0.56532100  0.25000000  0.39989700  1
  Zr  Zr2  1  0.08718200  0.25000000  0.58723400  1
  Zr  Zr3  1  0.41281800  0.75000000  0.08723400  1
  Cr  Cr4  1  0.05100500  0.25000000  0.11955700  1
  Cr  Cr5  1  0.44899500  0.75000000  0.61955700  1
  Cr  Cr6  1  0.92633600  0.75000000  0.40138600  1
  Cr  Cr7  1  0.57366400  0.25000000  0.90138600  1
  Ag  Ag8  1  0.24310600  0.25000000  0.31666900  1
  Ag  Ag9  1  0.75495600  0.75000000  0.67268900  1
  Ag  Ag10  1  0.25689400  0.75000000  0.81666900  1
  Ag  Ag11  1  0.74504400  0.25000000  0.17268900  1
  S  S12  1  0.03708100  0.75000000  0.71743000  1
  S  S13  1  0.96378900  0.25000000  0.28842500  1
  S  S14  1  0.46291900  0.25000000  0.21743000  1
  S  S15  1  0.53621100  0.75000000  0.78842500  1
  S  S16  1  0.08814900  0.25000000  0.93842400  1
  S  S17  1  0.91015700  0.75000000  0.08825400  1
  S  S18  1  0.41185100  0.75000000  0.43842400  1
  S  S19  1  0.58984300  0.25000000  0.58825400  1
  S  S20  1  0.12689900  0.75000000  0.45432100  1
  S  S21  1  0.87840000  0.25000000  0.52100100  1
  S  S22  1  0.37310100  0.25000000  0.95432100  1
  S  S23  1  0.62160000  0.75000000  0.02100100  1
  S  S24  1  0.19052100  0.75000000  0.15231600  1
  S  S25  1  0.78635700  0.25000000  0.84239900  1
  S  S26  1  0.30947900  0.25000000  0.65231600  1
  S  S27  1  0.71364300  0.75000000  0.34239900  1
