# generated using pymatgen
data_Mg(AlS2)2
_symmetry_space_group_name_H-M   'P 1'
_cell_length_a   7.24031189
_cell_length_b   7.24026318
_cell_length_c   7.24056161
_cell_angle_alpha   60.00085418
_cell_angle_beta   59.99890683
_cell_angle_gamma   60.00077091
_symmetry_Int_Tables_number   1
_chemical_formula_structural   Mg(AlS2)2
_chemical_formula_sum   'Mg2 Al4 S8'
_cell_volume   268.39265642
_cell_formula_units_Z   2
loop_
 _symmetry_equiv_pos_site_id
 _symmetry_equiv_pos_as_xyz
  1  'x, y, z'
loop_
 _atom_site_type_symbol
 _atom_site_label
 _atom_site_symmetry_multiplicity
 _atom_site_fract_x
 _atom_site_fract_y
 _atom_site_fract_z
 _atom_site_occupancy
  Mg  Mg0  1  0.87498983  0.87500462  0.87501683  1
  Mg  Mg1  1  0.12501004  0.12499614  0.12499795  1
  Al  Al2  1  0.49999828  0.50006004  0.49992106  1
  Al  Al3  1  0.49999896  0.49999124  0.99997799  1
  Al  Al4  1  0.99999322  0.49996989  0.50005669  1
  Al  Al5  1  0.49999545  0.99999757  0.50001013  1
  S  S6  1  0.73783552  0.73782317  0.73782115  1
  S  S7  1  0.26217163  0.26217719  0.71347589  1
  S  S8  1  0.26216589  0.71347178  0.26218752  1
  S  S9  1  0.71348144  0.26217128  0.26217752  1
  S  S10  1  0.73782598  0.28652531  0.73780976  1
  S  S11  1  0.28652404  0.73781943  0.73782494  1
  S  S12  1  0.26217035  0.26216518  0.26219581  1
  S  S13  1  0.73784339  0.73782217  0.28652777  1
