# generated using pymatgen
data_Sr8Mn3N8
_symmetry_space_group_name_H-M   'P 1'
_cell_length_a   9.78532430
_cell_length_b   5.33334710
_cell_length_c   7.54439214
_cell_angle_alpha   90.00000215
_cell_angle_beta   74.17106705
_cell_angle_gamma   74.18586572
_symmetry_Int_Tables_number   1
_chemical_formula_structural   Sr8Mn3N8
_chemical_formula_sum   'Sr8 Mn3 N8'
_cell_volume   363.28629066
_cell_formula_units_Z   1
loop_
 _symmetry_equiv_pos_site_id
 _symmetry_equiv_pos_as_xyz
  1  'x, y, z'
loop_
 _atom_site_type_symbol
 _atom_site_label
 _atom_site_symmetry_multiplicity
 _atom_site_fract_x
 _atom_site_fract_y
 _atom_site_fract_z
 _atom_site_occupancy
  Sr  Sr0  1  0.05742100  0.97128900  0.73386900  1
  Sr  Sr1  1  0.94257900  0.02871100  0.26613100  1
  Sr  Sr2  1  0.66399900  0.66800000  0.47169000  1
  Sr  Sr3  1  0.33600100  0.33200000  0.52831000  1
  Sr  Sr4  1  0.80041700  0.59979200  0.95307300  1
  Sr  Sr5  1  0.19958300  0.40020800  0.04692700  1
  Sr  Sr6  1  0.39990600  0.80004800  0.19580900  1
  Sr  Sr7  1  0.60009400  0.19995200  0.80419100  1
  Mn  Mn8  1  0.00000000  0.50000000  0.50000000  1
  Mn  Mn9  1  0.37138100  0.81431000  0.79674600  1
  Mn  Mn10  1  0.62861900  0.18569000  0.20325400  1
  N  N11  1  0.21035500  0.89482300  0.98792400  1
  N  N12  1  0.78964500  0.10517700  0.01207600  1
  N  N13  1  0.35505800  0.82247100  0.57349400  1
  N  N14  1  0.64494200  0.17752900  0.42650600  1
  N  N15  1  0.54783900  0.72608100  0.83187800  1
  N  N16  1  0.45216100  0.27391900  0.16812200  1
  N  N17  1  0.95083100  0.52458500  0.29511700  1
  N  N18  1  0.04916900  0.47541500  0.70488300  1
