# generated using pymatgen
data_MnIrN2
_symmetry_space_group_name_H-M   'P 1'
_cell_length_a   5.09251700
_cell_length_b   6.49386300
_cell_length_c   5.27514400
_cell_angle_alpha   90.00000000
_cell_angle_beta   90.00000000
_cell_angle_gamma   90.00000000
_symmetry_Int_Tables_number   1
_chemical_formula_structural   MnIrN2
_chemical_formula_sum   'Mn4 Ir4 N8'
_cell_volume   174.44958034
_cell_formula_units_Z   4
loop_
 _symmetry_equiv_pos_site_id
 _symmetry_equiv_pos_as_xyz
  1  'x, y, z'
loop_
 _atom_site_type_symbol
 _atom_site_label
 _atom_site_symmetry_multiplicity
 _atom_site_fract_x
 _atom_site_fract_y
 _atom_site_fract_z
 _atom_site_occupancy
  Mn  Mn0  1  0.62250400  0.34483200  0.04706400  1
  Mn  Mn1  1  0.37749600  0.65516800  0.54706400  1
  Mn  Mn2  1  0.87749600  0.84483200  0.54706400  1
  Mn  Mn3  1  0.12250400  0.15516800  0.04706400  1
  Ir  Ir4  1  0.56867000  0.83938000  0.96522700  1
  Ir  Ir5  1  0.43133000  0.16062000  0.46522700  1
  Ir  Ir6  1  0.93133000  0.33938000  0.46522700  1
  Ir  Ir7  1  0.06867000  0.66062000  0.96522700  1
  N  N8  1  0.56562800  0.43905800  0.39508900  1
  N  N9  1  0.43437200  0.56094200  0.89508900  1
  N  N10  1  0.93437200  0.93905800  0.89508900  1
  N  N11  1  0.06562800  0.06094200  0.39508900  1
  N  N12  1  0.55874300  0.86392900  0.36261900  1
  N  N13  1  0.44125700  0.13607100  0.86261900  1
  N  N14  1  0.94125700  0.36392900  0.86261900  1
  N  N15  1  0.05874300  0.63607100  0.36261900  1
