# generated using pymatgen
data_Sm3Mg2VS8
_symmetry_space_group_name_H-M   'P 1'
_cell_length_a   7.91493224
_cell_length_b   7.79652216
_cell_length_c   7.90832316
_cell_angle_alpha   59.43957907
_cell_angle_beta   60.10720985
_cell_angle_gamma   59.45412638
_symmetry_Int_Tables_number   1
_chemical_formula_structural   Sm3Mg2VS8
_chemical_formula_sum   'Sm3 Mg2 V1 S8'
_cell_volume   342.43647530
_cell_formula_units_Z   1
loop_
 _symmetry_equiv_pos_site_id
 _symmetry_equiv_pos_as_xyz
  1  'x, y, z'
loop_
 _atom_site_type_symbol
 _atom_site_label
 _atom_site_symmetry_multiplicity
 _atom_site_fract_x
 _atom_site_fract_y
 _atom_site_fract_z
 _atom_site_occupancy
  Sm  Sm0  1  0.49997900  0.50004100  0.49998500  1
  Sm  Sm1  1  0.49994900  0.49998600  0.99999800  1
  Sm  Sm2  1  0.99999500  0.49997700  0.49998200  1
  Mg  Mg3  1  0.87628600  0.87351100  0.87613600  1
  Mg  Mg4  1  0.12372000  0.12648000  0.12388200  1
  V  V5  1  0.50010800  0.00001000  0.49999800  1
  S  S6  1  0.72741600  0.77682100  0.72735400  1
  S  S7  1  0.27096000  0.22544100  0.73327600  1
  S  S8  1  0.25232600  0.74164900  0.25228500  1
  S  S9  1  0.73335100  0.22570900  0.27083300  1
  S  S10  1  0.74763600  0.25833900  0.74769800  1
  S  S11  1  0.26665800  0.77429200  0.72915500  1
  S  S12  1  0.27258400  0.22317300  0.27267900  1
  S  S13  1  0.72903600  0.77456700  0.26674100  1
