# generated using pymatgen
data_DyMg2Ti3S8
_symmetry_space_group_name_H-M   'P 1'
_cell_length_a   7.58511036
_cell_length_b   7.58003666
_cell_length_c   7.57882921
_cell_angle_alpha   58.17460807
_cell_angle_beta   58.18489075
_cell_angle_gamma   58.19297939
_symmetry_Int_Tables_number   1
_chemical_formula_structural   DyMg2Ti3S8
_chemical_formula_sum   'Dy1 Mg2 Ti3 S8'
_cell_volume   295.29889495
_cell_formula_units_Z   1
loop_
 _symmetry_equiv_pos_site_id
 _symmetry_equiv_pos_as_xyz
  1  'x, y, z'
loop_
 _atom_site_type_symbol
 _atom_site_label
 _atom_site_symmetry_multiplicity
 _atom_site_fract_x
 _atom_site_fract_y
 _atom_site_fract_z
 _atom_site_occupancy
  Dy  Dy0  1  0.49999500  0.50000900  0.49998700  1
  Mg  Mg1  1  0.87290600  0.87282700  0.87271800  1
  Mg  Mg2  1  0.12709500  0.12717100  0.12728900  1
  Ti  Ti3  1  0.50002700  0.50000400  0.99997600  1
  Ti  Ti4  1  0.99998900  0.50000400  0.50000600  1
  Ti  Ti5  1  0.50000300  0.99998600  0.50001600  1
  S  S6  1  0.74063000  0.74082600  0.74091600  1
  S  S7  1  0.24626800  0.24619700  0.72643600  1
  S  S8  1  0.24625900  0.72650000  0.24609800  1
  S  S9  1  0.72639700  0.24626300  0.24615400  1
  S  S10  1  0.75372700  0.27349900  0.75389600  1
  S  S11  1  0.27360000  0.75372900  0.75384500  1
  S  S12  1  0.25937100  0.25916800  0.25909700  1
  S  S13  1  0.75373700  0.75381200  0.27356700  1
