# generated using pymatgen
data_Ba3TaN3
_symmetry_space_group_name_H-M   'P 1'
_cell_length_a   8.36657800
_cell_length_b   8.36668839
_cell_length_c   5.85945800
_cell_angle_alpha   90.00000000
_cell_angle_beta   90.00000000
_cell_angle_gamma   119.99876308
_symmetry_Int_Tables_number   1
_chemical_formula_structural   Ba3TaN3
_chemical_formula_sum   'Ba6 Ta2 N6'
_cell_volume   355.21798697
_cell_formula_units_Z   2
loop_
 _symmetry_equiv_pos_site_id
 _symmetry_equiv_pos_as_xyz
  1  'x, y, z'
loop_
 _atom_site_type_symbol
 _atom_site_label
 _atom_site_symmetry_multiplicity
 _atom_site_fract_x
 _atom_site_fract_y
 _atom_site_fract_z
 _atom_site_occupancy
  Ba  Ba0  1  0.88832100  0.63830700  0.25000000  1
  Ba  Ba1  1  0.74998600  0.11167800  0.25000000  1
  Ba  Ba2  1  0.36169000  0.25001300  0.25000000  1
  Ba  Ba3  1  0.11167900  0.36169300  0.75000000  1
  Ba  Ba4  1  0.25001400  0.88832200  0.75000000  1
  Ba  Ba5  1  0.63831000  0.74998700  0.75000000  1
  Ta  Ta6  1  0.66666600  0.33335100  0.75000000  1
  Ta  Ta7  1  0.33333400  0.66664900  0.25000000  1
  N  N8  1  0.86042000  0.59220100  0.75000000  1
  N  N9  1  0.73178500  0.13956800  0.75000000  1
  N  N10  1  0.40779000  0.26821300  0.75000000  1
  N  N11  1  0.13958000  0.40779900  0.25000000  1
  N  N12  1  0.26821500  0.86043200  0.25000000  1
  N  N13  1  0.59221000  0.73178700  0.25000000  1
