# generated using pymatgen
data_Mg2CrIn3S8
_symmetry_space_group_name_H-M   'P 1'
_cell_length_a   7.59784269
_cell_length_b   7.56575219
_cell_length_c   7.59794008
_cell_angle_alpha   59.86656619
_cell_angle_beta   59.98817978
_cell_angle_gamma   59.86722452
_symmetry_Int_Tables_number   1
_chemical_formula_structural   Mg2CrIn3S8
_chemical_formula_sum   'Mg2 Cr1 In3 S8'
_cell_volume   308.18247527
_cell_formula_units_Z   1
loop_
 _symmetry_equiv_pos_site_id
 _symmetry_equiv_pos_as_xyz
  1  'x, y, z'
loop_
 _atom_site_type_symbol
 _atom_site_label
 _atom_site_symmetry_multiplicity
 _atom_site_fract_x
 _atom_site_fract_y
 _atom_site_fract_z
 _atom_site_occupancy
  Mg  Mg0  1  0.87514200  0.87455600  0.87515600  1
  Mg  Mg1  1  0.12486500  0.12541700  0.12485200  1
  Cr  Cr2  1  0.50004600  0.99998800  0.50001600  1
  In  In3  1  0.49998200  0.50003400  0.49998600  1
  In  In4  1  0.49997000  0.50000700  0.99998800  1
  In  In5  1  0.99997600  0.50000200  0.50000700  1
  S  S6  1  0.73032000  0.76165000  0.73032600  1
  S  S7  1  0.26967200  0.23837700  0.72226700  1
  S  S8  1  0.25688700  0.72932300  0.25687200  1
  S  S9  1  0.72227800  0.23836700  0.26966400  1
  S  S10  1  0.74311300  0.27066300  0.74311300  1
  S  S11  1  0.27773300  0.76161200  0.73033800  1
  S  S12  1  0.26967400  0.23835900  0.26968600  1
  S  S13  1  0.73034500  0.76164000  0.27772800  1
