# generated using pymatgen
data_LaMgVS4
_symmetry_space_group_name_H-M   'P 1'
_cell_length_a   7.93611651
_cell_length_b   7.74155091
_cell_length_c   7.74470727
_cell_angle_alpha   58.97991882
_cell_angle_beta   59.17650541
_cell_angle_gamma   59.11766362
_symmetry_Int_Tables_number   1
_chemical_formula_structural   LaMgVS4
_chemical_formula_sum   'La2 Mg2 V2 S8'
_cell_volume   329.48238162
_cell_formula_units_Z   2
loop_
 _symmetry_equiv_pos_site_id
 _symmetry_equiv_pos_as_xyz
  1  'x, y, z'
loop_
 _atom_site_type_symbol
 _atom_site_label
 _atom_site_symmetry_multiplicity
 _atom_site_fract_x
 _atom_site_fract_y
 _atom_site_fract_z
 _atom_site_occupancy
  La  La0  1  0.50000300  0.50002800  0.49999500  1
  La  La1  1  0.99996900  0.50001200  0.50001600  1
  Mg  Mg2  1  0.87654000  0.87355200  0.87346900  1
  Mg  Mg3  1  0.12347600  0.12643100  0.12651800  1
  V  V4  1  0.50001500  0.49997800  0.99999300  1
  V  V5  1  0.49999700  0.00000700  0.50000400  1
  S  S6  1  0.70293300  0.76097100  0.76030500  1
  S  S7  1  0.27441800  0.21620200  0.73511700  1
  S  S8  1  0.27414700  0.73518900  0.21620800  1
  S  S9  1  0.72432800  0.23957200  0.23921900  1
  S  S10  1  0.72583300  0.26480500  0.78379100  1
  S  S11  1  0.27566900  0.76043300  0.76077600  1
  S  S12  1  0.29707500  0.23901500  0.23970900  1
  S  S13  1  0.72559900  0.78380100  0.26488100  1
