# generated using pymatgen
data_Sr3AuN3
_symmetry_space_group_name_H-M   'P 1'
_cell_length_a   7.04766423
_cell_length_b   8.36838720
_cell_length_c   5.36945186
_cell_angle_alpha   90.00000000
_cell_angle_beta   90.00000000
_cell_angle_gamma   121.51033310
_symmetry_Int_Tables_number   1
_chemical_formula_structural   Sr3AuN3
_chemical_formula_sum   'Sr6 Au2 N6'
_cell_volume   269.98193432
_cell_formula_units_Z   2
loop_
 _symmetry_equiv_pos_site_id
 _symmetry_equiv_pos_as_xyz
  1  'x, y, z'
loop_
 _atom_site_type_symbol
 _atom_site_label
 _atom_site_symmetry_multiplicity
 _atom_site_fract_x
 _atom_site_fract_y
 _atom_site_fract_z
 _atom_site_occupancy
  Sr  Sr0  1  0.90070497  0.60825703  0.25000000  1
  Sr  Sr1  1  0.69932847  0.12137083  0.25000000  1
  Sr  Sr2  1  0.19876246  0.13723323  0.25000000  1
  Sr  Sr3  1  0.09929503  0.39174297  0.75000000  1
  Sr  Sr4  1  0.30067153  0.87862917  0.75000000  1
  Sr  Sr5  1  0.80123754  0.86276677  0.75000000  1
  Au  Au6  1  0.57607306  0.33352655  0.75000000  1
  Au  Au7  1  0.42392694  0.66647345  0.25000000  1
  N  N8  1  0.87962387  0.57742733  0.75000000  1
  N  N9  1  0.71157183  0.12099316  0.75000000  1
  N  N10  1  0.23190230  0.14192438  0.75000000  1
  N  N11  1  0.12037613  0.42257267  0.25000000  1
  N  N12  1  0.28842817  0.87900684  0.25000000  1
  N  N13  1  0.76809770  0.85807562  0.25000000  1
