# generated using pymatgen
data_SmMgTiS4
_symmetry_space_group_name_H-M   'P 1'
_cell_length_a   7.86702640
_cell_length_b   7.69591011
_cell_length_c   7.69329741
_cell_angle_alpha   58.47264822
_cell_angle_beta   59.25625998
_cell_angle_gamma   59.25725188
_symmetry_Int_Tables_number   1
_chemical_formula_structural   SmMgTiS4
_chemical_formula_sum   'Sm2 Mg2 Ti2 S8'
_cell_volume   321.76904277
_cell_formula_units_Z   2
loop_
 _symmetry_equiv_pos_site_id
 _symmetry_equiv_pos_as_xyz
  1  'x, y, z'
loop_
 _atom_site_type_symbol
 _atom_site_label
 _atom_site_symmetry_multiplicity
 _atom_site_fract_x
 _atom_site_fract_y
 _atom_site_fract_z
 _atom_site_occupancy
  Sm  Sm0  1  0.50000300  0.50001700  0.49997500  1
  Sm  Sm1  1  0.00000200  0.49999100  0.50001200  1
  Mg  Mg2  1  0.87688600  0.87299700  0.87321800  1
  Mg  Mg3  1  0.12311300  0.12701200  0.12678700  1
  Ti  Ti4  1  0.49999600  0.49999700  0.99999900  1
  Ti  Ti5  1  0.50000000  0.99998900  0.50000900  1
  S  S6  1  0.71605400  0.75570800  0.75630000  1
  S  S7  1  0.27010200  0.22619600  0.73360600  1
  S  S8  1  0.27023100  0.73372100  0.22581300  1
  S  S9  1  0.72806900  0.24430000  0.24369000  1
  S  S10  1  0.72975200  0.26628100  0.77417300  1
  S  S11  1  0.27193300  0.75569500  0.75630500  1
  S  S12  1  0.28394600  0.24428000  0.24371700  1
  S  S13  1  0.72991800  0.77381100  0.26639600  1
