# generated using pymatgen
data_Si7GeN10
_symmetry_space_group_name_H-M   'P 1'
_cell_length_a   6.96131580
_cell_length_b   6.75012100
_cell_length_c   9.77788780
_cell_angle_alpha   90.00000000
_cell_angle_beta   106.51030844
_cell_angle_gamma   90.00000000
_symmetry_Int_Tables_number   1
_chemical_formula_structural   Si7GeN10
_chemical_formula_sum   'Si14 Ge2 N20'
_cell_volume   440.51606898
_cell_formula_units_Z   2
loop_
 _symmetry_equiv_pos_site_id
 _symmetry_equiv_pos_as_xyz
  1  'x, y, z'
loop_
 _atom_site_type_symbol
 _atom_site_label
 _atom_site_symmetry_multiplicity
 _atom_site_fract_x
 _atom_site_fract_y
 _atom_site_fract_z
 _atom_site_occupancy
  Si  Si0  1  0.54036000  0.97310100  0.82798000  1
  Si  Si1  1  0.54036000  0.02689900  0.32798000  1
  Si  Si2  1  0.35705500  0.03244900  0.01666300  1
  Si  Si3  1  0.35705500  0.96755100  0.51666300  1
  Si  Si4  1  0.09765200  0.40721600  0.07553000  1
  Si  Si5  1  0.09765200  0.59278400  0.57553000  1
  Si  Si6  1  0.66034300  0.36878100  0.99144000  1
  Si  Si7  1  0.66034300  0.63121900  0.49144000  1
  Si  Si8  1  0.84014400  0.62092800  0.80390900  1
  Si  Si9  1  0.84014400  0.37907200  0.30390900  1
  Si  Si10  1  0.28860500  0.61390500  0.88312200  1
  Si  Si11  1  0.28860500  0.38609500  0.38312200  1
  Si  Si12  1  0.47767500  0.37325900  0.68778300  1
  Si  Si13  1  0.47767500  0.62674100  0.18778300  1
  Ge  Ge14  1  0.09471100  0.01962400  0.68234300  1
  Ge  Ge15  1  0.09471100  0.98037600  0.18234300  1
  N  N16  1  0.72479100  0.83190100  0.81846500  1
  N  N17  1  0.72479100  0.16809900  0.31846500  1
  N  N18  1  0.55212400  0.13848300  0.96842900  1
  N  N19  1  0.55212400  0.86151700  0.46842900  1
  N  N20  1  0.31021300  0.87228800  0.86354800  1
  N  N21  1  0.31021300  0.12771200  0.36354800  1
  N  N22  1  0.16508100  0.16666100  0.04503100  1
  N  N23  1  0.16508100  0.83333900  0.54503100  1
  N  N24  1  0.28058100  0.49943000  0.72440600  1
  N  N25  1  0.28058100  0.50057000  0.22440600  1
  N  N26  1  0.41727200  0.11657400  0.67144300  1
  N  N27  1  0.41727200  0.88342600  0.17144300  1
  N  N28  1  0.87995100  0.38888100  0.12984700  1
  N  N29  1  0.87995100  0.61111900  0.62984700  1
  N  N30  1  0.07155400  0.57050100  0.93194300  1
  N  N31  1  0.07155400  0.42949900  0.43194300  1
  N  N32  1  0.69426100  0.41428900  0.82377800  1
  N  N33  1  0.69426100  0.58571100  0.32377800  1
  N  N34  1  0.48992600  0.53984900  0.02364000  1
  N  N35  1  0.48992600  0.46015100  0.52364000  1
