# generated using pymatgen
data_Ba3(MnN2)2
_symmetry_space_group_name_H-M   'P 1'
_cell_length_a   7.66442658
_cell_length_b   8.91688756
_cell_length_c   5.70231345
_cell_angle_alpha   89.99999665
_cell_angle_beta   92.22752865
_cell_angle_gamma   125.57063247
_symmetry_Int_Tables_number   1
_chemical_formula_structural   Ba3(MnN2)2
_chemical_formula_sum   'Ba6 Mn4 N8'
_cell_volume   316.62944664
_cell_formula_units_Z   2
loop_
 _symmetry_equiv_pos_site_id
 _symmetry_equiv_pos_as_xyz
  1  'x, y, z'
loop_
 _atom_site_type_symbol
 _atom_site_label
 _atom_site_symmetry_multiplicity
 _atom_site_fract_x
 _atom_site_fract_y
 _atom_site_fract_z
 _atom_site_occupancy
  Ba  Ba0  1  0.25817300  0.99585600  0.05718100  1
  Ba  Ba1  1  0.74182700  0.73768300  0.44281900  1
  Ba  Ba2  1  0.74182700  0.00414400  0.94281900  1
  Ba  Ba3  1  0.25817300  0.26231700  0.55718100  1
  Ba  Ba4  1  0.00000000  0.59558500  0.75000000  1
  Ba  Ba5  1  0.00000000  0.40441500  0.25000000  1
  Mn  Mn6  1  0.57201600  0.16150200  0.56219500  1
  Mn  Mn7  1  0.42798400  0.58948500  0.93780500  1
  Mn  Mn8  1  0.42798400  0.83849800  0.43780500  1
  Mn  Mn9  1  0.57201600  0.41051500  0.06219500  1
  N  N10  1  0.28831500  0.94674800  0.53764300  1
  N  N11  1  0.71168500  0.65843200  0.96235700  1
  N  N12  1  0.71168500  0.05325200  0.46235700  1
  N  N13  1  0.28831500  0.34156800  0.03764300  1
  N  N14  1  0.61943300  0.27022300  0.86167500  1
  N  N15  1  0.38056700  0.65079100  0.63832500  1
  N  N16  1  0.38056700  0.72977700  0.13832500  1
  N  N17  1  0.61943300  0.34920900  0.36167500  1
