# generated using pymatgen
data_MgTiWS4
_symmetry_space_group_name_H-M   'P 1'
_cell_length_a   7.14288271
_cell_length_b   7.30552407
_cell_length_c   7.30964142
_cell_angle_alpha   60.91915664
_cell_angle_beta   60.75380779
_cell_angle_gamma   60.71990883
_symmetry_Int_Tables_number   1
_chemical_formula_structural   MgTiWS4
_chemical_formula_sum   'Mg2 Ti2 W2 S8'
_cell_volume   274.56609169
_cell_formula_units_Z   2
loop_
 _symmetry_equiv_pos_site_id
 _symmetry_equiv_pos_as_xyz
  1  'x, y, z'
loop_
 _atom_site_type_symbol
 _atom_site_label
 _atom_site_symmetry_multiplicity
 _atom_site_fract_x
 _atom_site_fract_y
 _atom_site_fract_z
 _atom_site_occupancy
  Mg  Mg0  1  0.87357300  0.87609900  0.87667500  1
  Mg  Mg1  1  0.12634300  0.12402700  0.12338900  1
  Ti  Ti2  1  0.49989300  0.49996200  0.00032000  1
  Ti  Ti3  1  0.49989100  0.00023900  0.49997500  1
  W  W4  1  0.49908500  0.49991800  0.49985000  1
  W  W5  1  0.00113400  0.49988900  0.49989200  1
  S  S6  1  0.74376100  0.73915000  0.73906100  1
  S  S7  1  0.25873200  0.25831100  0.72432200  1
  S  S8  1  0.25868100  0.72432700  0.25841800  1
  S  S9  1  0.72105900  0.26154800  0.26165200  1
  S  S10  1  0.74124900  0.27633500  0.74098700  1
  S  S11  1  0.27897100  0.73833300  0.73831000  1
  S  S12  1  0.25635900  0.26075500  0.26088100  1
  S  S13  1  0.74127300  0.74110300  0.27627100  1
