# generated using pymatgen
data_Mg2CrCo3S8
_symmetry_space_group_name_H-M   'P 1'
_cell_length_a   7.01108867
_cell_length_b   6.97949583
_cell_length_c   7.01026986
_cell_angle_alpha   59.96752047
_cell_angle_beta   60.11093128
_cell_angle_gamma   59.94404740
_symmetry_Int_Tables_number   1
_chemical_formula_structural   Mg2CrCo3S8
_chemical_formula_sum   'Mg2 Cr1 Co3 S8'
_cell_volume   242.60565835
_cell_formula_units_Z   1
loop_
 _symmetry_equiv_pos_site_id
 _symmetry_equiv_pos_as_xyz
  1  'x, y, z'
loop_
 _atom_site_type_symbol
 _atom_site_label
 _atom_site_symmetry_multiplicity
 _atom_site_fract_x
 _atom_site_fract_y
 _atom_site_fract_z
 _atom_site_occupancy
  Mg  Mg0  1  0.87532700  0.87388800  0.87540400  1
  Mg  Mg1  1  0.12467500  0.12613200  0.12458600  1
  Cr  Cr2  1  0.49995000  0.99999700  0.50005400  1
  Co  Co3  1  0.50000800  0.50000700  0.49998000  1
  Co  Co4  1  0.50000300  0.49999500  0.99999600  1
  Co  Co5  1  0.00000800  0.50000300  0.49998900  1
  S  S6  1  0.73733600  0.72459100  0.73757900  1
  S  S7  1  0.26229600  0.27518900  0.70024500  1
  S  S8  1  0.26879800  0.69304300  0.26901700  1
  S  S9  1  0.70023300  0.27483100  0.26234100  1
  S  S10  1  0.73121300  0.30696700  0.73094900  1
  S  S11  1  0.29975600  0.72514000  0.73766800  1
  S  S12  1  0.26269500  0.27537700  0.26244100  1
  S  S13  1  0.73770700  0.72483500  0.29975200  1
