# generated using pymatgen
data_Si2Sn5N6
_symmetry_space_group_name_H-M   'P 1'
_cell_length_a   5.60884094
_cell_length_b   7.81989635
_cell_length_c   15.61295434
_cell_angle_alpha   89.99999793
_cell_angle_beta   83.43173615
_cell_angle_gamma   134.19515560
_symmetry_Int_Tables_number   1
_chemical_formula_structural   Si2Sn5N6
_chemical_formula_sum   'Si4 Sn10 N12'
_cell_volume   484.68675885
_cell_formula_units_Z   2
loop_
 _symmetry_equiv_pos_site_id
 _symmetry_equiv_pos_as_xyz
  1  'x, y, z'
loop_
 _atom_site_type_symbol
 _atom_site_label
 _atom_site_symmetry_multiplicity
 _atom_site_fract_x
 _atom_site_fract_y
 _atom_site_fract_z
 _atom_site_occupancy
  Si  Si0  1  0.52902900  0.94613900  0.56949700  1
  Si  Si1  1  0.47097100  0.41711000  0.93050300  1
  Si  Si2  1  0.47097100  0.05386100  0.43050300  1
  Si  Si3  1  0.52902900  0.58289000  0.06949700  1
  Sn  Sn4  1  0.00000000  0.55225500  0.75000000  1
  Sn  Sn5  1  0.00000000  0.44774500  0.25000000  1
  Sn  Sn6  1  0.17588300  0.88260500  0.95311000  1
  Sn  Sn7  1  0.82411700  0.70672200  0.54689000  1
  Sn  Sn8  1  0.82411700  0.11739500  0.04689000  1
  Sn  Sn9  1  0.17588300  0.29327800  0.45311000  1
  Sn  Sn10  1  0.32683800  0.18070200  0.64903200  1
  Sn  Sn11  1  0.67316200  0.85386500  0.85096800  1
  Sn  Sn12  1  0.67316200  0.81929800  0.35096800  1
  Sn  Sn13  1  0.32683800  0.14613500  0.14903200  1
  N  N14  1  0.19194000  0.82769300  0.65094900  1
  N  N15  1  0.80806000  0.63575300  0.84905100  1
  N  N16  1  0.80806000  0.17230700  0.34905100  1
  N  N17  1  0.19194000  0.36424700  0.15094900  1
  N  N18  1  0.61892600  0.20058600  0.52625300  1
  N  N19  1  0.38107400  0.58166000  0.97374700  1
  N  N20  1  0.38107400  0.79941400  0.47374700  1
  N  N21  1  0.61892600  0.41834000  0.02625300  1
  N  N22  1  0.88954500  0.01730800  0.58504500  1
  N  N23  1  0.11045500  0.12776300  0.91495500  1
  N  N24  1  0.11045500  0.98269200  0.41495500  1
  N  N25  1  0.88954500  0.87223700  0.08504500  1
