# generated using pymatgen
data_Ba3(IrN2)2
_symmetry_space_group_name_H-M   'P 1'
_cell_length_a   6.68538400
_cell_length_b   10.11953900
_cell_length_c   10.33637800
_cell_angle_alpha   90.00000000
_cell_angle_beta   90.00000000
_cell_angle_gamma   90.00000000
_symmetry_Int_Tables_number   1
_chemical_formula_structural   Ba3(IrN2)2
_chemical_formula_sum   'Ba12 Ir8 N16'
_cell_volume   699.28702340
_cell_formula_units_Z   4
loop_
 _symmetry_equiv_pos_site_id
 _symmetry_equiv_pos_as_xyz
  1  'x, y, z'
loop_
 _atom_site_type_symbol
 _atom_site_label
 _atom_site_symmetry_multiplicity
 _atom_site_fract_x
 _atom_site_fract_y
 _atom_site_fract_z
 _atom_site_occupancy
  Ba  Ba0  1  0.60871800  0.16108500  0.41920800  1
  Ba  Ba1  1  0.89128200  0.83891500  0.41920800  1
  Ba  Ba2  1  0.60871800  0.33891500  0.08079200  1
  Ba  Ba3  1  0.89128200  0.66108500  0.08079200  1
  Ba  Ba4  1  0.39128200  0.83891500  0.58079200  1
  Ba  Ba5  1  0.10871800  0.16108500  0.58079200  1
  Ba  Ba6  1  0.39128200  0.66108500  0.91920800  1
  Ba  Ba7  1  0.10871800  0.33891500  0.91920800  1
  Ba  Ba8  1  0.75000000  0.50000000  0.40005400  1
  Ba  Ba9  1  0.75000000  0.00000000  0.09994600  1
  Ba  Ba10  1  0.25000000  0.50000000  0.59994600  1
  Ba  Ba11  1  0.25000000  0.00000000  0.90005400  1
  Ir  Ir12  1  0.75000000  0.50000000  0.72381200  1
  Ir  Ir13  1  0.75000000  0.00000000  0.77618800  1
  Ir  Ir14  1  0.25000000  0.50000000  0.27618800  1
  Ir  Ir15  1  0.25000000  0.00000000  0.22381200  1
  Ir  Ir16  1  0.58813200  0.25000000  0.75000000  1
  Ir  Ir17  1  0.91186800  0.75000000  0.75000000  1
  Ir  Ir18  1  0.41186800  0.75000000  0.25000000  1
  Ir  Ir19  1  0.08813200  0.25000000  0.25000000  1
  N  N20  1  0.89867800  0.37245900  0.62635800  1
  N  N21  1  0.60132200  0.62754100  0.62635800  1
  N  N22  1  0.89867800  0.12754100  0.87364200  1
  N  N23  1  0.60132200  0.87245900  0.87364200  1
  N  N24  1  0.10132200  0.62754100  0.37364200  1
  N  N25  1  0.39867800  0.37245900  0.37364200  1
  N  N26  1  0.10132200  0.87245900  0.12635800  1
  N  N27  1  0.39867800  0.12754100  0.12635800  1
  N  N28  1  0.51434600  0.41852300  0.83080300  1
  N  N29  1  0.98565400  0.58147700  0.83080300  1
  N  N30  1  0.51434600  0.08147700  0.66919700  1
  N  N31  1  0.98565400  0.91852300  0.66919700  1
  N  N32  1  0.48565400  0.58147700  0.16919700  1
  N  N33  1  0.01434600  0.41852300  0.16919700  1
  N  N34  1  0.48565400  0.91852300  0.33080300  1
  N  N35  1  0.01434600  0.08147700  0.33080300  1
