# generated using pymatgen
data_Mg2RuN3
_symmetry_space_group_name_H-M   'P 1'
_cell_length_a   5.56654838
_cell_length_b   10.40929264
_cell_length_c   14.91676169
_cell_angle_alpha   89.99999865
_cell_angle_beta   91.91473512
_cell_angle_gamma   159.22592657
_symmetry_Int_Tables_number   1
_chemical_formula_structural   Mg2RuN3
_chemical_formula_sum   'Mg8 Ru4 N12'
_cell_volume   305.20219354
_cell_formula_units_Z   4
loop_
 _symmetry_equiv_pos_site_id
 _symmetry_equiv_pos_as_xyz
  1  'x, y, z'
loop_
 _atom_site_type_symbol
 _atom_site_label
 _atom_site_symmetry_multiplicity
 _atom_site_fract_x
 _atom_site_fract_y
 _atom_site_fract_z
 _atom_site_occupancy
  Mg  Mg0  1  0.34467400  0.89850400  0.84736000  1
  Mg  Mg1  1  0.65532600  0.55383100  0.65264000  1
  Mg  Mg2  1  0.65532600  0.10149600  0.15264000  1
  Mg  Mg3  1  0.34467400  0.44616900  0.34736100  1
  Mg  Mg4  1  0.51793800  0.86879700  0.52267700  1
  Mg  Mg5  1  0.48206200  0.35085900  0.97732300  1
  Mg  Mg6  1  0.48206200  0.13120300  0.47732300  1
  Mg  Mg7  1  0.51793800  0.64914100  0.02267700  1
  Ru  Ru8  1  0.59111600  0.24107600  0.66725600  1
  Ru  Ru9  1  0.40888400  0.64995900  0.83274400  1
  Ru  Ru10  1  0.40888400  0.75892400  0.33274400  1
  Ru  Ru11  1  0.59111600  0.35004100  0.16725600  1
  N  N12  1  0.00000000  0.57573000  0.75000000  1
  N  N13  1  0.00000000  0.42427000  0.25000000  1
  N  N14  1  0.64564600  0.10618800  0.60421400  1
  N  N15  1  0.35435400  0.46054200  0.89578600  1
  N  N16  1  0.35435400  0.89381200  0.39578600  1
  N  N17  1  0.64564600  0.53945800  0.10421400  1
  N  N18  1  0.53031300  0.20610400  0.06759700  1
  N  N19  1  0.46968700  0.67579100  0.43240300  1
  N  N20  1  0.46968700  0.79389600  0.93240300  1
  N  N21  1  0.53031300  0.32420900  0.56759700  1
  N  N22  1  0.00000000  0.88345100  0.75000000  1
  N  N23  1  0.00000000  0.11654900  0.25000000  1
