# generated using pymatgen
data_Mn3In8N9
_symmetry_space_group_name_H-M   'P 1'
_cell_length_a   7.14848932
_cell_length_b   11.41523106
_cell_length_c   18.08871383
_cell_angle_alpha   90.00000000
_cell_angle_beta   112.29965589
_cell_angle_gamma   90.00000000
_symmetry_Int_Tables_number   1
_chemical_formula_structural   Mn3In8N9
_chemical_formula_sum   'Mn12 In32 N36'
_cell_volume   1365.67677247
_cell_formula_units_Z   4
loop_
 _symmetry_equiv_pos_site_id
 _symmetry_equiv_pos_as_xyz
  1  'x, y, z'
loop_
 _atom_site_type_symbol
 _atom_site_label
 _atom_site_symmetry_multiplicity
 _atom_site_fract_x
 _atom_site_fract_y
 _atom_site_fract_z
 _atom_site_occupancy
  Mn  Mn0  1  0.49979681  0.11546715  0.77672114  1
  Mn  Mn1  1  0.50020319  0.61546715  0.72327886  1
  Mn  Mn2  1  0.50020319  0.88453285  0.22327886  1
  Mn  Mn3  1  0.49979681  0.38453285  0.27672114  1
  Mn  Mn4  1  0.80409881  0.87708368  0.57540905  1
  Mn  Mn5  1  0.19590119  0.37708368  0.92459095  1
  Mn  Mn6  1  0.19590119  0.12291632  0.42459095  1
  Mn  Mn7  1  0.80409881  0.62291632  0.07540905  1
  Mn  Mn8  1  0.85211340  0.28190174  0.59177285  1
  Mn  Mn9  1  0.14788660  0.78190174  0.90822715  1
  Mn  Mn10  1  0.14788660  0.71809826  0.40822715  1
  Mn  Mn11  1  0.85211340  0.21809826  0.09177285  1
  In  In12  1  0.42918597  0.95853758  0.06591816  1
  In  In13  1  0.57081403  0.45853758  0.43408184  1
  In  In14  1  0.57081403  0.04146242  0.93408184  1
  In  In15  1  0.42918597  0.54146242  0.56591816  1
  In  In16  1  0.52845600  0.11293384  0.60651395  1
  In  In17  1  0.47154400  0.61293384  0.89348605  1
  In  In18  1  0.47154400  0.88706616  0.39348605  1
  In  In19  1  0.52845600  0.38706616  0.10651395  1
  In  In20  1  0.74815956  0.87291338  0.73350305  1
  In  In21  1  0.25184044  0.37291338  0.76649695  1
  In  In22  1  0.25184044  0.12708662  0.26649695  1
  In  In23  1  0.74815956  0.62708662  0.23350305  1
  In  In24  1  0.73873668  0.36112343  0.74679806  1
  In  In25  1  0.26126332  0.86112343  0.75320194  1
  In  In26  1  0.26126332  0.63887657  0.25320194  1
  In  In27  1  0.73873668  0.13887657  0.24679806  1
  In  In28  1  0.70419899  0.35007762  0.91924635  1
  In  In29  1  0.29580101  0.85007762  0.58075365  1
  In  In30  1  0.29580101  0.64992238  0.08075365  1
  In  In31  1  0.70419899  0.14992238  0.41924635  1
  In  In32  1  0.06194995  0.10726552  0.82950102  1
  In  In33  1  0.93805005  0.60726552  0.67049898  1
  In  In34  1  0.93805005  0.89273448  0.17049898  1
  In  In35  1  0.06194995  0.39273448  0.32950102  1
  In  In36  1  0.04576743  0.07000049  0.60265635  1
  In  In37  1  0.95423257  0.57000049  0.89734365  1
  In  In38  1  0.95423257  0.92999951  0.39734365  1
  In  In39  1  0.04576743  0.42999951  0.10265635  1
  In  In40  1  0.13266468  0.34802523  0.51973034  1
  In  In41  1  0.86733532  0.84802523  0.98026966  1
  In  In42  1  0.86733532  0.65197477  0.48026966  1
  In  In43  1  0.13266468  0.15197477  0.01973034  1
  N  N44  1  0.66323793  0.28843681  0.62854017  1
  N  N45  1  0.33676207  0.78843681  0.87145983  1
  N  N46  1  0.33676207  0.71156319  0.37145983  1
  N  N47  1  0.66323793  0.21156319  0.12854017  1
  N  N48  1  0.52881358  0.27023673  0.79282107  1
  N  N49  1  0.47118642  0.77023673  0.70717893  1
  N  N50  1  0.47118642  0.72976327  0.20717893  1
  N  N51  1  0.52881358  0.22976327  0.29282107  1
  N  N52  1  0.79003642  0.18851471  0.98962083  1
  N  N53  1  0.20996358  0.68851471  0.51037917  1
  N  N54  1  0.20996358  0.81148529  0.01037917  1
  N  N55  1  0.79003642  0.31148529  0.48962083  1
  N  N56  1  0.58131607  0.93211989  0.57665045  1
  N  N57  1  0.41868393  0.43211989  0.92334955  1
  N  N58  1  0.41868393  0.06788011  0.42334955  1
  N  N59  1  0.58131607  0.56788011  0.07665045  1
  N  N60  1  0.67273531  0.05922596  0.74070804  1
  N  N61  1  0.32726469  0.55922596  0.75929196  1
  N  N62  1  0.32726469  0.94077404  0.25929196  1
  N  N63  1  0.67273531  0.44077404  0.24070804  1
  N  N64  1  0.08762140  0.32589969  0.64226595  1
  N  N65  1  0.91237860  0.82589969  0.85773405  1
  N  N66  1  0.91237860  0.67410031  0.35773405  1
  N  N67  1  0.08762140  0.17410031  0.14226595  1
  N  N68  1  0.04745344  0.31000949  0.82456141  1
  N  N69  1  0.95254656  0.81000949  0.67543859  1
  N  N70  1  0.95254656  0.68999051  0.17543859  1
  N  N71  1  0.04745344  0.18999051  0.32456141  1
  N  N72  1  0.20833133  0.14981548  0.52514097  1
  N  N73  1  0.79166867  0.64981548  0.97485903  1
  N  N74  1  0.79166867  0.85018452  0.47485903  1
  N  N75  1  0.20833133  0.35018452  0.02514097  1
  N  N76  1  0.26023607  0.05506885  0.73503825  1
  N  N77  1  0.73976393  0.55506885  0.76496175  1
  N  N78  1  0.73976393  0.94493115  0.26496175  1
  N  N79  1  0.26023607  0.44493115  0.23503825  1
