# generated using pymatgen
data_Bi4Se3N2
_symmetry_space_group_name_H-M   'P 1'
_cell_length_a   7.57610375
_cell_length_b   3.97802457
_cell_length_c   9.48209928
_cell_angle_alpha   90.00000678
_cell_angle_beta   57.12949311
_cell_angle_gamma   74.77932826
_symmetry_Int_Tables_number   1
_chemical_formula_structural   Bi4Se3N2
_chemical_formula_sum   'Bi4 Se3 N2'
_cell_volume   227.99157407
_cell_formula_units_Z   1
loop_
 _symmetry_equiv_pos_site_id
 _symmetry_equiv_pos_as_xyz
  1  'x, y, z'
loop_
 _atom_site_type_symbol
 _atom_site_label
 _atom_site_symmetry_multiplicity
 _atom_site_fract_x
 _atom_site_fract_y
 _atom_site_fract_z
 _atom_site_occupancy
  Bi  Bi0  1  0.25420700  0.87289600  0.58196800  1
  Bi  Bi1  1  0.74579300  0.12710400  0.41803200  1
  Bi  Bi2  1  0.63312200  0.68343900  0.11944500  1
  Bi  Bi3  1  0.36687800  0.31656100  0.88055500  1
  Se  Se4  1  0.00000000  0.00000000  0.00000000  1
  Se  Se5  1  0.71215600  0.64392200  0.72268000  1
  Se  Se6  1  0.28784400  0.35607800  0.27732000  1
  N  N7  1  0.61818500  0.69090800  0.36360600  1
  N  N8  1  0.38181500  0.30909200  0.63639400  1
