# generated using pymatgen
data_Zr
_symmetry_space_group_name_H-M   'P 1'
_cell_length_a   5.87197829
_cell_length_b   5.87197829
_cell_length_c   5.87197829
_cell_angle_alpha   124.15010547
_cell_angle_beta   116.26323519
_cell_angle_gamma   89.77890780
_symmetry_Int_Tables_number   1
_chemical_formula_structural   Zr
_chemical_formula_sum   Zr6
_cell_volume   141.86698924
_cell_formula_units_Z   6
loop_
 _symmetry_equiv_pos_site_id
 _symmetry_equiv_pos_as_xyz
  1  'x, y, z'
loop_
 _atom_site_type_symbol
 _atom_site_label
 _atom_site_symmetry_multiplicity
 _atom_site_fract_x
 _atom_site_fract_y
 _atom_site_fract_z
 _atom_site_occupancy
  Zr  Zr0  1  0.75000000  0.50000000  0.25000000  1
  Zr  Zr1  1  0.25000000  0.50000000  0.75000000  1
  Zr  Zr2  1  0.82289300  0.90533600  0.08244300  1
  Zr  Zr3  1  0.32289300  0.74045000  0.41755700  1
  Zr  Zr4  1  0.17710700  0.09466400  0.91755700  1
  Zr  Zr5  1  0.67710700  0.25955000  0.58244300  1
