# generated using pymatgen
data_YMg2Mo3S8
_symmetry_space_group_name_H-M   'P 1'
_cell_length_a   7.50358109
_cell_length_b   7.50344623
_cell_length_c   7.50362244
_cell_angle_alpha   60.72646499
_cell_angle_beta   60.72507967
_cell_angle_gamma   60.72737618
_symmetry_Int_Tables_number   1
_chemical_formula_structural   YMg2Mo3S8
_chemical_formula_sum   'Y1 Mg2 Mo3 S8'
_cell_volume   303.63072780
_cell_formula_units_Z   1
loop_
 _symmetry_equiv_pos_site_id
 _symmetry_equiv_pos_as_xyz
  1  'x, y, z'
loop_
 _atom_site_type_symbol
 _atom_site_label
 _atom_site_symmetry_multiplicity
 _atom_site_fract_x
 _atom_site_fract_y
 _atom_site_fract_z
 _atom_site_occupancy
  Y  Y0  1  0.50000200  0.50001600  0.49997900  1
  Mg  Mg1  1  0.87637000  0.87637900  0.87637500  1
  Mg  Mg2  1  0.12363100  0.12362300  0.12362500  1
  Mo  Mo3  1  0.50000000  0.49999300  0.00000300  1
  Mo  Mo4  1  0.00000000  0.49999400  0.50000700  1
  Mo  Mo5  1  0.50000100  0.99999800  0.50000600  1
  S  S6  1  0.73830600  0.73830400  0.73831100  1
  S  S7  1  0.24685200  0.24686100  0.72609500  1
  S  S8  1  0.24685200  0.72609300  0.24685400  1
  S  S9  1  0.72609600  0.24685600  0.24684800  1
  S  S10  1  0.75313600  0.27390900  0.75313700  1
  S  S11  1  0.27390600  0.75313800  0.75315300  1
  S  S12  1  0.26169200  0.26168600  0.26170300  1
  S  S13  1  0.75316100  0.75314500  0.27390500  1
