# generated using pymatgen
data_Mo(C2N3)3
_symmetry_space_group_name_H-M   'P 1'
_cell_length_a   7.68862334
_cell_length_b   13.58615771
_cell_length_c   11.25574600
_cell_angle_alpha   90.00000000
_cell_angle_beta   90.00000000
_cell_angle_gamma   27.92964802
_symmetry_Int_Tables_number   1
_chemical_formula_structural   Mo(C2N3)3
_chemical_formula_sum   'Mo2 C12 N18'
_cell_volume   550.71183673
_cell_formula_units_Z   2
loop_
 _symmetry_equiv_pos_site_id
 _symmetry_equiv_pos_as_xyz
  1  'x, y, z'
loop_
 _atom_site_type_symbol
 _atom_site_label
 _atom_site_symmetry_multiplicity
 _atom_site_fract_x
 _atom_site_fract_y
 _atom_site_fract_z
 _atom_site_occupancy
  Mo  Mo0  1  0.00000000  0.27303500  0.25000000  1
  Mo  Mo1  1  0.00000000  0.72696500  0.75000000  1
  C  C2  1  0.68620300  0.77415600  0.25000000  1
  C  C3  1  0.68620300  0.53964100  0.75000000  1
  C  C4  1  0.31379700  0.22584400  0.75000000  1
  C  C5  1  0.31379700  0.46035900  0.25000000  1
  C  C6  1  0.68483300  0.30717800  0.91078100  1
  C  C7  1  0.68483300  0.00798900  0.08921900  1
  C  C8  1  0.68483300  0.30717800  0.58921900  1
  C  C9  1  0.68483300  0.00798900  0.41078100  1
  C  C10  1  0.31516700  0.69282200  0.08921900  1
  C  C11  1  0.31516700  0.99201100  0.91078100  1
  C  C12  1  0.31516700  0.69282200  0.41078100  1
  C  C13  1  0.31516700  0.99201100  0.58921900  1
  N  N14  1  0.00000000  0.57149200  0.25000000  1
  N  N15  1  0.00000000  0.42850800  0.75000000  1
  N  N16  1  0.39356300  0.95972500  0.25000000  1
  N  N17  1  0.39356300  0.64671100  0.75000000  1
  N  N18  1  0.60643700  0.04027500  0.75000000  1
  N  N19  1  0.60643700  0.35328900  0.25000000  1
  N  N20  1  0.00000000  0.13012000  0.95932800  1
  N  N21  1  0.00000000  0.86988000  0.04067200  1
  N  N22  1  0.00000000  0.13012000  0.54067200  1
  N  N23  1  0.00000000  0.86988000  0.45932800  1
  N  N24  1  0.38786900  0.47269200  0.87137000  1
  N  N25  1  0.38786900  0.13944000  0.12863000  1
  N  N26  1  0.38786900  0.47269200  0.62863000  1
  N  N27  1  0.38786900  0.13944000  0.37137000  1
  N  N28  1  0.61213100  0.52730800  0.12863000  1
  N  N29  1  0.61213100  0.86056000  0.87137000  1
  N  N30  1  0.61213100  0.52730800  0.37137000  1
  N  N31  1  0.61213100  0.86056000  0.62863000  1
