# generated using pymatgen
data_Ba2SnN2
_symmetry_space_group_name_H-M   'P 1'
_cell_length_a   6.93380620
_cell_length_b   12.56563468
_cell_length_c   13.45043200
_cell_angle_alpha   90.00000000
_cell_angle_beta   90.00000000
_cell_angle_gamma   25.02627523
_symmetry_Int_Tables_number   1
_chemical_formula_structural   Ba2SnN2
_chemical_formula_sum   'Ba8 Sn4 N8'
_cell_volume   495.75542064
_cell_formula_units_Z   4
loop_
 _symmetry_equiv_pos_site_id
 _symmetry_equiv_pos_as_xyz
  1  'x, y, z'
loop_
 _atom_site_type_symbol
 _atom_site_label
 _atom_site_symmetry_multiplicity
 _atom_site_fract_x
 _atom_site_fract_y
 _atom_site_fract_z
 _atom_site_occupancy
  Ba  Ba0  1  0.00000000  0.45810200  0.85568200  1
  Ba  Ba1  1  0.00000000  0.54189800  0.14431800  1
  Ba  Ba2  1  0.00000000  0.04189800  0.35568200  1
  Ba  Ba3  1  0.00000000  0.95810200  0.64431800  1
  Ba  Ba4  1  0.00000000  0.14608100  0.95138700  1
  Ba  Ba5  1  0.00000000  0.85391900  0.04861300  1
  Ba  Ba6  1  0.00000000  0.35391900  0.45138700  1
  Ba  Ba7  1  0.00000000  0.64608100  0.54861300  1
  Sn  Sn8  1  0.00000000  0.25421400  0.68607400  1
  Sn  Sn9  1  0.00000000  0.74578600  0.31392600  1
  Sn  Sn10  1  0.00000000  0.24578600  0.18607400  1
  Sn  Sn11  1  0.00000000  0.75421400  0.81392600  1
  N  N12  1  0.00000000  0.41828800  0.64282700  1
  N  N13  1  0.00000000  0.58171200  0.35717300  1
  N  N14  1  0.00000000  0.08171200  0.14282700  1
  N  N15  1  0.00000000  0.91828800  0.85717300  1
  N  N16  1  0.00000000  0.15952500  0.55718200  1
  N  N17  1  0.00000000  0.84047500  0.44281800  1
  N  N18  1  0.00000000  0.34047500  0.05718200  1
  N  N19  1  0.00000000  0.65952500  0.94281800  1
