# generated using pymatgen
data_Sr3(FeN2)2
_symmetry_space_group_name_H-M   'P 1'
_cell_length_a   5.88289600
_cell_length_b   9.94437200
_cell_length_c   9.51940000
_cell_angle_alpha   90.00000000
_cell_angle_beta   90.00000000
_cell_angle_gamma   90.00000000
_symmetry_Int_Tables_number   1
_chemical_formula_structural   Sr3(FeN2)2
_chemical_formula_sum   'Sr12 Fe8 N16'
_cell_volume   556.90114258
_cell_formula_units_Z   4
loop_
 _symmetry_equiv_pos_site_id
 _symmetry_equiv_pos_as_xyz
  1  'x, y, z'
loop_
 _atom_site_type_symbol
 _atom_site_label
 _atom_site_symmetry_multiplicity
 _atom_site_fract_x
 _atom_site_fract_y
 _atom_site_fract_z
 _atom_site_occupancy
  Sr  Sr0  1  0.61439600  0.15685000  0.41512900  1
  Sr  Sr1  1  0.88560400  0.84315100  0.41512900  1
  Sr  Sr2  1  0.61439600  0.34315100  0.08487100  1
  Sr  Sr3  1  0.88560400  0.65684900  0.08487100  1
  Sr  Sr4  1  0.38560400  0.84315100  0.58487100  1
  Sr  Sr5  1  0.11439600  0.15685000  0.58487100  1
  Sr  Sr6  1  0.38560400  0.65684900  0.91512900  1
  Sr  Sr7  1  0.11439600  0.34315100  0.91512900  1
  Sr  Sr8  1  0.75000000  0.50000000  0.40315800  1
  Sr  Sr9  1  0.75000000  0.00000000  0.09684200  1
  Sr  Sr10  1  0.25000000  0.50000000  0.59684200  1
  Sr  Sr11  1  0.25000000  0.00000000  0.90315800  1
  Fe  Fe12  1  0.75000000  0.50000000  0.73364200  1
  Fe  Fe13  1  0.75000000  0.00000000  0.76635800  1
  Fe  Fe14  1  0.25000000  0.50000000  0.26635800  1
  Fe  Fe15  1  0.25000000  0.00000000  0.23364200  1
  Fe  Fe16  1  0.65505200  0.25000000  0.75000000  1
  Fe  Fe17  1  0.84494800  0.75000000  0.75000000  1
  Fe  Fe18  1  0.34494800  0.75000000  0.25000000  1
  Fe  Fe19  1  0.15505200  0.25000000  0.25000000  1
  N  N20  1  0.86513900  0.35757100  0.63017400  1
  N  N21  1  0.63486100  0.64242900  0.63017400  1
  N  N22  1  0.86513900  0.14242900  0.86982600  1
  N  N23  1  0.63486100  0.85757100  0.86982600  1
  N  N24  1  0.13486100  0.64242900  0.36982600  1
  N  N25  1  0.36513900  0.35757100  0.36982600  1
  N  N26  1  0.13486100  0.85757100  0.13017400  1
  N  N27  1  0.36513900  0.14242900  0.13017400  1
  N  N28  1  0.51599600  0.41184100  0.82914000  1
  N  N29  1  0.98400400  0.58815900  0.82914000  1
  N  N30  1  0.51599600  0.08815900  0.67086000  1
  N  N31  1  0.98400400  0.91184100  0.67086000  1
  N  N32  1  0.48400400  0.58815900  0.17086000  1
  N  N33  1  0.01599600  0.41184100  0.17086000  1
  N  N34  1  0.48400400  0.91184100  0.32914000  1
  N  N35  1  0.01599600  0.08815900  0.32914000  1
