# generated using pymatgen
data_Lu3Mg2TiS8
_symmetry_space_group_name_H-M   'P 1'
_cell_length_a   7.71433884
_cell_length_b   7.62490547
_cell_length_c   7.71377900
_cell_angle_alpha   59.61296959
_cell_angle_beta   60.00156876
_cell_angle_gamma   59.61957066
_symmetry_Int_Tables_number   1
_chemical_formula_structural   Lu3Mg2TiS8
_chemical_formula_sum   'Lu3 Mg2 Ti1 S8'
_cell_volume   318.96792367
_cell_formula_units_Z   1
loop_
 _symmetry_equiv_pos_site_id
 _symmetry_equiv_pos_as_xyz
  1  'x, y, z'
loop_
 _atom_site_type_symbol
 _atom_site_label
 _atom_site_symmetry_multiplicity
 _atom_site_fract_x
 _atom_site_fract_y
 _atom_site_fract_z
 _atom_site_occupancy
  Lu  Lu0  1  0.50000800  0.50001100  0.49997500  1
  Lu  Lu1  1  0.49999900  0.49998900  0.00000300  1
  Lu  Lu2  1  0.99999500  0.49999500  0.50001300  1
  Mg  Mg3  1  0.87516700  0.87444200  0.87523600  1
  Mg  Mg4  1  0.12482200  0.12557200  0.12477600  1
  Ti  Ti5  1  0.50000800  0.00000500  0.49999000  1
  S  S6  1  0.73526800  0.75828000  0.73543100  1
  S  S7  1  0.26473100  0.24173600  0.72896400  1
  S  S8  1  0.25570900  0.73250600  0.25588500  1
  S  S9  1  0.72903300  0.24163700  0.26466200  1
  S  S10  1  0.74427500  0.26749500  0.74410500  1
  S  S11  1  0.27097500  0.75835400  0.73533900  1
  S  S12  1  0.26473900  0.24169900  0.26458500  1
  S  S13  1  0.73527700  0.75827500  0.27103800  1
