# generated using pymatgen
data_YMgVS4
_symmetry_space_group_name_H-M   'P 1'
_cell_length_a   7.65711938
_cell_length_b   7.57323679
_cell_length_c   7.56755424
_cell_angle_alpha   59.55370507
_cell_angle_beta   59.62284310
_cell_angle_gamma   59.60501838
_symmetry_Int_Tables_number   1
_chemical_formula_structural   YMgVS4
_chemical_formula_sum   'Y2 Mg2 V2 S8'
_cell_volume   307.43926107
_cell_formula_units_Z   2
loop_
 _symmetry_equiv_pos_site_id
 _symmetry_equiv_pos_as_xyz
  1  'x, y, z'
loop_
 _atom_site_type_symbol
 _atom_site_label
 _atom_site_symmetry_multiplicity
 _atom_site_fract_x
 _atom_site_fract_y
 _atom_site_fract_z
 _atom_site_occupancy
  Y  Y0  1  0.50000400  0.50001400  0.49997900  1
  Y  Y1  1  0.99999600  0.49998800  0.50000900  1
  Mg  Mg2  1  0.87706600  0.87300400  0.87286100  1
  Mg  Mg3  1  0.12293500  0.12698800  0.12714300  1
  V  V4  1  0.50000400  0.49999000  0.99999900  1
  V  V5  1  0.49999000  0.00004800  0.50002300  1
  S  S6  1  0.71157000  0.75447000  0.75426300  1
  S  S7  1  0.26870700  0.23133700  0.73117200  1
  S  S8  1  0.26877600  0.73113500  0.23145600  1
  S  S9  1  0.72028100  0.24559000  0.24563500  1
  S  S10  1  0.73120900  0.26885800  0.76853300  1
  S  S11  1  0.27972100  0.75440200  0.75435400  1
  S  S12  1  0.28843300  0.24551200  0.24574400  1
  S  S13  1  0.73131100  0.76865800  0.26883200  1
