# generated using pymatgen
data_Cs3Mo2N5
_symmetry_space_group_name_H-M   'P 1'
_cell_length_a   10.97350255
_cell_length_b   13.79741901
_cell_length_c   10.04661773
_cell_angle_alpha   89.99946873
_cell_angle_beta   62.75773101
_cell_angle_gamma   128.95270223
_symmetry_Int_Tables_number   1
_chemical_formula_structural   Cs3Mo2N5
_chemical_formula_sum   'Cs12 Mo8 N20'
_cell_volume   956.27320765
_cell_formula_units_Z   4
loop_
 _symmetry_equiv_pos_site_id
 _symmetry_equiv_pos_as_xyz
  1  'x, y, z'
loop_
 _atom_site_type_symbol
 _atom_site_label
 _atom_site_symmetry_multiplicity
 _atom_site_fract_x
 _atom_site_fract_y
 _atom_site_fract_z
 _atom_site_occupancy
  Cs  Cs0  1  0.58859500  0.71563700  0.94615500  1
  Cs  Cs1  1  0.41141300  0.28436600  0.53474700  1
  Cs  Cs2  1  0.84268200  0.62704000  0.06911600  1
  Cs  Cs3  1  0.15730400  0.37294300  0.91180300  1
  Cs  Cs4  1  0.52404300  0.17607800  0.80568200  1
  Cs  Cs5  1  0.47595100  0.82391300  0.32972700  1
  Cs  Cs6  1  0.82813000  0.15204200  0.40363700  1
  Cs  Cs7  1  0.17187700  0.84796800  0.23176600  1
  Cs  Cs8  1  0.00000400  0.00000100  0.51666700  1
  Cs  Cs9  1  0.00000500  0.50000100  0.76666400  1
  Cs  Cs10  1  0.99999500  0.49999300  0.28025600  1
  Cs  Cs11  1  0.99999300  0.99999300  0.03025600  1
  Mo  Mo12  1  0.24539000  0.42985500  0.44155800  1
  Mo  Mo13  1  0.75461600  0.57015300  0.68695000  1
  Mo  Mo14  1  0.61430600  0.68446000  0.50710200  1
  Mo  Mo15  1  0.38569200  0.31554500  0.12140700  1
  Mo  Mo16  1  0.44317400  0.82453600  0.73849100  1
  Mo  Mo17  1  0.55681100  0.17545500  0.18166700  1
  Mo  Mo18  1  0.20591700  0.88136500  0.60711900  1
  Mo  Mo19  1  0.79409500  0.11863600  0.81303600  1
  N  N20  1  0.28102500  0.54895000  0.32039300  1
  N  N21  1  0.71897100  0.45104900  0.60141800  1
  N  N22  1  0.81687500  0.76792200  0.30246900  1
  N  N23  1  0.18312500  0.23207600  0.11933800  1
  N  N24  1  0.07983100  0.91055800  0.75456500  1
  N  N25  1  0.92016700  0.08944300  0.83439600  1
  N  N26  1  0.74129000  0.33073200  0.17383500  1
  N  N27  1  0.25871300  0.66927200  0.91512600  1
  N  N28  1  0.33920000  0.36314300  0.30609800  1
  N  N29  1  0.66080000  0.63685800  0.64529500  1
  N  N30  1  0.38708100  0.52393800  0.53215700  1
  N  N31  1  0.61292100  0.47606200  0.91924000  1
  N  N32  1  0.32959000  0.85839600  0.67157400  1
  N  N33  1  0.67041200  0.14160600  0.00115800  1
  N  N34  1  0.38720300  0.02881200  0.39276500  1
  N  N35  1  0.61280000  0.97119400  0.77996400  1
  N  N36  1  0.59720200  0.81389100  0.55444900  1
  N  N37  1  0.40279800  0.18611400  0.15165000  1
  N  N38  1  0.03058000  0.71668800  0.58776300  1
  N  N39  1  0.96942300  0.28331500  0.61834000  1
