# generated using pymatgen
data_Si7PtN10
_symmetry_space_group_name_H-M   'P 1'
_cell_length_a   6.74972842
_cell_length_b   6.95739000
_cell_length_c   9.77253899
_cell_angle_alpha   90.00000000
_cell_angle_beta   103.79604300
_cell_angle_gamma   90.00000000
_symmetry_Int_Tables_number   1
_chemical_formula_structural   Si7PtN10
_chemical_formula_sum   'Si14 Pt2 N20'
_cell_volume   445.68365769
_cell_formula_units_Z   2
loop_
 _symmetry_equiv_pos_site_id
 _symmetry_equiv_pos_as_xyz
  1  'x, y, z'
loop_
 _atom_site_type_symbol
 _atom_site_label
 _atom_site_symmetry_multiplicity
 _atom_site_fract_x
 _atom_site_fract_y
 _atom_site_fract_z
 _atom_site_occupancy
  Si  Si0  1  0.54605400  0.98487300  0.82292700  1
  Si  Si1  1  0.54605400  0.01512700  0.32292700  1
  Si  Si2  1  0.35821700  0.02345500  0.02319800  1
  Si  Si3  1  0.35821700  0.97654500  0.52319800  1
  Si  Si4  1  0.11025400  0.40690300  0.07427900  1
  Si  Si5  1  0.11025400  0.59309700  0.57427900  1
  Si  Si6  1  0.64920600  0.36682800  0.98283600  1
  Si  Si7  1  0.64920600  0.63317200  0.48283600  1
  Si  Si8  1  0.84368500  0.61916500  0.80827300  1
  Si  Si9  1  0.84368500  0.38083500  0.30827300  1
  Si  Si10  1  0.29109000  0.62128000  0.87820200  1
  Si  Si11  1  0.29109000  0.37872000  0.37820200  1
  Si  Si12  1  0.48144800  0.36713900  0.68257600  1
  Si  Si13  1  0.48144800  0.63286100  0.18257600  1
  Pt  Pt14  1  0.00905900  0.88827000  0.70790600  1
  Pt  Pt15  1  0.00905900  0.11173000  0.20790600  1
  N  N16  1  0.75269000  0.84568300  0.82002200  1
  N  N17  1  0.75269000  0.15431700  0.32002200  1
  N  N18  1  0.54743300  0.14311800  0.96290200  1
  N  N19  1  0.54743300  0.85688200  0.46290200  1
  N  N20  1  0.32164200  0.87293200  0.86891800  1
  N  N21  1  0.32164200  0.12706800  0.36891800  1
  N  N22  1  0.17112600  0.16788400  0.05541000  1
  N  N23  1  0.17112600  0.83211600  0.55541000  1
  N  N24  1  0.28243300  0.49888200  0.72222300  1
  N  N25  1  0.28243300  0.50111800  0.22222300  1
  N  N26  1  0.45474400  0.11970200  0.66965500  1
  N  N27  1  0.45474400  0.88029800  0.16965500  1
  N  N28  1  0.86942800  0.38061400  0.12173400  1
  N  N29  1  0.86942800  0.61938600  0.62173400  1
  N  N30  1  0.07169100  0.56468900  0.93268000  1
  N  N31  1  0.07169100  0.43531100  0.43268000  1
  N  N32  1  0.69267400  0.42113000  0.81825700  1
  N  N33  1  0.69267400  0.57887000  0.31825700  1
  N  N34  1  0.48942900  0.54388200  0.01730200  1
  N  N35  1  0.48942900  0.45611800  0.51730200  1
