# generated using pymatgen
data_Nb3InN6
_symmetry_space_group_name_H-M   'P 1'
_cell_length_a   5.14726690
_cell_length_b   5.52619400
_cell_length_c   8.62393439
_cell_angle_alpha   90.00000000
_cell_angle_beta   89.94892447
_cell_angle_gamma   90.00000000
_symmetry_Int_Tables_number   1
_chemical_formula_structural   Nb3InN6
_chemical_formula_sum   'Nb6 In2 N12'
_cell_volume   245.30595224
_cell_formula_units_Z   2
loop_
 _symmetry_equiv_pos_site_id
 _symmetry_equiv_pos_as_xyz
  1  'x, y, z'
loop_
 _atom_site_type_symbol
 _atom_site_label
 _atom_site_symmetry_multiplicity
 _atom_site_fract_x
 _atom_site_fract_y
 _atom_site_fract_z
 _atom_site_occupancy
  Nb  Nb0  1  0.96551500  0.45861700  0.24263300  1
  Nb  Nb1  1  0.46551500  0.04138300  0.74263300  1
  Nb  Nb2  1  0.03448500  0.54138300  0.75736700  1
  Nb  Nb3  1  0.53448500  0.95861700  0.25736700  1
  Nb  Nb4  1  0.50000000  0.50000000  0.00000000  1
  Nb  Nb5  1  0.00000000  0.00000000  0.50000000  1
  In  In6  1  0.50000000  0.50000000  0.50000000  1
  In  In7  1  0.00000000  0.00000000  0.00000000  1
  N  N8  1  0.17811700  0.29897700  0.60580200  1
  N  N9  1  0.67811700  0.20102300  0.10580200  1
  N  N10  1  0.82188300  0.70102300  0.39419800  1
  N  N11  1  0.32188300  0.79897700  0.89419800  1
  N  N12  1  0.30764400  0.81176000  0.58456500  1
  N  N13  1  0.80764400  0.68824000  0.08456500  1
  N  N14  1  0.69235600  0.18824000  0.41543500  1
  N  N15  1  0.19235600  0.31176000  0.91543500  1
  N  N16  1  0.31483300  0.59228200  0.22256500  1
  N  N17  1  0.81483300  0.90771800  0.72256500  1
  N  N18  1  0.68516700  0.40771800  0.77743500  1
  N  N19  1  0.18516700  0.09228200  0.27743500  1
