# generated using pymatgen
data_Sr4SiN4
_symmetry_space_group_name_H-M   'P 1'
_cell_length_a   5.99304800
_cell_length_b   11.92387700
_cell_length_c   9.91260500
_cell_angle_alpha   90.00000000
_cell_angle_beta   90.00000000
_cell_angle_gamma   90.00000000
_symmetry_Int_Tables_number   1
_chemical_formula_structural   Sr4SiN4
_chemical_formula_sum   'Sr16 Si4 N16'
_cell_volume   708.35839328
_cell_formula_units_Z   4
loop_
 _symmetry_equiv_pos_site_id
 _symmetry_equiv_pos_as_xyz
  1  'x, y, z'
loop_
 _atom_site_type_symbol
 _atom_site_label
 _atom_site_symmetry_multiplicity
 _atom_site_fract_x
 _atom_site_fract_y
 _atom_site_fract_z
 _atom_site_occupancy
  Sr  Sr0  1  0.11873100  0.37678200  0.60374600  1
  Sr  Sr1  1  0.38126900  0.62321800  0.60374600  1
  Sr  Sr2  1  0.11873100  0.12321800  0.89625400  1
  Sr  Sr3  1  0.38126900  0.87678200  0.89625400  1
  Sr  Sr4  1  0.88126900  0.62321800  0.39625400  1
  Sr  Sr5  1  0.61873100  0.37678200  0.39625400  1
  Sr  Sr6  1  0.88126900  0.87678200  0.10374600  1
  Sr  Sr7  1  0.61873100  0.12321800  0.10374600  1
  Sr  Sr8  1  0.75000000  0.50000000  0.06773500  1
  Sr  Sr9  1  0.75000000  0.00000000  0.43226500  1
  Sr  Sr10  1  0.25000000  0.50000000  0.93226500  1
  Sr  Sr11  1  0.25000000  0.00000000  0.56773500  1
  Sr  Sr12  1  0.64699500  0.25000000  0.75000000  1
  Sr  Sr13  1  0.85300500  0.75000000  0.75000000  1
  Sr  Sr14  1  0.35300500  0.75000000  0.25000000  1
  Sr  Sr15  1  0.14699500  0.25000000  0.25000000  1
  Si  Si16  1  0.75000000  0.50000000  0.75059200  1
  Si  Si17  1  0.75000000  0.00000000  0.74940800  1
  Si  Si18  1  0.25000000  0.50000000  0.24940800  1
  Si  Si19  1  0.25000000  0.00000000  0.25059200  1
  N  N20  1  0.53447500  0.43170400  0.64789500  1
  N  N21  1  0.96552500  0.56829600  0.64789500  1
  N  N22  1  0.53447500  0.06829600  0.85210500  1
  N  N23  1  0.96552500  0.93170400  0.85210500  1
  N  N24  1  0.46552500  0.56829600  0.35210500  1
  N  N25  1  0.03447500  0.43170400  0.35210500  1
  N  N26  1  0.46552500  0.93170400  0.14789500  1
  N  N27  1  0.03447500  0.06829600  0.14789500  1
  N  N28  1  0.89549200  0.10373000  0.65137900  1
  N  N29  1  0.60450800  0.89627000  0.65137900  1
  N  N30  1  0.89549200  0.39627000  0.84862100  1
  N  N31  1  0.60450800  0.60373000  0.84862100  1
  N  N32  1  0.10450800  0.89627000  0.34862100  1
  N  N33  1  0.39549200  0.10373000  0.34862100  1
  N  N34  1  0.10450800  0.60373000  0.15137900  1
  N  N35  1  0.39549200  0.39627000  0.15137900  1
