# generated using pymatgen
data_Te3(Mo2N)2
_symmetry_space_group_name_H-M   'P 1'
_cell_length_a   6.51570000
_cell_length_b   9.76578800
_cell_length_c   10.35557000
_cell_angle_alpha   90.00000000
_cell_angle_beta   90.00000000
_cell_angle_gamma   90.00000000
_symmetry_Int_Tables_number   1
_chemical_formula_structural   Te3(Mo2N)2
_chemical_formula_sum   'Te12 Mo16 N8'
_cell_volume   658.93470378
_cell_formula_units_Z   4
loop_
 _symmetry_equiv_pos_site_id
 _symmetry_equiv_pos_as_xyz
  1  'x, y, z'
loop_
 _atom_site_type_symbol
 _atom_site_label
 _atom_site_symmetry_multiplicity
 _atom_site_fract_x
 _atom_site_fract_y
 _atom_site_fract_z
 _atom_site_occupancy
  Te  Te0  1  0.88757500  0.25000000  0.18820600  1
  Te  Te1  1  0.38757500  0.25000000  0.31179400  1
  Te  Te2  1  0.11242500  0.75000000  0.81179400  1
  Te  Te3  1  0.61242500  0.75000000  0.68820600  1
  Te  Te4  1  0.65835300  0.57786700  0.38410300  1
  Te  Te5  1  0.15835300  0.92213300  0.11589700  1
  Te  Te6  1  0.34164700  0.07786700  0.61589700  1
  Te  Te7  1  0.84164700  0.42213300  0.88410300  1
  Te  Te8  1  0.34164700  0.42213300  0.61589700  1
  Te  Te9  1  0.84164700  0.07786700  0.88410300  1
  Te  Te10  1  0.65835300  0.92213300  0.38410300  1
  Te  Te11  1  0.15835300  0.57786700  0.11589700  1
  Mo  Mo12  1  0.51293400  0.25000000  0.81962100  1
  Mo  Mo13  1  0.01293400  0.25000000  0.68037900  1
  Mo  Mo14  1  0.48706600  0.75000000  0.18037900  1
  Mo  Mo15  1  0.98706600  0.75000000  0.31962100  1
  Mo  Mo16  1  0.67207100  0.25000000  0.53515200  1
  Mo  Mo17  1  0.17207100  0.25000000  0.96484800  1
  Mo  Mo18  1  0.32792900  0.75000000  0.46484800  1
  Mo  Mo19  1  0.82792900  0.75000000  0.03515200  1
  Mo  Mo20  1  0.52841500  0.39476100  0.07791100  1
  Mo  Mo21  1  0.02841500  0.10523900  0.42208900  1
  Mo  Mo22  1  0.47158500  0.89476100  0.92208900  1
  Mo  Mo23  1  0.97158500  0.60523900  0.57791100  1
  Mo  Mo24  1  0.47158500  0.60523900  0.92208900  1
  Mo  Mo25  1  0.97158500  0.89476100  0.57791100  1
  Mo  Mo26  1  0.52841500  0.10523900  0.07791100  1
  Mo  Mo27  1  0.02841500  0.39476100  0.42208900  1
  N  N28  1  0.64225000  0.59723700  0.08621800  1
  N  N29  1  0.14225000  0.90276300  0.41378200  1
  N  N30  1  0.35775000  0.09723700  0.91378200  1
  N  N31  1  0.85775000  0.40276300  0.58621800  1
  N  N32  1  0.35775000  0.40276300  0.91378200  1
  N  N33  1  0.85775000  0.09723700  0.58621800  1
  N  N34  1  0.64225000  0.90276300  0.08621800  1
  N  N35  1  0.14225000  0.59723700  0.41378200  1
