# generated using pymatgen
data_Sr5Hf2N6
_symmetry_space_group_name_H-M   'P 1'
_cell_length_a   6.61999439
_cell_length_b   7.14436866
_cell_length_c   13.83373852
_cell_angle_alpha   89.99999752
_cell_angle_beta   101.74639451
_cell_angle_gamma   122.65677467
_symmetry_Int_Tables_number   1
_chemical_formula_structural   Sr5Hf2N6
_chemical_formula_sum   'Sr10 Hf4 N12'
_cell_volume   534.50040545
_cell_formula_units_Z   2
loop_
 _symmetry_equiv_pos_site_id
 _symmetry_equiv_pos_as_xyz
  1  'x, y, z'
loop_
 _atom_site_type_symbol
 _atom_site_label
 _atom_site_symmetry_multiplicity
 _atom_site_fract_x
 _atom_site_fract_y
 _atom_site_fract_z
 _atom_site_occupancy
  Sr  Sr0  1  0.05319400  0.77146300  0.00975200  1
  Sr  Sr1  1  0.94680600  0.71827000  0.49024800  1
  Sr  Sr2  1  0.94680600  0.22853700  0.99024800  1
  Sr  Sr3  1  0.05319400  0.28173000  0.50975200  1
  Sr  Sr4  1  0.31083600  0.00854500  0.72276900  1
  Sr  Sr5  1  0.68916400  0.69770900  0.77723100  1
  Sr  Sr6  1  0.68916400  0.99145500  0.27723100  1
  Sr  Sr7  1  0.31083600  0.30229100  0.22276900  1
  Sr  Sr8  1  0.00000000  0.35110300  0.75000000  1
  Sr  Sr9  1  0.00000000  0.64889700  0.25000000  1
  Hf  Hf10  1  0.54798500  0.85860900  0.56625800  1
  Hf  Hf11  1  0.45201500  0.31062400  0.93374200  1
  Hf  Hf12  1  0.45201500  0.14139100  0.43374200  1
  Hf  Hf13  1  0.54798500  0.68937600  0.06625800  1
  N  N14  1  0.89944300  0.93551400  0.62016000  1
  N  N15  1  0.10055700  0.03607200  0.87984000  1
  N  N16  1  0.10055700  0.06448600  0.37984000  1
  N  N17  1  0.89944300  0.96392800  0.12016000  1
  N  N18  1  0.28751000  0.64603800  0.64154900  1
  N  N19  1  0.71249000  0.35852800  0.85845100  1
  N  N20  1  0.71249000  0.35396200  0.35845100  1
  N  N21  1  0.28751000  0.64147200  0.14154900  1
  N  N22  1  0.58428300  0.16195900  0.58718300  1
  N  N23  1  0.41571700  0.57767600  0.91281700  1
  N  N24  1  0.41571700  0.83804100  0.41281700  1
  N  N25  1  0.58428300  0.42232400  0.08718300  1
