# generated using pymatgen
data_Ti(C2N3)3
_symmetry_space_group_name_H-M   'P 1'
_cell_length_a   7.36891188
_cell_length_b   12.88806169
_cell_length_c   11.49184200
_cell_angle_alpha   90.00000000
_cell_angle_beta   90.00000000
_cell_angle_gamma   29.01547689
_symmetry_Int_Tables_number   1
_chemical_formula_structural   Ti(C2N3)3
_chemical_formula_sum   'Ti2 C12 N18'
_cell_volume   529.37498509
_cell_formula_units_Z   2
loop_
 _symmetry_equiv_pos_site_id
 _symmetry_equiv_pos_as_xyz
  1  'x, y, z'
loop_
 _atom_site_type_symbol
 _atom_site_label
 _atom_site_symmetry_multiplicity
 _atom_site_fract_x
 _atom_site_fract_y
 _atom_site_fract_z
 _atom_site_occupancy
  Ti  Ti0  1  0.00000000  0.27502000  0.25000000  1
  Ti  Ti1  1  0.00000000  0.72498000  0.75000000  1
  C  C2  1  0.68216400  0.77223800  0.25000000  1
  C  C3  1  0.68216400  0.54559800  0.75000000  1
  C  C4  1  0.31783600  0.22776200  0.75000000  1
  C  C5  1  0.31783600  0.45440200  0.25000000  1
  C  C6  1  0.68230700  0.30545600  0.90794200  1
  C  C7  1  0.68230700  0.01223700  0.09205800  1
  C  C8  1  0.68230700  0.30545600  0.59205800  1
  C  C9  1  0.68230700  0.01223700  0.40794200  1
  C  C10  1  0.31769300  0.69454400  0.09205800  1
  C  C11  1  0.31769300  0.98776300  0.90794200  1
  C  C12  1  0.31769300  0.69454400  0.40794200  1
  C  C13  1  0.31769300  0.98776300  0.59205800  1
  N  N14  1  0.00000000  0.56631600  0.25000000  1
  N  N15  1  0.00000000  0.43368400  0.75000000  1
  N  N16  1  0.38168500  0.96034200  0.25000000  1
  N  N17  1  0.38168500  0.65797400  0.75000000  1
  N  N18  1  0.61831500  0.03965800  0.75000000  1
  N  N19  1  0.61831500  0.34202600  0.25000000  1
  N  N20  1  0.00000000  0.12610900  0.95531800  1
  N  N21  1  0.00000000  0.87389100  0.04468200  1
  N  N22  1  0.00000000  0.12610900  0.54468200  1
  N  N23  1  0.00000000  0.87389100  0.45531800  1
  N  N24  1  0.38170000  0.47262500  0.86986100  1
  N  N25  1  0.38170000  0.14567500  0.13013900  1
  N  N26  1  0.38170000  0.47262500  0.63013900  1
  N  N27  1  0.38170000  0.14567500  0.36986100  1
  N  N28  1  0.61830000  0.52737500  0.13013900  1
  N  N29  1  0.61830000  0.85432500  0.86986100  1
  N  N30  1  0.61830000  0.52737500  0.36986100  1
  N  N31  1  0.61830000  0.85432500  0.63013900  1
