# generated using pymatgen
data_Nb(C2N3)3
_symmetry_space_group_name_H-M   'P 1'
_cell_length_a   7.01285897
_cell_length_b   11.98754942
_cell_length_c   12.35578800
_cell_angle_alpha   90.00000000
_cell_angle_beta   90.00000000
_cell_angle_gamma   31.27522043
_symmetry_Int_Tables_number   1
_chemical_formula_structural   Nb(C2N3)3
_chemical_formula_sum   'Nb2 C12 N18'
_cell_volume   539.24785115
_cell_formula_units_Z   2
loop_
 _symmetry_equiv_pos_site_id
 _symmetry_equiv_pos_as_xyz
  1  'x, y, z'
loop_
 _atom_site_type_symbol
 _atom_site_label
 _atom_site_symmetry_multiplicity
 _atom_site_fract_x
 _atom_site_fract_y
 _atom_site_fract_z
 _atom_site_occupancy
  Nb  Nb0  1  0.00000000  0.27426900  0.25000000  1
  Nb  Nb1  1  0.00000000  0.72573100  0.75000000  1
  C  C2  1  0.68622600  0.75447200  0.25000000  1
  C  C3  1  0.68622600  0.55930100  0.75000000  1
  C  C4  1  0.31377400  0.24552800  0.75000000  1
  C  C5  1  0.31377400  0.44069900  0.25000000  1
  C  C6  1  0.68859800  0.30373100  0.90244500  1
  C  C7  1  0.68859800  0.00767100  0.09755500  1
  C  C8  1  0.68859800  0.30373100  0.59755500  1
  C  C9  1  0.68859800  0.00767100  0.40244500  1
  C  C10  1  0.31140200  0.69626900  0.09755500  1
  C  C11  1  0.31140200  0.99232900  0.90244500  1
  C  C12  1  0.31140200  0.69626900  0.40244500  1
  C  C13  1  0.31140200  0.99232900  0.59755500  1
  N  N14  1  0.00000000  0.54723000  0.25000000  1
  N  N15  1  0.00000000  0.45277000  0.75000000  1
  N  N16  1  0.38844700  0.94265500  0.25000000  1
  N  N17  1  0.38844700  0.66889800  0.75000000  1
  N  N18  1  0.61155300  0.05734500  0.75000000  1
  N  N19  1  0.61155300  0.33110200  0.25000000  1
  N  N20  1  0.00000000  0.12142500  0.94372200  1
  N  N21  1  0.00000000  0.87857500  0.05627800  1
  N  N22  1  0.00000000  0.12142500  0.55627800  1
  N  N23  1  0.00000000  0.87857500  0.44372200  1
  N  N24  1  0.39247300  0.47320300  0.86907700  1
  N  N25  1  0.39247300  0.13432400  0.13092300  1
  N  N26  1  0.39247300  0.47320300  0.63092300  1
  N  N27  1  0.39247300  0.13432400  0.36907700  1
  N  N28  1  0.60752700  0.52679700  0.13092300  1
  N  N29  1  0.60752700  0.86567600  0.86907700  1
  N  N30  1  0.60752700  0.52679700  0.36907700  1
  N  N31  1  0.60752700  0.86567600  0.63092300  1
