# generated using pymatgen
data_V(C4N3)2
_symmetry_space_group_name_H-M   'P 1'
_cell_length_a   5.26888000
_cell_length_b   7.33899100
_cell_length_c   10.54445200
_cell_angle_alpha   90.00000000
_cell_angle_beta   90.00000000
_cell_angle_gamma   90.00000000
_symmetry_Int_Tables_number   1
_chemical_formula_structural   V(C4N3)2
_chemical_formula_sum   'V2 C16 N12'
_cell_volume   407.73564207
_cell_formula_units_Z   2
loop_
 _symmetry_equiv_pos_site_id
 _symmetry_equiv_pos_as_xyz
  1  'x, y, z'
loop_
 _atom_site_type_symbol
 _atom_site_label
 _atom_site_symmetry_multiplicity
 _atom_site_fract_x
 _atom_site_fract_y
 _atom_site_fract_z
 _atom_site_occupancy
  V  V0  1  0.00000000  0.50000000  0.50000000  1
  V  V1  1  0.00000000  0.00000000  0.00000000  1
  C  C2  1  0.38481100  0.00000000  0.75642100  1
  C  C3  1  0.38481100  0.50000000  0.74357900  1
  C  C4  1  0.61518900  0.00000000  0.24357900  1
  C  C5  1  0.61518900  0.50000000  0.25642100  1
  C  C6  1  0.57520900  0.00000000  0.66291400  1
  C  C7  1  0.57520900  0.50000000  0.83708600  1
  C  C8  1  0.42479100  0.00000000  0.33708600  1
  C  C9  1  0.42479100  0.50000000  0.16291400  1
  C  C10  1  0.68628400  0.16141300  0.61828700  1
  C  C11  1  0.68628400  0.33858700  0.88171300  1
  C  C12  1  0.31371600  0.16141300  0.38171300  1
  C  C13  1  0.68628400  0.66141300  0.88171300  1
  C  C14  1  0.31371600  0.83858700  0.38171300  1
  C  C15  1  0.31371600  0.66141300  0.11828700  1
  C  C16  1  0.68628400  0.83858700  0.61828700  1
  C  C17  1  0.31371600  0.33858700  0.11828700  1
  N  N18  1  0.78787600  0.29090100  0.57724700  1
  N  N19  1  0.78787600  0.20909900  0.92275300  1
  N  N20  1  0.21212300  0.29090100  0.42275300  1
  N  N21  1  0.78787600  0.79090100  0.92275300  1
  N  N22  1  0.21212300  0.70909900  0.42275300  1
  N  N23  1  0.21212300  0.79090100  0.07724700  1
  N  N24  1  0.78787600  0.70909900  0.57724700  1
  N  N25  1  0.21212300  0.20909900  0.07724700  1
  N  N26  1  0.23170400  0.00000000  0.83746700  1
  N  N27  1  0.23170400  0.50000000  0.66253300  1
  N  N28  1  0.76829600  0.00000000  0.16253300  1
  N  N29  1  0.76829600  0.50000000  0.33746700  1
