# generated using pymatgen
data_Li3RhN2
_symmetry_space_group_name_H-M   'P 1'
_cell_length_a   8.50870900
_cell_length_b   9.82500984
_cell_length_c   9.82501066
_cell_angle_alpha   89.99999683
_cell_angle_beta   125.26438576
_cell_angle_gamma   54.73561087
_symmetry_Int_Tables_number   1
_chemical_formula_structural   Li3RhN2
_chemical_formula_sum   'Li24 Rh8 N16'
_cell_volume   474.20823551
_cell_formula_units_Z   8
loop_
 _symmetry_equiv_pos_site_id
 _symmetry_equiv_pos_as_xyz
  1  'x, y, z'
loop_
 _atom_site_type_symbol
 _atom_site_label
 _atom_site_symmetry_multiplicity
 _atom_site_fract_x
 _atom_site_fract_y
 _atom_site_fract_z
 _atom_site_occupancy
  Li  Li0  1  0.23281000  0.02807900  0.99143300  1
  Li  Li1  1  0.76719000  0.76088900  0.50856700  1
  Li  Li2  1  0.76719000  0.47192100  0.75862300  1
  Li  Li3  1  0.23281000  0.73911100  0.74137700  1
  Li  Li4  1  0.24994400  0.75862300  0.26945600  1
  Li  Li5  1  0.75005600  0.74137700  0.01951200  1
  Li  Li6  1  0.24994400  0.99143300  0.48048800  1
  Li  Li7  1  0.75005600  0.50856700  0.23054400  1
  Li  Li8  1  0.71103200  0.01951200  0.73911100  1
  Li  Li9  1  0.71103200  0.26945600  0.47192100  1
  Li  Li10  1  0.28896800  0.23054400  0.76088900  1
  Li  Li11  1  0.28896800  0.48048800  0.02807900  1
  Li  Li12  1  0.76719000  0.97192100  0.00856700  1
  Li  Li13  1  0.23281000  0.23911100  0.49143300  1
  Li  Li14  1  0.23281000  0.52807900  0.24137700  1
  Li  Li15  1  0.76719000  0.26088900  0.25862300  1
  Li  Li16  1  0.75005600  0.24137700  0.73054400  1
  Li  Li17  1  0.24994400  0.25862300  0.98048800  1
  Li  Li18  1  0.75005600  0.00856700  0.51951200  1
  Li  Li19  1  0.24994400  0.49143300  0.76945600  1
  Li  Li20  1  0.28896800  0.98048800  0.26088900  1
  Li  Li21  1  0.28896800  0.73054400  0.52807900  1
  Li  Li22  1  0.71103200  0.76945600  0.23911100  1
  Li  Li23  1  0.71103200  0.51951200  0.97192100  1
  Rh  Rh24  1  0.23504200  0.00000000  0.73504200  1
  Rh  Rh25  1  0.76495800  0.73504200  0.76495800  1
  Rh  Rh26  1  0.76495800  0.50000000  0.50000000  1
  Rh  Rh27  1  0.23504200  0.76495800  0.00000000  1
  Rh  Rh28  1  0.76495800  0.00000000  0.26495800  1
  Rh  Rh29  1  0.23504200  0.26495800  0.23504200  1
  Rh  Rh30  1  0.23504200  0.50000000  0.50000000  1
  Rh  Rh31  1  0.76495800  0.23504200  0.00000000  1
  N  N32  1  0.00000000  0.00000000  0.50000000  1
  N  N33  1  0.00000000  0.50000000  0.00000000  1
  N  N34  1  0.00000000  0.50000000  0.50000000  1
  N  N35  1  0.00000000  0.00000000  0.00000000  1
  N  N36  1  0.50000000  0.98491500  0.75000000  1
  N  N37  1  0.50000000  0.51508500  0.25000000  1
  N  N38  1  0.00000000  0.25000000  0.73491500  1
  N  N39  1  0.00000000  0.75000000  0.76508500  1
  N  N40  1  0.53017000  0.73491500  0.51508500  1
  N  N41  1  0.46983000  0.76508500  0.98491500  1
  N  N42  1  0.50000000  0.01508500  0.25000000  1
  N  N43  1  0.50000000  0.48491500  0.75000000  1
  N  N44  1  0.00000000  0.75000000  0.26508500  1
  N  N45  1  0.00000000  0.25000000  0.23491500  1
  N  N46  1  0.46983000  0.26508500  0.48491500  1
  N  N47  1  0.53017000  0.23491500  0.01508500  1
