# generated using pymatgen
data_Re2Pb3N4
_symmetry_space_group_name_H-M   'P 1'
_cell_length_a   7.83781200
_cell_length_b   8.85905200
_cell_length_c   10.74993000
_cell_angle_alpha   90.00000000
_cell_angle_beta   90.00000000
_cell_angle_gamma   90.00000000
_symmetry_Int_Tables_number   1
_chemical_formula_structural   Re2Pb3N4
_chemical_formula_sum   'Re8 Pb12 N16'
_cell_volume   746.42766831
_cell_formula_units_Z   4
loop_
 _symmetry_equiv_pos_site_id
 _symmetry_equiv_pos_as_xyz
  1  'x, y, z'
loop_
 _atom_site_type_symbol
 _atom_site_label
 _atom_site_symmetry_multiplicity
 _atom_site_fract_x
 _atom_site_fract_y
 _atom_site_fract_z
 _atom_site_occupancy
  Re  Re0  1  0.75000000  0.50000000  0.63992000  1
  Re  Re1  1  0.75000000  0.00000000  0.86008000  1
  Re  Re2  1  0.25000000  0.50000000  0.36008000  1
  Re  Re3  1  0.25000000  0.00000000  0.13992000  1
  Re  Re4  1  0.65658500  0.25000000  0.75000000  1
  Re  Re5  1  0.84341500  0.75000000  0.75000000  1
  Re  Re6  1  0.34341500  0.75000000  0.25000000  1
  Re  Re7  1  0.15658500  0.25000000  0.25000000  1
  Pb  Pb8  1  0.56440400  0.13657300  0.40346500  1
  Pb  Pb9  1  0.93559600  0.86342700  0.40346500  1
  Pb  Pb10  1  0.56440400  0.36342700  0.09653500  1
  Pb  Pb11  1  0.93559600  0.63657300  0.09653500  1
  Pb  Pb12  1  0.43559600  0.86342700  0.59653500  1
  Pb  Pb13  1  0.06440400  0.13657300  0.59653500  1
  Pb  Pb14  1  0.43559600  0.63657300  0.90346500  1
  Pb  Pb15  1  0.06440400  0.36342700  0.90346500  1
  Pb  Pb16  1  0.75000000  0.50000000  0.35921900  1
  Pb  Pb17  1  0.75000000  0.00000000  0.14078100  1
  Pb  Pb18  1  0.25000000  0.50000000  0.64078100  1
  Pb  Pb19  1  0.25000000  0.00000000  0.85921900  1
  N  N20  1  0.80360000  0.27480200  0.61409700  1
  N  N21  1  0.69640000  0.72519800  0.61409700  1
  N  N22  1  0.80360000  0.22519800  0.88590300  1
  N  N23  1  0.69640000  0.77480200  0.88590300  1
  N  N24  1  0.19640000  0.72519800  0.38590300  1
  N  N25  1  0.30360000  0.27480200  0.38590300  1
  N  N26  1  0.19640000  0.77480200  0.11409700  1
  N  N27  1  0.30360000  0.22519800  0.11409700  1
  N  N28  1  0.55848500  0.45837900  0.74637800  1
  N  N29  1  0.94151500  0.54162100  0.74637800  1
  N  N30  1  0.55848500  0.04162100  0.75362200  1
  N  N31  1  0.94151500  0.95837900  0.75362200  1
  N  N32  1  0.44151500  0.54162100  0.25362200  1
  N  N33  1  0.05848500  0.45837900  0.25362200  1
  N  N34  1  0.44151500  0.95837900  0.24637800  1
  N  N35  1  0.05848500  0.04162100  0.24637800  1
