# generated using pymatgen
data_Sr3(TiN2)2
_symmetry_space_group_name_H-M   'P 1'
_cell_length_a   6.10993106
_cell_length_b   10.36418109
_cell_length_c   9.80480521
_cell_angle_alpha   90.00000000
_cell_angle_beta   90.00000000
_cell_angle_gamma   90.00000000
_symmetry_Int_Tables_number   1
_chemical_formula_structural   Sr3(TiN2)2
_chemical_formula_sum   'Sr12 Ti8 N16'
_cell_volume   620.88372034
_cell_formula_units_Z   4
loop_
 _symmetry_equiv_pos_site_id
 _symmetry_equiv_pos_as_xyz
  1  'x, y, z'
loop_
 _atom_site_type_symbol
 _atom_site_label
 _atom_site_symmetry_multiplicity
 _atom_site_fract_x
 _atom_site_fract_y
 _atom_site_fract_z
 _atom_site_occupancy
  Sr  Sr0  1  0.61375476  0.15778063  0.42089665  1
  Sr  Sr1  1  0.88624524  0.84221937  0.42089665  1
  Sr  Sr2  1  0.61375476  0.34221937  0.07910335  1
  Sr  Sr3  1  0.88624524  0.65778063  0.07910335  1
  Sr  Sr4  1  0.38624524  0.84221937  0.57910335  1
  Sr  Sr5  1  0.11375476  0.15778063  0.57910335  1
  Sr  Sr6  1  0.38624524  0.65778063  0.92089665  1
  Sr  Sr7  1  0.11375476  0.34221937  0.92089665  1
  Sr  Sr8  1  0.75000000  0.50000000  0.39811734  1
  Sr  Sr9  1  0.75000000  -0.00000000  0.10188266  1
  Sr  Sr10  1  0.25000000  0.50000000  0.60188266  1
  Sr  Sr11  1  0.25000000  0.00000000  0.89811734  1
  Ti  Ti12  1  0.75000000  0.50000000  0.73274733  1
  Ti  Ti13  1  0.75000000  0.00000000  0.76725267  1
  Ti  Ti14  1  0.25000000  0.50000000  0.26725267  1
  Ti  Ti15  1  0.25000000  -0.00000000  0.23274733  1
  Ti  Ti16  1  0.63127358  0.25000000  0.75000000  1
  Ti  Ti17  1  0.86872642  0.75000000  0.75000000  1
  Ti  Ti18  1  0.36872642  0.75000000  0.25000000  1
  Ti  Ti19  1  0.13127358  0.25000000  0.25000000  1
  N  N20  1  0.82823459  0.34852804  0.62416133  1
  N  N21  1  0.67176541  0.65147196  0.62416133  1
  N  N22  1  0.82823459  0.15147196  0.87583867  1
  N  N23  1  0.67176541  0.84852804  0.87583867  1
  N  N24  1  0.17176541  0.65147196  0.37583867  1
  N  N25  1  0.32823459  0.34852804  0.37583867  1
  N  N26  1  0.17176541  0.84852804  0.12416133  1
  N  N27  1  0.32823459  0.15147196  0.12416133  1
  N  N28  1  0.50546666  0.41703739  0.83123166  1
  N  N29  1  0.99453334  0.58296261  0.83123166  1
  N  N30  1  0.50546666  0.08296261  0.66876834  1
  N  N31  1  0.99453334  0.91703739  0.66876834  1
  N  N32  1  0.49453334  0.58296261  0.16876834  1
  N  N33  1  0.00546666  0.41703739  0.16876834  1
  N  N34  1  0.49453334  0.91703739  0.33123166  1
  N  N35  1  0.00546666  0.08296261  0.33123166  1
