# generated using pymatgen
data_Li3VN2
_symmetry_space_group_name_H-M   'P 1'
_cell_length_a   8.34245300
_cell_length_b   9.63303526
_cell_length_c   9.63303579
_cell_angle_alpha   90.00000515
_cell_angle_beta   125.26439109
_cell_angle_gamma   54.73560668
_symmetry_Int_Tables_number   1
_chemical_formula_structural   Li3VN2
_chemical_formula_sum   'Li24 V8 N16'
_cell_volume   446.95052311
_cell_formula_units_Z   8
loop_
 _symmetry_equiv_pos_site_id
 _symmetry_equiv_pos_as_xyz
  1  'x, y, z'
loop_
 _atom_site_type_symbol
 _atom_site_label
 _atom_site_symmetry_multiplicity
 _atom_site_fract_x
 _atom_site_fract_y
 _atom_site_fract_z
 _atom_site_occupancy
  Li  Li0  1  0.22114900  0.04249700  0.98885200  1
  Li  Li1  1  0.77885100  0.76364600  0.51114800  1
  Li  Li2  1  0.77885100  0.45750300  0.76770300  1
  Li  Li3  1  0.22114900  0.73635400  0.73229700  1
  Li  Li4  1  0.24344500  0.76770300  0.27479400  1
  Li  Li5  1  0.75655500  0.73229700  0.03134900  1
  Li  Li6  1  0.24344500  0.98885200  0.46865100  1
  Li  Li7  1  0.75655500  0.51114800  0.22520600  1
  Li  Li8  1  0.69385700  0.03134900  0.73635400  1
  Li  Li9  1  0.69385700  0.27479400  0.45750300  1
  Li  Li10  1  0.30614300  0.22520600  0.76364600  1
  Li  Li11  1  0.30614300  0.46865100  0.04249700  1
  Li  Li12  1  0.77885100  0.95750300  0.01114800  1
  Li  Li13  1  0.22114900  0.23635400  0.48885200  1
  Li  Li14  1  0.22114900  0.54249700  0.23229700  1
  Li  Li15  1  0.77885100  0.26364600  0.26770300  1
  Li  Li16  1  0.75655500  0.23229700  0.72520600  1
  Li  Li17  1  0.24344500  0.26770300  0.96865100  1
  Li  Li18  1  0.75655500  0.01114800  0.53134900  1
  Li  Li19  1  0.24344500  0.48885200  0.77479400  1
  Li  Li20  1  0.30614300  0.96865100  0.26364600  1
  Li  Li21  1  0.30614300  0.72520600  0.54249700  1
  Li  Li22  1  0.69385700  0.77479400  0.23635400  1
  Li  Li23  1  0.69385700  0.53134900  0.95750300  1
  V  V24  1  0.23031000  0.00000000  0.73031000  1
  V  V25  1  0.76969000  0.73031000  0.76969000  1
  V  V26  1  0.76969000  0.50000000  0.50000000  1
  V  V27  1  0.23031000  0.76969000  0.00000000  1
  V  V28  1  0.76969000  0.00000000  0.26969000  1
  V  V29  1  0.23031000  0.26969000  0.23031000  1
  V  V30  1  0.23031000  0.50000000  0.50000000  1
  V  V31  1  0.76969000  0.23031000  0.00000000  1
  N  N32  1  0.00000000  0.00000000  0.50000000  1
  N  N33  1  0.00000000  0.50000000  0.00000000  1
  N  N34  1  0.00000000  0.50000000  0.50000000  1
  N  N35  1  0.00000000  0.00000000  0.00000000  1
  N  N36  1  0.50000000  0.97079200  0.75000000  1
  N  N37  1  0.50000000  0.52920800  0.25000000  1
  N  N38  1  0.00000000  0.25000000  0.72079200  1
  N  N39  1  0.00000000  0.75000000  0.77920800  1
  N  N40  1  0.55841700  0.72079200  0.52920800  1
  N  N41  1  0.44158300  0.77920800  0.97079200  1
  N  N42  1  0.50000000  0.02920800  0.25000000  1
  N  N43  1  0.50000000  0.47079200  0.75000000  1
  N  N44  1  0.00000000  0.75000000  0.27920800  1
  N  N45  1  0.00000000  0.25000000  0.22079200  1
  N  N46  1  0.44158300  0.27920800  0.47079200  1
  N  N47  1  0.55841700  0.22079200  0.02920800  1
