# generated using pymatgen
data_Ca7TeN6
_symmetry_space_group_name_H-M   'P 1'
_cell_length_a   6.54328700
_cell_length_b   9.16988335
_cell_length_c   9.16988335
_cell_angle_alpha   81.14201823
_cell_angle_beta   69.09734364
_cell_angle_gamma   69.09734364
_symmetry_Int_Tables_number   1
_chemical_formula_structural   Ca7TeN6
_chemical_formula_sum   'Ca14 Te2 N12'
_cell_volume   479.94211100
_cell_formula_units_Z   2
loop_
 _symmetry_equiv_pos_site_id
 _symmetry_equiv_pos_as_xyz
  1  'x, y, z'
loop_
 _atom_site_type_symbol
 _atom_site_label
 _atom_site_symmetry_multiplicity
 _atom_site_fract_x
 _atom_site_fract_y
 _atom_site_fract_z
 _atom_site_occupancy
  Ca  Ca0  1  0.28006400  0.95424800  0.04575200  1
  Ca  Ca1  1  0.71993600  0.04575200  0.95424800  1
  Ca  Ca2  1  0.21993600  0.45424800  0.54575200  1
  Ca  Ca3  1  0.78006400  0.54575200  0.45424800  1
  Ca  Ca4  1  0.75619200  0.15137100  0.59116100  1
  Ca  Ca5  1  0.50127500  0.59116100  0.15137100  1
  Ca  Ca6  1  0.74380800  0.90883900  0.34862900  1
  Ca  Ca7  1  0.99872500  0.34862900  0.90883900  1
  Ca  Ca8  1  0.24380800  0.84862900  0.40883900  1
  Ca  Ca9  1  0.49872500  0.40883900  0.84862900  1
  Ca  Ca10  1  0.25619200  0.09116100  0.65137100  1
  Ca  Ca11  1  0.00127500  0.65137100  0.09116100  1
  Ca  Ca12  1  0.25000000  0.25000000  0.25000000  1
  Ca  Ca13  1  0.75000000  0.75000000  0.75000000  1
  Te  Te14  1  0.75000000  0.25000000  0.25000000  1
  Te  Te15  1  0.25000000  0.75000000  0.75000000  1
  N  N16  1  0.01669500  0.07379700  0.31597500  1
  N  N17  1  0.59353200  0.31597500  0.07379700  1
  N  N18  1  0.48330500  0.18402500  0.42620300  1
  N  N19  1  0.90646800  0.42620300  0.18402500  1
  N  N20  1  0.98330500  0.92620300  0.68402500  1
  N  N21  1  0.40646800  0.68402500  0.92620300  1
  N  N22  1  0.51669500  0.81597500  0.57379700  1
  N  N23  1  0.09353200  0.57379700  0.81597500  1
  N  N24  1  0.89577100  0.34999000  0.65001000  1
  N  N25  1  0.10422900  0.65001000  0.34999000  1
  N  N26  1  0.60422900  0.84999000  0.15001000  1
  N  N27  1  0.39577100  0.15001000  0.84999000  1
