# generated using pymatgen
data_Ca5(ReN3)2
_symmetry_space_group_name_H-M   'P 1'
_cell_length_a   6.04829987
_cell_length_b   6.66607052
_cell_length_c   12.71330436
_cell_angle_alpha   89.99999856
_cell_angle_beta   100.70805216
_cell_angle_gamma   123.44043363
_symmetry_Int_Tables_number   1
_chemical_formula_structural   Ca5(ReN3)2
_chemical_formula_sum   'Ca10 Re4 N12'
_cell_volume   416.98903083
_cell_formula_units_Z   2
loop_
 _symmetry_equiv_pos_site_id
 _symmetry_equiv_pos_as_xyz
  1  'x, y, z'
loop_
 _atom_site_type_symbol
 _atom_site_label
 _atom_site_symmetry_multiplicity
 _atom_site_fract_x
 _atom_site_fract_y
 _atom_site_fract_z
 _atom_site_occupancy
  Ca  Ca0  1  0.00000000  0.37766000  0.75000000  1
  Ca  Ca1  1  0.00000000  0.62234000  0.25000000  1
  Ca  Ca2  1  0.11955700  0.80155600  0.99931200  1
  Ca  Ca3  1  0.88044300  0.68199900  0.50068800  1
  Ca  Ca4  1  0.88044300  0.19844400  0.00068800  1
  Ca  Ca5  1  0.11955700  0.31800100  0.49931200  1
  Ca  Ca6  1  0.31867100  0.05274100  0.71648800  1
  Ca  Ca7  1  0.68132900  0.73406900  0.78351200  1
  Ca  Ca8  1  0.68132900  0.94725900  0.28351200  1
  Ca  Ca9  1  0.31867100  0.26593100  0.21648800  1
  Re  Re10  1  0.53976500  0.86484600  0.55986100  1
  Re  Re11  1  0.46023500  0.32508200  0.94013900  1
  Re  Re12  1  0.46023500  0.13515400  0.44013900  1
  Re  Re13  1  0.53976500  0.67491800  0.05986100  1
  N  N14  1  0.28010400  0.68082800  0.64441700  1
  N  N15  1  0.71989600  0.40072400  0.85558300  1
  N  N16  1  0.71989600  0.31917200  0.35558300  1
  N  N17  1  0.28010400  0.59927600  0.14441700  1
  N  N18  1  0.58710400  0.25819200  0.58634700  1
  N  N19  1  0.41289600  0.67108700  0.91365300  1
  N  N20  1  0.41289600  0.74180800  0.41365300  1
  N  N21  1  0.58710400  0.32891300  0.08634700  1
  N  N22  1  0.91010000  0.99503500  0.62442100  1
  N  N23  1  0.08990000  0.08493600  0.87557900  1
  N  N24  1  0.08990000  0.00496500  0.37557900  1
  N  N25  1  0.91010000  0.91506400  0.12442100  1
