# generated using pymatgen
data_Ru2(CN2)3
_symmetry_space_group_name_H-M   'P 1'
_cell_length_a   10.12649411
_cell_length_b   5.33268218
_cell_length_c   28.91360391
_cell_angle_alpha   89.99999678
_cell_angle_beta   162.16345221
_cell_angle_gamma   74.73383476
_symmetry_Int_Tables_number   1
_chemical_formula_structural   Ru2(CN2)3
_chemical_formula_sum   'Ru4 C6 N12'
_cell_volume   244.35664678
_cell_formula_units_Z   2
loop_
 _symmetry_equiv_pos_site_id
 _symmetry_equiv_pos_as_xyz
  1  'x, y, z'
loop_
 _atom_site_type_symbol
 _atom_site_label
 _atom_site_symmetry_multiplicity
 _atom_site_fract_x
 _atom_site_fract_y
 _atom_site_fract_z
 _atom_site_occupancy
  Ru  Ru0  1  0.95885600  0.00072000  0.15234200  1
  Ru  Ru1  1  0.95885600  0.04042500  0.65234200  1
  Ru  Ru2  1  0.04115300  0.99928200  0.84767900  1
  Ru  Ru3  1  0.04115300  0.95956600  0.34767900  1
  C  C4  1  0.99361800  0.66843300  0.07693100  1
  C  C5  1  0.99998900  0.68484200  0.75000600  1
  C  C6  1  0.00638500  0.66205200  0.42308700  1
  C  C7  1  0.99361800  0.33795000  0.57693100  1
  C  C8  1  0.00638500  0.33156400  0.92308700  1
  C  C9  1  0.99998900  0.31516900  0.25000600  1
  N  N10  1  0.89314300  0.74346500  0.08519300  1
  N  N11  1  0.10919900  0.63321100  0.82886600  1
  N  N12  1  0.96675200  0.64550900  0.45214000  1
  N  N13  1  0.89314300  0.36339100  0.58519300  1
  N  N14  1  0.96675200  0.38773900  0.95214000  1
  N  N15  1  0.10919900  0.25759100  0.32886600  1
  N  N16  1  0.10685000  0.25653400  0.91482300  1
  N  N17  1  0.89078300  0.36680600  0.17114600  1
  N  N18  1  0.03327100  0.35448400  0.54788600  1
  N  N19  1  0.10685000  0.63661600  0.41482300  1
  N  N20  1  0.03327100  0.61224400  0.04788600  1
  N  N21  1  0.89078300  0.74241100  0.67114600  1
