# generated using pymatgen
data_Ca4TeN4
_symmetry_space_group_name_H-M   'P 1'
_cell_length_a   6.15541853
_cell_length_b   6.13042418
_cell_length_c   9.46285778
_cell_angle_alpha   80.54877753
_cell_angle_beta   75.46083497
_cell_angle_gamma   71.13015151
_symmetry_Int_Tables_number   1
_chemical_formula_structural   Ca4TeN4
_chemical_formula_sum   'Ca8 Te2 N8'
_cell_volume   325.72607475
_cell_formula_units_Z   2
loop_
 _symmetry_equiv_pos_site_id
 _symmetry_equiv_pos_as_xyz
  1  'x, y, z'
loop_
 _atom_site_type_symbol
 _atom_site_label
 _atom_site_symmetry_multiplicity
 _atom_site_fract_x
 _atom_site_fract_y
 _atom_site_fract_z
 _atom_site_occupancy
  Ca  Ca0  1  0.76364300  0.56549500  0.19685000  1
  Ca  Ca1  1  0.23635700  0.43450500  0.80315000  1
  Ca  Ca2  1  0.74440900  0.22142500  0.98054100  1
  Ca  Ca3  1  0.25559100  0.77857500  0.01945900  1
  Ca  Ca4  1  0.72718800  0.47527400  0.57053800  1
  Ca  Ca5  1  0.27281200  0.52472600  0.42946200  1
  Ca  Ca6  1  0.24634400  0.98789800  0.56717700  1
  Ca  Ca7  1  0.75365600  0.01210200  0.43282300  1
  Te  Te8  1  0.72390100  0.83113100  0.79842500  1
  Te  Te9  1  0.27609900  0.16886900  0.20157500  1
  N  N10  1  0.97251300  0.73835700  0.61922600  1
  N  N11  1  0.02748700  0.26164300  0.38077400  1
  N  N12  1  0.91941800  0.78172600  0.95223400  1
  N  N13  1  0.08058200  0.21827400  0.04776600  1
  N  N14  1  0.56687100  0.57508500  0.82733300  1
  N  N15  1  0.43312900  0.42491500  0.17266700  1
  N  N16  1  0.55044500  0.75556400  0.40845400  1
  N  N17  1  0.44955500  0.24443600  0.59154600  1
