# generated using pymatgen
data_Pr2Bi
_symmetry_space_group_name_H-M   'P 1'
_cell_length_a   9.72833018
_cell_length_b   9.72833018
_cell_length_c   9.72833018
_cell_angle_alpha   152.22697076
_cell_angle_beta   152.22697076
_cell_angle_gamma   39.68194208
_symmetry_Int_Tables_number   1
_chemical_formula_structural   Pr2Bi
_chemical_formula_sum   'Pr4 Bi2'
_cell_volume   199.53471379
_cell_formula_units_Z   2
loop_
 _symmetry_equiv_pos_site_id
 _symmetry_equiv_pos_as_xyz
  1  'x, y, z'
loop_
 _atom_site_type_symbol
 _atom_site_label
 _atom_site_symmetry_multiplicity
 _atom_site_fract_x
 _atom_site_fract_y
 _atom_site_fract_z
 _atom_site_occupancy
  Pr  Pr0  1  0.00000000  0.50000000  0.50000000  1
  Pr  Pr1  1  0.50000000  0.00000000  0.50000000  1
  Pr  Pr2  1  0.67877700  0.67877700  0.00000000  1
  Pr  Pr3  1  0.32122300  0.32122300  0.00000000  1
  Bi  Bi4  1  0.86109700  0.86109700  0.00000000  1
  Bi  Bi5  1  0.13890300  0.13890300  0.00000000  1
