# generated using pymatgen
data_Sr10MnN8
_symmetry_space_group_name_H-M   'P 1'
_cell_length_a   11.78877718
_cell_length_b   4.86353006
_cell_length_c   8.67750596
_cell_angle_alpha   90.00000150
_cell_angle_beta   65.86133056
_cell_angle_gamma   78.09567345
_symmetry_Int_Tables_number   1
_chemical_formula_structural   Sr10MnN8
_chemical_formula_sum   'Sr10 Mn1 N8'
_cell_volume   442.26964900
_cell_formula_units_Z   1
loop_
 _symmetry_equiv_pos_site_id
 _symmetry_equiv_pos_as_xyz
  1  'x, y, z'
loop_
 _atom_site_type_symbol
 _atom_site_label
 _atom_site_symmetry_multiplicity
 _atom_site_fract_x
 _atom_site_fract_y
 _atom_site_fract_z
 _atom_site_occupancy
  Sr  Sr0  1  0.41173600  0.79413200  0.71037700  1
  Sr  Sr1  1  0.58826400  0.20586800  0.28962300  1
  Sr  Sr2  1  0.05843900  0.97078000  0.77859800  1
  Sr  Sr3  1  0.94156100  0.02922000  0.22140200  1
  Sr  Sr4  1  0.71489800  0.64255200  0.53707300  1
  Sr  Sr5  1  0.28510200  0.35744800  0.46292700  1
  Sr  Sr6  1  0.80796400  0.59601700  0.93756400  1
  Sr  Sr7  1  0.19203600  0.40398300  0.06243600  1
  Sr  Sr8  1  0.39311800  0.80344200  0.13804000  1
  Sr  Sr9  1  0.60688200  0.19655800  0.86196000  1
  Mn  Mn10  1  0.00000000  0.50000000  0.50000000  1
  N  N11  1  0.18469000  0.90765500  0.95776000  1
  N  N12  1  0.81531000  0.09234500  0.04224000  1
  N  N13  1  0.38539500  0.80730200  0.44261900  1
  N  N14  1  0.61460500  0.19269800  0.55738100  1
  N  N15  1  0.61317900  0.69341000  0.86109400  1
  N  N16  1  0.38682100  0.30659000  0.13890600  1
  N  N17  1  0.96258700  0.51870600  0.32733600  1
  N  N18  1  0.03741300  0.48129400  0.67266400  1
