# generated using pymatgen
data_SrOsN2
_symmetry_space_group_name_H-M   'P 1'
_cell_length_a   6.46684039
_cell_length_b   7.75099800
_cell_length_c   5.19401438
_cell_angle_alpha   90.00000000
_cell_angle_beta   109.35054245
_cell_angle_gamma   90.00000000
_symmetry_Int_Tables_number   1
_chemical_formula_structural   SrOsN2
_chemical_formula_sum   'Sr4 Os4 N8'
_cell_volume   245.63993548
_cell_formula_units_Z   4
loop_
 _symmetry_equiv_pos_site_id
 _symmetry_equiv_pos_as_xyz
  1  'x, y, z'
loop_
 _atom_site_type_symbol
 _atom_site_label
 _atom_site_symmetry_multiplicity
 _atom_site_fract_x
 _atom_site_fract_y
 _atom_site_fract_z
 _atom_site_occupancy
  Sr  Sr0  1  0.32673300  0.90328100  0.66581700  1
  Sr  Sr1  1  0.67326700  0.40328100  0.83418300  1
  Sr  Sr2  1  0.67326700  0.09671900  0.33418300  1
  Sr  Sr3  1  0.32673300  0.59671900  0.16581700  1
  Os  Os4  1  0.12434400  0.33608200  0.53765600  1
  Os  Os5  1  0.87565600  0.83608200  0.96234400  1
  Os  Os6  1  0.87565600  0.66391800  0.46234400  1
  Os  Os7  1  0.12434400  0.16391800  0.03765600  1
  N  N8  1  0.19183100  0.90921800  0.10033200  1
  N  N9  1  0.80816900  0.40921800  0.39966800  1
  N  N10  1  0.80816900  0.09078200  0.89966800  1
  N  N11  1  0.19183100  0.59078200  0.60033200  1
  N  N12  1  0.31752300  0.30230700  0.93032600  1
  N  N13  1  0.68247700  0.80230700  0.56967400  1
  N  N14  1  0.68247700  0.69769300  0.06967400  1
  N  N15  1  0.31752300  0.19769300  0.43032600  1
