# generated using pymatgen
data_CsRe2N3
_symmetry_space_group_name_H-M   'P 1'
_cell_length_a   9.51460018
_cell_length_b   14.60185190
_cell_length_c   7.35407451
_cell_angle_alpha   89.99999678
_cell_angle_beta   116.88993756
_cell_angle_gamma   39.88444504
_symmetry_Int_Tables_number   1
_chemical_formula_structural   CsRe2N3
_chemical_formula_sum   'Cs4 Re8 N12'
_cell_volume   464.43869195
_cell_formula_units_Z   4
loop_
 _symmetry_equiv_pos_site_id
 _symmetry_equiv_pos_as_xyz
  1  'x, y, z'
loop_
 _atom_site_type_symbol
 _atom_site_label
 _atom_site_symmetry_multiplicity
 _atom_site_fract_x
 _atom_site_fract_y
 _atom_site_fract_z
 _atom_site_occupancy
  Cs  Cs0  1  0.00000000  0.96619900  0.75000000  1
  Cs  Cs1  1  0.00000000  0.03380100  0.25000000  1
  Cs  Cs2  1  0.00000000  0.48828000  0.75000000  1
  Cs  Cs3  1  0.00000000  0.51172000  0.25000000  1
  Re  Re4  1  0.31345000  0.55362600  0.70775500  1
  Re  Re5  1  0.68655000  0.86707600  0.79224500  1
  Re  Re6  1  0.68655000  0.44637400  0.29224500  1
  Re  Re7  1  0.31345000  0.13292400  0.20775500  1
  Re  Re8  1  0.74837900  0.34714100  0.70597900  1
  Re  Re9  1  0.25162100  0.09552000  0.79402100  1
  Re  Re10  1  0.25162100  0.65285900  0.29402100  1
  Re  Re11  1  0.74837900  0.90448000  0.20597900  1
  N  N12  1  0.34356900  0.53292100  0.00577100  1
  N  N13  1  0.65643100  0.87649100  0.49422900  1
  N  N14  1  0.65643100  0.46707900  0.99422900  1
  N  N15  1  0.34356900  0.12350900  0.50577100  1
  N  N16  1  0.43341700  0.90406300  0.76366300  1
  N  N17  1  0.56658300  0.33748000  0.73633700  1
  N  N18  1  0.56658300  0.09593700  0.23633700  1
  N  N19  1  0.43341700  0.66252000  0.26366300  1
  N  N20  1  0.13883800  0.23286200  0.52285900  1
  N  N21  1  0.86116300  0.37169900  0.97714100  1
  N  N22  1  0.86116300  0.76713800  0.47714100  1
  N  N23  1  0.13883800  0.62830100  0.02285900  1
