# generated using pymatgen
data_Zn2Si5N8
_symmetry_space_group_name_H-M   'P 1'
_cell_length_a   10.71704922
_cell_length_b   9.83299968
_cell_length_c   13.48796478
_cell_angle_alpha   90.00000000
_cell_angle_beta   90.00000000
_cell_angle_gamma   90.00000000
_symmetry_Int_Tables_number   1
_chemical_formula_structural   Zn2Si5N8
_chemical_formula_sum   'Zn16 Si40 N64'
_cell_volume   1421.37173053
_cell_formula_units_Z   8
loop_
 _symmetry_equiv_pos_site_id
 _symmetry_equiv_pos_as_xyz
  1  'x, y, z'
loop_
 _atom_site_type_symbol
 _atom_site_label
 _atom_site_symmetry_multiplicity
 _atom_site_fract_x
 _atom_site_fract_y
 _atom_site_fract_z
 _atom_site_occupancy
  Zn  Zn0  1  0.07921277  0.13365218  0.01888658  1
  Zn  Zn1  1  0.57921277  0.36634782  0.98111342  1
  Zn  Zn2  1  0.92078723  0.63365218  0.48111342  1
  Zn  Zn3  1  0.42078723  0.86634782  0.51888658  1
  Zn  Zn4  1  0.92078723  0.86634782  0.98111342  1
  Zn  Zn5  1  0.42078723  0.63365218  0.01888658  1
  Zn  Zn6  1  0.07921277  0.36634782  0.51888658  1
  Zn  Zn7  1  0.57921277  0.13365218  0.48111342  1
  Zn  Zn8  1  0.34861974  0.09317265  0.04325839  1
  Zn  Zn9  1  0.84861974  0.40682735  0.95674161  1
  Zn  Zn10  1  0.65138026  0.59317265  0.45674161  1
  Zn  Zn11  1  0.15138026  0.90682735  0.54325839  1
  Zn  Zn12  1  0.65138026  0.90682735  0.95674161  1
  Zn  Zn13  1  0.15138026  0.59317265  0.04325839  1
  Zn  Zn14  1  0.34861974  0.40682735  0.54325839  1
  Zn  Zn15  1  0.84861974  0.09317265  0.45674161  1
  Si  Si16  1  0.39791543  0.23615902  0.83862437  1
  Si  Si17  1  0.89791543  0.26384098  0.16137563  1
  Si  Si18  1  0.60208457  0.73615902  0.66137563  1
  Si  Si19  1  0.10208457  0.76384098  0.33862437  1
  Si  Si20  1  0.60208457  0.76384098  0.16137563  1
  Si  Si21  1  0.10208457  0.73615902  0.83862437  1
  Si  Si22  1  0.39791543  0.26384098  0.33862437  1
  Si  Si23  1  0.89791543  0.23615902  0.66137563  1
  Si  Si24  1  0.16314143  0.23920269  0.72091882  1
  Si  Si25  1  0.66314143  0.26079731  0.27908118  1
  Si  Si26  1  0.83685857  0.73920269  0.77908118  1
  Si  Si27  1  0.33685857  0.76079731  0.22091882  1
  Si  Si28  1  0.83685857  0.76079731  0.27908118  1
  Si  Si29  1  0.33685857  0.73920269  0.72091882  1
  Si  Si30  1  0.16314143  0.26079731  0.22091882  1
  Si  Si31  1  0.66314143  0.23920269  0.77908118  1
  Si  Si32  1  0.25385672  0.97975140  0.83688448  1
  Si  Si33  1  0.75385672  0.52024860  0.16311552  1
  Si  Si34  1  0.74614328  0.47975140  0.66311552  1
  Si  Si35  1  0.24614328  0.02024860  0.33688448  1
  Si  Si36  1  0.74614328  0.02024860  0.16311552  1
  Si  Si37  1  0.24614328  0.47975140  0.83688448  1
  Si  Si38  1  0.25385672  0.52024860  0.33688448  1
  Si  Si39  1  0.75385672  0.97975140  0.66311552  1
  Si  Si40  1  0.98371855  0.00515520  0.78551938  1
  Si  Si41  1  0.48371855  0.49484480  0.21448062  1
  Si  Si42  1  0.01628145  0.50515520  0.71448062  1
  Si  Si43  1  0.51628145  0.99484480  0.28551938  1
  Si  Si44  1  0.01628145  0.99484480  0.21448062  1
  Si  Si45  1  0.51628145  0.50515520  0.78551938  1
  Si  Si46  1  0.98371855  0.49484480  0.28551938  1
  Si  Si47  1  0.48371855  0.00515520  0.71448062  1
  Si  Si48  1  0.82547533  0.14456545  0.96239640  1
  Si  Si49  1  0.32547533  0.35543455  0.03760360  1
  Si  Si50  1  0.17452467  0.64456545  0.53760360  1
  Si  Si51  1  0.67452467  0.85543455  0.46239640  1
  Si  Si52  1  0.17452467  0.85543455  0.03760360  1
  Si  Si53  1  0.67452467  0.64456545  0.96239640  1
  Si  Si54  1  0.82547533  0.35543455  0.46239640  1
  Si  Si55  1  0.32547533  0.14456545  0.53760360  1
  N  N56  1  0.92076936  0.25369949  0.03467042  1
  N  N57  1  0.42076936  0.24630051  0.96532958  1
  N  N58  1  0.07923064  0.75369949  0.46532958  1
  N  N59  1  0.57923064  0.74630051  0.53467042  1
  N  N60  1  0.07923064  0.74630051  0.96532958  1
  N  N61  1  0.57923064  0.75369949  0.03467042  1
  N  N62  1  0.92076936  0.24630051  0.53467042  1
  N  N63  1  0.42076936  0.25369949  0.46532958  1
  N  N64  1  0.93858161  0.04889763  0.90295098  1
  N  N65  1  0.43858161  0.45110237  0.09704902  1
  N  N66  1  0.06141839  0.54889763  0.59704902  1
  N  N67  1  0.56141839  0.95110237  0.40295098  1
  N  N68  1  0.06141839  0.95110237  0.09704902  1
  N  N69  1  0.56141839  0.54889763  0.90295098  1
  N  N70  1  0.93858161  0.45110237  0.40295098  1
  N  N71  1  0.43858161  0.04889763  0.59704902  1
  N  N72  1  0.72981924  0.26014174  0.89699192  1
  N  N73  1  0.22981924  0.23985826  0.10300808  1
  N  N74  1  0.27018076  0.76014174  0.60300808  1
  N  N75  1  0.77018076  0.73985826  0.39699192  1
  N  N76  1  0.27018076  0.73985826  0.10300808  1
  N  N77  1  0.77018076  0.76014174  0.89699192  1
  N  N78  1  0.72981924  0.23985826  0.39699192  1
  N  N79  1  0.22981924  0.26014174  0.60300808  1
  N  N80  1  0.26121999  0.96301225  0.96381890  1
  N  N81  1  0.76121999  0.53698775  0.03618110  1
  N  N82  1  0.73878001  0.46301225  0.53618110  1
  N  N83  1  0.23878001  0.03698775  0.46381890  1
  N  N84  1  0.73878001  0.03698775  0.03618110  1
  N  N85  1  0.23878001  0.46301225  0.96381890  1
  N  N86  1  0.26121999  0.53698775  0.46381890  1
  N  N87  1  0.76121999  0.96301225  0.53618110  1
  N  N88  1  0.02269886  0.14681091  0.71218192  1
  N  N89  1  0.52269886  0.35318909  0.28781808  1
  N  N90  1  0.97730114  0.64681091  0.78781808  1
  N  N91  1  0.47730114  0.85318909  0.21218192  1
  N  N92  1  0.97730114  0.85318909  0.28781808  1
  N  N93  1  0.47730114  0.64681091  0.71218192  1
  N  N94  1  0.02269886  0.35318909  0.21218192  1
  N  N95  1  0.52269886  0.14681091  0.78781808  1
  N  N96  1  0.37307901  0.89979763  0.77141217  1
  N  N97  1  0.87307901  0.60020237  0.22858783  1
  N  N98  1  0.62692099  0.39979763  0.72858783  1
  N  N99  1  0.12692099  0.10020237  0.27141217  1
  N  N100  1  0.62692099  0.10020237  0.22858783  1
  N  N101  1  0.12692099  0.39979763  0.77141217  1
  N  N102  1  0.37307901  0.60020237  0.27141217  1
  N  N103  1  0.87307901  0.89979763  0.72858783  1
  N  N104  1  0.26015376  0.15283694  0.80442136  1
  N  N105  1  0.76015376  0.34716306  0.19557864  1
  N  N106  1  0.73984624  0.65283694  0.69557864  1
  N  N107  1  0.23984624  0.84716306  0.30442136  1
  N  N108  1  0.73984624  0.84716306  0.19557864  1
  N  N109  1  0.23984624  0.65283694  0.80442136  1
  N  N110  1  0.26015376  0.34716306  0.30442136  1
  N  N111  1  0.76015376  0.15283694  0.69557864  1
  N  N112  1  0.11666261  0.90338235  0.79504796  1
  N  N113  1  0.61666261  0.59661765  0.20495204  1
  N  N114  1  0.88333739  0.40338235  0.70495204  1
  N  N115  1  0.38333739  0.09661765  0.29504796  1
  N  N116  1  0.88333739  0.09661765  0.20495204  1
  N  N117  1  0.38333739  0.40338235  0.79504796  1
  N  N118  1  0.11666261  0.59661765  0.29504796  1
  N  N119  1  0.61666261  0.90338235  0.70495204  1
