# generated using pymatgen
data_ZrCrAgS4
_symmetry_space_group_name_H-M   'P 1'
_cell_length_a   7.16964530
_cell_length_b   13.27991121
_cell_length_c   6.16720396
_cell_angle_alpha   90.14059443
_cell_angle_beta   90.06844388
_cell_angle_gamma   89.87753868
_symmetry_Int_Tables_number   1
_chemical_formula_structural   ZrCrAgS4
_chemical_formula_sum   'Zr4 Cr4 Ag4 S16'
_cell_volume   587.18985989
_cell_formula_units_Z   4
loop_
 _symmetry_equiv_pos_site_id
 _symmetry_equiv_pos_as_xyz
  1  'x, y, z'
loop_
 _atom_site_type_symbol
 _atom_site_label
 _atom_site_symmetry_multiplicity
 _atom_site_fract_x
 _atom_site_fract_y
 _atom_site_fract_z
 _atom_site_occupancy
  Zr  Zr0  1  0.51816800  0.74610400  0.00213300  1
  Zr  Zr1  1  0.25133400  0.24948000  0.49960100  1
  Zr  Zr2  1  0.74890600  0.24945100  0.49925600  1
  Zr  Zr3  1  0.23131800  0.75319200  0.50225800  1
  Cr  Cr4  1  0.00006000  0.24681200  0.99924300  1
  Cr  Cr5  1  0.99893400  0.75383500  0.99832900  1
  Cr  Cr6  1  0.49995500  0.25256900  0.00096500  1
  Cr  Cr7  1  0.75156400  0.75057600  0.49720300  1
  Ag  Ag8  1  0.00157800  0.00401800  0.34901700  1
  Ag  Ag9  1  0.50004800  0.49553900  0.66103700  1
  Ag  Ag10  1  0.99542200  0.50041000  0.02305400  1
  Ag  Ag11  1  0.50382100  0.99421600  0.97992000  1
  S  S12  1  0.25115700  0.35637900  0.85110000  1
  S  S13  1  0.76685300  0.64319000  0.81427300  1
  S  S14  1  0.75032200  0.14378300  0.14698800  1
  S  S15  1  0.23982200  0.86017500  0.15401700  1
  S  S16  1  0.25023000  0.14395400  0.14729000  1
  S  S17  1  0.76528700  0.85785300  0.18083500  1
  S  S18  1  0.74794700  0.35641300  0.85117500  1
  S  S19  1  0.23972200  0.64140000  0.84286000  1
  S  S20  1  0.00061000  0.13956400  0.67774400  1
  S  S21  1  0.98008600  0.85718700  0.67686400  1
  S  S22  1  0.49940300  0.35999400  0.32177300  1
  S  S23  1  0.51143800  0.64153600  0.34821400  1
  S  S24  1  0.99949500  0.35720300  0.31871300  1
  S  S25  1  0.98564900  0.64754200  0.31553000  1
  S  S26  1  0.50058400  0.14179300  0.68200400  1
  S  S27  1  0.51029200  0.85583000  0.65860700  1
