# generated using pymatgen
data_Mg2Sc3MnS8
_symmetry_space_group_name_H-M   'P 1'
_cell_length_a   7.52845767
_cell_length_b   7.47838708
_cell_length_c   7.53267421
_cell_angle_alpha   59.84947479
_cell_angle_beta   59.87627726
_cell_angle_gamma   59.90651194
_symmetry_Int_Tables_number   1
_chemical_formula_structural   Mg2Sc3MnS8
_chemical_formula_sum   'Mg2 Sc3 Mn1 S8'
_cell_volume   299.04623372
_cell_formula_units_Z   1
loop_
 _symmetry_equiv_pos_site_id
 _symmetry_equiv_pos_as_xyz
  1  'x, y, z'
loop_
 _atom_site_type_symbol
 _atom_site_label
 _atom_site_symmetry_multiplicity
 _atom_site_fract_x
 _atom_site_fract_y
 _atom_site_fract_z
 _atom_site_occupancy
  Mg  Mg0  1  0.87512700  0.87444000  0.87533700  1
  Mg  Mg1  1  0.12488900  0.12556700  0.12463400  1
  Sc  Sc2  1  0.50005600  0.49994800  0.50000300  1
  Sc  Sc3  1  0.50005100  0.49999400  0.00003300  1
  Sc  Sc4  1  0.99999700  0.50000600  0.49995600  1
  Mn  Mn5  1  0.49988300  0.99998600  0.50014500  1
  S  S6  1  0.73651800  0.75052800  0.73637300  1
  S  S7  1  0.26433600  0.24828600  0.72267300  1
  S  S8  1  0.25809100  0.72663200  0.25779400  1
  S  S9  1  0.72227900  0.24770300  0.26487200  1
  S  S10  1  0.74190100  0.27337300  0.74217700  1
  S  S11  1  0.27772600  0.75230900  0.73509100  1
  S  S12  1  0.26349200  0.24949000  0.26359500  1
  S  S13  1  0.73566000  0.75173200  0.27731900  1
