# generated using pymatgen
data_Mn3(SiN3)2
_symmetry_space_group_name_H-M   'P 1'
_cell_length_a   9.89188689
_cell_length_b   7.28227169
_cell_length_c   9.83515627
_cell_angle_alpha   90.00000000
_cell_angle_beta   90.00000000
_cell_angle_gamma   90.00000000
_symmetry_Int_Tables_number   1
_chemical_formula_structural   Mn3(SiN3)2
_chemical_formula_sum   'Mn18 Si12 N36'
_cell_volume   708.47949327
_cell_formula_units_Z   6
loop_
 _symmetry_equiv_pos_site_id
 _symmetry_equiv_pos_as_xyz
  1  'x, y, z'
loop_
 _atom_site_type_symbol
 _atom_site_label
 _atom_site_symmetry_multiplicity
 _atom_site_fract_x
 _atom_site_fract_y
 _atom_site_fract_z
 _atom_site_occupancy
  Mn  Mn0  1  0.79028264  0.04291886  0.78059480  1
  Mn  Mn1  1  0.20971736  0.95708114  0.78059480  1
  Mn  Mn2  1  0.29028264  0.45708114  0.71940520  1
  Mn  Mn3  1  0.70971736  0.54291886  0.71940520  1
  Mn  Mn4  1  0.20971736  0.95708114  0.21940520  1
  Mn  Mn5  1  0.79028264  0.04291886  0.21940520  1
  Mn  Mn6  1  0.70971736  0.54291886  0.28059480  1
  Mn  Mn7  1  0.29028264  0.45708114  0.28059480  1
  Mn  Mn8  1  0.00000000  0.50000000  0.00000000  1
  Mn  Mn9  1  0.50000000  -0.00000000  0.50000000  1
  Mn  Mn10  1  0.00000000  -0.00000000  0.50000000  1
  Mn  Mn11  1  0.50000000  0.50000000  0.00000000  1
  Mn  Mn12  1  0.50000000  0.50000000  0.50000000  1
  Mn  Mn13  1  0.00000000  0.00000000  0.00000000  1
  Mn  Mn14  1  0.29087805  0.22432601  0.50000000  1
  Mn  Mn15  1  0.70912195  0.77567399  0.50000000  1
  Mn  Mn16  1  0.79087805  0.27567399  0.00000000  1
  Mn  Mn17  1  0.20912195  0.72432601  0.00000000  1
  Si  Si18  1  0.51546672  0.22335946  0.76856820  1
  Si  Si19  1  0.48453328  0.77664054  0.76856820  1
  Si  Si20  1  0.01546672  0.27664054  0.73143180  1
  Si  Si21  1  0.98453328  0.72335946  0.73143180  1
  Si  Si22  1  0.48453328  0.77664054  0.23143180  1
  Si  Si23  1  0.51546672  0.22335946  0.23143180  1
  Si  Si24  1  0.98453328  0.72335946  0.26856820  1
  Si  Si25  1  0.01546672  0.27664054  0.26856820  1
  Si  Si26  1  0.78436497  0.22623064  0.50000000  1
  Si  Si27  1  0.21563503  0.77376936  0.50000000  1
  Si  Si28  1  0.28436497  0.27376936  0.00000000  1
  Si  Si29  1  0.71563503  0.72623064  0.00000000  1
  N  N30  1  0.71238392  0.44290647  0.50000000  1
  N  N31  1  0.28761608  0.55709353  0.50000000  1
  N  N32  1  0.21238392  0.05709353  0.00000000  1
  N  N33  1  0.78761608  0.94290647  0.00000000  1
  N  N34  1  0.68347408  0.03443082  0.50000000  1
  N  N35  1  0.31652592  0.96556918  0.50000000  1
  N  N36  1  0.18347408  0.46556918  0.00000000  1
  N  N37  1  0.81652592  0.53443082  0.00000000  1
  N  N38  1  0.89961384  0.16652849  0.62738501  1
  N  N39  1  0.10038616  0.83347151  0.62738501  1
  N  N40  1  0.39961384  0.33347151  0.87261499  1
  N  N41  1  0.60038616  0.66652849  0.87261499  1
  N  N42  1  0.10038616  0.83347151  0.37261499  1
  N  N43  1  0.89961384  0.16652849  0.37261499  1
  N  N44  1  0.60038616  0.66652849  0.12738501  1
  N  N45  1  0.39961384  0.33347151  0.12738501  1
  N  N46  1  0.17853591  0.21206154  0.68587811  1
  N  N47  1  0.82146409  0.78793846  0.68587811  1
  N  N48  1  0.67853591  0.28793846  0.81412189  1
  N  N49  1  0.32146409  0.71206154  0.81412189  1
  N  N50  1  0.82146409  0.78793846  0.31412189  1
  N  N51  1  0.17853591  0.21206154  0.31412189  1
  N  N52  1  0.32146409  0.71206154  0.18587811  1
  N  N53  1  0.67853591  0.28793846  0.18587811  1
  N  N54  1  0.93852959  0.18424003  0.87659765  1
  N  N55  1  0.06147041  0.81575997  0.87659765  1
  N  N56  1  0.43852959  0.31575997  0.62340235  1
  N  N57  1  0.56147041  0.68424003  0.62340235  1
  N  N58  1  0.06147041  0.81575997  0.12340235  1
  N  N59  1  0.93852959  0.18424003  0.12340235  1
  N  N60  1  0.56147041  0.68424003  0.37659765  1
  N  N61  1  0.43852959  0.31575997  0.37659765  1
  N  N62  1  0.00000000  0.50000000  0.76512196  1
  N  N63  1  0.50000000  0.00000000  0.73487804  1
  N  N64  1  0.00000000  0.50000000  0.23487804  1
  N  N65  1  0.50000000  -0.00000000  0.26512196  1
