# generated using pymatgen
data_Ba2SbN3
_symmetry_space_group_name_H-M   'P 1'
_cell_length_a   6.85177650
_cell_length_b   12.22632282
_cell_length_c   13.22388924
_cell_angle_alpha   89.99999907
_cell_angle_beta   90.01445208
_cell_angle_gamma   153.15112188
_symmetry_Int_Tables_number   1
_chemical_formula_structural   Ba2SbN3
_chemical_formula_sum   'Ba8 Sb4 N12'
_cell_volume   500.32183132
_cell_formula_units_Z   4
loop_
 _symmetry_equiv_pos_site_id
 _symmetry_equiv_pos_as_xyz
  1  'x, y, z'
loop_
 _atom_site_type_symbol
 _atom_site_label
 _atom_site_symmetry_multiplicity
 _atom_site_fract_x
 _atom_site_fract_y
 _atom_site_fract_z
 _atom_site_occupancy
  Ba  Ba0  1  0.49985900  0.04646900  0.85715000  1
  Ba  Ba1  1  0.50014100  0.54661100  0.64285000  1
  Ba  Ba2  1  0.50014100  0.95353100  0.14285000  1
  Ba  Ba3  1  0.49985900  0.45338900  0.35715000  1
  Ba  Ba4  1  0.50038100  0.86547800  0.57657200  1
  Ba  Ba5  1  0.49961900  0.36509700  0.92342800  1
  Ba  Ba6  1  0.49961900  0.13452200  0.42342800  1
  Ba  Ba7  1  0.50038100  0.63490300  0.07657200  1
  Sb  Sb8  1  0.50054600  0.24610200  0.66333100  1
  Sb  Sb9  1  0.49945400  0.74555700  0.83666900  1
  Sb  Sb10  1  0.49945400  0.75389800  0.33666900  1
  Sb  Sb11  1  0.50054600  0.25444300  0.16333100  1
  N  N12  1  0.00000000  0.55592100  0.75000000  1
  N  N13  1  0.00000000  0.44407900  0.25000000  1
  N  N14  1  0.50205200  0.08409800  0.64195100  1
  N  N15  1  0.49794800  0.58204600  0.85804900  1
  N  N16  1  0.49794800  0.91590200  0.35804900  1
  N  N17  1  0.50205200  0.41795400  0.14195100  1
  N  N18  1  0.49937600  0.15431900  0.04221500  1
  N  N19  1  0.50062400  0.65494300  0.45778500  1
  N  N20  1  0.50062400  0.84568100  0.95778500  1
  N  N21  1  0.49937600  0.34505700  0.54221500  1
  N  N22  1  0.00000000  0.05498000  0.75000000  1
  N  N23  1  0.00000000  0.94502000  0.25000000  1
