# generated using pymatgen
data_SrV7N10
_symmetry_space_group_name_H-M   'P 1'
_cell_length_a   7.37074172
_cell_length_b   7.01154600
_cell_length_c   10.35405748
_cell_angle_alpha   90.00000000
_cell_angle_beta   105.32742182
_cell_angle_gamma   90.00000000
_symmetry_Int_Tables_number   1
_chemical_formula_structural   SrV7N10
_chemical_formula_sum   'Sr2 V14 N20'
_cell_volume   516.06775220
_cell_formula_units_Z   2
loop_
 _symmetry_equiv_pos_site_id
 _symmetry_equiv_pos_as_xyz
  1  'x, y, z'
loop_
 _atom_site_type_symbol
 _atom_site_label
 _atom_site_symmetry_multiplicity
 _atom_site_fract_x
 _atom_site_fract_y
 _atom_site_fract_z
 _atom_site_occupancy
  Sr  Sr0  1  0.92633100  0.03349900  0.59245200  1
  Sr  Sr1  1  0.92633100  0.96650100  0.09245200  1
  V  V2  1  0.53973100  0.01239700  0.82853500  1
  V  V3  1  0.53973100  0.98760300  0.32853500  1
  V  V4  1  0.35990500  0.02618500  0.01844000  1
  V  V5  1  0.35990500  0.97381500  0.51844000  1
  V  V6  1  0.10346300  0.40994800  0.08089900  1
  V  V7  1  0.10346300  0.59005200  0.58089900  1
  V  V8  1  0.67600700  0.37663200  0.98769400  1
  V  V9  1  0.67600700  0.62336800  0.48769400  1
  V  V10  1  0.85969500  0.64895300  0.81330600  1
  V  V11  1  0.85969500  0.35104700  0.31330600  1
  V  V12  1  0.29506600  0.63185800  0.89951200  1
  V  V13  1  0.29506600  0.36814200  0.39951200  1
  V  V14  1  0.47437400  0.38578200  0.69185600  1
  V  V15  1  0.47437400  0.61421800  0.19185600  1
  N  N16  1  0.75191100  0.87201900  0.83886400  1
  N  N17  1  0.75191100  0.12798100  0.33886400  1
  N  N18  1  0.57601700  0.14041900  0.99724300  1
  N  N19  1  0.57601700  0.85958100  0.49724300  1
  N  N20  1  0.33564500  0.87953100  0.86158800  1
  N  N21  1  0.33564500  0.12046900  0.36158800  1
  N  N22  1  0.16801100  0.18701300  0.01797500  1
  N  N23  1  0.16801100  0.81298700  0.51797500  1
  N  N24  1  0.27928500  0.51049000  0.73765200  1
  N  N25  1  0.27928500  0.48951000  0.23765200  1
  N  N26  1  0.41420500  0.13133000  0.66781700  1
  N  N27  1  0.41420500  0.86867000  0.16781700  1
  N  N28  1  0.89160400  0.34376100  0.13589300  1
  N  N29  1  0.89160400  0.65623900  0.63589300  1
  N  N30  1  0.07368300  0.61919500  0.95678700  1
  N  N31  1  0.07368300  0.38080500  0.45678700  1
  N  N32  1  0.69850500  0.45105800  0.81565500  1
  N  N33  1  0.69850500  0.54894200  0.31565500  1
  N  N34  1  0.51886300  0.55330700  0.02713000  1
  N  N35  1  0.51886300  0.44669300  0.52713000  1
