# generated using pymatgen
data_SrCa2N2
_symmetry_space_group_name_H-M   'P 1'
_cell_length_a   3.49331400
_cell_length_b   3.77413000
_cell_length_c   14.45903900
_cell_angle_alpha   90.00000000
_cell_angle_beta   90.00000000
_cell_angle_gamma   90.00000000
_symmetry_Int_Tables_number   1
_chemical_formula_structural   SrCa2N2
_chemical_formula_sum   'Sr2 Ca4 N4'
_cell_volume   190.63116804
_cell_formula_units_Z   2
loop_
 _symmetry_equiv_pos_site_id
 _symmetry_equiv_pos_as_xyz
  1  'x, y, z'
loop_
 _atom_site_type_symbol
 _atom_site_label
 _atom_site_symmetry_multiplicity
 _atom_site_fract_x
 _atom_site_fract_y
 _atom_site_fract_z
 _atom_site_occupancy
  Sr  Sr0  1  0.53635100  0.25000000  0.25000000  1
  Sr  Sr1  1  0.46364900  0.75000000  0.75000000  1
  Ca  Ca2  1  0.23621000  0.25000000  0.93171300  1
  Ca  Ca3  1  0.23621000  0.25000000  0.56828700  1
  Ca  Ca4  1  0.76379000  0.75000000  0.06828700  1
  Ca  Ca5  1  0.76379000  0.75000000  0.43171300  1
  N  N6  1  0.19200100  0.25000000  0.39875700  1
  N  N7  1  0.19200100  0.25000000  0.10124300  1
  N  N8  1  0.80799900  0.75000000  0.60124300  1
  N  N9  1  0.80799900  0.75000000  0.89875700  1
