# generated using pymatgen
data_Cd2Si5N8
_symmetry_space_group_name_H-M   'P 1'
_cell_length_a   10.71343029
_cell_length_b   9.67509717
_cell_length_c   13.61881982
_cell_angle_alpha   90.00000000
_cell_angle_beta   90.00000000
_cell_angle_gamma   90.00000000
_symmetry_Int_Tables_number   1
_chemical_formula_structural   Cd2Si5N8
_chemical_formula_sum   'Cd16 Si40 N64'
_cell_volume   1411.63805530
_cell_formula_units_Z   8
loop_
 _symmetry_equiv_pos_site_id
 _symmetry_equiv_pos_as_xyz
  1  'x, y, z'
loop_
 _atom_site_type_symbol
 _atom_site_label
 _atom_site_symmetry_multiplicity
 _atom_site_fract_x
 _atom_site_fract_y
 _atom_site_fract_z
 _atom_site_occupancy
  Cd  Cd0  1  0.10481164  0.13943328  0.00203354  1
  Cd  Cd1  1  0.60481164  0.36056672  0.99796646  1
  Cd  Cd2  1  0.89518836  0.63943328  0.49796646  1
  Cd  Cd3  1  0.39518836  0.86056672  0.50203354  1
  Cd  Cd4  1  0.89518836  0.86056672  0.99796646  1
  Cd  Cd5  1  0.39518836  0.63943328  0.00203354  1
  Cd  Cd6  1  0.10481164  0.36056672  0.50203354  1
  Cd  Cd7  1  0.60481164  0.13943328  0.49796646  1
  Cd  Cd8  1  0.38837743  0.04490855  0.07992228  1
  Cd  Cd9  1  0.88837743  0.45509145  0.92007772  1
  Cd  Cd10  1  0.61162257  0.54490855  0.42007772  1
  Cd  Cd11  1  0.11162257  0.95509145  0.57992228  1
  Cd  Cd12  1  0.61162257  0.95509145  0.92007772  1
  Cd  Cd13  1  0.11162257  0.54490855  0.07992228  1
  Cd  Cd14  1  0.38837743  0.45509145  0.57992228  1
  Cd  Cd15  1  0.88837743  0.04490855  0.42007772  1
  Si  Si16  1  0.40226465  0.21889068  0.84945712  1
  Si  Si17  1  0.90226465  0.28110932  0.15054288  1
  Si  Si18  1  0.59773535  0.71889068  0.65054288  1
  Si  Si19  1  0.09773535  0.78110932  0.34945712  1
  Si  Si20  1  0.59773535  0.78110932  0.15054288  1
  Si  Si21  1  0.09773535  0.71889068  0.84945712  1
  Si  Si22  1  0.40226465  0.28110932  0.34945712  1
  Si  Si23  1  0.90226465  0.21889068  0.65054288  1
  Si  Si24  1  0.16935122  0.22827349  0.72424948  1
  Si  Si25  1  0.66935122  0.27172651  0.27575052  1
  Si  Si26  1  0.83064878  0.72827349  0.77575052  1
  Si  Si27  1  0.33064878  0.77172651  0.22424948  1
  Si  Si28  1  0.83064878  0.77172651  0.27575052  1
  Si  Si29  1  0.33064878  0.72827349  0.72424948  1
  Si  Si30  1  0.16935122  0.27172651  0.22424948  1
  Si  Si31  1  0.66935122  0.22827349  0.77575052  1
  Si  Si32  1  0.25295114  0.96284569  0.84432547  1
  Si  Si33  1  0.75295114  0.53715431  0.15567453  1
  Si  Si34  1  0.74704886  0.46284569  0.65567453  1
  Si  Si35  1  0.24704886  0.03715431  0.34432547  1
  Si  Si36  1  0.74704886  0.03715431  0.15567453  1
  Si  Si37  1  0.24704886  0.46284569  0.84432547  1
  Si  Si38  1  0.25295114  0.53715431  0.34432547  1
  Si  Si39  1  0.75295114  0.96284569  0.65567453  1
  Si  Si40  1  0.98247972  0.99290864  0.78579243  1
  Si  Si41  1  0.48247972  0.50709136  0.21420757  1
  Si  Si42  1  0.01752028  0.49290864  0.71420757  1
  Si  Si43  1  0.51752028  0.00709136  0.28579243  1
  Si  Si44  1  0.01752028  0.00709136  0.21420757  1
  Si  Si45  1  0.51752028  0.49290864  0.78579243  1
  Si  Si46  1  0.98247972  0.50709136  0.28579243  1
  Si  Si47  1  0.48247972  0.99290864  0.71420757  1
  Si  Si48  1  0.83467642  0.16052371  0.95651357  1
  Si  Si49  1  0.33467642  0.33947629  0.04348643  1
  Si  Si50  1  0.16532358  0.66052371  0.54348643  1
  Si  Si51  1  0.66532358  0.83947629  0.45651357  1
  Si  Si52  1  0.16532358  0.83947629  0.04348643  1
  Si  Si53  1  0.66532358  0.66052371  0.95651357  1
  Si  Si54  1  0.83467642  0.33947629  0.45651357  1
  Si  Si55  1  0.33467642  0.16052371  0.54348643  1
  N  N56  1  0.92580424  0.27528442  0.02665046  1
  N  N57  1  0.42580424  0.22471558  0.97334954  1
  N  N58  1  0.07419576  0.77528442  0.47334954  1
  N  N59  1  0.57419576  0.72471558  0.52665046  1
  N  N60  1  0.07419576  0.72471558  0.97334954  1
  N  N61  1  0.57419576  0.77528442  0.02665046  1
  N  N62  1  0.92580424  0.22471558  0.52665046  1
  N  N63  1  0.42580424  0.27528442  0.47334954  1
  N  N64  1  0.94053114  0.05913719  0.89483706  1
  N  N65  1  0.44053114  0.44086281  0.10516294  1
  N  N66  1  0.05946886  0.55913719  0.60516294  1
  N  N67  1  0.55946886  0.94086281  0.39483706  1
  N  N68  1  0.05946886  0.94086281  0.10516294  1
  N  N69  1  0.55946886  0.55913719  0.89483706  1
  N  N70  1  0.94053114  0.44086281  0.39483706  1
  N  N71  1  0.44053114  0.05913719  0.60516294  1
  N  N72  1  0.74096644  0.26471088  0.88494471  1
  N  N73  1  0.24096644  0.23528912  0.11505529  1
  N  N74  1  0.25903356  0.76471088  0.61505529  1
  N  N75  1  0.75903356  0.73528912  0.38494471  1
  N  N76  1  0.25903356  0.73528912  0.11505529  1
  N  N77  1  0.75903356  0.76471088  0.88494471  1
  N  N78  1  0.74096644  0.23528912  0.38494471  1
  N  N79  1  0.24096644  0.26471088  0.61505529  1
  N  N80  1  0.25675136  0.94572352  0.96906187  1
  N  N81  1  0.75675136  0.55427648  0.03093813  1
  N  N82  1  0.74324864  0.44572352  0.53093813  1
  N  N83  1  0.24324864  0.05427648  0.46906187  1
  N  N84  1  0.74324864  0.05427648  0.03093813  1
  N  N85  1  0.24324864  0.44572352  0.96906187  1
  N  N86  1  0.25675136  0.55427648  0.46906187  1
  N  N87  1  0.75675136  0.94572352  0.53093813  1
  N  N88  1  0.03197824  0.12368585  0.70049247  1
  N  N89  1  0.53197824  0.37631415  0.29950753  1
  N  N90  1  0.96802176  0.62368585  0.79950753  1
  N  N91  1  0.46802176  0.87631415  0.20049247  1
  N  N92  1  0.96802176  0.87631415  0.29950753  1
  N  N93  1  0.46802176  0.62368585  0.70049247  1
  N  N94  1  0.03197824  0.37631415  0.20049247  1
  N  N95  1  0.53197824  0.12368585  0.79950753  1
  N  N96  1  0.37634774  0.88575850  0.77820702  1
  N  N97  1  0.87634774  0.61424150  0.22179298  1
  N  N98  1  0.62365226  0.38575850  0.72179298  1
  N  N99  1  0.12365226  0.11424150  0.27820702  1
  N  N100  1  0.62365226  0.11424150  0.22179298  1
  N  N101  1  0.12365226  0.38575850  0.77820702  1
  N  N102  1  0.37634774  0.61424150  0.27820702  1
  N  N103  1  0.87634774  0.88575850  0.72179298  1
  N  N104  1  0.26183339  0.13867416  0.81087815  1
  N  N105  1  0.76183339  0.36132584  0.18912185  1
  N  N106  1  0.73816661  0.63867416  0.68912185  1
  N  N107  1  0.23816661  0.86132584  0.31087815  1
  N  N108  1  0.73816661  0.86132584  0.18912185  1
  N  N109  1  0.23816661  0.63867416  0.81087815  1
  N  N110  1  0.26183339  0.36132584  0.31087815  1
  N  N111  1  0.76183339  0.13867416  0.68912185  1
  N  N112  1  0.11344965  0.88674727  0.80176167  1
  N  N113  1  0.61344965  0.61325273  0.19823833  1
  N  N114  1  0.88655035  0.38674727  0.69823833  1
  N  N115  1  0.38655035  0.11325273  0.30176167  1
  N  N116  1  0.88655035  0.11325273  0.19823833  1
  N  N117  1  0.38655035  0.38674727  0.80176167  1
  N  N118  1  0.11344965  0.61325273  0.30176167  1
  N  N119  1  0.61344965  0.88674727  0.69823833  1
