# generated using pymatgen
data_MgScMoS4
_symmetry_space_group_name_H-M   'P 1'
_cell_length_a   7.46251554
_cell_length_b   7.47708382
_cell_length_c   7.47698763
_cell_angle_alpha   60.38279833
_cell_angle_beta   60.06471794
_cell_angle_gamma   60.06369994
_symmetry_Int_Tables_number   1
_chemical_formula_structural   MgScMoS4
_chemical_formula_sum   'Mg2 Sc2 Mo2 S8'
_cell_volume   296.13729358
_cell_formula_units_Z   2
loop_
 _symmetry_equiv_pos_site_id
 _symmetry_equiv_pos_as_xyz
  1  'x, y, z'
loop_
 _atom_site_type_symbol
 _atom_site_label
 _atom_site_symmetry_multiplicity
 _atom_site_fract_x
 _atom_site_fract_y
 _atom_site_fract_z
 _atom_site_occupancy
  Mg  Mg0  1  0.87246700  0.87752800  0.87752600  1
  Mg  Mg1  1  0.12754400  0.12246200  0.12245800  1
  Sc  Sc2  1  0.50000600  0.50014700  0.49981900  1
  Sc  Sc3  1  0.00008900  0.49990600  0.50008500  1
  Mo  Mo4  1  0.49997400  0.49998700  0.00003200  1
  Mo  Mo5  1  0.49994800  0.99999000  0.50008100  1
  S  S6  1  0.73043100  0.74564900  0.74569600  1
  S  S7  1  0.26111300  0.25290800  0.72486500  1
  S  S8  1  0.26111200  0.72490800  0.25286300  1
  S  S9  1  0.72179600  0.25429300  0.25433200  1
  S  S10  1  0.73885700  0.27510700  0.74714300  1
  S  S11  1  0.27823300  0.74561400  0.74568500  1
  S  S12  1  0.26955000  0.25429000  0.25436100  1
  S  S13  1  0.73888300  0.74720700  0.27505600  1
