# generated using pymatgen
data_MgCrCoS4
_symmetry_space_group_name_H-M   'P 1'
_cell_length_a   7.09143430
_cell_length_b   7.09313608
_cell_length_c   7.09326436
_cell_angle_alpha   59.98447635
_cell_angle_beta   60.01796413
_cell_angle_gamma   60.01911119
_symmetry_Int_Tables_number   1
_chemical_formula_structural   MgCrCoS4
_chemical_formula_sum   'Mg2 Cr2 Co2 S8'
_cell_volume   252.33305662
_cell_formula_units_Z   2
loop_
 _symmetry_equiv_pos_site_id
 _symmetry_equiv_pos_as_xyz
  1  'x, y, z'
loop_
 _atom_site_type_symbol
 _atom_site_label
 _atom_site_symmetry_multiplicity
 _atom_site_fract_x
 _atom_site_fract_y
 _atom_site_fract_z
 _atom_site_occupancy
  Mg  Mg0  1  0.87540200  0.87454300  0.87455800  1
  Mg  Mg1  1  0.12460400  0.12544500  0.12545800  1
  Cr  Cr2  1  0.49998300  0.50000000  0.00000700  1
  Cr  Cr3  1  0.50000600  0.00001200  0.50000400  1
  Co  Co4  1  0.49999700  0.50000600  0.49999100  1
  Co  Co5  1  0.00000100  0.49999600  0.50000000  1
  S  S6  1  0.74682900  0.72973300  0.72973400  1
  S  S7  1  0.26108300  0.27914300  0.69868000  1
  S  S8  1  0.26109800  0.69866500  0.27913100  1
  S  S9  1  0.70628100  0.27030800  0.27027100  1
  S  S10  1  0.73890000  0.30132500  0.72084200  1
  S  S11  1  0.29372800  0.72970500  0.72970300  1
  S  S12  1  0.25317600  0.27025000  0.27029100  1
  S  S13  1  0.73891600  0.72086500  0.30133100  1
