# generated using pymatgen
data_Ca3Y2N4
_symmetry_space_group_name_H-M   'P 1'
_cell_length_a   6.62836912
_cell_length_b   8.53972790
_cell_length_c   7.14332242
_cell_angle_alpha   90.00000137
_cell_angle_beta   90.01092971
_cell_angle_gamma   130.10424391
_symmetry_Int_Tables_number   1
_chemical_formula_structural   Ca3Y2N4
_chemical_formula_sum   'Ca6 Y4 N8'
_cell_volume   309.27205407
_cell_formula_units_Z   2
loop_
 _symmetry_equiv_pos_site_id
 _symmetry_equiv_pos_as_xyz
  1  'x, y, z'
loop_
 _atom_site_type_symbol
 _atom_site_label
 _atom_site_symmetry_multiplicity
 _atom_site_fract_x
 _atom_site_fract_y
 _atom_site_fract_z
 _atom_site_occupancy
  Ca  Ca0  1  0.26718600  0.03003800  0.95176600  1
  Ca  Ca1  1  0.73281400  0.76285200  0.54823400  1
  Ca  Ca2  1  0.73281400  0.96996200  0.04823400  1
  Ca  Ca3  1  0.26718600  0.23714800  0.45176600  1
  Ca  Ca4  1  0.00000000  0.65115600  0.75000000  1
  Ca  Ca5  1  0.00000000  0.34884400  0.25000000  1
  Y  Y6  1  0.71517900  0.21811100  0.61188300  1
  Y  Y7  1  0.28482100  0.50293200  0.88811700  1
  Y  Y8  1  0.28482100  0.78188900  0.38811700  1
  Y  Y9  1  0.71517900  0.49706800  0.11188300  1
  N  N10  1  0.25653600  0.97865600  0.59532600  1
  N  N11  1  0.74346400  0.72211900  0.90467400  1
  N  N12  1  0.74346400  0.02134400  0.40467400  1
  N  N13  1  0.25653600  0.27788100  0.09532600  1
  N  N14  1  0.76384700  0.27764700  0.93390600  1
  N  N15  1  0.23615300  0.51380100  0.56609400  1
  N  N16  1  0.23615300  0.72235300  0.06609400  1
  N  N17  1  0.76384700  0.48619900  0.43390600  1
