# generated using pymatgen
data_CrCoN2
_symmetry_space_group_name_H-M   'P 1'
_cell_length_a   2.75516500
_cell_length_b   2.75502766
_cell_length_c   9.87950600
_cell_angle_alpha   90.00000000
_cell_angle_beta   90.00000000
_cell_angle_gamma   120.00166112
_symmetry_Int_Tables_number   1
_chemical_formula_structural   CrCoN2
_chemical_formula_sum   'Cr2 Co2 N4'
_cell_volume   64.94297311
_cell_formula_units_Z   2
loop_
 _symmetry_equiv_pos_site_id
 _symmetry_equiv_pos_as_xyz
  1  'x, y, z'
loop_
 _atom_site_type_symbol
 _atom_site_label
 _atom_site_symmetry_multiplicity
 _atom_site_fract_x
 _atom_site_fract_y
 _atom_site_fract_z
 _atom_site_occupancy
  Cr  Cr0  1  0.33337600  0.66675200  0.25000000  1
  Cr  Cr1  1  0.66662400  0.33324800  0.75000000  1
  Co  Co2  1  0.00000000  0.00000000  0.00000000  1
  Co  Co3  1  0.00000000  0.00000000  0.50000000  1
  N  N4  1  0.66669300  0.33338600  0.12614300  1
  N  N5  1  0.33330700  0.66661400  0.87385700  1
  N  N6  1  0.33330700  0.66661400  0.62614300  1
  N  N7  1  0.66669300  0.33338600  0.37385700  1
