# generated using pymatgen
data_MoSeN
_symmetry_space_group_name_H-M   'P 1'
_cell_length_a   3.42461300
_cell_length_b   3.42461300
_cell_length_c   8.54718800
_cell_angle_alpha   90.00000000
_cell_angle_beta   90.00000000
_cell_angle_gamma   90.00000000
_symmetry_Int_Tables_number   1
_chemical_formula_structural   MoSeN
_chemical_formula_sum   'Mo2 Se2 N2'
_cell_volume   100.24120034
_cell_formula_units_Z   2
loop_
 _symmetry_equiv_pos_site_id
 _symmetry_equiv_pos_as_xyz
  1  'x, y, z'
loop_
 _atom_site_type_symbol
 _atom_site_label
 _atom_site_symmetry_multiplicity
 _atom_site_fract_x
 _atom_site_fract_y
 _atom_site_fract_z
 _atom_site_occupancy
  Mo  Mo0  1  0.50000000  0.00000000  0.12783800  1
  Mo  Mo1  1  0.00000000  0.50000000  0.87216200  1
  Se  Se2  1  0.50000000  0.00000000  0.69289500  1
  Se  Se3  1  0.00000000  0.50000000  0.30710500  1
  N  N4  1  0.50000000  0.50000000  0.00000000  1
  N  N5  1  0.00000000  0.00000000  0.00000000  1
