# generated using pymatgen
data_Ca3(ReN2)2
_symmetry_space_group_name_H-M   'P 1'
_cell_length_a   7.07157795
_cell_length_b   9.19001060
_cell_length_c   5.36736206
_cell_angle_alpha   90.00000385
_cell_angle_beta   93.61192825
_cell_angle_gamma   130.52539222
_symmetry_Int_Tables_number   1
_chemical_formula_structural   Ca3(ReN2)2
_chemical_formula_sum   'Ca6 Re4 N8'
_cell_volume   264.22721950
_cell_formula_units_Z   2
loop_
 _symmetry_equiv_pos_site_id
 _symmetry_equiv_pos_as_xyz
  1  'x, y, z'
loop_
 _atom_site_type_symbol
 _atom_site_label
 _atom_site_symmetry_multiplicity
 _atom_site_fract_x
 _atom_site_fract_y
 _atom_site_fract_z
 _atom_site_occupancy
  Ca  Ca0  1  0.21158700  0.93591200  0.01933800  1
  Ca  Ca1  1  0.78841300  0.72432500  0.48066200  1
  Ca  Ca2  1  0.78841300  0.06408800  0.98066200  1
  Ca  Ca3  1  0.21158700  0.27567500  0.51933800  1
  Ca  Ca4  1  0.00000000  0.56648600  0.75000000  1
  Ca  Ca5  1  0.00000000  0.43351400  0.25000000  1
  Re  Re6  1  0.51859000  0.14782700  0.56302500  1
  Re  Re7  1  0.48141000  0.62923700  0.93697500  1
  Re  Re8  1  0.48141000  0.85217300  0.43697500  1
  Re  Re9  1  0.51859000  0.37076300  0.06302500  1
  N  N10  1  0.22056700  0.87210800  0.56010400  1
  N  N11  1  0.77943300  0.65154000  0.93989600  1
  N  N12  1  0.77943300  0.12789200  0.43989600  1
  N  N13  1  0.22056700  0.34846000  0.06010400  1
  N  N14  1  0.65867000  0.25410400  0.90753600  1
  N  N15  1  0.34133000  0.59543400  0.59246400  1
  N  N16  1  0.34133000  0.74589600  0.09246400  1
  N  N17  1  0.65867000  0.40456600  0.40753600  1
