# generated using pymatgen
data_Mg2Ti3MoS8
_symmetry_space_group_name_H-M   'P 1'
_cell_length_a   7.30481388
_cell_length_b   7.32125979
_cell_length_c   7.31669833
_cell_angle_alpha   60.21661757
_cell_angle_beta   60.08379130
_cell_angle_gamma   60.10227917
_symmetry_Int_Tables_number   1
_chemical_formula_structural   Mg2Ti3MoS8
_chemical_formula_sum   'Mg2 Ti3 Mo1 S8'
_cell_volume   277.53152801
_cell_formula_units_Z   1
loop_
 _symmetry_equiv_pos_site_id
 _symmetry_equiv_pos_as_xyz
  1  'x, y, z'
loop_
 _atom_site_type_symbol
 _atom_site_label
 _atom_site_symmetry_multiplicity
 _atom_site_fract_x
 _atom_site_fract_y
 _atom_site_fract_z
 _atom_site_occupancy
  Mg  Mg0  1  0.87511000  0.87598900  0.87443100  1
  Mg  Mg1  1  0.12489200  0.12401600  0.12556900  1
  Ti  Ti2  1  0.50000100  0.50002400  0.49997200  1
  Ti  Ti3  1  0.50000500  0.49999700  0.99999800  1
  Ti  Ti4  1  0.99999700  0.49998800  0.50001800  1
  Mo  Mo5  1  0.49999700  0.99998900  0.50000900  1
  S  S6  1  0.74177000  0.73850000  0.74143800  1
  S  S7  1  0.25845700  0.26154200  0.72154900  1
  S  S8  1  0.25949700  0.72159800  0.25957000  1
  S  S9  1  0.72193200  0.26154300  0.25841300  1
  S  S10  1  0.74048800  0.27840700  0.74041800  1
  S  S11  1  0.27806400  0.73844600  0.74159400  1
  S  S12  1  0.25823300  0.26149400  0.25857300  1
  S  S13  1  0.74156300  0.73846100  0.27844900  1
