# generated using pymatgen
data_SrCa7Mn7CrO21
_symmetry_space_group_name_H-M   'P 1'
_cell_length_a   7.79087255
_cell_length_b   7.75692572
_cell_length_c   7.77485274
_cell_angle_alpha   90.16553593
_cell_angle_beta   89.37986777
_cell_angle_gamma   90.03951141
_symmetry_Int_Tables_number   1
_chemical_formula_structural   SrCa7Mn7CrO21
_chemical_formula_sum   'Sr1 Ca7 Mn7 Cr1 O21'
_cell_volume   469.82980008
_cell_formula_units_Z   1
loop_
 _symmetry_equiv_pos_site_id
 _symmetry_equiv_pos_as_xyz
  1  'x, y, z'
loop_
 _atom_site_type_symbol
 _atom_site_label
 _atom_site_symmetry_multiplicity
 _atom_site_fract_x
 _atom_site_fract_y
 _atom_site_fract_z
 _atom_site_occupancy
  Sr  Sr0  1  0.24593900  0.24793500  0.24433800  1
  Ca  Ca1  1  0.28380100  0.24874900  0.72279300  1
  Ca  Ca2  1  0.23754700  0.73493500  0.22722100  1
  Ca  Ca3  1  0.28575200  0.74911300  0.70873400  1
  Ca  Ca4  1  0.75754100  0.25879700  0.28799700  1
  Ca  Ca5  1  0.74829200  0.26486400  0.73898300  1
  Ca  Ca6  1  0.72657800  0.73912100  0.25382700  1
  Ca  Ca7  1  0.76150100  0.75056500  0.70394300  1
  Mn  Mn8  1  0.00342100  0.99982900  0.51206400  1
  Mn  Mn9  1  0.98547800  0.50344600  0.01472500  1
  Mn  Mn10  1  0.00559100  0.50106600  0.50626500  1
  Mn  Mn11  1  0.49938700  0.99822400  0.98715300  1
  Mn  Mn12  1  0.51068200  0.99934300  0.47980000  1
  Mn  Mn13  1  0.50354200  0.50415100  0.98517800  1
  Mn  Mn14  1  0.50591500  0.50506900  0.50659700  1
  Cr  Cr15  1  0.00757900  0.99058600  0.98247400  1
  O  O16  1  0.92366800  0.00604000  0.77111000  1
  O  O17  1  0.04147700  0.49932000  0.26042500  1
  O  O18  1  0.94997200  0.49941800  0.76637600  1
  O  O19  1  0.52206700  0.05724200  0.22836500  1
  O  O20  1  0.52495400  0.95332300  0.73830500  1
  O  O21  1  0.53249900  0.55607500  0.74444900  1
  O  O22  1  0.23718700  0.97531800  0.98067500  1
  O  O23  1  0.25450900  0.03108700  0.50355300  1
  O  O24  1  0.24967700  0.51012300  0.99375300  1
  O  O25  1  0.25971700  0.47139200  0.52903200  1
  O  O26  1  0.76181200  0.96434800  0.45463800  1
  O  O27  1  0.73206600  0.47704100  0.07104900  1
  O  O28  1  0.75008300  0.52964000  0.46554900  1
  O  O29  1  0.96605100  0.18852700  0.09085200  1
  O  O30  1  0.97226600  0.24886600  0.50466500  1
  O  O31  1  0.95550400  0.78677000  0.07583300  1
  O  O32  1  0.04186100  0.75217000  0.51601700  1
  O  O33  1  0.49492700  0.25119600  0.93602500  1
  O  O34  1  0.53587200  0.25947200  0.52227100  1
  O  O35  1  0.50974300  0.74782200  0.05012200  1
  O  O36  1  0.46553900  0.73901900  0.43484200  1
