# generated using pymatgen
data_SrCa7TiMn7O21
_symmetry_space_group_name_H-M   'P 1'
_cell_length_a   7.79739963
_cell_length_b   7.78018102
_cell_length_c   7.78281072
_cell_angle_alpha   90.25622125
_cell_angle_beta   89.48677656
_cell_angle_gamma   89.83154838
_symmetry_Int_Tables_number   1
_chemical_formula_structural   SrCa7TiMn7O21
_chemical_formula_sum   'Sr1 Ca7 Ti1 Mn7 O21'
_cell_volume   472.11985890
_cell_formula_units_Z   1
loop_
 _symmetry_equiv_pos_site_id
 _symmetry_equiv_pos_as_xyz
  1  'x, y, z'
loop_
 _atom_site_type_symbol
 _atom_site_label
 _atom_site_symmetry_multiplicity
 _atom_site_fract_x
 _atom_site_fract_y
 _atom_site_fract_z
 _atom_site_occupancy
  Sr  Sr0  1  0.24312100  0.25256100  0.25595000  1
  Ca  Ca1  1  0.29040600  0.24119400  0.72726500  1
  Ca  Ca2  1  0.23799100  0.73252300  0.23364500  1
  Ca  Ca3  1  0.29012700  0.74959000  0.71204600  1
  Ca  Ca4  1  0.75487800  0.25766800  0.28858400  1
  Ca  Ca5  1  0.74883700  0.27118300  0.73867500  1
  Ca  Ca6  1  0.72507900  0.73612900  0.24985300  1
  Ca  Ca7  1  0.76197000  0.75111700  0.69953500  1
  Ti  Ti8  1  0.00900900  0.99432000  0.97780100  1
  Mn  Mn9  1  0.00101900  0.99995700  0.51450000  1
  Mn  Mn10  1  0.98745500  0.50208700  0.01834100  1
  Mn  Mn11  1  0.00640300  0.50108300  0.51137600  1
  Mn  Mn12  1  0.50061200  0.99858700  0.98322200  1
  Mn  Mn13  1  0.51071200  0.99709000  0.47706800  1
  Mn  Mn14  1  0.50396500  0.50235000  0.98602000  1
  Mn  Mn15  1  0.50590700  0.50335300  0.50926200  1
  O  O16  1  0.90513000  0.01116900  0.77158700  1
  O  O17  1  0.04408300  0.50562600  0.26557400  1
  O  O18  1  0.94973500  0.49830600  0.76994700  1
  O  O19  1  0.51359000  0.05728800  0.22609100  1
  O  O20  1  0.52557100  0.94942300  0.73271600  1
  O  O21  1  0.53531000  0.55570700  0.74490200  1
  O  O22  1  0.23788900  0.99005200  0.94263600  1
  O  O23  1  0.25286900  0.03069800  0.50046300  1
  O  O24  1  0.25168000  0.50158200  0.99738100  1
  O  O25  1  0.25988400  0.46630600  0.53468700  1
  O  O26  1  0.76139800  0.96076600  0.44650800  1
  O  O27  1  0.73220300  0.48014800  0.07401500  1
  O  O28  1  0.75038100  0.53121400  0.46709700  1
  O  O29  1  0.96857300  0.18902900  0.09872300  1
  O  O30  1  0.96987400  0.24857700  0.50279200  1
  O  O31  1  0.96176700  0.78932900  0.07909800  1
  O  O32  1  0.04284300  0.75278700  0.52871200  1
  O  O33  1  0.50688900  0.25002800  0.93282600  1
  O  O34  1  0.53770100  0.26097900  0.52205900  1
  O  O35  1  0.50167200  0.74840900  0.04741700  1
  O  O36  1  0.46346700  0.73178500  0.43162500  1
