# generated using pymatgen
data_SrCa7Mn6Cr2O22
_symmetry_space_group_name_H-M   'P 1'
_cell_length_a   10.87265301
_cell_length_b   15.58566916
_cell_length_c   10.87577520
_cell_angle_alpha   89.96592564
_cell_angle_beta   90.47921966
_cell_angle_gamma   90.41379847
_symmetry_Int_Tables_number   1
_chemical_formula_structural   SrCa7Mn6Cr2O22
_chemical_formula_sum   'Sr4 Ca28 Mn24 Cr8 O88'
_cell_volume   1842.86967830
_cell_formula_units_Z   4
loop_
 _symmetry_equiv_pos_site_id
 _symmetry_equiv_pos_as_xyz
  1  'x, y, z'
loop_
 _atom_site_type_symbol
 _atom_site_label
 _atom_site_symmetry_multiplicity
 _atom_site_fract_x
 _atom_site_fract_y
 _atom_site_fract_z
 _atom_site_occupancy
  Sr  Sr0  1  0.99751062  0.11498114  0.50312465  1
  Sr  Sr1  1  0.50010155  0.38701988  0.99876790  1
  Sr  Sr2  1  0.24246083  0.39215497  0.25305179  1
  Sr  Sr3  1  0.22790717  0.11475467  0.23471974  1
  Ca  Ca4  1  0.99402556  0.10856480  0.00608035  1
  Ca  Ca5  1  0.01587584  0.62924485  0.49506931  1
  Ca  Ca6  1  0.01559093  0.62967558  0.99720517  1
  Ca  Ca7  1  0.54163643  0.12775015  0.48399665  1
  Ca  Ca8  1  0.54657402  0.12635919  0.98024860  1
  Ca  Ca9  1  0.52241580  0.62452723  0.49791157  1
  Ca  Ca10  1  0.52215437  0.62369825  0.99861907  1
  Ca  Ca11  1  0.49806297  0.39120931  0.50265094  1
  Ca  Ca12  1  0.49525297  0.85718422  0.00134161  1
  Ca  Ca13  1  0.49630490  0.85721867  0.50151865  1
  Ca  Ca14  1  0.96496973  0.38821532  0.00295742  1
  Ca  Ca15  1  0.96161573  0.38790362  0.50116833  1
  Ca  Ca16  1  0.96980073  0.87150219  0.00921568  1
  Ca  Ca17  1  0.96896287  0.87190733  0.50494272  1
  Ca  Ca18  1  0.23534178  0.39797167  0.74392273  1
  Ca  Ca19  1  0.22443522  0.87139851  0.25450163  1
  Ca  Ca20  1  0.22745850  0.86966025  0.75304784  1
  Ca  Ca21  1  0.73640550  0.38988083  0.25216286  1
  Ca  Ca22  1  0.73205176  0.38567498  0.74763433  1
  Ca  Ca23  1  0.74251944  0.86212929  0.25214939  1
  Ca  Ca24  1  0.73926064  0.86260234  0.74898175  1
  Ca  Ca25  1  0.22499808  0.11007385  0.74096078  1
  Ca  Ca26  1  0.26900759  0.63191141  0.25657397  1
  Ca  Ca27  1  0.27024591  0.63120241  0.75785439  1
  Ca  Ca28  1  0.77550600  0.11706979  0.24803472  1
  Ca  Ca29  1  0.78017808  0.11902514  0.75239400  1
  Ca  Ca30  1  0.77009612  0.62553052  0.25316586  1
  Ca  Ca31  1  0.76986523  0.62436359  0.75628529  1
  Mn  Mn32  1  0.00123142  0.50400337  0.25033019  1
  Mn  Mn33  1  0.00086298  0.50292107  0.75084867  1
  Mn  Mn34  1  0.50842912  0.98370194  0.23377817  1
  Mn  Mn35  1  0.50739460  0.98454525  0.73626430  1
  Mn  Mn36  1  0.49970430  0.50630442  0.25188014  1
  Mn  Mn37  1  0.49664403  0.50553199  0.74992292  1
  Mn  Mn38  1  0.24819930  0.51348001  0.00285689  1
  Mn  Mn39  1  0.24736994  0.51403800  0.50433883  1
  Mn  Mn40  1  0.74473036  0.99569278  0.99467246  1
  Mn  Mn41  1  0.74188023  0.99760570  0.49640253  1
  Mn  Mn42  1  0.75081813  0.50434699  0.00145401  1
  Mn  Mn43  1  0.74881659  0.50492296  0.50310367  1
  Mn  Mn44  1  0.25116254  0.75382500  0.00472089  1
  Mn  Mn45  1  0.25150183  0.75414617  0.50502194  1
  Mn  Mn46  1  0.75568040  0.24997716  0.00190545  1
  Mn  Mn47  1  0.74925993  0.25122152  0.50298221  1
  Mn  Mn48  1  0.75057021  0.74722346  0.00073185  1
  Mn  Mn49  1  0.75048298  0.74693250  0.50169257  1
  Mn  Mn50  1  0.00187034  0.74985642  0.25123609  1
  Mn  Mn51  1  0.00156531  0.74897101  0.74991574  1
  Mn  Mn52  1  0.51953306  0.25592787  0.25295738  1
  Mn  Mn53  1  0.51451188  0.25425671  0.74848787  1
  Mn  Mn54  1  0.50035588  0.74702931  0.25341834  1
  Mn  Mn55  1  0.50066089  0.74636291  0.75384207  1
  Cr  Cr56  1  0.99214433  0.99348516  0.25373390  1
  Cr  Cr57  1  0.99425133  0.99120560  0.75639346  1
  Cr  Cr58  1  0.23727792  0.99132439  0.00769757  1
  Cr  Cr59  1  0.23776135  0.99273395  0.51488807  1
  Cr  Cr60  1  0.26279231  0.23442335  0.93905682  1
  Cr  Cr61  1  0.26748816  0.23394494  0.45733409  1
  Cr  Cr62  1  0.97991188  0.25620298  0.26485576  1
  Cr  Cr63  1  0.98755901  0.25614862  0.76678385  1
  O  O64  1  0.10882985  0.77858441  0.10658244  1
  O  O65  1  0.10847397  0.77945805  0.60630931  1
  O  O66  1  0.58843326  0.24961421  0.08961510  1
  O  O67  1  0.58494998  0.25793694  0.58474757  1
  O  O68  1  0.61175773  0.76595292  0.11332265  1
  O  O69  1  0.61148422  0.76528377  0.61345809  1
  O  O70  1  0.39393657  0.19654809  0.35641810  1
  O  O71  1  0.39486004  0.18770259  0.85259602  1
  O  O72  1  0.39745091  0.72888164  0.39998589  1
  O  O73  1  0.39781078  0.72820082  0.89997795  1
  O  O74  1  0.90743485  0.24466633  0.41991172  1
  O  O75  1  0.92348149  0.23972216  0.92659334  1
  O  O76  1  0.89321451  0.73008728  0.39271753  1
  O  O77  1  0.89429586  0.73070708  0.89227700  1
  O  O78  1  0.15516891  0.24642060  0.33641820  1
  O  O79  1  0.17099717  0.25049331  0.80168815  1
  O  O80  1  0.14845191  0.73582995  0.35520186  1
  O  O81  1  0.14800714  0.73575138  0.85430406  1
  O  O82  1  0.66074940  0.22258967  0.35383126  1
  O  O83  1  0.66221741  0.22641563  0.85155705  1
  O  O84  1  0.64400280  0.72611995  0.35908547  1
  O  O85  1  0.64378451  0.72550630  0.85872376  1
  O  O86  1  0.35814646  0.77546035  0.14878568  1
  O  O87  1  0.35889379  0.77442741  0.64879973  1
  O  O88  1  0.84850362  0.27973209  0.15252297  1
  O  O89  1  0.85571530  0.27679968  0.65242052  1
  O  O90  1  0.86067730  0.76890108  0.14151164  1
  O  O91  1  0.86129151  0.77007122  0.64136673  1
  O  O92  1  0.36183600  0.49177793  0.13618690  1
  O  O93  1  0.35577834  0.49141256  0.63982763  1
  O  O94  1  0.35271108  0.99434981  0.15729510  1
  O  O95  1  0.34757436  0.99440421  0.66988801  1
  O  O96  1  0.85993992  0.48318434  0.14386116  1
  O  O97  1  0.85761479  0.48144885  0.64560934  1
  O  O98  1  0.84314367  0.97612825  0.14171812  1
  O  O99  1  0.84623268  0.97948215  0.64770077  1
  O  O100  1  0.14131527  0.01010931  0.36626714  1
  O  O101  1  0.14125717  0.00825262  0.85911615  1
  O  O102  1  0.14611262  0.52357893  0.35622012  1
  O  O103  1  0.14814573  0.52089024  0.85312658  1
  O  O104  1  0.62598409  0.02958393  0.34451521  1
  O  O105  1  0.63267709  0.02752355  0.84308342  1
  O  O106  1  0.64135552  0.52243776  0.36057227  1
  O  O107  1  0.63981379  0.51815396  0.85897917  1
  O  O108  1  0.39025598  0.51346409  0.39517553  1
  O  O109  1  0.38932895  0.51790168  0.89197948  1
  O  O110  1  0.87805002  0.01386213  0.39021910  1
  O  O111  1  0.88798401  0.01272820  0.89005375  1
  O  O112  1  0.89410811  0.51936239  0.39513026  1
  O  O113  1  0.89599429  0.52042628  0.89437129  1
  O  O114  1  0.10815761  0.47964738  0.10408770  1
  O  O115  1  0.10761931  0.47648969  0.60416665  1
  O  O116  1  0.09760299  0.98236894  0.10743738  1
  O  O117  1  0.09683321  0.97906070  0.61506141  1
  O  O118  1  0.61545946  0.48898536  0.11666804  1
  O  O119  1  0.60911671  0.48669240  0.61217044  1
  O  O120  1  0.58995777  0.99195782  0.07873866  1
  O  O121  1  0.58479959  0.99251504  0.57981535  1
  O  O122  1  0.01203828  0.38128176  0.28759975  1
  O  O123  1  0.01670847  0.38063836  0.79099238  1
  O  O124  1  0.00312835  0.87044315  0.29284846  1
  O  O125  1  0.00405443  0.87267298  0.79374359  1
  O  O126  1  0.49600364  0.37883652  0.27739997  1
  O  O127  1  0.48703859  0.37810180  0.76848026  1
  O  O128  1  0.51671618  0.87023378  0.29167130  1
  O  O129  1  0.51645322  0.86951722  0.79151455  1
  O  O130  1  0.48675562  0.62850746  0.21336617  1
  O  O131  1  0.48806685  0.62773135  0.71183025  1
  O  O132  1  0.99239683  0.13006904  0.22082650  1
  O  O133  1  0.99911635  0.12648381  0.73009944  1
  O  O134  1  0.99309536  0.62691894  0.21151364  1
  O  O135  1  0.99280986  0.62671952  0.70994622  1
  O  O136  1  0.21898842  0.13531930  0.01538054  1
  O  O137  1  0.24182251  0.13141254  0.53569257  1
  O  O138  1  0.23369609  0.63617110  0.04237999  1
  O  O139  1  0.23360003  0.63624032  0.54340073  1
  O  O140  1  0.75740920  0.12259373  0.03254378  1
  O  O141  1  0.74961277  0.12582651  0.54029303  1
  O  O142  1  0.74594774  0.62588766  0.03674653  1
  O  O143  1  0.74551238  0.62516469  0.54072482  1
  O  O144  1  0.29144820  0.33146446  0.53132173  1
  O  O145  1  0.27769174  0.32921883  0.02211491  1
  O  O146  1  0.28249186  0.88177220  0.46503924  1
  O  O147  1  0.28202998  0.88012155  0.96159199  1
  O  O148  1  0.74326394  0.37786657  0.46767170  1
  O  O149  1  0.74835048  0.37640493  0.96465685  1
  O  O150  1  0.74582989  0.87265035  0.46683417  1
  O  O151  1  0.74758596  0.87274075  0.96198663  1
