# generated using pymatgen
data_CuAgS
_symmetry_space_group_name_H-M   'P 1'
_cell_length_a   3.90669530
_cell_length_b   3.90669530
_cell_length_c   8.20762300
_cell_angle_alpha   90.00000000
_cell_angle_beta   90.00000000
_cell_angle_gamma   117.62670069
_symmetry_Int_Tables_number   1
_chemical_formula_structural   CuAgS
_chemical_formula_sum   'Cu2 Ag2 S2'
_cell_volume   110.98495601
_cell_formula_units_Z   2
loop_
 _symmetry_equiv_pos_site_id
 _symmetry_equiv_pos_as_xyz
  1  'x, y, z'
loop_
 _atom_site_type_symbol
 _atom_site_label
 _atom_site_symmetry_multiplicity
 _atom_site_fract_x
 _atom_site_fract_y
 _atom_site_fract_z
 _atom_site_occupancy
  Cu  Cu0  1  0.43927100  0.56072900  0.21686300  1
  Cu  Cu1  1  0.56072900  0.43927100  0.71686300  1
  Ag  Ag2  1  0.98955400  0.01044600  0.47289700  1
  Ag  Ag3  1  0.01044600  0.98955400  0.97289700  1
  S  S4  1  0.79161100  0.20838900  0.21834000  1
  S  S5  1  0.20838900  0.79161100  0.71834000  1
