# generated using pymatgen
data_SrCa7TiMn7O22
_symmetry_space_group_name_H-M   'P 1'
_cell_length_a   7.70536313
_cell_length_b   7.70536313
_cell_length_c   7.71150913
_cell_angle_alpha   89.92558729
_cell_angle_beta   89.92558729
_cell_angle_gamma   90.66924773
_symmetry_Int_Tables_number   1
_chemical_formula_structural   SrCa7TiMn7O22
_chemical_formula_sum   'Sr1 Ca7 Ti1 Mn7 O22'
_cell_volume   457.82049346
_cell_formula_units_Z   1
loop_
 _symmetry_equiv_pos_site_id
 _symmetry_equiv_pos_as_xyz
  1  'x, y, z'
loop_
 _atom_site_type_symbol
 _atom_site_label
 _atom_site_symmetry_multiplicity
 _atom_site_fract_x
 _atom_site_fract_y
 _atom_site_fract_z
 _atom_site_occupancy
  Sr  Sr0  1  0.25219200  0.25219200  0.22789900  1
  Ca  Ca1  1  0.25403200  0.25403200  0.74003500  1
  Ca  Ca2  1  0.24857800  0.74297300  0.24284200  1
  Ca  Ca3  1  0.25972200  0.74778800  0.73350700  1
  Ca  Ca4  1  0.74297300  0.24857800  0.24284200  1
  Ca  Ca5  1  0.74778800  0.25972200  0.73350700  1
  Ca  Ca6  1  0.74870900  0.74870900  0.24852400  1
  Ca  Ca7  1  0.74920000  0.74920000  0.69513200  1
  Ti  Ti8  1  0.99041700  0.99041700  0.97863200  1
  Mn  Mn9  1  0.00125200  0.00125200  0.50258400  1
  Mn  Mn10  1  0.99457000  0.50358600  0.00679500  1
  Mn  Mn11  1  0.99959900  0.50095400  0.49697400  1
  Mn  Mn12  1  0.50358600  0.99457000  0.00679500  1
  Mn  Mn13  1  0.50095400  0.99959900  0.49697400  1
  Mn  Mn14  1  0.50759200  0.50759200  0.98731500  1
  Mn  Mn15  1  0.50140700  0.50140700  0.50863000  1
  O  O16  1  0.95733300  0.95733300  0.75560000  1
  O  O17  1  0.03151100  0.46839700  0.25352500  1
  O  O18  1  0.96294600  0.53496100  0.75356200  1
  O  O19  1  0.46839700  0.03151100  0.25352500  1
  O  O20  1  0.53496100  0.96294600  0.75356200  1
  O  O21  1  0.53949900  0.53949900  0.75139700  1
  O  O22  1  0.24620600  0.99634000  0.98750200  1
  O  O23  1  0.24942000  0.99911500  0.53730100  1
  O  O24  1  0.25536700  0.50447900  0.98554900  1
  O  O25  1  0.25276900  0.50255600  0.52858000  1
  O  O26  1  0.75445100  0.00120700  0.05632200  1
  O  O27  1  0.75489800  0.00293500  0.45349500  1
  O  O28  1  0.74321800  0.49719600  0.05974200  1
  O  O29  1  0.74530500  0.49731900  0.45643200  1
  O  O30  1  0.99634000  0.24620600  0.98750200  1
  O  O31  1  0.99911500  0.24942000  0.53730100  1
  O  O32  1  0.00120700  0.75445100  0.05632200  1
  O  O33  1  0.00293500  0.75489800  0.45349500  1
  O  O34  1  0.50447900  0.25536700  0.98554900  1
  O  O35  1  0.50255600  0.25276900  0.52858000  1
  O  O36  1  0.49719600  0.74321800  0.05974200  1
  O  O37  1  0.49731900  0.74530500  0.45643200  1
