# generated using pymatgen
data_SrCa7Mn6Al2O20
_symmetry_space_group_name_H-M   'P 1'
_cell_length_a   10.95440264
_cell_length_b   15.47792449
_cell_length_c   10.91182225
_cell_angle_alpha   89.70589875
_cell_angle_beta   90.15901993
_cell_angle_gamma   90.19053118
_symmetry_Int_Tables_number   1
_chemical_formula_structural   SrCa7Mn6Al2O20
_chemical_formula_sum   'Sr4 Ca28 Mn24 Al8 O80'
_cell_volume   1850.07328333
_cell_formula_units_Z   4
loop_
 _symmetry_equiv_pos_site_id
 _symmetry_equiv_pos_as_xyz
  1  'x, y, z'
loop_
 _atom_site_type_symbol
 _atom_site_label
 _atom_site_symmetry_multiplicity
 _atom_site_fract_x
 _atom_site_fract_y
 _atom_site_fract_z
 _atom_site_occupancy
  Sr  Sr0  1  0.99970522  0.12214562  0.49545127  1
  Sr  Sr1  1  0.49750414  0.36172110  0.01266725  1
  Sr  Sr2  1  0.25293249  0.38366166  0.25674913  1
  Sr  Sr3  1  0.27268676  0.12588935  0.26504938  1
  Ca  Ca4  1  0.01966599  0.12305387  0.00543790  1
  Ca  Ca5  1  0.99635152  0.61042247  0.51919100  1
  Ca  Ca6  1  0.00984074  0.60714447  0.98746083  1
  Ca  Ca7  1  0.50189596  0.12509494  0.51809804  1
  Ca  Ca8  1  0.52107401  0.11537009  0.97329087  1
  Ca  Ca9  1  0.53373845  0.62242239  0.49484155  1
  Ca  Ca10  1  0.54323299  0.62634729  0.00346140  1
  Ca  Ca11  1  0.47006768  0.38554046  0.50871619  1
  Ca  Ca12  1  0.49968112  0.87211095  0.98581215  1
  Ca  Ca13  1  0.49545351  0.87235785  0.49843868  1
  Ca  Ca14  1  0.97458264  0.38286979  0.00477540  1
  Ca  Ca15  1  0.98850286  0.38381607  0.51415972  1
  Ca  Ca16  1  0.98519284  0.86951735  0.01278722  1
  Ca  Ca17  1  0.96188098  0.88035499  0.51728820  1
  Ca  Ca18  1  0.24459856  0.38601459  0.74482742  1
  Ca  Ca19  1  0.22110935  0.89829611  0.25275615  1
  Ca  Ca20  1  0.24158528  0.88877196  0.78007741  1
  Ca  Ca21  1  0.74645200  0.39187697  0.25153592  1
  Ca  Ca22  1  0.71192888  0.38532518  0.74303578  1
  Ca  Ca23  1  0.74007466  0.86256790  0.24342791  1
  Ca  Ca24  1  0.72461645  0.87411662  0.74571201  1
  Ca  Ca25  1  0.27946127  0.12144063  0.75234331  1
  Ca  Ca26  1  0.27795426  0.61652360  0.25768517  1
  Ca  Ca27  1  0.24602649  0.61685228  0.72570743  1
  Ca  Ca28  1  0.71995493  0.11475208  0.22748857  1
  Ca  Ca29  1  0.71226734  0.11047534  0.73078895  1
  Ca  Ca30  1  0.75964551  0.61885035  0.24659393  1
  Ca  Ca31  1  0.77606868  0.62107643  0.75935534  1
  Mn  Mn32  1  0.99501607  0.00948753  0.24959711  1
  Mn  Mn33  1  0.00003114  0.99497760  0.75516608  1
  Mn  Mn34  1  0.99938358  0.48756309  0.25137328  1
  Mn  Mn35  1  0.00626136  0.49681789  0.75429266  1
  Mn  Mn36  1  0.50263166  0.50362601  0.24346621  1
  Mn  Mn37  1  0.49915183  0.50487172  0.73971874  1
  Mn  Mn38  1  0.25139047  0.99606991  0.00517219  1
  Mn  Mn39  1  0.24585290  0.50318132  0.49744655  1
  Mn  Mn40  1  0.74583704  0.99452097  0.00015091  1
  Mn  Mn41  1  0.72558975  0.00183207  0.50149593  1
  Mn  Mn42  1  0.74944235  0.49853517  0.99979048  1
  Mn  Mn43  1  0.75333547  0.49629159  0.50011349  1
  Mn  Mn44  1  0.25954096  0.73785956  0.97937982  1
  Mn  Mn45  1  0.24926810  0.76016365  0.45660683  1
  Mn  Mn46  1  0.75499775  0.24266057  0.97798312  1
  Mn  Mn47  1  0.74897349  0.25274810  0.49764050  1
  Mn  Mn48  1  0.76494482  0.74924761  0.00379784  1
  Mn  Mn49  1  0.76040506  0.74780213  0.50773053  1
  Mn  Mn50  1  0.99102478  0.25341283  0.76603145  1
  Mn  Mn51  1  0.99988298  0.76149001  0.27234694  1
  Mn  Mn52  1  0.00435887  0.75188523  0.76571647  1
  Mn  Mn53  1  0.48873565  0.25117425  0.74906231  1
  Mn  Mn54  1  0.51679852  0.74713278  0.25742594  1
  Mn  Mn55  1  0.51062469  0.74476721  0.75880646  1
  Al  Al56  1  0.50048905  0.97942334  0.23204060  1
  Al  Al57  1  0.48402931  0.98908922  0.74773755  1
  Al  Al58  1  0.23282989  0.99928894  0.52126381  1
  Al  Al59  1  0.23357757  0.49626496  0.01600616  1
  Al  Al60  1  0.23471279  0.25911328  0.96944121  1
  Al  Al61  1  0.27246373  0.24404023  0.48909103  1
  Al  Al62  1  0.04141760  0.23960071  0.24327515  1
  Al  Al63  1  0.52521441  0.26108029  0.27928575  1
  O  O64  1  0.53260211  0.20834273  0.13808762  1
  O  O65  1  0.59614857  0.26848813  0.60789009  1
  O  O66  1  0.61381183  0.77306252  0.10711536  1
  O  O67  1  0.60269266  0.76763683  0.60779073  1
  O  O68  1  0.40469938  0.23128819  0.38165747  1
  O  O69  1  0.37929367  0.22191773  0.91274676  1
  O  O70  1  0.41393085  0.72741767  0.39848832  1
  O  O71  1  0.42232962  0.72923890  0.91683167  1
  O  O72  1  0.95391518  0.14103534  0.24231892  1
  O  O73  1  0.92040859  0.24318893  0.93892985  1
  O  O74  1  0.92431016  0.73585212  0.42483333  1
  O  O75  1  0.92193532  0.73450846  0.92746441  1
  O  O76  1  0.13407711  0.23268487  0.37830664  1
  O  O77  1  0.14210085  0.21403606  0.85167254  1
  O  O78  1  0.17290676  0.74914612  0.28234781  1
  O  O79  1  0.17602541  0.74183155  0.81430010  1
  O  O80  1  0.67571799  0.24390623  0.33418032  1
  O  O81  1  0.63644572  0.23899160  0.84775101  1
  O  O82  1  0.66953796  0.72928444  0.36065268  1
  O  O83  1  0.66852234  0.73708624  0.85674189  1
  O  O84  1  0.34207666  0.25778670  0.64587709  1
  O  O85  1  0.90427869  0.25002401  0.60418674  1
  O  O86  1  0.86980742  0.75948318  0.15734366  1
  O  O87  1  0.86561989  0.77931652  0.65202519  1
  O  O88  1  0.36377168  0.49103215  0.11997450  1
  O  O89  1  0.35486720  0.48898015  0.64165533  1
  O  O90  1  0.35504617  0.00264606  0.16484508  1
  O  O91  1  0.34225695  0.98868208  0.65047255  1
  O  O92  1  0.86170589  0.49906987  0.14728264  1
  O  O93  1  0.86025990  0.47741640  0.64328607  1
  O  O94  1  0.84576987  0.98679996  0.15509965  1
  O  O95  1  0.84941804  0.99797191  0.65222473  1
  O  O96  1  0.13413414  0.02452655  0.36143802  1
  O  O97  1  0.13939394  0.02874177  0.86919353  1
  O  O98  1  0.14196430  0.51186216  0.34715966  1
  O  O99  1  0.17928488  0.51629932  0.86269941  1
  O  O100  1  0.56521323  0.03843125  0.35481966  1
  O  O101  1  0.63874911  0.00102691  0.85498569  1
  O  O102  1  0.64189799  0.51731882  0.35123643  1
  O  O103  1  0.63479070  0.51776266  0.85267063  1
  O  O104  1  0.38937134  0.00695307  0.89545397  1
  O  O105  1  0.38633418  0.51472556  0.39130684  1
  O  O106  1  0.89762983  0.51493345  0.38970050  1
  O  O107  1  0.89591147  0.50381207  0.89339065  1
  O  O108  1  0.09943946  0.48262693  0.10740825  1
  O  O109  1  0.10793867  0.49079818  0.60749828  1
  O  O110  1  0.10839128  0.99815981  0.10383788  1
  O  O111  1  0.09287255  0.98889685  0.59945423  1
  O  O112  1  0.61413251  0.48921417  0.10454472  1
  O  O113  1  0.61223249  0.47660272  0.59777525  1
  O  O114  1  0.59767804  0.99099378  0.10758504  1
  O  O115  1  0.58604093  0.98678579  0.61536538  1
  O  O116  1  0.97301827  0.34095451  0.23344335  1
  O  O117  1  0.03023472  0.37657737  0.77834974  1
  O  O118  1  0.00252637  0.88990081  0.29298824  1
  O  O119  1  0.02497182  0.87234532  0.80129829  1
  O  O120  1  0.50043607  0.37354131  0.26662922  1
  O  O121  1  0.48610445  0.37802980  0.78484704  1
  O  O122  1  0.49746503  0.87097991  0.28058368  1
  O  O123  1  0.47696353  0.86755432  0.77255189  1
  O  O124  1  0.49634284  0.12434954  0.73171768  1
  O  O125  1  0.49176160  0.62975892  0.20791405  1
  O  O126  1  0.47129543  0.62836123  0.71162808  1
  O  O127  1  0.99483598  0.62643591  0.73356611  1
  O  O128  1  0.15778732  0.22363579  0.11414891  1
  O  O129  1  0.26623347  0.12063169  0.51531905  1
  O  O130  1  0.22131919  0.62831254  0.04482428  1
  O  O131  1  0.20527519  0.65152772  0.52385758  1
  O  O132  1  0.75837861  0.12028709  0.00931766  1
  O  O133  1  0.74461475  0.12759769  0.50985508  1
  O  O134  1  0.75328857  0.62828102  0.02974645  1
  O  O135  1  0.75458019  0.62231446  0.54487935  1
  O  O136  1  0.24692459  0.36088232  0.48493809  1
  O  O137  1  0.25262786  0.37151131  0.98379099  1
  O  O138  1  0.27437151  0.88949681  0.46138623  1
  O  O139  1  0.25868107  0.85969207  0.00701214  1
  O  O140  1  0.77745688  0.37255575  0.46283220  1
  O  O141  1  0.74970735  0.36291782  0.00435017  1
  O  O142  1  0.75772370  0.88228306  0.45728073  1
  O  O143  1  0.78238600  0.87732196  0.96305535  1
