# generated using pymatgen
data_SrCa7Ti2Mn6O23
_symmetry_space_group_name_H-M   'P 1'
_cell_length_a   10.93588352
_cell_length_b   15.45903507
_cell_length_c   10.82390686
_cell_angle_alpha   90.12097798
_cell_angle_beta   90.33573000
_cell_angle_gamma   90.02452981
_symmetry_Int_Tables_number   1
_chemical_formula_structural   SrCa7Ti2Mn6O23
_chemical_formula_sum   'Sr4 Ca28 Ti8 Mn24 O92'
_cell_volume   1829.83461512
_cell_formula_units_Z   4
loop_
 _symmetry_equiv_pos_site_id
 _symmetry_equiv_pos_as_xyz
  1  'x, y, z'
loop_
 _atom_site_type_symbol
 _atom_site_label
 _atom_site_symmetry_multiplicity
 _atom_site_fract_x
 _atom_site_fract_y
 _atom_site_fract_z
 _atom_site_occupancy
  Sr  Sr0  1  0.00563890  0.12014866  0.50382892  1
  Sr  Sr1  1  0.49653018  0.38188095  0.99682607  1
  Sr  Sr2  1  0.24059849  0.38657664  0.25154107  1
  Sr  Sr3  1  0.24715757  0.11874221  0.26519449  1
  Ca  Ca4  1  0.01051023  0.11689005  0.99720040  1
  Ca  Ca5  1  0.01970619  0.62560862  0.49585966  1
  Ca  Ca6  1  0.02074331  0.62570621  0.99607910  1
  Ca  Ca7  1  0.52855970  0.13195221  0.50626800  1
  Ca  Ca8  1  0.53772956  0.12186552  0.97230318  1
  Ca  Ca9  1  0.52598536  0.62456284  0.49738775  1
  Ca  Ca10  1  0.52160866  0.62470323  0.99440490  1
  Ca  Ca11  1  0.48301785  0.38569684  0.50865957  1
  Ca  Ca12  1  0.48673088  0.86671507  0.99644602  1
  Ca  Ca13  1  0.48473591  0.86350478  0.51445517  1
  Ca  Ca14  1  0.96762428  0.38883465  0.00099005  1
  Ca  Ca15  1  0.97458335  0.38406030  0.50362901  1
  Ca  Ca16  1  0.97320341  0.86797483  0.00460703  1
  Ca  Ca17  1  0.96944762  0.86722530  0.50378730  1
  Ca  Ca18  1  0.22786463  0.38636816  0.73681566  1
  Ca  Ca19  1  0.22764032  0.86869015  0.24605064  1
  Ca  Ca20  1  0.23115989  0.86360735  0.75007177  1
  Ca  Ca21  1  0.73484448  0.38718190  0.24636726  1
  Ca  Ca22  1  0.72554902  0.38098249  0.74652847  1
  Ca  Ca23  1  0.73286718  0.86470091  0.24783891  1
  Ca  Ca24  1  0.72598921  0.87041059  0.74478164  1
  Ca  Ca25  1  0.27783279  0.11732201  0.73779120  1
  Ca  Ca26  1  0.27430812  0.62635734  0.25431406  1
  Ca  Ca27  1  0.27372287  0.62503111  0.75769692  1
  Ca  Ca28  1  0.77185105  0.11776513  0.25028274  1
  Ca  Ca29  1  0.76638478  0.12522688  0.75316538  1
  Ca  Ca30  1  0.76965211  0.62457950  0.25337451  1
  Ca  Ca31  1  0.76995284  0.62558833  0.75455019  1
  Ti  Ti32  1  0.99428895  0.99140679  0.24837518  1
  Ti  Ti33  1  0.98845159  0.99555344  0.75777799  1
  Ti  Ti34  1  0.25101250  0.99413440  0.99431842  1
  Ti  Ti35  1  0.23288878  0.98905587  0.51453323  1
  Ti  Ti36  1  0.25572190  0.24417863  0.96202509  1
  Ti  Ti37  1  0.24578796  0.25568529  0.50375033  1
  Ti  Ti38  1  0.98553425  0.25269150  0.26620054  1
  Ti  Ti39  1  0.98853513  0.25372508  0.75113624  1
  Mn  Mn40  1  0.00056146  0.50366923  0.24944654  1
  Mn  Mn41  1  0.00025958  0.50276448  0.74999716  1
  Mn  Mn42  1  0.50879074  0.98478797  0.24183734  1
  Mn  Mn43  1  0.50270728  0.99807302  0.74897691  1
  Mn  Mn44  1  0.50150655  0.50635457  0.25076230  1
  Mn  Mn45  1  0.50024140  0.50320332  0.74823629  1
  Mn  Mn46  1  0.24953231  0.50425711  0.00191683  1
  Mn  Mn47  1  0.25091954  0.50613130  0.50161373  1
  Mn  Mn48  1  0.74796234  0.99658693  0.99794006  1
  Mn  Mn49  1  0.74267523  0.99906329  0.49962024  1
  Mn  Mn50  1  0.74985948  0.50424613  0.00027425  1
  Mn  Mn51  1  0.75086606  0.50187088  0.50079186  1
  Mn  Mn52  1  0.24992158  0.74791406  0.00338378  1
  Mn  Mn53  1  0.25176754  0.74770213  0.49958926  1
  Mn  Mn54  1  0.75074059  0.24978984  0.00116416  1
  Mn  Mn55  1  0.74656360  0.25189006  0.50275685  1
  Mn  Mn56  1  0.74965156  0.74909417  0.00029966  1
  Mn  Mn57  1  0.75003266  0.74805265  0.50017634  1
  Mn  Mn58  1  0.00033867  0.74681497  0.25030499  1
  Mn  Mn59  1  0.00061184  0.74829377  0.75099377  1
  Mn  Mn60  1  0.51946392  0.25787604  0.26427832  1
  Mn  Mn61  1  0.50444853  0.25094911  0.74459021  1
  Mn  Mn62  1  0.49970449  0.74812316  0.25162076  1
  Mn  Mn63  1  0.50088377  0.74758748  0.75155853  1
  O  O64  1  0.10347969  0.26524470  0.59633134  1
  O  O65  1  0.10623492  0.77197486  0.10531699  1
  O  O66  1  0.10763346  0.77280002  0.60403935  1
  O  O67  1  0.59470810  0.25219508  0.10590654  1
  O  O68  1  0.59973248  0.26901771  0.59540142  1
  O  O69  1  0.60729997  0.77288863  0.10911164  1
  O  O70  1  0.60889979  0.76614313  0.60806446  1
  O  O71  1  0.39751627  0.22144435  0.37305353  1
  O  O72  1  0.40592872  0.22954818  0.89643176  1
  O  O73  1  0.39600313  0.72537499  0.39723993  1
  O  O74  1  0.39623416  0.73104882  0.89736706  1
  O  O75  1  0.89238674  0.23594335  0.39887924  1
  O  O76  1  0.90060779  0.23433070  0.90039682  1
  O  O77  1  0.89741724  0.73081001  0.39605761  1
  O  O78  1  0.89760247  0.73028535  0.89616730  1
  O  O79  1  0.14479162  0.24425086  0.34480696  1
  O  O80  1  0.15079756  0.23061367  0.83628956  1
  O  O81  1  0.14775111  0.73055175  0.35185782  1
  O  O82  1  0.14804604  0.73123518  0.85247748  1
  O  O83  1  0.65530531  0.22103812  0.35585121  1
  O  O84  1  0.64951145  0.23130969  0.85151889  1
  O  O85  1  0.64638467  0.72840536  0.35434148  1
  O  O86  1  0.64501096  0.72946730  0.85583140  1
  O  O87  1  0.35362189  0.26184557  0.64343342  1
  O  O88  1  0.35749977  0.77341943  0.14547573  1
  O  O89  1  0.35664674  0.76897754  0.64416574  1
  O  O90  1  0.86370679  0.27199032  0.14026327  1
  O  O91  1  0.85280863  0.27110249  0.64800145  1
  O  O92  1  0.85759962  0.76983023  0.14445622  1
  O  O93  1  0.85775715  0.77172553  0.64541738  1
  O  O94  1  0.36197930  0.49107341  0.14087810  1
  O  O95  1  0.35586739  0.48405537  0.64264001  1
  O  O96  1  0.35673918  0.99326377  0.15761535  1
  O  O97  1  0.35712873  0.98133767  0.64210204  1
  O  O98  1  0.85824647  0.48272500  0.14454223  1
  O  O99  1  0.85704469  0.47814787  0.64547339  1
  O  O100  1  0.85319741  0.97923032  0.14261820  1
  O  O101  1  0.85538652  0.97982294  0.64381396  1
  O  O102  1  0.13844422  0.00495697  0.36286625  1
  O  O103  1  0.14614681  0.02285630  0.86078268  1
  O  O104  1  0.14646291  0.52208569  0.35397741  1
  O  O105  1  0.14755811  0.51641654  0.85164995  1
  O  O106  1  0.62352017  0.02986337  0.35660145  1
  O  O107  1  0.64898636  0.01928885  0.84873950  1
  O  O108  1  0.64640962  0.52050965  0.35586350  1
  O  O109  1  0.64376521  0.51947927  0.85564341  1
  O  O110  1  0.39418307  0.02213114  0.89527376  1
  O  O111  1  0.39397696  0.52194512  0.39582056  1
  O  O112  1  0.39280473  0.51695048  0.89212172  1
  O  O113  1  0.88154271  0.01483309  0.38646519  1
  O  O114  1  0.89449796  0.01338528  0.89813103  1
  O  O115  1  0.89804494  0.51857785  0.39626934  1
  O  O116  1  0.89729675  0.51891496  0.89573457  1
  O  O117  1  0.10217481  0.48541002  0.10392824  1
  O  O118  1  0.10559887  0.47998781  0.60569464  1
  O  O119  1  0.10717535  0.98446317  0.10771173  1
  O  O120  1  0.10309722  0.97542012  0.61138051  1
  O  O121  1  0.61436653  0.48652976  0.11232619  1
  O  O122  1  0.60811746  0.48353271  0.60485293  1
  O  O123  1  0.60363068  0.98517334  0.09373567  1
  O  O124  1  0.59893028  0.98011949  0.59928677  1
  O  O125  1  0.00796384  0.37765165  0.27729235  1
  O  O126  1  0.01207903  0.37591138  0.78619973  1
  O  O127  1  0.00527150  0.87153211  0.28362968  1
  O  O128  1  0.01096408  0.87334517  0.78976156  1
  O  O129  1  0.49857428  0.37919062  0.28020079  1
  O  O130  1  0.50601799  0.37595669  0.77133834  1
  O  O131  1  0.50759317  0.87174353  0.30046336  1
  O  O132  1  0.50792827  0.87376004  0.78408799  1
  O  O133  1  0.49552971  0.12452612  0.71662242  1
  O  O134  1  0.49234230  0.62879687  0.20985399  1
  O  O135  1  0.49076649  0.62536776  0.71308856  1
  O  O136  1  0.99773279  0.12918728  0.21860331  1
  O  O137  1  0.98753480  0.12374160  0.72582327  1
  O  O138  1  0.98706134  0.62610760  0.21018467  1
  O  O139  1  0.98776372  0.62527021  0.70975375  1
  O  O140  1  0.22482712  0.14835661  0.05377536  1
  O  O141  1  0.25245001  0.11689659  0.51596250  1
  O  O142  1  0.23842402  0.63050417  0.03817453  1
  O  O143  1  0.23500571  0.62659343  0.54287376  1
  O  O144  1  0.74878162  0.12249351  0.03465128  1
  O  O145  1  0.74625408  0.12608782  0.53995987  1
  O  O146  1  0.74146617  0.62724725  0.03696733  1
  O  O147  1  0.74480375  0.62448636  0.53843299  1
  O  O148  1  0.26395079  0.37533277  0.47575331  1
  O  O149  1  0.24831143  0.35643873  0.01206207  1
  O  O150  1  0.27047089  0.87536222  0.45890180  1
  O  O151  1  0.26244854  0.87843169  0.96716977  1
  O  O152  1  0.75670169  0.37597078  0.46075540  1
  O  O153  1  0.74953733  0.37634353  0.96798042  1
  O  O154  1  0.75327243  0.87338206  0.46262808  1
  O  O155  1  0.75617889  0.87353812  0.96109730  1
