# generated using pymatgen
data_Ca16Mn14Al2O43
_symmetry_space_group_name_H-M   'P 1'
_cell_length_a   10.91249896
_cell_length_b   15.27123862
_cell_length_c   10.84008811
_cell_angle_alpha   90.12723622
_cell_angle_beta   91.35087047
_cell_angle_gamma   89.91121286
_symmetry_Int_Tables_number   1
_chemical_formula_structural   Ca16Mn14Al2O43
_chemical_formula_sum   'Ca32 Mn28 Al4 O86'
_cell_volume   1805.96368588
_cell_formula_units_Z   2
loop_
 _symmetry_equiv_pos_site_id
 _symmetry_equiv_pos_as_xyz
  1  'x, y, z'
loop_
 _atom_site_type_symbol
 _atom_site_label
 _atom_site_symmetry_multiplicity
 _atom_site_fract_x
 _atom_site_fract_y
 _atom_site_fract_z
 _atom_site_occupancy
  Ca  Ca0  1  0.00200568  0.11350560  0.50358242  1
  Ca  Ca1  1  0.00892759  0.11345807  0.00789884  1
  Ca  Ca2  1  0.00847955  0.62348251  0.50595101  1
  Ca  Ca3  1  0.01574217  0.61971484  0.99365415  1
  Ca  Ca4  1  0.53831972  0.12513336  0.49630479  1
  Ca  Ca5  1  0.52981135  0.12379670  -0.00002065  1
  Ca  Ca6  1  0.52995924  0.63499545  0.48471362  1
  Ca  Ca7  1  0.53943475  0.63040588  0.98713182  1
  Ca  Ca8  1  0.49899687  0.35896532  0.99989380  1
  Ca  Ca9  1  0.51051440  0.36020062  0.48952736  1
  Ca  Ca10  1  0.49962291  0.88942973  0.98550237  1
  Ca  Ca11  1  0.47924684  0.87833001  0.51773661  1
  Ca  Ca12  1  0.96148444  0.37970234  0.00774751  1
  Ca  Ca13  1  0.96145480  0.38479599  0.50230863  1
  Ca  Ca14  1  0.96958699  0.88160855  0.99941616  1
  Ca  Ca15  1  0.97106884  0.87192479  0.50686546  1
  Ca  Ca16  1  0.23262882  0.37491458  0.24955020  1
  Ca  Ca17  1  0.23170449  0.39226187  0.76578743  1
  Ca  Ca18  1  0.23765101  0.89296972  0.25866479  1
  Ca  Ca19  1  0.22848224  0.87521979  0.74396752  1
  Ca  Ca20  1  0.73526041  0.36278492  0.24420484  1
  Ca  Ca21  1  0.74301267  0.36467743  0.75449061  1
  Ca  Ca22  1  0.75082637  0.88418889  0.25113587  1
  Ca  Ca23  1  0.72392191  0.87976373  0.74148452  1
  Ca  Ca24  1  0.25971447  0.12910923  0.23027679  1
  Ca  Ca25  1  0.26355813  0.11711865  0.76253137  1
  Ca  Ca26  1  0.23326844  0.61752857  0.26624312  1
  Ca  Ca27  1  0.22970447  0.63478143  0.72552650  1
  Ca  Ca28  1  0.76941908  0.12003134  0.25815474  1
  Ca  Ca29  1  0.77776560  0.12229456  0.75743611  1
  Ca  Ca30  1  0.78618019  0.62382032  0.25484773  1
  Ca  Ca31  1  0.77752375  0.62649646  0.75658379  1
  Mn  Mn32  1  0.00631387  0.00281762  0.25206796  1
  Mn  Mn33  1  0.99897371  0.99784321  0.75070781  1
  Mn  Mn34  1  0.99527439  0.49158692  0.25421547  1
  Mn  Mn35  1  0.99280183  0.49670585  0.75409592  1
  Mn  Mn36  1  0.49509347  0.00588205  0.74629837  1
  Mn  Mn37  1  0.50981315  0.48971599  0.23364476  1
  Mn  Mn38  1  0.50632425  0.48933700  0.73081787  1
  Mn  Mn39  1  0.25235212  0.99852075  0.00112310  1
  Mn  Mn40  1  0.24379320  0.50034385  0.01788517  1
  Mn  Mn41  1  0.24254736  0.49455415  0.51370664  1
  Mn  Mn42  1  0.75081932  0.00000035  0.99770737  1
  Mn  Mn43  1  0.74710038  0.99914278  0.50001626  1
  Mn  Mn44  1  0.74542955  0.50181057  0.99780665  1
  Mn  Mn45  1  0.74324436  0.50265014  0.49584919  1
  Mn  Mn46  1  0.25257557  0.24329766  0.47795899  1
  Mn  Mn47  1  0.26953566  0.73615165  0.97127747  1
  Mn  Mn48  1  0.24920693  0.75401097  0.48711308  1
  Mn  Mn49  1  0.75979317  0.24443173  0.00664332  1
  Mn  Mn50  1  0.75564925  0.24866930  0.50523773  1
  Mn  Mn51  1  0.75042631  0.75208358  0.99856343  1
  Mn  Mn52  1  0.75131581  0.74874139  0.50265226  1
  Mn  Mn53  1  0.00602892  0.25008767  0.76336001  1
  Mn  Mn54  1  0.99692289  0.75391066  0.25820852  1
  Mn  Mn55  1  0.99304306  0.75253893  0.75077599  1
  Mn  Mn56  1  0.49960482  0.24289947  0.24982114  1
  Mn  Mn57  1  0.51120025  0.24395302  0.75644757  1
  Mn  Mn58  1  0.51756299  0.76627845  0.25816906  1
  Mn  Mn59  1  0.49922846  0.75061460  0.74355701  1
  Al  Al60  1  0.51272584  0.00013727  0.23207349  1
  Al  Al61  1  0.22729380  0.99953180  0.51668291  1
  Al  Al62  1  0.27356111  0.25104668  0.97897202  1
  Al  Al63  1  0.98482267  0.24702696  0.27285536  1
  O  O64  1  0.10177949  0.76447368  0.61190971  1
  O  O65  1  0.60910204  0.26094290  0.11303161  1
  O  O66  1  0.61414345  0.26785275  0.61378115  1
  O  O67  1  0.58761605  0.76763709  0.09765544  1
  O  O68  1  0.59627381  0.76065001  0.59635262  1
  O  O69  1  0.40884093  0.22578184  0.40219488  1
  O  O70  1  0.40927017  0.22727414  0.89539950  1
  O  O71  1  0.40064028  0.70969688  0.35027767  1
  O  O72  1  0.39582704  0.69268595  0.86255442  1
  O  O73  1  0.89711908  0.23141797  0.40863725  1
  O  O74  1  0.90479265  0.23217887  0.91162086  1
  O  O75  1  0.89481192  0.73226410  0.40688645  1
  O  O76  1  0.89281697  0.73092866  0.90144255  1
  O  O77  1  0.14416034  0.24135527  0.33564869  1
  O  O78  1  0.17314492  0.24841698  0.82436094  1
  O  O79  1  0.15875418  0.74895101  0.32835527  1
  O  O80  1  0.13068628  0.73139593  0.86359102  1
  O  O81  1  0.64936644  0.22772659  0.35800409  1
  O  O82  1  0.66087626  0.22841731  0.86260376  1
  O  O83  1  0.65425117  0.72290124  0.34993598  1
  O  O84  1  0.64104291  0.72643461  0.85073868  1
  O  O85  1  0.35500271  0.26577295  0.14480995  1
  O  O86  1  0.35493320  0.75800402  0.63563041  1
  O  O87  1  0.87104254  0.26856024  0.14841333  1
  O  O88  1  0.87055701  0.27455177  0.64264482  1
  O  O89  1  0.86024166  0.77576029  0.14176490  1
  O  O90  1  0.84674173  0.77173538  0.65074950  1
  O  O91  1  0.34978543  0.49660281  0.17056302  1
  O  O92  1  0.34862040  0.50892556  0.66355670  1
  O  O93  1  0.35946816  0.99195969  0.14721822  1
  O  O94  1  0.35127416  0.98746408  0.63409271  1
  O  O95  1  0.84777584  0.48008669  0.15330546  1
  O  O96  1  0.84507406  0.47755087  0.64848886  1
  O  O97  1  0.86245612  0.98072333  0.13622851  1
  O  O98  1  0.85286627  0.97968608  0.64511824  1
  O  O99  1  0.16358663  0.02194205  0.36138350  1
  O  O100  1  0.14730583  0.00864380  0.85195093  1
  O  O101  1  0.15477475  0.49574853  0.36037875  1
  O  O102  1  0.15569927  0.52191699  0.86438847  1
  O  O103  1  0.63269111  0.02059444  0.35934904  1
  O  O104  1  0.63922750  0.02551049  0.85297458  1
  O  O105  1  0.63084539  0.53213256  0.34223610  1
  O  O106  1  0.62915588  0.52785992  0.84059720  1
  O  O107  1  0.39559651  0.02278249  0.89405252  1
  O  O108  1  0.88667169  0.01443929  0.39031136  1
  O  O109  1  0.89288102  0.01771574  0.89169802  1
  O  O110  1  0.89364639  0.51834955  0.39969022  1
  O  O111  1  0.89079084  0.51615629  0.90016658  1
  O  O112  1  0.09569312  0.47288943  0.11592571  1
  O  O113  1  0.09568002  0.47767037  0.61728121  1
  O  O114  1  0.11204414  0.97790443  0.10372990  1
  O  O115  1  0.09535418  0.97803080  0.60685403  1
  O  O116  1  0.58747212  0.49261343  0.07882598  1
  O  O117  1  0.58541284  0.49306954  0.57631343  1
  O  O118  1  0.61505858  0.98124719  0.10641489  1
  O  O119  1  0.60034516  0.98627508  0.60433948  1
  O  O120  1  0.00372181  0.36979726  0.28809135  1
  O  O121  1  0.01043236  0.37493559  0.79654446  1
  O  O122  1  0.01111856  0.87885267  0.28722649  1
  O  O123  1  0.00846785  0.87506803  0.79049995  1
  O  O124  1  0.50846815  0.37053626  0.28367518  1
  O  O125  1  0.48301483  0.37146722  0.78180983  1
  O  O126  1  0.48216261  0.88863796  0.29306030  1
  O  O127  1  0.50194402  0.88122070  0.77469071  1
  O  O128  1  0.48484022  0.12010514  0.22159091  1
  O  O129  1  0.47486045  0.13058669  0.69900293  1
  O  O130  1  0.99468862  0.12794775  0.22146505  1
  O  O131  1  0.99877189  0.12594643  0.71791978  1
  O  O132  1  0.00716200  0.62673435  0.21856998  1
  O  O133  1  0.99198039  0.62408904  0.71765067  1
  O  O134  1  0.21206803  0.14809097  0.02687352  1
  O  O135  1  0.22484712  0.13142018  0.54287303  1
  O  O136  1  0.24209744  0.62836146  0.05173391  1
  O  O137  1  0.23358301  0.62295473  0.50461356  1
  O  O138  1  0.74908952  0.12203802  0.04397171  1
  O  O139  1  0.75132398  0.12479004  0.54262016  1
  O  O140  1  0.74425364  0.62847077  0.04053547  1
  O  O141  1  0.74298981  0.62547398  0.54214120  1
  O  O142  1  0.28477624  0.36617106  0.50866636  1
  O  O143  1  0.27189547  0.37578594  0.97865470  1
  O  O144  1  0.26610131  0.88093546  0.46870537  1
  O  O145  1  0.28849517  0.85569221  0.97951257  1
  O  O146  1  0.74453662  0.37617506  0.45987527  1
  O  O147  1  0.74625171  0.37343659  0.96957266  1
  O  O148  1  0.75024093  0.87354124  0.46393990  1
  O  O149  1  0.74953295  0.87637504  0.95582328  1
