# generated using pymatgen
data_Sr2Ca6Mn8O21
_symmetry_space_group_name_H-M   'P 1'
_cell_length_a   7.88973534
_cell_length_b   7.70962072
_cell_length_c   7.68442248
_cell_angle_alpha   90.07934917
_cell_angle_beta   87.76971103
_cell_angle_gamma   89.82048592
_symmetry_Int_Tables_number   1
_chemical_formula_structural   Sr2Ca6Mn8O21
_chemical_formula_sum   'Sr2 Ca6 Mn8 O21'
_cell_volume   467.06244349
_cell_formula_units_Z   1
loop_
 _symmetry_equiv_pos_site_id
 _symmetry_equiv_pos_as_xyz
  1  'x, y, z'
loop_
 _atom_site_type_symbol
 _atom_site_label
 _atom_site_symmetry_multiplicity
 _atom_site_fract_x
 _atom_site_fract_y
 _atom_site_fract_z
 _atom_site_occupancy
  Sr  Sr0  1  0.24131800  0.24163800  0.24096700  1
  Sr  Sr1  1  0.76449400  0.25602000  0.26958400  1
  Ca  Ca2  1  0.26348700  0.28093900  0.73074900  1
  Ca  Ca3  1  0.24201700  0.72927800  0.23909500  1
  Ca  Ca4  1  0.26469400  0.75257000  0.69250400  1
  Ca  Ca5  1  0.75071700  0.25836700  0.75416900  1
  Ca  Ca6  1  0.75486800  0.73460100  0.26438700  1
  Ca  Ca7  1  0.74447000  0.73084200  0.77286100  1
  Mn  Mn8  1  0.01892800  0.98869300  0.96822500  1
  Mn  Mn9  1  0.99459300  0.00079800  0.52564500  1
  Mn  Mn10  1  0.00167300  0.50286700  0.00265900  1
  Mn  Mn11  1  0.00507500  0.50688600  0.50204600  1
  Mn  Mn12  1  0.48708900  0.99120500  0.99613200  1
  Mn  Mn13  1  0.51056300  0.99974300  0.49113000  1
  Mn  Mn14  1  0.50073200  0.50028400  0.98721400  1
  Mn  Mn15  1  0.50594100  0.50585700  0.50715200  1
  O  O16  1  0.88447800  0.98981700  0.77263100  1
  O  O17  1  0.99383900  0.48816400  0.25322400  1
  O  O18  1  0.02605400  0.53336400  0.75372000  1
  O  O19  1  0.51232000  0.05667200  0.24081700  1
  O  O20  1  0.51357500  0.93864200  0.74412800  1
  O  O21  1  0.48080100  0.54937100  0.74719600  1
  O  O22  1  0.23470200  0.96505500  0.05554900  1
  O  O23  1  0.23850000  0.03331000  0.54751400  1
  O  O24  1  0.26247000  0.50949200  0.03349000  1
  O  O25  1  0.26423700  0.47128900  0.48032400  1
  O  O26  1  0.77521800  0.97559500  0.43158400  1
  O  O27  1  0.74233500  0.46863700  0.99784900  1
  O  O28  1  0.74943100  0.54038100  0.50458200  1
  O  O29  1  0.01054500  0.23527200  0.99788200  1
  O  O30  1  0.97045500  0.25596300  0.52197800  1
  O  O31  1  0.95539800  0.76047100  0.03526300  1
  O  O32  1  0.04768200  0.75691400  0.47704400  1
  O  O33  1  0.48468800  0.24410800  0.94666800  1
  O  O34  1  0.53937100  0.25795700  0.53160500  1
  O  O35  1  0.54238000  0.74492900  0.04660000  1
  O  O36  1  0.47086300  0.74401100  0.43583300  1
