# generated using pymatgen
data_SrCa7Ti2Mn6O23
_symmetry_space_group_name_H-M   'P 1'
_cell_length_a   7.68242201
_cell_length_b   7.67526747
_cell_length_c   7.71603543
_cell_angle_alpha   89.90857132
_cell_angle_beta   90.00355805
_cell_angle_gamma   90.00248629
_symmetry_Int_Tables_number   1
_chemical_formula_structural   SrCa7Ti2Mn6O23
_chemical_formula_sum   'Sr1 Ca7 Ti2 Mn6 O23'
_cell_volume   454.97269969
_cell_formula_units_Z   1
loop_
 _symmetry_equiv_pos_site_id
 _symmetry_equiv_pos_as_xyz
  1  'x, y, z'
loop_
 _atom_site_type_symbol
 _atom_site_label
 _atom_site_symmetry_multiplicity
 _atom_site_fract_x
 _atom_site_fract_y
 _atom_site_fract_z
 _atom_site_occupancy
  Sr  Sr0  1  0.25534100  0.25662000  0.24984800  1
  Ca  Ca1  1  0.26375200  0.27201000  0.74079100  1
  Ca  Ca2  1  0.25777700  0.74037400  0.25058800  1
  Ca  Ca3  1  0.26294800  0.73163300  0.73938000  1
  Ca  Ca4  1  0.74493400  0.26305000  0.25066700  1
  Ca  Ca5  1  0.73984500  0.27146200  0.73904000  1
  Ca  Ca6  1  0.74588600  0.73895200  0.25128300  1
  Ca  Ca7  1  0.73815200  0.72874400  0.73882700  1
  Ti  Ti8  1  0.99937500  0.99831700  0.98408100  1
  Ti  Ti9  1  0.50383700  0.99827100  0.00582600  1
  Mn  Mn10  1  0.99892700  0.99898500  0.50225100  1
  Mn  Mn11  1  0.99915600  0.50113300  0.00435900  1
  Mn  Mn12  1  0.99953500  0.50108300  0.49615000  1
  Mn  Mn13  1  0.50166700  0.99924100  0.49781500  1
  Mn  Mn14  1  0.50087400  0.50053200  0.99897000  1
  Mn  Mn15  1  0.50068200  0.50072000  0.49765300  1
  O  O16  1  0.99435600  0.99487300  0.75656000  1
  O  O17  1  0.99528200  0.49748800  0.25050500  1
  O  O18  1  0.99736700  0.50404100  0.74965500  1
  O  O19  1  0.49556200  0.99873200  0.25538000  1
  O  O20  1  0.50504000  0.99835300  0.75102100  1
  O  O21  1  0.50303400  0.50348200  0.24966600  1
  O  O22  1  0.50174000  0.50165200  0.74938600  1
  O  O23  1  0.24280400  0.99586100  0.03401100  1
  O  O24  1  0.24808200  0.99548300  0.48355700  1
  O  O25  1  0.25014800  0.50471200  0.99022900  1
  O  O26  1  0.25029500  0.50291800  0.51097300  1
  O  O27  1  0.75656400  0.00002000  0.04436800  1
  O  O28  1  0.75190400  0.99872100  0.46981000  1
  O  O29  1  0.74943000  0.50054300  0.99363800  1
  O  O30  1  0.74948300  0.50178700  0.50801300  1
  O  O31  1  0.99702900  0.24799700  0.01961800  1
  O  O32  1  0.99496200  0.24769000  0.48135000  1
  O  O33  1  0.99794900  0.75155100  0.02760000  1
  O  O34  1  0.99901300  0.75264900  0.46866000  1
  O  O35  1  0.50083500  0.25209800  0.99393100  1
  O  O36  1  0.50299800  0.25010700  0.51079700  1
  O  O37  1  0.50163900  0.74817100  0.99620600  1
  O  O38  1  0.50179600  0.74994300  0.50753600  1
