# generated using pymatgen
data_SrCa7Mn7CrO22
_symmetry_space_group_name_H-M   'P 1'
_cell_length_a   10.87141232
_cell_length_b   15.62180544
_cell_length_c   10.84710319
_cell_angle_alpha   90.01508630
_cell_angle_beta   90.73712179
_cell_angle_gamma   90.33999019
_symmetry_Int_Tables_number   1
_chemical_formula_structural   SrCa7Mn7CrO22
_chemical_formula_sum   'Sr4 Ca28 Mn28 Cr4 O88'
_cell_volume   1841.99035151
_cell_formula_units_Z   4
loop_
 _symmetry_equiv_pos_site_id
 _symmetry_equiv_pos_as_xyz
  1  'x, y, z'
loop_
 _atom_site_type_symbol
 _atom_site_label
 _atom_site_symmetry_multiplicity
 _atom_site_fract_x
 _atom_site_fract_y
 _atom_site_fract_z
 _atom_site_occupancy
  Sr  Sr0  1  0.00286046  0.11347732  0.50057649  1
  Sr  Sr1  1  0.49957209  0.38641463  0.99983008  1
  Sr  Sr2  1  0.24088346  0.38717018  0.25860399  1
  Sr  Sr3  1  0.23245473  0.11869701  0.24330331  1
  Ca  Ca4  1  0.99395783  0.10988424  0.00700835  1
  Ca  Ca5  1  0.01810491  0.62855076  0.49686052  1
  Ca  Ca6  1  0.01643248  0.62879584  0.99626942  1
  Ca  Ca7  1  0.53665296  0.12714637  0.48313631  1
  Ca  Ca8  1  0.54651079  0.12688850  0.98227830  1
  Ca  Ca9  1  0.52180982  0.62497329  0.49922114  1
  Ca  Ca10  1  0.52288773  0.62444793  0.99789697  1
  Ca  Ca11  1  0.49388391  0.39216683  0.50137219  1
  Ca  Ca12  1  0.49483490  0.85718898  0.00076486  1
  Ca  Ca13  1  0.49517412  0.85735427  0.50122766  1
  Ca  Ca14  1  0.96580454  0.38761477  0.00074592  1
  Ca  Ca15  1  0.96431657  0.38838711  0.50107901  1
  Ca  Ca16  1  0.96884429  0.87167096  0.00710317  1
  Ca  Ca17  1  0.97028300  0.87329662  0.50891945  1
  Ca  Ca18  1  0.23399785  0.39830011  0.74319006  1
  Ca  Ca19  1  0.22426571  0.87132632  0.25460110  1
  Ca  Ca20  1  0.22383612  0.87078678  0.74973708  1
  Ca  Ca21  1  0.74065133  0.39287713  0.25165369  1
  Ca  Ca22  1  0.73355379  0.38654378  0.75053964  1
  Ca  Ca23  1  0.74256931  0.86143453  0.25343901  1
  Ca  Ca24  1  0.74161195  0.86244255  0.74966470  1
  Ca  Ca25  1  0.22468853  0.10694419  0.73382146  1
  Ca  Ca26  1  0.26878572  0.63023551  0.25849993  1
  Ca  Ca27  1  0.26915629  0.63010886  0.75631903  1
  Ca  Ca28  1  0.77653179  0.11348574  0.24889179  1
  Ca  Ca29  1  0.78142048  0.12161168  0.75444256  1
  Ca  Ca30  1  0.77210559  0.62610480  0.25421206  1
  Ca  Ca31  1  0.77078596  0.62481208  0.75692555  1
  Mn  Mn32  1  0.99290934  0.99234397  0.75573573  1
  Mn  Mn33  1  0.00212604  0.50391801  0.24988649  1
  Mn  Mn34  1  0.00043230  0.50309140  0.74912345  1
  Mn  Mn35  1  0.50791166  0.98321956  0.23250788  1
  Mn  Mn36  1  0.50894412  0.98429810  0.73536855  1
  Mn  Mn37  1  0.50007412  0.50685660  0.25136603  1
  Mn  Mn38  1  0.49694842  0.50543351  0.75071952  1
  Mn  Mn39  1  0.24536377  0.99345576  0.50955934  1
  Mn  Mn40  1  0.24898222  0.51215956  0.00449928  1
  Mn  Mn41  1  0.24878571  0.50773332  0.50338043  1
  Mn  Mn42  1  0.74517956  0.99632977  0.99539727  1
  Mn  Mn43  1  0.74227502  0.99816755  0.49748355  1
  Mn  Mn44  1  0.75114569  0.50475323  0.00180060  1
  Mn  Mn45  1  0.74837952  0.50477862  0.50304402  1
  Mn  Mn46  1  0.26429933  0.24196769  0.47083928  1
  Mn  Mn47  1  0.25081249  0.75341234  0.00475851  1
  Mn  Mn48  1  0.25125778  0.75204237  0.50460516  1
  Mn  Mn49  1  0.75748440  0.24972807  0.00456248  1
  Mn  Mn50  1  0.74792717  0.25181057  0.50578980  1
  Mn  Mn51  1  0.75064083  0.74726810  0.00120394  1
  Mn  Mn52  1  0.75047709  0.74672299  0.50206362  1
  Mn  Mn53  1  0.99242847  0.25575930  0.76007347  1
  Mn  Mn54  1  0.00228142  0.74960675  0.25176671  1
  Mn  Mn55  1  0.00176442  0.74868451  0.75077679  1
  Mn  Mn56  1  0.52804624  0.25769076  0.25839898  1
  Mn  Mn57  1  0.51479385  0.25416105  0.74917001  1
  Mn  Mn58  1  0.50027086  0.74665767  0.25348532  1
  Mn  Mn59  1  0.50036095  0.74646546  0.75414061  1
  Cr  Cr60  1  0.99238973  0.99231802  0.25376607  1
  Cr  Cr61  1  0.23514139  0.99088716  0.00961327  1
  Cr  Cr62  1  0.26128017  0.23400357  0.93574550  1
  Cr  Cr63  1  0.97987819  0.25500272  0.26962749  1
  O  O64  1  0.10813956  0.77835407  0.10631454  1
  O  O65  1  0.10760325  0.77583473  0.60503713  1
  O  O66  1  0.58923762  0.25146270  0.09746224  1
  O  O67  1  0.58236255  0.25814888  0.58441553  1
  O  O68  1  0.61107038  0.76481566  0.11216444  1
  O  O69  1  0.61030566  0.76470957  0.61247563  1
  O  O70  1  0.40471115  0.20912952  0.35445403  1
  O  O71  1  0.39568429  0.18745446  0.85325900  1
  O  O72  1  0.39827697  0.72882077  0.39941529  1
  O  O73  1  0.39824108  0.72874852  0.90033039  1
  O  O74  1  0.90582441  0.24417180  0.42300427  1
  O  O75  1  0.91668020  0.23966879  0.92558876  1
  O  O76  1  0.89344050  0.72881505  0.39287499  1
  O  O77  1  0.89361653  0.73025254  0.89358931  1
  O  O78  1  0.14622342  0.24523867  0.33740027  1
  O  O79  1  0.17713066  0.25004418  0.79068105  1
  O  O80  1  0.14881619  0.73475387  0.35429800  1
  O  O81  1  0.14807568  0.73534555  0.85473064  1
  O  O82  1  0.66091576  0.21813248  0.35022592  1
  O  O83  1  0.65846258  0.22644371  0.85559827  1
  O  O84  1  0.64473376  0.72594044  0.35827062  1
  O  O85  1  0.64455816  0.72554074  0.85844980  1
  O  O86  1  0.35830872  0.77563658  0.14877511  1
  O  O87  1  0.35750387  0.77270942  0.64971226  1
  O  O88  1  0.84987839  0.27827319  0.15475917  1
  O  O89  1  0.84598547  0.27373438  0.65580580  1
  O  O90  1  0.86028381  0.76875226  0.14232371  1
  O  O91  1  0.86001229  0.76849801  0.64153700  1
  O  O92  1  0.36145602  0.48797856  0.13924556  1
  O  O93  1  0.35537290  0.49281436  0.64363328  1
  O  O94  1  0.35093115  0.99505136  0.15847288  1
  O  O95  1  0.34945459  0.99139128  0.66621184  1
  O  O96  1  0.86066549  0.48418726  0.14239945  1
  O  O97  1  0.85650441  0.48108455  0.64413348  1
  O  O98  1  0.84090293  0.97643139  0.14490655  1
  O  O99  1  0.84462805  0.98016108  0.64720227  1
  O  O100  1  0.14439557  0.00832199  0.36506911  1
  O  O101  1  0.14145232  0.01109752  0.86115569  1
  O  O102  1  0.14667263  0.52179497  0.35535795  1
  O  O103  1  0.14861577  0.51750457  0.85399204  1
  O  O104  1  0.62455141  0.02901600  0.34420571  1
  O  O105  1  0.63160706  0.02900250  0.84285268  1
  O  O106  1  0.64334214  0.52296299  0.35862581  1
  O  O107  1  0.64157104  0.51773597  0.85812288  1
  O  O108  1  0.39443073  0.51687847  0.39505208  1
  O  O109  1  0.39144299  0.51779536  0.89446838  1
  O  O110  1  0.87888447  0.01307556  0.39177486  1
  O  O111  1  0.88592648  0.01394688  0.89397374  1
  O  O112  1  0.89422748  0.51960905  0.39506985  1
  O  O113  1  0.89524484  0.51852849  0.89487235  1
  O  O114  1  0.10807849  0.47902822  0.10429512  1
  O  O115  1  0.10586333  0.47915152  0.60498514  1
  O  O116  1  0.09569551  0.98072859  0.10738011  1
  O  O117  1  0.09866532  0.98168521  0.61885540  1
  O  O118  1  0.61509421  0.48962742  0.11535644  1
  O  O119  1  0.60803268  0.48626863  0.61166232  1
  O  O120  1  0.58721765  0.99281640  0.07735750  1
  O  O121  1  0.58409727  0.99251882  0.57892820  1
  O  O122  1  0.00729106  0.38155665  0.28729017  1
  O  O123  1  0.01325862  0.37760868  0.78500839  1
  O  O124  1  0.00266393  0.86968301  0.29462450  1
  O  O125  1  0.00044105  0.87181340  0.79134027  1
  O  O126  1  0.50278792  0.37931938  0.27756278  1
  O  O127  1  0.48597826  0.37759895  0.76850019  1
  O  O128  1  0.51747202  0.86918589  0.29016869  1
  O  O129  1  0.51789955  0.86929529  0.79051149  1
  O  O130  1  0.48549607  0.62762487  0.21167530  1
  O  O131  1  0.48830041  0.62742397  0.71351644  1
  O  O132  1  0.99205449  0.12865081  0.22371225  1
  O  O133  1  0.00047520  0.13119632  0.72911803  1
  O  O134  1  0.99441253  0.62641932  0.21106989  1
  O  O135  1  0.99403037  0.62497811  0.71366357  1
  O  O136  1  0.21750924  0.13842030  0.01977792  1
  O  O137  1  0.25504631  0.12447592  0.52608588  1
  O  O138  1  0.23474400  0.63555156  0.04229028  1
  O  O139  1  0.23648084  0.63242644  0.53945458  1
  O  O140  1  0.75594695  0.12325477  0.03532053  1
  O  O141  1  0.74687182  0.12527900  0.54008660  1
  O  O142  1  0.74599417  0.62580222  0.03702187  1
  O  O143  1  0.74443289  0.62517182  0.54129747  1
  O  O144  1  0.27740355  0.35863664  0.50108007  1
  O  O145  1  0.27527137  0.32903181  0.01642925  1
  O  O146  1  0.28228366  0.87974747  0.46442556  1
  O  O147  1  0.28078405  0.88062197  0.96103124  1
  O  O148  1  0.74359519  0.37724982  0.46739652  1
  O  O149  1  0.74763965  0.37648116  0.96801754  1
  O  O150  1  0.74615522  0.87287768  0.46788700  1
  O  O151  1  0.74641048  0.87283945  0.96342199  1
