# generated using pymatgen
data_SrCa7Mn6Cr2O21
_symmetry_space_group_name_H-M   'P 1'
_cell_length_a   7.79777401
_cell_length_b   7.80881537
_cell_length_c   7.72903376
_cell_angle_alpha   89.93076036
_cell_angle_beta   89.63853113
_cell_angle_gamma   90.00678233
_symmetry_Int_Tables_number   1
_chemical_formula_structural   SrCa7Mn6Cr2O21
_chemical_formula_sum   'Sr1 Ca7 Mn6 Cr2 O21'
_cell_volume   470.62179975
_cell_formula_units_Z   1
loop_
 _symmetry_equiv_pos_site_id
 _symmetry_equiv_pos_as_xyz
  1  'x, y, z'
loop_
 _atom_site_type_symbol
 _atom_site_label
 _atom_site_symmetry_multiplicity
 _atom_site_fract_x
 _atom_site_fract_y
 _atom_site_fract_z
 _atom_site_occupancy
  Sr  Sr0  1  0.24389300  0.25473800  0.24479800  1
  Ca  Ca1  1  0.26788800  0.27273800  0.70129500  1
  Ca  Ca2  1  0.23127400  0.73301400  0.24679800  1
  Ca  Ca3  1  0.26434600  0.73215900  0.69775700  1
  Ca  Ca4  1  0.74221600  0.25886900  0.26046000  1
  Ca  Ca5  1  0.74459700  0.24669700  0.71847200  1
  Ca  Ca6  1  0.73468400  0.74501300  0.25929000  1
  Ca  Ca7  1  0.74745800  0.75053600  0.71743100  1
  Mn  Mn8  1  0.00600600  0.99997100  0.50573700  1
  Mn  Mn9  1  0.99020900  0.50653500  0.00911700  1
  Mn  Mn10  1  0.99927400  0.50119100  0.49808800  1
  Mn  Mn11  1  0.51091900  0.99904700  0.48282600  1
  Mn  Mn12  1  0.50137500  0.50391000  0.99031800  1
  Mn  Mn13  1  0.50593700  0.50267900  0.49870200  1
  Cr  Cr14  1  0.01630600  0.99522900  0.98491000  1
  Cr  Cr15  1  0.48192400  0.99620300  0.99642100  1
  O  O16  1  0.95124600  0.99183200  0.76670600  1
  O  O17  1  0.01887700  0.49696600  0.25451700  1
  O  O18  1  0.99282500  0.50923300  0.75715500  1
  O  O19  1  0.55014300  0.01609000  0.23485200  1
  O  O20  1  0.53381700  0.98612800  0.74590500  1
  O  O21  1  0.50439700  0.51808300  0.74508900  1
  O  O22  1  0.24259500  0.98129100  0.04227900  1
  O  O23  1  0.25579700  0.00388600  0.49674900  1
  O  O24  1  0.25258800  0.51277700  0.01608700  1
  O  O25  1  0.25895300  0.49799500  0.49501900  1
  O  O26  1  0.76324300  0.99549700  0.47491600  1
  O  O27  1  0.73916900  0.49252100  0.04936500  1
  O  O28  1  0.74797600  0.50494700  0.47927100  1
  O  O29  1  0.95715200  0.19775800  0.06882100  1
  O  O30  1  0.00424300  0.24911800  0.51108500  1
  O  O31  1  0.95423000  0.79361200  0.07223700  1
  O  O32  1  0.01553700  0.75240300  0.49372700  1
  O  O33  1  0.49983100  0.25407600  0.99644500  1
  O  O34  1  0.50706900  0.25767000  0.49254900  1
  O  O35  1  0.51836400  0.74599500  0.03064600  1
  O  O36  1  0.49364200  0.74359400  0.46416200  1
