# generated using pymatgen
data_SrCa7Mn7CrO24
_symmetry_space_group_name_H-M   'P 1'
_cell_length_a   10.84996579
_cell_length_b   15.19202684
_cell_length_c   10.70995952
_cell_angle_alpha   90.00596386
_cell_angle_beta   90.02271988
_cell_angle_gamma   89.98373911
_symmetry_Int_Tables_number   1
_chemical_formula_structural   SrCa7Mn7CrO24
_chemical_formula_sum   'Sr4 Ca28 Mn28 Cr4 O96'
_cell_volume   1765.35423282
_cell_formula_units_Z   4
loop_
 _symmetry_equiv_pos_site_id
 _symmetry_equiv_pos_as_xyz
  1  'x, y, z'
loop_
 _atom_site_type_symbol
 _atom_site_label
 _atom_site_symmetry_multiplicity
 _atom_site_fract_x
 _atom_site_fract_y
 _atom_site_fract_z
 _atom_site_occupancy
  Sr  Sr0  1  0.01721162  0.12485636  0.49703116  1
  Sr  Sr1  1  0.48308203  0.37534702  0.00257151  1
  Sr  Sr2  1  0.23190706  0.37577894  0.24678685  1
  Sr  Sr3  1  0.26852631  0.12460920  0.25384538  1
  Ca  Ca4  1  0.02026540  0.12484137  0.99533521  1
  Ca  Ca5  1  0.02264068  0.62506150  0.49520753  1
  Ca  Ca6  1  0.02251285  0.62507849  0.99591836  1
  Ca  Ca7  1  0.52257534  0.12490668  0.49622791  1
  Ca  Ca8  1  0.52384455  0.12484601  0.99450953  1
  Ca  Ca9  1  0.52263948  0.62511922  0.49558269  1
  Ca  Ca10  1  0.52248104  0.62519887  0.99567811  1
  Ca  Ca11  1  0.47822130  0.37479927  0.50552591  1
  Ca  Ca12  1  0.47820845  0.87472092  0.00413825  1
  Ca  Ca13  1  0.47764460  0.87517874  0.50477679  1
  Ca  Ca14  1  0.97740905  0.37537431  0.00402597  1
  Ca  Ca15  1  0.97706112  0.37548551  0.50487331  1
  Ca  Ca16  1  0.97715166  0.87461887  0.00426258  1
  Ca  Ca17  1  0.97753976  0.87451983  0.50446455  1
  Ca  Ca18  1  0.22749381  0.37557874  0.74405840  1
  Ca  Ca19  1  0.22788492  0.87422661  0.24619377  1
  Ca  Ca20  1  0.22772412  0.87440999  0.74492410  1
  Ca  Ca21  1  0.72833688  0.37499318  0.24649287  1
  Ca  Ca22  1  0.72762942  0.37466116  0.74492283  1
  Ca  Ca23  1  0.72718012  0.87500674  0.24566651  1
  Ca  Ca24  1  0.72728549  0.87532162  0.74526819  1
  Ca  Ca25  1  0.27326047  0.12480980  0.75461655  1
  Ca  Ca26  1  0.27246853  0.62530387  0.25420286  1
  Ca  Ca27  1  0.27283042  0.62521254  0.75466419  1
  Ca  Ca28  1  0.77004625  0.12493848  0.25378077  1
  Ca  Ca29  1  0.77174271  0.12502152  0.75471662  1
  Ca  Ca30  1  0.77255336  0.62500434  0.25431096  1
  Ca  Ca31  1  0.77244147  0.62495967  0.75452566  1
  Mn  Mn32  1  -0.00001005  0.99939508  0.75125736  1
  Mn  Mn33  1  0.99909905  0.50077197  0.25008551  1
  Mn  Mn34  1  0.99986114  0.50023964  0.74993050  1
  Mn  Mn35  1  0.50077234  0.99925566  0.25029696  1
  Mn  Mn36  1  0.50023175  -0.00004040  0.75021133  1
  Mn  Mn37  1  0.50154125  0.50153272  0.25076980  1
  Mn  Mn38  1  0.50002127  0.50065235  0.74847969  1
  Mn  Mn39  1  0.25080114  0.99892773  0.50091869  1
  Mn  Mn40  1  0.24931722  0.50132735  0.99872861  1
  Mn  Mn41  1  0.24988174  0.50081144  0.50144353  1
  Mn  Mn42  1  0.74965286  0.99949131  0.99971087  1
  Mn  Mn43  1  0.74868913  0.99929858  0.49989347  1
  Mn  Mn44  1  0.75134792  0.50083983  0.00033453  1
  Mn  Mn45  1  0.74998436  0.50027653  0.50032646  1
  Mn  Mn46  1  0.25045432  0.25041218  0.50226603  1
  Mn  Mn47  1  0.25004077  0.74994565  0.99970970  1
  Mn  Mn48  1  0.25016991  0.74988711  0.50001511  1
  Mn  Mn49  1  0.75086558  0.24954899  0.00015004  1
  Mn  Mn50  1  0.74874339  0.25046997  0.50013373  1
  Mn  Mn51  1  0.75011532  0.75008774  0.99988609  1
  Mn  Mn52  1  0.74988426  0.74991791  0.50013261  1
  Mn  Mn53  1  0.99978803  0.25047304  0.75119371  1
  Mn  Mn54  1  0.99989570  0.74971521  0.24998239  1
  Mn  Mn55  1  0.99996667  0.74986335  0.74999304  1
  Mn  Mn56  1  0.50199463  0.24904844  0.25075717  1
  Mn  Mn57  1  0.50013557  0.24920961  0.74876050  1
  Mn  Mn58  1  0.50028210  0.75015516  0.25022691  1
  Mn  Mn59  1  0.50009678  0.75011305  0.75004084  1
  Cr  Cr60  1  0.99770233  0.99790522  0.24871036  1
  Cr  Cr61  1  0.25005788  0.99877094  0.99812190  1
  Cr  Cr62  1  0.24899379  0.24969539  0.99715568  1
  Cr  Cr63  1  0.99679798  0.25153501  0.24881567  1
  O  O64  1  0.10253018  0.26751130  0.10410684  1
  O  O65  1  0.10481508  0.27143913  0.60562894  1
  O  O66  1  0.10407728  0.77081933  0.10298645  1
  O  O67  1  0.10393721  0.77026260  0.60306846  1
  O  O68  1  0.60880040  0.26686555  0.10719701  1
  O  O69  1  0.60437143  0.26974019  0.60241018  1
  O  O70  1  0.60399342  0.77029018  0.10300637  1
  O  O71  1  0.60397208  0.77025973  0.60302555  1
  O  O72  1  0.39766560  0.23207147  0.39791217  1
  O  O73  1  0.39618064  0.22923960  0.89427667  1
  O  O74  1  0.39603214  0.72960905  0.39696942  1
  O  O75  1  0.39618256  0.72967718  0.89693408  1
  O  O76  1  0.88963813  0.23270921  0.39163033  1
  O  O77  1  0.89605396  0.23032673  0.89788452  1
  O  O78  1  0.89607073  0.72979483  0.39707186  1
  O  O79  1  0.89616137  0.72972605  0.89700408  1
  O  O80  1  0.14236130  0.23495413  0.35759136  1
  O  O81  1  0.14504437  0.22989565  0.85346114  1
  O  O82  1  0.14623444  0.72978236  0.35310020  1
  O  O83  1  0.14597813  0.72982191  0.85288129  1
  O  O84  1  0.64591884  0.22963802  0.35380369  1
  O  O85  1  0.64589880  0.23027194  0.85363846  1
  O  O86  1  0.64610492  0.72959146  0.35295211  1
  O  O87  1  0.64610779  0.72958410  0.85307294  1
  O  O88  1  0.35816442  0.26565405  0.14148055  1
  O  O89  1  0.35377009  0.26975961  0.64810373  1
  O  O90  1  0.35397462  0.77048784  0.14677947  1
  O  O91  1  0.35403554  0.77022985  0.64702102  1
  O  O92  1  0.85338510  0.26962853  0.14567373  1
  O  O93  1  0.85494538  0.26990970  0.64635437  1
  O  O94  1  0.85392356  0.77062632  0.14704779  1
  O  O95  1  0.85398354  0.77038191  0.64704201  1
  O  O96  1  0.35666247  0.48548041  0.14389908  1
  O  O97  1  0.35390024  0.48065274  0.64729620  1
  O  O98  1  0.35533476  0.97876817  0.14469053  1
  O  O99  1  0.35390878  0.97935283  0.64789219  1
  O  O100  1  0.85421852  0.47958805  0.14682807  1
  O  O101  1  0.85401978  0.47965320  0.64701028  1
  O  O102  1  0.85297341  0.98002323  0.14583094  1
  O  O103  1  0.85491117  0.98003604  0.64642207  1
  O  O104  1  0.14401509  0.01384586  0.35622360  1
  O  O105  1  0.14522020  0.01977297  0.85408997  1
  O  O106  1  0.14477603  0.52161313  0.35468576  1
  O  O107  1  0.14578079  0.52053277  0.85233581  1
  O  O108  1  0.64591523  0.02012569  0.35302531  1
  O  O109  1  0.64641071  0.02027416  0.85305832  1
  O  O110  1  0.64615972  0.52064926  0.35382123  1
  O  O111  1  0.64547487  0.51988439  0.85371103  1
  O  O112  1  0.39820121  0.01835646  0.39831584  1
  O  O113  1  0.39708302  0.01948624  0.89663219  1
  O  O114  1  0.39558488  0.51994344  0.39671225  1
  O  O115  1  0.39482635  0.52174669  0.89466919  1
  O  O116  1  0.89028014  0.01670211  0.39159373  1
  O  O117  1  0.89609098  0.01961519  0.89796833  1
  O  O118  1  0.89561552  0.52059893  0.39724094  1
  O  O119  1  0.89609173  0.52033492  0.89688035  1
  O  O120  1  0.10204163  0.48135738  0.10152985  1
  O  O121  1  0.10355260  0.47999705  0.60348728  1
  O  O122  1  0.10443699  0.98084506  0.10459720  1
  O  O123  1  0.10523092  0.97826258  0.60521660  1
  O  O124  1  0.60882125  0.48368559  0.10748473  1
  O  O125  1  0.60427839  0.48039679  0.60233742  1
  O  O126  1  0.60389388  0.97921479  0.10273720  1
  O  O127  1  0.60405344  0.97956433  0.60306026  1
  O  O128  1  0.00385909  0.37579998  0.28827386  1
  O  O129  1  0.00971420  0.37512676  0.78961599  1
  O  O130  1  0.00930817  0.87428849  0.28785676  1
  O  O131  1  0.00989548  0.87485806  0.78977750  1
  O  O132  1  0.50920913  0.37532570  0.28767639  1
  O  O133  1  0.51022331  0.37515340  0.78063926  1
  O  O134  1  0.51014041  0.87470452  0.28941534  1
  O  O135  1  0.50988808  0.87487450  0.78943141  1
  O  O136  1  0.49656305  0.12414364  0.21074447  1
  O  O137  1  0.49041808  0.12472380  0.71053156  1
  O  O138  1  0.49043833  0.62592315  0.21136045  1
  O  O139  1  0.49048357  0.62523789  0.71033811  1
  O  O140  1  0.99122194  0.12444916  0.21409946  1
  O  O141  1  0.98954552  0.12496670  0.71929286  1
  O  O142  1  0.98994896  0.62526409  0.21071512  1
  O  O143  1  0.99003581  0.62501167  0.71062356  1
  O  O144  1  0.23944610  0.12453308  0.02907384  1
  O  O145  1  0.24628992  0.12486406  0.53866561  1
  O  O146  1  0.23965134  0.62561810  0.03891147  1
  O  O147  1  0.24034095  0.62517659  0.53965378  1
  O  O148  1  0.74147163  0.12450500  0.03895200  1
  O  O149  1  0.74108025  0.12489337  0.53902251  1
  O  O150  1  0.74075024  0.62550746  0.03900967  1
  O  O151  1  0.74021205  0.62509174  0.53941800  1
  O  O152  1  0.26063518  0.37561816  0.46939671  1
  O  O153  1  0.25443733  0.37457693  0.96179507  1
  O  O154  1  0.26036697  0.87434238  0.46102078  1
  O  O155  1  0.25963620  0.87515542  0.96079678  1
  O  O156  1  0.75941793  0.37551131  0.46122872  1
  O  O157  1  0.75877025  0.37517515  0.96128688  1
  O  O158  1  0.75963841  0.87448599  0.46086985  1
  O  O159  1  0.75987995  0.87481867  0.96058401  1
