# generated using pymatgen
data_Ca8Ti3Mn5O21
_symmetry_space_group_name_H-M   'P 1'
_cell_length_a   11.15021675
_cell_length_b   15.46446718
_cell_length_c   11.12179441
_cell_angle_alpha   90.04365675
_cell_angle_beta   91.34307012
_cell_angle_gamma   90.43672131
_symmetry_Int_Tables_number   1
_chemical_formula_structural   Ca8Ti3Mn5O21
_chemical_formula_sum   'Ca32 Ti12 Mn20 O84'
_cell_volume   1917.17164103
_cell_formula_units_Z   4
loop_
 _symmetry_equiv_pos_site_id
 _symmetry_equiv_pos_as_xyz
  1  'x, y, z'
loop_
 _atom_site_type_symbol
 _atom_site_label
 _atom_site_symmetry_multiplicity
 _atom_site_fract_x
 _atom_site_fract_y
 _atom_site_fract_z
 _atom_site_occupancy
  Ca  Ca0  1  0.97456701  0.12259660  0.53154465  1
  Ca  Ca1  1  0.97854878  0.11869027  0.02409194  1
  Ca  Ca2  1  0.99693136  0.61955566  0.52643375  1
  Ca  Ca3  1  0.99459442  0.61814641  0.00114483  1
  Ca  Ca4  1  0.53963376  0.12003758  0.48228975  1
  Ca  Ca5  1  0.54059449  0.12421537  0.98648921  1
  Ca  Ca6  1  0.53353268  0.62735562  0.51331387  1
  Ca  Ca7  1  0.54461259  0.62170460  0.97185137  1
  Ca  Ca8  1  0.50947697  0.38876315  0.98783114  1
  Ca  Ca9  1  0.48728081  0.37607898  0.52328531  1
  Ca  Ca10  1  0.53553763  0.85790677  0.97521970  1
  Ca  Ca11  1  0.48938352  0.86358609  0.50016327  1
  Ca  Ca12  1  0.96350722  0.38707564  0.00792655  1
  Ca  Ca13  1  0.95630407  0.38620886  0.51004912  1
  Ca  Ca14  1  0.95654762  0.87840441  0.99716826  1
  Ca  Ca15  1  0.96495270  0.86845962  0.51530206  1
  Ca  Ca16  1  0.24366950  0.39055433  0.22541947  1
  Ca  Ca17  1  0.23304789  0.40329162  0.75973997  1
  Ca  Ca18  1  0.24129110  0.88098318  0.27549170  1
  Ca  Ca19  1  0.22970846  0.86332628  0.72019929  1
  Ca  Ca20  1  0.74598217  0.37540519  0.25165279  1
  Ca  Ca21  1  0.72462823  0.38860400  0.76232466  1
  Ca  Ca22  1  0.74195607  0.86183095  0.24158494  1
  Ca  Ca23  1  0.71787426  0.86489268  0.73686220  1
  Ca  Ca24  1  0.22345143  0.12132198  0.21736750  1
  Ca  Ca25  1  0.22886912  0.11521870  0.73307446  1
  Ca  Ca26  1  0.24470206  0.61837047  0.27358001  1
  Ca  Ca27  1  0.26319976  0.62543635  0.71878423  1
  Ca  Ca28  1  0.76579040  0.12124284  0.25206359  1
  Ca  Ca29  1  0.76505254  0.12734219  0.75389649  1
  Ca  Ca30  1  0.76852382  0.61278800  0.25643626  1
  Ca  Ca31  1  0.77117330  0.62549588  0.75198120  1
  Ti  Ti32  1  0.98863905  0.99491773  0.26566170  1
  Ti  Ti33  1  0.98277176  0.99403510  0.75735706  1
  Ti  Ti34  1  0.00209526  0.49886643  0.25885169  1
  Ti  Ti35  1  0.24133299  0.97337313  0.01931245  1
  Ti  Ti36  1  0.23264878  0.00277603  0.50749967  1
  Ti  Ti37  1  0.25317136  0.52165492  0.00703686  1
  Ti  Ti38  1  0.26368079  0.24505367  0.93865223  1
  Ti  Ti39  1  0.25551485  0.23896707  0.44030169  1
  Ti  Ti40  1  0.26486334  0.74332117  0.97896014  1
  Ti  Ti41  1  0.98827923  0.25193287  0.27187542  1
  Ti  Ti42  1  0.99431911  0.25756142  0.77720664  1
  Ti  Ti43  1  0.99940180  0.74697260  0.27166231  1
  Mn  Mn44  1  0.99429592  0.49926174  0.75753504  1
  Mn  Mn45  1  0.50129587  0.98911235  0.22338735  1
  Mn  Mn46  1  0.49901152  0.99957773  0.72163580  1
  Mn  Mn47  1  0.50472990  0.48970214  0.24778146  1
  Mn  Mn48  1  0.49329198  0.50197607  0.75048818  1
  Mn  Mn49  1  0.23218366  0.48866668  0.50719155  1
  Mn  Mn50  1  0.74158358  0.00064914  0.98886284  1
  Mn  Mn51  1  0.74259187  0.99569277  0.48723381  1
  Mn  Mn52  1  0.75133552  0.50205574  0.00460028  1
  Mn  Mn53  1  0.73871756  0.49817617  0.50660166  1
  Mn  Mn54  1  0.24499938  0.74384383  0.49143220  1
  Mn  Mn55  1  0.74527133  0.25051310  0.00779443  1
  Mn  Mn56  1  0.74295970  0.24986621  0.50428799  1
  Mn  Mn57  1  0.76021430  0.74780633  0.99818533  1
  Mn  Mn58  1  0.74971383  0.74788238  0.50122822  1
  Mn  Mn59  1  0.00089641  0.75167332  0.75255265  1
  Mn  Mn60  1  0.50374165  0.25677833  0.26047544  1
  Mn  Mn61  1  0.50780888  0.24724768  0.75658156  1
  Mn  Mn62  1  0.51443925  0.75058025  0.26239383  1
  Mn  Mn63  1  0.49776828  0.74735003  0.74296298  1
  O  O64  1  0.09814207  0.76949380  0.60517859  1
  O  O65  1  0.56132971  0.25854361  0.09420054  1
  O  O66  1  0.56671775  0.24791442  0.59086883  1
  O  O67  1  0.60664595  0.76481447  0.11880887  1
  O  O68  1  0.60578168  0.76345883  0.59570106  1
  O  O69  1  0.38416788  0.18515631  0.36584916  1
  O  O70  1  0.38809589  0.18423509  0.86738463  1
  O  O71  1  0.40798096  0.69466619  0.36815479  1
  O  O72  1  0.41166356  0.73307344  0.92443226  1
  O  O73  1  0.92448124  0.24027384  0.41584534  1
  O  O74  1  0.92348908  0.23941686  0.91695512  1
  O  O75  1  0.91051764  0.72851825  0.40207096  1
  O  O76  1  0.91645932  0.73872460  0.90217240  1
  O  O77  1  0.16837008  0.25295909  0.29734301  1
  O  O78  1  0.17606418  0.25514260  0.79421044  1
  O  O79  1  0.16584075  0.74930769  0.31326829  1
  O  O80  1  0.17550586  0.74162580  0.84569914  1
  O  O81  1  0.65812062  0.22836511  0.34927288  1
  O  O82  1  0.66113145  0.23252476  0.85398567  1
  O  O83  1  0.66297004  0.72333354  0.34936081  1
  O  O84  1  0.64347191  0.73241580  0.84923388  1
  O  O85  1  0.35543663  0.75818935  0.64016384  1
  O  O86  1  0.85770274  0.26407843  0.15923953  1
  O  O87  1  0.87492489  0.26599142  0.65675960  1
  O  O88  1  0.89143410  0.77732065  0.14678988  1
  O  O89  1  0.84904761  0.77408507  0.64367695  1
  O  O90  1  0.35751985  0.51218522  0.16281037  1
  O  O91  1  0.34759689  0.48933562  0.64041813  1
  O  O92  1  0.35403458  0.02890309  0.11711108  1
  O  O93  1  0.36457343  0.04332097  0.60290193  1
  O  O94  1  0.86612077  0.48158615  0.15223233  1
  O  O95  1  0.84564557  0.47708413  0.64336250  1
  O  O96  1  0.86276608  0.97812507  0.16082122  1
  O  O97  1  0.85943722  0.97820615  0.65486609  1
  O  O98  1  0.17621189  0.01756830  0.35043293  1
  O  O99  1  0.23623707  0.99453253  0.86029041  1
  O  O100  1  0.16022953  0.49292444  0.34636424  1
  O  O101  1  0.16170691  0.52741481  0.86619324  1
  O  O102  1  0.62851815  0.02953721  0.33688238  1
  O  O103  1  0.62502158  0.04023297  0.83516425  1
  O  O104  1  0.63028375  0.52183875  0.36084123  1
  O  O105  1  0.64074822  0.51603596  0.85566980  1
  O  O106  1  0.39519840  0.51615195  0.91261916  1
  O  O107  1  0.90013714  0.01723171  0.40215339  1
  O  O108  1  0.89776816  0.01418589  0.89952004  1
  O  O109  1  0.90758627  0.51684823  0.39123747  1
  O  O110  1  0.89517830  0.51110198  0.89879408  1
  O  O111  1  0.11885611  0.47625887  0.09794568  1
  O  O112  1  0.09266805  0.47307310  0.61771369  1
  O  O113  1  0.10112930  0.98970205  0.09759227  1
  O  O114  1  0.10985492  0.98805564  0.61318415  1
  O  O115  1  0.60698175  0.49498799  0.11179304  1
  O  O116  1  0.59424011  0.48517981  0.61280276  1
  O  O117  1  0.59516421  0.98388602  0.07487153  1
  O  O118  1  0.60144819  0.97961206  0.57746810  1
  O  O119  1  0.00536146  0.37277692  0.27641153  1
  O  O120  1  0.01814372  0.37624424  0.80325441  1
  O  O121  1  0.02116881  0.87908048  0.30209286  1
  O  O122  1  0.02873875  0.88243183  0.79741972  1
  O  O123  1  0.44926231  0.37925516  0.31155094  1
  O  O124  1  0.48795690  0.37666512  0.77741404  1
  O  O125  1  0.45479035  0.86973748  0.28575580  1
  O  O126  1  0.49328750  0.87339735  0.77074811  1
  O  O127  1  0.47938313  0.62383301  0.72084838  1
  O  O128  1  0.00305583  0.12666614  0.23156771  1
  O  O129  1  0.01283095  0.12243763  0.74307776  1
  O  O130  1  0.01189028  0.62527222  0.22049361  1
  O  O131  1  0.98741333  0.62388204  0.72667256  1
  O  O132  1  0.17711567  0.17652219  0.03314544  1
  O  O133  1  0.18209872  0.15871771  0.53274631  1
  O  O134  1  0.22398131  0.64162998  0.05794680  1
  O  O135  1  0.21718966  0.61427318  0.50848232  1
  O  O136  1  0.75286657  0.12443526  0.04100528  1
  O  O137  1  0.75416979  0.12466547  0.54001964  1
  O  O138  1  0.76053269  0.62489263  0.03920237  1
  O  O139  1  0.74960988  0.62463603  0.54199119  1
  O  O140  1  0.27231004  0.34705523  0.50654197  1
  O  O141  1  0.29266098  0.35364197  0.99814568  1
  O  O142  1  0.27896455  0.88993837  0.48714338  1
  O  O143  1  0.26298419  0.85428531  0.05366241  1
  O  O144  1  0.74863446  0.37408364  0.46226730  1
  O  O145  1  0.74640322  0.37508460  0.97724230  1
  O  O146  1  0.75759899  0.87084805  0.45023898  1
  O  O147  1  0.74845051  0.87673074  0.95569022  1
