# generated using pymatgen
data_SrCa3Mn4O12
_symmetry_space_group_name_H-M   'P 1'
_cell_length_a   5.38348822
_cell_length_b   10.86944402
_cell_length_c   15.27968580
_cell_angle_alpha   89.96290538
_cell_angle_beta   90.00360384
_cell_angle_gamma   90.03286870
_symmetry_Int_Tables_number   1
_chemical_formula_structural   SrCa3Mn4O12
_chemical_formula_sum   'Sr4 Ca12 Mn16 O48'
_cell_volume   894.09848332
_cell_formula_units_Z   4
loop_
 _symmetry_equiv_pos_site_id
 _symmetry_equiv_pos_as_xyz
  1  'x, y, z'
loop_
 _atom_site_type_symbol
 _atom_site_label
 _atom_site_symmetry_multiplicity
 _atom_site_fract_x
 _atom_site_fract_y
 _atom_site_fract_z
 _atom_site_occupancy
  Sr  Sr0  1  0.99559300  0.01365900  0.12400100  1
  Sr  Sr1  1  0.00440700  0.48634000  0.37599900  1
  Sr  Sr2  1  0.49226100  0.23396200  0.37638100  1
  Sr  Sr3  1  0.50773900  0.26603800  0.12361900  1
  Ca  Ca4  1  0.99074000  0.02222000  0.62555300  1
  Ca  Ca5  1  0.99070900  0.52205000  0.12460600  1
  Ca  Ca6  1  0.99144500  0.52255400  0.62550900  1
  Ca  Ca7  1  0.00926000  0.47777900  0.87444700  1
  Ca  Ca8  1  0.00929100  0.97795000  0.37539400  1
  Ca  Ca9  1  0.00855500  0.97744600  0.87449100  1
  Ca  Ca10  1  0.49111100  0.22681300  0.87398000  1
  Ca  Ca11  1  0.49319700  0.73063500  0.37504300  1
  Ca  Ca12  1  0.49087000  0.72838500  0.87492600  1
  Ca  Ca13  1  0.50888900  0.27318600  0.62602000  1
  Ca  Ca14  1  0.50680300  0.76936500  0.12495700  1
  Ca  Ca15  1  0.50913000  0.77161500  0.62507400  1
  Mn  Mn16  1  0.50265800  0.99785700  0.99676800  1
  Mn  Mn17  1  0.49940400  0.99886400  0.50168400  1
  Mn  Mn18  1  0.50059600  0.50113600  0.99831600  1
  Mn  Mn19  1  0.49734200  0.50214300  0.50323200  1
  Mn  Mn20  1  0.99897200  0.25112200  0.99709900  1
  Mn  Mn21  1  0.00102800  0.24887800  0.50290100  1
  Mn  Mn22  1  0.99755200  0.74785500  0.99799300  1
  Mn  Mn23  1  0.00244800  0.75214500  0.50200700  1
  Mn  Mn24  1  0.00000000  0.25000000  0.25000000  1
  Mn  Mn25  1  0.00000000  0.25000000  0.75000000  1
  Mn  Mn26  1  0.00000000  0.75000000  0.25000000  1
  Mn  Mn27  1  0.00000000  0.75000000  0.75000000  1
  Mn  Mn28  1  0.50296300  0.99743500  0.25210300  1
  Mn  Mn29  1  0.49934300  0.99948500  0.74935600  1
  Mn  Mn30  1  0.49703700  0.50256500  0.24789700  1
  Mn  Mn31  1  0.50065700  0.50051500  0.75064400  1
  O  O32  1  0.21318100  0.10333900  0.26780300  1
  O  O33  1  0.20594900  0.10394800  0.77048700  1
  O  O34  1  0.21539300  0.61106900  0.26541700  1
  O  O35  1  0.20621800  0.60411200  0.77049900  1
  O  O36  1  0.78681900  0.39666100  0.23219600  1
  O  O37  1  0.79405100  0.39605100  0.72951200  1
  O  O38  1  0.78460700  0.88893100  0.23458200  1
  O  O39  1  0.79378200  0.89588800  0.72950000  1
  O  O40  1  0.71601300  0.14074000  0.23626100  1
  O  O41  1  0.70566300  0.14585500  0.72968500  1
  O  O42  1  0.71251100  0.64433200  0.23025600  1
  O  O43  1  0.70644400  0.64610800  0.72932600  1
  O  O44  1  0.28398700  0.35926000  0.26373800  1
  O  O45  1  0.29433700  0.35414400  0.77031400  1
  O  O46  1  0.28748900  0.85566800  0.26974300  1
  O  O47  1  0.29355600  0.85389200  0.77067300  1
  O  O48  1  0.28645600  0.35698700  0.48886200  1
  O  O49  1  0.29183000  0.35649900  0.97732000  1
  O  O50  1  0.29257200  0.85446100  0.48016700  1
  O  O51  1  0.28843700  0.85523900  0.97940800  1
  O  O52  1  0.71354400  0.14301300  0.01113700  1
  O  O53  1  0.70817000  0.14350000  0.52267900  1
  O  O54  1  0.70742800  0.64553900  0.01983200  1
  O  O55  1  0.71156300  0.64476000  0.52059100  1
  O  O56  1  0.79500100  0.39922200  0.01653100  1
  O  O57  1  0.78636000  0.39340600  0.52159700  1
  O  O58  1  0.78428700  0.88978000  0.01406100  1
  O  O59  1  0.79388500  0.89491400  0.52158600  1
  O  O60  1  0.20499900  0.10077800  0.48346800  1
  O  O61  1  0.21364000  0.10659300  0.97840200  1
  O  O62  1  0.21571300  0.61021900  0.48593800  1
  O  O63  1  0.20611500  0.60508600  0.97841300  1
  O  O64  1  0.57696500  0.00090400  0.37713700  1
  O  O65  1  0.57797000  0.00877700  0.87275400  1
  O  O66  1  0.55173900  0.50940000  0.37569800  1
  O  O67  1  0.57938400  0.51169500  0.87439800  1
  O  O68  1  0.42303500  0.49909500  0.12286300  1
  O  O69  1  0.42203000  0.49122300  0.62724600  1
  O  O70  1  0.44826100  0.99059900  0.12430200  1
  O  O71  1  0.42061600  0.98830400  0.62560200  1
  O  O72  1  0.05479100  0.24627700  0.12341800  1
  O  O73  1  0.07864300  0.23852200  0.62664600  1
  O  O74  1  0.07376600  0.74385300  0.12376800  1
  O  O75  1  0.07863500  0.74095200  0.62623600  1
  O  O76  1  0.94520900  0.25372200  0.37658200  1
  O  O77  1  0.92135700  0.26147800  0.87335400  1
  O  O78  1  0.92623400  0.75614600  0.37623200  1
  O  O79  1  0.92136500  0.75904800  0.87376400  1
