# generated using pymatgen
data_SrCa7Mn8O20
_symmetry_space_group_name_H-M   'P 1'
_cell_length_a   7.82168484
_cell_length_b   7.82168484
_cell_length_c   7.68322273
_cell_angle_alpha   88.19119642
_cell_angle_beta   88.19119642
_cell_angle_gamma   90.17205511
_symmetry_Int_Tables_number   1
_chemical_formula_structural   SrCa7Mn8O20
_chemical_formula_sum   'Sr1 Ca7 Mn8 O20'
_cell_volume   469.57791460
_cell_formula_units_Z   1
loop_
 _symmetry_equiv_pos_site_id
 _symmetry_equiv_pos_as_xyz
  1  'x, y, z'
loop_
 _atom_site_type_symbol
 _atom_site_label
 _atom_site_symmetry_multiplicity
 _atom_site_fract_x
 _atom_site_fract_y
 _atom_site_fract_z
 _atom_site_occupancy
  Sr  Sr0  1  0.24558600  0.24558600  0.24372000  1
  Ca  Ca1  1  0.26769800  0.26769800  0.70029900  1
  Ca  Ca2  1  0.25732300  0.73602600  0.26015900  1
  Ca  Ca3  1  0.24676400  0.73009900  0.71628000  1
  Ca  Ca4  1  0.73602600  0.25732300  0.26015900  1
  Ca  Ca5  1  0.73009900  0.24676400  0.71628000  1
  Ca  Ca6  1  0.74286700  0.74286700  0.27141600  1
  Ca  Ca7  1  0.73314900  0.73314900  0.72521100  1
  Mn  Mn8  1  0.00020300  0.00020300  0.99559200  1
  Mn  Mn9  1  0.00087000  0.00087000  0.52155000  1
  Mn  Mn10  1  0.99747400  0.48657700  0.00199000  1
  Mn  Mn11  1  0.00038600  0.50859200  0.49248200  1
  Mn  Mn12  1  0.48657700  0.99747400  0.00199000  1
  Mn  Mn13  1  0.50859200  0.00038600  0.49248200  1
  Mn  Mn14  1  0.50553900  0.50553900  0.99131300  1
  Mn  Mn15  1  0.50398100  0.50398100  0.49703200  1
  O  O16  1  0.93302000  0.93302000  0.77994600  1
  O  O17  1  0.01558400  0.53822500  0.24027800  1
  O  O18  1  0.99592200  0.52954500  0.75072000  1
  O  O19  1  0.53822500  0.01558400  0.24027800  1
  O  O20  1  0.52954500  0.99592200  0.75072000  1
  O  O21  1  0.51075200  0.51075200  0.74367500  1
  O  O22  1  0.22595400  0.96770100  0.06467100  1
  O  O23  1  0.25165500  0.00431600  0.52574500  1
  O  O24  1  0.25456900  0.51000100  0.00223400  1
  O  O25  1  0.26028000  0.50281000  0.48922500  1
  O  O26  1  0.76344800  0.00956700  0.46566100  1
  O  O27  1  0.74874900  0.51792500  0.03519300  1
  O  O28  1  0.74560600  0.50123800  0.47048500  1
  O  O29  1  0.96770100  0.22595400  0.06467100  1
  O  O30  1  0.00431600  0.25165500  0.52574500  1
  O  O31  1  0.00956700  0.76344800  0.46566100  1
  O  O32  1  0.51000100  0.25456900  0.00223400  1
  O  O33  1  0.50281000  0.26028000  0.48922500  1
  O  O34  1  0.51792500  0.74874900  0.03519300  1
  O  O35  1  0.50123800  0.74560600  0.47048500  1
