# generated using pymatgen
data_SrCa7Mn6Al2O22
_symmetry_space_group_name_H-M   'P 1'
_cell_length_a   7.66121412
_cell_length_b   7.66121412
_cell_length_c   7.59297700
_cell_angle_alpha   90.00000000
_cell_angle_beta   90.00000000
_cell_angle_gamma   89.98010671
_symmetry_Int_Tables_number   1
_chemical_formula_structural   SrCa7Mn6Al2O22
_chemical_formula_sum   'Sr1 Ca7 Mn6 Al2 O22'
_cell_volume   445.66369685
_cell_formula_units_Z   1
loop_
 _symmetry_equiv_pos_site_id
 _symmetry_equiv_pos_as_xyz
  1  'x, y, z'
loop_
 _atom_site_type_symbol
 _atom_site_label
 _atom_site_symmetry_multiplicity
 _atom_site_fract_x
 _atom_site_fract_y
 _atom_site_fract_z
 _atom_site_occupancy
  Sr  Sr0  1  0.25943900  0.25943900  0.25000000  1
  Ca  Ca1  1  0.26671400  0.26671400  0.75000000  1
  Ca  Ca2  1  0.26721300  0.73372900  0.25000000  1
  Ca  Ca3  1  0.26677400  0.73379400  0.75000000  1
  Ca  Ca4  1  0.73372900  0.26721300  0.25000000  1
  Ca  Ca5  1  0.73379400  0.26677400  0.75000000  1
  Ca  Ca6  1  0.73352400  0.73352400  0.25000000  1
  Ca  Ca7  1  0.73305300  0.73305300  0.75000000  1
  Mn  Mn8  1  0.99930200  0.50140400  0.99914400  1
  Mn  Mn9  1  0.99930200  0.50140400  0.50085600  1
  Mn  Mn10  1  0.50140400  0.99930200  0.99914400  1
  Mn  Mn11  1  0.50140400  0.99930200  0.50085600  1
  Mn  Mn12  1  0.50065600  0.50065600  0.99933900  1
  Mn  Mn13  1  0.50065600  0.50065600  0.50066100  1
  Al  Al14  1  0.99928600  0.99928600  0.99749200  1
  Al  Al15  1  0.99928600  0.99928600  0.50250800  1
  O  O16  1  0.99731900  0.50209800  0.25000000  1
  O  O17  1  0.99897300  0.50080600  0.75000000  1
  O  O18  1  0.50209800  0.99731900  0.25000000  1
  O  O19  1  0.50080600  0.99897300  0.75000000  1
  O  O20  1  0.50305600  0.50305600  0.25000000  1
  O  O21  1  0.50077900  0.50077900  0.75000000  1
  O  O22  1  0.23745000  0.99826900  0.99696100  1
  O  O23  1  0.23745000  0.99826900  0.50303900  1
  O  O24  1  0.25019900  0.50340500  0.99660900  1
  O  O25  1  0.25019900  0.50340500  0.50339100  1
  O  O26  1  0.76192400  0.99904200  0.99975700  1
  O  O27  1  0.76192400  0.99904200  0.50024300  1
  O  O28  1  0.74989200  0.50053600  0.99935700  1
  O  O29  1  0.74989200  0.50053600  0.50064300  1
  O  O30  1  0.99826900  0.23745000  0.99696100  1
  O  O31  1  0.99826900  0.23745000  0.50303900  1
  O  O32  1  0.99904200  0.76192400  0.99975700  1
  O  O33  1  0.99904200  0.76192400  0.50024300  1
  O  O34  1  0.50340500  0.25019900  0.99660900  1
  O  O35  1  0.50340500  0.25019900  0.50339100  1
  O  O36  1  0.50053600  0.74989200  0.99935700  1
  O  O37  1  0.50053600  0.74989200  0.50064300  1
