# generated using pymatgen
data_SrCa7Mn8O24
_symmetry_space_group_name_H-M   'P 1'
_cell_length_a   10.85094473
_cell_length_b   15.20343388
_cell_length_c   10.72075841
_cell_angle_alpha   90.01028336
_cell_angle_beta   90.00515306
_cell_angle_gamma   89.99139195
_symmetry_Int_Tables_number   1
_chemical_formula_structural   SrCa7Mn8O24
_chemical_formula_sum   'Sr4 Ca28 Mn32 O96'
_cell_volume   1768.62083624
_cell_formula_units_Z   4
loop_
 _symmetry_equiv_pos_site_id
 _symmetry_equiv_pos_as_xyz
  1  'x, y, z'
loop_
 _atom_site_type_symbol
 _atom_site_label
 _atom_site_symmetry_multiplicity
 _atom_site_fract_x
 _atom_site_fract_y
 _atom_site_fract_z
 _atom_site_occupancy
  Sr  Sr0  1  0.01660398  0.12481080  0.49728915  1
  Sr  Sr1  1  0.48339502  0.37518920  0.00271085  1
  Sr  Sr2  1  0.23198864  0.37554526  0.24654217  1
  Sr  Sr3  1  0.26801136  0.12445474  0.25345683  1
  Ca  Ca4  1  0.02190956  0.12491125  0.99457252  1
  Ca  Ca5  1  0.02268033  0.62507402  0.49536921  1
  Ca  Ca6  1  0.02256984  0.62510214  0.99558837  1
  Ca  Ca7  1  0.52235608  0.12486430  0.49588443  1
  Ca  Ca8  1  0.52326238  0.12473801  0.99521204  1
  Ca  Ca9  1  0.52274547  0.62513813  0.49548678  1
  Ca  Ca10  1  0.52262261  0.62528479  0.99579514  1
  Ca  Ca11  1  0.47808944  0.37508875  0.50542848  1
  Ca  Ca12  1  0.47731867  0.87492598  0.00463079  1
  Ca  Ca13  1  0.47742916  0.87489786  0.50441163  1
  Ca  Ca14  1  0.97764392  0.37513570  0.00411457  1
  Ca  Ca15  1  0.97673762  0.37526199  0.50478796  1
  Ca  Ca16  1  0.97725453  0.87486187  0.00451322  1
  Ca  Ca17  1  0.97737739  0.87471521  0.50420486  1
  Ca  Ca18  1  0.22676396  0.37527438  0.74428991  1
  Ca  Ca19  1  0.22711608  0.87458569  0.24563993  1
  Ca  Ca20  1  0.22715724  0.87475522  0.74545645  1
  Ca  Ca21  1  0.72915005  0.37499403  0.24668560  1
  Ca  Ca22  1  0.72785056  0.37497260  0.74496808  1
  Ca  Ca23  1  0.72764107  0.87503061  0.24569114  1
  Ca  Ca24  1  0.72741235  0.87502256  0.74544606  1
  Ca  Ca25  1  0.27323604  0.12472562  0.75570909  1
  Ca  Ca26  1  0.27288292  0.62541431  0.25435907  1
  Ca  Ca27  1  0.27284176  0.62524478  0.75454455  1
  Ca  Ca28  1  0.77084995  0.12500597  0.25331440  1
  Ca  Ca29  1  0.77214944  0.12502740  0.75503092  1
  Ca  Ca30  1  0.77235893  0.62496939  0.25430886  1
  Ca  Ca31  1  0.77258765  0.62497744  0.75455494  1
  Mn  Mn32  1  0.99818322  0.99823616  0.24913405  1
  Mn  Mn33  1  0.00009606  0.99921006  0.75179189  1
  Mn  Mn34  1  0.99893862  0.50079389  0.24986310  1
  Mn  Mn35  1  0.99985684  0.50019547  0.74994988  1
  Mn  Mn36  1  0.50106138  0.99920611  0.25013690  1
  Mn  Mn37  1  0.50014316  0.99980453  0.75005012  1
  Mn  Mn38  1  0.50181678  0.50176384  0.25086595  1
  Mn  Mn39  1  0.49990394  0.50078994  0.74820811  1
  Mn  Mn40  1  0.25021171  0.99915972  0.99827424  1
  Mn  Mn41  1  0.25082745  0.99856448  0.50137930  1
  Mn  Mn42  1  0.24917255  0.50143552  0.99862070  1
  Mn  Mn43  1  0.24978829  0.50084028  0.50172576  1
  Mn  Mn44  1  0.75000862  0.99966354  0.99967933  1
  Mn  Mn45  1  0.74837015  0.99906330  0.49962344  1
  Mn  Mn46  1  0.75162985  0.50093670  0.00037656  1
  Mn  Mn47  1  0.74999138  0.50033646  0.50032067  1
  Mn  Mn48  1  0.24953773  0.24939916  0.99694939  1
  Mn  Mn49  1  0.25046227  0.25060084  0.50305061  1
  Mn  Mn50  1  0.24990390  0.75008689  0.99986940  1
  Mn  Mn51  1  0.25009610  0.74991311  0.50013060  1
  Mn  Mn52  1  0.75154385  0.24931632  0.00018075  1
  Mn  Mn53  1  0.74845615  0.25068368  0.49981925  1
  Mn  Mn54  1  0.75010882  0.75016172  0.99986454  1
  Mn  Mn55  1  0.74989118  0.74983828  0.50013546  1
  Mn  Mn56  1  0.99742386  0.25119322  0.24918968  1
  Mn  Mn57  1  0.99992544  0.25070485  0.75168076  1
  Mn  Mn58  1  0.99977648  0.74976562  0.24984095  1
  Mn  Mn59  1  -0.00002205  0.74990676  0.75002314  1
  Mn  Mn60  1  0.50257614  0.24880678  0.25081032  1
  Mn  Mn61  1  0.50007456  0.24929515  0.74831924  1
  Mn  Mn62  1  0.50022352  0.75023438  0.25015905  1
  Mn  Mn63  1  0.50002205  0.75009324  0.74997686  1
  O  O64  1  0.10199300  0.26742635  0.10179215  1
  O  O65  1  0.10495352  0.27171620  0.60630214  1
  O  O66  1  0.10394541  0.77045380  0.10294313  1
  O  O67  1  0.10389618  0.77030491  0.60303626  1
  O  O68  1  0.61026898  0.26616531  0.10813329  1
  O  O69  1  0.60443996  0.26967787  0.60240989  1
  O  O70  1  0.60396033  0.77038699  0.10298566  1
  O  O71  1  0.60389307  0.77037972  0.60306728  1
  O  O72  1  0.39800700  0.23257265  0.39820885  1
  O  O73  1  0.39504648  0.22828280  0.89369886  1
  O  O74  1  0.39605359  0.72954520  0.39705687  1
  O  O75  1  0.39610282  0.72969409  0.89696474  1
  O  O76  1  0.88973102  0.23383369  0.39186571  1
  O  O77  1  0.89556004  0.23032113  0.89759111  1
  O  O78  1  0.89603967  0.72961201  0.39701534  1
  O  O79  1  0.89610693  0.72961928  0.89693372  1
  O  O80  1  0.14121246  0.23512663  0.35843574  1
  O  O81  1  0.14589638  0.23015206  0.85192117  1
  O  O82  1  0.14607561  0.72973140  0.35305683  1
  O  O83  1  0.14602508  0.72963953  0.85293878  1
  O  O84  1  0.64585853  0.22953189  0.35443542  1
  O  O85  1  0.64520653  0.23026233  0.85380774  1
  O  O86  1  0.64615320  0.72954509  0.35304566  1
  O  O87  1  0.64604616  0.72955576  0.85297901  1
  O  O88  1  0.35878754  0.26487237  0.14156426  1
  O  O89  1  0.35410362  0.26984694  0.64807983  1
  O  O90  1  0.35392339  0.77026760  0.14694317  1
  O  O91  1  0.35397392  0.77035947  0.64706222  1
  O  O92  1  0.85414147  0.27046711  0.14556458  1
  O  O93  1  0.85479347  0.26973667  0.64619226  1
  O  O94  1  0.85384680  0.77045391  0.14695434  1
  O  O95  1  0.85395384  0.77044324  0.64702199  1
  O  O96  1  0.35706637  0.48679401  0.14341174  1
  O  O97  1  0.35385669  0.48069908  0.64741843  1
  O  O98  1  0.35564727  0.97810802  0.14516076  1
  O  O99  1  0.35422922  0.97910777  0.64769718  1
  O  O100  1  0.85422669  0.47982033  0.14659491  1
  O  O101  1  0.85403148  0.47960960  0.64697698  1
  O  O102  1  0.85378343  0.97927579  0.14586301  1
  O  O103  1  0.85472669  0.98021562  0.64622926  1
  O  O104  1  0.14293363  0.01320499  0.35658826  1
  O  O105  1  0.14614331  0.01929992  0.85258257  1
  O  O106  1  0.14435173  0.52189098  0.35483924  1
  O  O107  1  0.14576978  0.52089123  0.85230382  1
  O  O108  1  0.64577331  0.02017867  0.35340509  1
  O  O109  1  0.64596852  0.02038940  0.85302202  1
  O  O110  1  0.64621557  0.52072321  0.35413699  1
  O  O111  1  0.64527231  0.51978338  0.85377174  1
  O  O112  1  0.39852718  0.01793851  0.39861483  1
  O  O113  1  0.39658104  0.01998121  0.89645561  1
  O  O114  1  0.39552239  0.51988304  0.39665300  1
  O  O115  1  0.39452165  0.52206455  0.89431561  1
  O  O116  1  0.89026376  0.01565019  0.39164691  1
  O  O117  1  0.89563958  0.01960157  0.89775187  1
  O  O118  1  0.89555380  0.52081955  0.39722577  1
  O  O119  1  0.89600725  0.52045657  0.89676032  1
  O  O120  1  0.10147282  0.48206049  0.10138617  1
  O  O121  1  0.10341896  0.48001779  0.60354539  1
  O  O122  1  0.10447661  0.98011596  0.10334800  1
  O  O123  1  0.10547735  0.97793445  0.60568539  1
  O  O124  1  0.60973524  0.48434881  0.10835309  1
  O  O125  1  0.60435942  0.48039743  0.60224813  1
  O  O126  1  0.60444620  0.97917945  0.10277523  1
  O  O127  1  0.60399275  0.97954243  0.60324068  1
  O  O128  1  0.00173299  0.37615793  0.28898855  1
  O  O129  1  0.00949954  0.37526821  0.78955429  1
  O  O130  1  0.00964378  0.87381571  0.28853364  1
  O  O131  1  0.00977320  0.87474196  0.78982737  1
  O  O132  1  0.50947718  0.37530712  0.28732995  1
  O  O133  1  0.51057774  0.37500866  0.77907483  1
  O  O134  1  0.51051677  0.87471678  0.28943439  1
  O  O135  1  0.51017224  0.87498626  0.78936065  1
  O  O136  1  0.49826601  0.12384207  0.21101245  1
  O  O137  1  0.49049946  0.12473179  0.71044571  1
  O  O138  1  0.49035622  0.62618429  0.21146736  1
  O  O139  1  0.49022680  0.62525804  0.71017363  1
  O  O140  1  0.99052182  0.12469288  0.21267105  1
  O  O141  1  0.98942126  0.12499134  0.72092517  1
  O  O142  1  0.98948223  0.62528322  0.21056661  1
  O  O143  1  0.98982676  0.62501374  0.71064035  1
  O  O144  1  0.23885988  0.12426056  0.02906106  1
  O  O145  1  0.24777057  0.12484503  0.53884227  1
  O  O146  1  0.23917574  0.62583335  0.03894686  1
  O  O147  1  0.24014199  0.62518116  0.53969534  1
  O  O148  1  0.74084804  0.12436307  0.03852661  1
  O  O149  1  0.74126566  0.12490473  0.53878964  1
  O  O150  1  0.74057942  0.62565051  0.03896507  1
  O  O151  1  0.73991753  0.62509657  0.53952034  1
  O  O152  1  0.26113912  0.37573944  0.47093894  1
  O  O153  1  0.25222843  0.37515497  0.96115773  1
  O  O154  1  0.26082426  0.87416665  0.46105414  1
  O  O155  1  0.25985801  0.87481884  0.96030566  1
  O  O156  1  0.75915096  0.37563693  0.46147339  1
  O  O157  1  0.75873334  0.37509527  0.96121036  1
  O  O158  1  0.75942058  0.87434949  0.46103493  1
  O  O159  1  0.76008247  0.87490343  0.96048066  1
