# generated using pymatgen
data_Sr2Ca6Mn8O23
_symmetry_space_group_name_H-M   'P 1'
_cell_length_a   7.79350000
_cell_length_b   7.57337400
_cell_length_c   7.64116500
_cell_angle_alpha   90.00000000
_cell_angle_beta   90.00000000
_cell_angle_gamma   90.00000000
_symmetry_Int_Tables_number   1
_chemical_formula_structural   Sr2Ca6Mn8O23
_chemical_formula_sum   'Sr2 Ca6 Mn8 O23'
_cell_volume   451.00517156
_cell_formula_units_Z   1
loop_
 _symmetry_equiv_pos_site_id
 _symmetry_equiv_pos_as_xyz
  1  'x, y, z'
loop_
 _atom_site_type_symbol
 _atom_site_label
 _atom_site_symmetry_multiplicity
 _atom_site_fract_x
 _atom_site_fract_y
 _atom_site_fract_z
 _atom_site_occupancy
  Sr  Sr0  1  0.25904800  0.25828000  0.25000000  1
  Sr  Sr1  1  0.74095200  0.25828000  0.25000000  1
  Ca  Ca2  1  0.25424200  0.26308900  0.75000000  1
  Ca  Ca3  1  0.25560100  0.74973200  0.25000000  1
  Ca  Ca4  1  0.25656000  0.73456600  0.75000000  1
  Ca  Ca5  1  0.74575800  0.26308900  0.75000000  1
  Ca  Ca6  1  0.74439900  0.74973200  0.25000000  1
  Ca  Ca7  1  0.74344000  0.73456600  0.75000000  1
  Mn  Mn8  1  0.00000000  0.99300900  0.98390100  1
  Mn  Mn9  1  0.00000000  0.99300900  0.51609900  1
  Mn  Mn10  1  0.00000000  0.50368000  0.00036100  1
  Mn  Mn11  1  0.00000000  0.50368000  0.49963900  1
  Mn  Mn12  1  0.50000000  0.00024500  0.99993400  1
  Mn  Mn13  1  0.50000000  0.00024500  0.50006600  1
  Mn  Mn14  1  0.50000000  0.50521700  0.99808200  1
  Mn  Mn15  1  0.50000000  0.50521700  0.50191800  1
  O  O16  1  0.00000000  0.92404500  0.75000000  1
  O  O17  1  0.00000000  0.44714900  0.25000000  1
  O  O18  1  0.00000000  0.55757600  0.75000000  1
  O  O19  1  0.50000000  0.94745100  0.25000000  1
  O  O20  1  0.50000000  0.05678800  0.75000000  1
  O  O21  1  0.50000000  0.54969900  0.25000000  1
  O  O22  1  0.50000000  0.45530200  0.75000000  1
  O  O23  1  0.24407500  0.99877900  0.02250100  1
  O  O24  1  0.24407500  0.99877900  0.47749900  1
  O  O25  1  0.25008200  0.50833800  0.99189200  1
  O  O26  1  0.25008200  0.50833800  0.50810800  1
  O  O27  1  0.75592500  0.99877900  0.02250100  1
  O  O28  1  0.75592500  0.99877900  0.47749900  1
  O  O29  1  0.74991800  0.50833800  0.99189200  1
  O  O30  1  0.74991800  0.50833800  0.50810800  1
  O  O31  1  0.00000000  0.24737000  0.94917200  1
  O  O32  1  0.00000000  0.24737000  0.55082800  1
  O  O33  1  0.00000000  0.75381000  0.06708100  1
  O  O34  1  0.00000000  0.75381000  0.43291900  1
  O  O35  1  0.50000000  0.25340200  0.03827200  1
  O  O36  1  0.50000000  0.25340200  0.46172800  1
  O  O37  1  0.50000000  0.75436100  0.94281600  1
  O  O38  1  0.50000000  0.75436100  0.55718400  1
