# generated using pymatgen
data_Ca8Mn6Cr2O21
_symmetry_space_group_name_H-M   'P 1'
_cell_length_a   10.95226146
_cell_length_b   15.43834141
_cell_length_c   10.95639679
_cell_angle_alpha   89.95825248
_cell_angle_beta   91.19492049
_cell_angle_gamma   90.53043171
_symmetry_Int_Tables_number   1
_chemical_formula_structural   Ca8Mn6Cr2O21
_chemical_formula_sum   'Ca32 Mn24 Cr8 O84'
_cell_volume   1852.07712864
_cell_formula_units_Z   4
loop_
 _symmetry_equiv_pos_site_id
 _symmetry_equiv_pos_as_xyz
  1  'x, y, z'
loop_
 _atom_site_type_symbol
 _atom_site_label
 _atom_site_symmetry_multiplicity
 _atom_site_fract_x
 _atom_site_fract_y
 _atom_site_fract_z
 _atom_site_occupancy
  Ca  Ca0  1  -0.00106112  0.11053610  0.50745700  1
  Ca  Ca1  1  -0.00215184  0.10983903  0.00675423  1
  Ca  Ca2  1  0.01065406  0.62470945  0.51061324  1
  Ca  Ca3  1  0.01840731  0.62225572  0.99092660  1
  Ca  Ca4  1  0.54547755  0.12616654  0.47992049  1
  Ca  Ca5  1  0.54406116  0.12931180  0.98855354  1
  Ca  Ca6  1  0.52923781  0.62918827  0.51123412  1
  Ca  Ca7  1  0.53206588  0.62202374  0.97406941  1
  Ca  Ca8  1  0.50959298  0.38606342  0.98508182  1
  Ca  Ca9  1  0.49854992  0.38074967  0.51234555  1
  Ca  Ca10  1  0.51635518  0.86148837  0.98574233  1
  Ca  Ca11  1  0.49297847  0.86737576  0.50852993  1
  Ca  Ca12  1  0.96307755  0.38585966  0.00689343  1
  Ca  Ca13  1  0.96107196  0.38673215  0.50041634  1
  Ca  Ca14  1  0.95713050  0.88050527  0.99924225  1
  Ca  Ca15  1  0.96943598  0.87274583  0.50833998  1
  Ca  Ca16  1  0.23203954  0.39133247  0.24854810  1
  Ca  Ca17  1  0.23331409  0.40210375  0.76584887  1
  Ca  Ca18  1  0.22704619  0.88931784  0.26890738  1
  Ca  Ca19  1  0.22106456  0.87358033  0.73687250  1
  Ca  Ca20  1  0.74228926  0.37774928  0.24719535  1
  Ca  Ca21  1  0.73073694  0.38344524  0.74902526  1
  Ca  Ca22  1  0.75612572  0.86966935  0.25379320  1
  Ca  Ca23  1  0.73753422  0.86731019  0.74932146  1
  Ca  Ca24  1  0.22660365  0.11882533  0.23996958  1
  Ca  Ca25  1  0.22357372  0.11352442  0.73655048  1
  Ca  Ca26  1  0.23882594  0.62539166  0.26118458  1
  Ca  Ca27  1  0.26438126  0.63062324  0.73976475  1
  Ca  Ca28  1  0.78070892  0.11883457  0.25412900  1
  Ca  Ca29  1  0.78084557  0.11934628  0.75200388  1
  Ca  Ca30  1  0.78254785  0.62137118  0.25529792  1
  Ca  Ca31  1  0.77440181  0.62354834  0.75609744  1
  Mn  Mn32  1  0.00167781  0.50079658  0.25133678  1
  Mn  Mn33  1  0.99646846  0.49901413  0.75533690  1
  Mn  Mn34  1  0.50492036  0.98702563  0.23541449  1
  Mn  Mn35  1  0.50719700  0.99265373  0.73693205  1
  Mn  Mn36  1  0.50516580  0.49107970  0.24351261  1
  Mn  Mn37  1  0.49643206  0.50128650  0.74873850  1
  Mn  Mn38  1  0.25262801  0.51453126  0.01010255  1
  Mn  Mn39  1  0.23791487  0.49594807  0.50943904  1
  Mn  Mn40  1  0.74262831  0.00094800  0.99754847  1
  Mn  Mn41  1  0.74660665  0.99809842  0.49727634  1
  Mn  Mn42  1  0.75129610  0.50295780  0.00028197  1
  Mn  Mn43  1  0.74588285  0.50297014  0.50114838  1
  Mn  Mn44  1  0.26010362  0.75661848  0.97738340  1
  Mn  Mn45  1  0.25040375  0.75203163  0.49709908  1
  Mn  Mn46  1  0.75394855  0.24995202  0.00295418  1
  Mn  Mn47  1  0.75425812  0.24968255  0.50163511  1
  Mn  Mn48  1  0.75372910  0.74556247  0.00075471  1
  Mn  Mn49  1  0.75318563  0.74619644  0.50522351  1
  Mn  Mn50  1  0.99808104  0.75102280  0.26131408  1
  Mn  Mn51  1  0.99792056  0.75115747  0.75028324  1
  Mn  Mn52  1  0.51026755  0.25374163  0.25357943  1
  Mn  Mn53  1  0.51356838  0.24782434  0.75050446  1
  Mn  Mn54  1  0.51838350  0.74946803  0.26268011  1
  Mn  Mn55  1  0.50237955  0.74718393  0.74743348  1
  Cr  Cr56  1  0.99555306  0.99780278  0.25297418  1
  Cr  Cr57  1  0.99559319  0.99600299  0.75357267  1
  Cr  Cr58  1  0.23916819  0.99645477  0.01413637  1
  Cr  Cr59  1  0.23836461  0.00220753  0.51319431  1
  Cr  Cr60  1  0.26759640  0.23483475  0.94691363  1
  Cr  Cr61  1  0.26687562  0.24172526  0.44676084  1
  Cr  Cr62  1  0.98864001  0.25308156  0.26517682  1
  Cr  Cr63  1  0.98675096  0.25522609  0.76674070  1
  O  O64  1  0.10056053  0.77078285  0.60719943  1
  O  O65  1  0.58705703  0.26147442  0.09128357  1
  O  O66  1  0.58398375  0.25390532  0.58714404  1
  O  O67  1  0.59378444  0.75488237  0.10837172  1
  O  O68  1  0.60289909  0.76265559  0.60337257  1
  O  O69  1  0.39329758  0.18293736  0.35409251  1
  O  O70  1  0.39168860  0.18375996  0.85675311  1
  O  O71  1  0.40349890  0.70172573  0.36580313  1
  O  O72  1  0.40890472  0.73100334  0.89632108  1
  O  O73  1  0.91847286  0.23759091  0.42087682  1
  O  O74  1  0.91660206  0.23541973  0.92164594  1
  O  O75  1  0.89381596  0.73002848  0.40683757  1
  O  O76  1  0.89871280  0.73268797  0.90168061  1
  O  O77  1  0.16604932  0.25160800  0.30501685  1
  O  O78  1  0.16926181  0.25003661  0.81378075  1
  O  O79  1  0.15879317  0.74812151  0.33650776  1
  O  O80  1  0.14500052  0.73552921  0.85047002  1
  O  O81  1  0.66213839  0.22582780  0.35116947  1
  O  O82  1  0.66068654  0.22504852  0.85466482  1
  O  O83  1  0.65683186  0.72186941  0.35454108  1
  O  O84  1  0.65000424  0.72789407  0.85542615  1
  O  O85  1  0.35472889  0.76725821  0.64191837  1
  O  O86  1  0.85463535  0.27625550  0.15004429  1
  O  O87  1  0.85385869  0.27883928  0.65240352  1
  O  O88  1  0.86494167  0.77108973  0.14213270  1
  O  O89  1  0.85276642  0.77017866  0.64865232  1
  O  O90  1  0.35371758  0.50986229  0.16408388  1
  O  O91  1  0.35589119  0.48524345  0.63979518  1
  O  O92  1  0.34907113  0.00815013  0.16532047  1
  O  O93  1  0.34994392  0.00207286  0.66389584  1
  O  O94  1  0.85643484  0.48256375  0.14745786  1
  O  O95  1  0.85576214  0.47981175  0.64785452  1
  O  O96  1  0.84459551  0.97959256  0.14259830  1
  O  O97  1  0.84460129  0.97814140  0.64493253  1
  O  O98  1  0.14750453  0.01497163  0.35983118  1
  O  O99  1  0.15029527  0.00989686  0.86127389  1
  O  O100  1  0.15240749  0.50945798  0.35505097  1
  O  O101  1  0.15082121  0.52496912  0.86102825  1
  O  O102  1  0.63351526  0.02430573  0.34527379  1
  O  O103  1  0.63108281  0.03115606  0.84902739  1
  O  O104  1  0.62270088  0.52773939  0.36064471  1
  O  O105  1  0.64338625  0.51811164  0.85610355  1
  O  O106  1  0.39289522  0.50988411  0.90388767  1
  O  O107  1  0.88644025  0.01618308  0.39387069  1
  O  O108  1  0.88506785  0.01460842  0.89564652  1
  O  O109  1  0.89596554  0.52026861  0.39010595  1
  O  O110  1  0.89444855  0.51784286  0.89926900  1
  O  O111  1  0.11033901  0.47735331  0.10512805  1
  O  O112  1  0.09824502  0.47358902  0.61794150  1
  O  O113  1  0.09880155  0.97393929  0.10748142  1
  O  O114  1  0.09971418  0.97912520  0.60873822  1
  O  O115  1  0.60903900  0.48756660  0.10457413  1
  O  O116  1  0.60259363  0.48645729  0.61146923  1
  O  O117  1  0.58844318  0.99224682  0.08214752  1
  O  O118  1  0.59184813  0.99359236  0.58259303  1
  O  O119  1  0.00845952  0.37970998  0.28822616  1
  O  O120  1  0.01613711  0.37928792  0.80168838  1
  O  O121  1  0.00302476  0.87284503  0.29216508  1
  O  O122  1  0.00638630  0.87196757  0.79370850  1
  O  O123  1  0.46861013  0.37695994  0.29823850  1
  O  O124  1  0.49236417  0.37428757  0.77388452  1
  O  O125  1  0.47829530  0.87146173  0.28975576  1
  O  O126  1  0.51459104  0.87291531  0.77862443  1
  O  O127  1  0.48395249  0.62408889  0.71907024  1
  O  O128  1  0.99842860  0.12838225  0.21678655  1
  O  O129  1  0.99911735  0.12909111  0.72019296  1
  O  O130  1  0.00658494  0.62751892  0.21272956  1
  O  O131  1  0.98992430  0.62470178  0.71763550  1
  O  O132  1  0.22020121  0.13802260  0.03095966  1
  O  O133  1  0.22467081  0.13748350  0.53201229  1
  O  O134  1  0.23282781  0.65210862  0.05524876  1
  O  O135  1  0.23315916  0.62256840  0.52551458  1
  O  O136  1  0.75015419  0.12547747  0.04220544  1
  O  O137  1  0.75434447  0.12422007  0.53850430  1
  O  O138  1  0.74548667  0.62440846  0.04054039  1
  O  O139  1  0.74556450  0.62467512  0.54386464  1
  O  O140  1  0.27453758  0.36193612  0.48582586  1
  O  O141  1  0.29668745  0.33430008  0.01770140  1
  O  O142  1  0.28292455  0.88402717  0.47079002  1
  O  O143  1  0.29391696  0.87798852  0.99050872  1
  O  O144  1  0.74351023  0.37755217  0.46191004  1
  O  O145  1  0.74687492  0.37617715  0.96487078  1
  O  O146  1  0.74603259  0.87280626  0.46354411  1
  O  O147  1  0.73987603  0.87389439  0.96576201  1
