# generated using pymatgen
data_Ca8Mn6Cr2O23
_symmetry_space_group_name_H-M   'P 1'
_cell_length_a   7.66272700
_cell_length_b   7.59059700
_cell_length_c   7.64348700
_cell_angle_alpha   90.00000000
_cell_angle_beta   90.00000000
_cell_angle_gamma   90.00000000
_symmetry_Int_Tables_number   1
_chemical_formula_structural   Ca8Mn6Cr2O23
_chemical_formula_sum   'Ca8 Mn6 Cr2 O23'
_cell_volume   444.58091871
_cell_formula_units_Z   1
loop_
 _symmetry_equiv_pos_site_id
 _symmetry_equiv_pos_as_xyz
  1  'x, y, z'
loop_
 _atom_site_type_symbol
 _atom_site_label
 _atom_site_symmetry_multiplicity
 _atom_site_fract_x
 _atom_site_fract_y
 _atom_site_fract_z
 _atom_site_occupancy
  Ca  Ca0  1  0.25481000  0.26017100  0.25151500  1
  Ca  Ca1  1  0.26152600  0.26305100  0.74104900  1
  Ca  Ca2  1  0.25481000  0.73982900  0.25151500  1
  Ca  Ca3  1  0.26152600  0.73694900  0.74104900  1
  Ca  Ca4  1  0.74519000  0.26017100  0.25151500  1
  Ca  Ca5  1  0.73847400  0.26305100  0.74104900  1
  Ca  Ca6  1  0.74519000  0.73982900  0.25151500  1
  Ca  Ca7  1  0.73847400  0.73694900  0.74104900  1
  Mn  Mn8  1  0.00000000  0.00000000  0.50422600  1
  Mn  Mn9  1  0.00000000  0.50000000  0.00267400  1
  Mn  Mn10  1  0.00000000  0.50000000  0.49608200  1
  Mn  Mn11  1  0.50000000  0.00000000  0.49565800  1
  Mn  Mn12  1  0.50000000  0.50000000  0.99873900  1
  Mn  Mn13  1  0.50000000  0.50000000  0.49736200  1
  Cr  Cr14  1  0.00000000  0.00000000  0.99293300  1
  Cr  Cr15  1  0.50000000  0.00000000  0.00486200  1
  O  O16  1  0.00000000  0.00000000  0.75935800  1
  O  O17  1  0.00000000  0.50000000  0.25082100  1
  O  O18  1  0.00000000  0.50000000  0.75068400  1
  O  O19  1  0.50000000  0.00000000  0.24781100  1
  O  O20  1  0.50000000  0.00000000  0.75019000  1
  O  O21  1  0.50000000  0.50000000  0.24848400  1
  O  O22  1  0.50000000  0.50000000  0.74930600  1
  O  O23  1  0.24124800  0.00000000  0.03098400  1
  O  O24  1  0.24767200  0.00000000  0.47408100  1
  O  O25  1  0.24910700  0.50000000  0.99395100  1
  O  O26  1  0.24929200  0.50000000  0.50617700  1
  O  O27  1  0.75875200  0.00000000  0.03098400  1
  O  O28  1  0.75232800  0.00000000  0.47408100  1
  O  O29  1  0.75089300  0.50000000  0.99395100  1
  O  O30  1  0.75070800  0.50000000  0.50617700  1
  O  O31  1  0.00000000  0.23943800  0.03824900  1
  O  O32  1  0.00000000  0.24722100  0.47247200  1
  O  O33  1  0.00000000  0.76056200  0.03824900  1
  O  O34  1  0.00000000  0.75277900  0.47247200  1
  O  O35  1  0.50000000  0.24806800  0.99398100  1
  O  O36  1  0.50000000  0.24903500  0.50538400  1
  O  O37  1  0.50000000  0.75193200  0.99398100  1
  O  O38  1  0.50000000  0.75096500  0.50538400  1
