# generated using pymatgen
data_SrCa7Mn6Al2O21
_symmetry_space_group_name_H-M   'P 1'
_cell_length_a   7.74768526
_cell_length_b   7.74768526
_cell_length_c   7.47009200
_cell_angle_alpha   90.00000000
_cell_angle_beta   90.00000000
_cell_angle_gamma   89.93456716
_symmetry_Int_Tables_number   1
_chemical_formula_structural   SrCa7Mn6Al2O21
_chemical_formula_sum   'Sr1 Ca7 Mn6 Al2 O21'
_cell_volume   448.40413325
_cell_formula_units_Z   1
loop_
 _symmetry_equiv_pos_site_id
 _symmetry_equiv_pos_as_xyz
  1  'x, y, z'
loop_
 _atom_site_type_symbol
 _atom_site_label
 _atom_site_symmetry_multiplicity
 _atom_site_fract_x
 _atom_site_fract_y
 _atom_site_fract_z
 _atom_site_occupancy
  Sr  Sr0  1  0.25769500  0.25769500  0.25000000  1
  Ca  Ca1  1  0.25212300  0.25212300  0.75000000  1
  Ca  Ca2  1  0.26256700  0.73868500  0.25000000  1
  Ca  Ca3  1  0.25243200  0.74856500  0.75000000  1
  Ca  Ca4  1  0.73868500  0.26256700  0.25000000  1
  Ca  Ca5  1  0.74856500  0.25243200  0.75000000  1
  Ca  Ca6  1  0.73841200  0.73841200  0.25000000  1
  Ca  Ca7  1  0.74761000  0.74761000  0.75000000  1
  Mn  Mn8  1  0.99950600  0.50123800  0.99665400  1
  Mn  Mn9  1  0.99950600  0.50123800  0.50334600  1
  Mn  Mn10  1  0.50123800  0.99950600  0.99665400  1
  Mn  Mn11  1  0.50123800  0.99950600  0.50334600  1
  Mn  Mn12  1  0.50063000  0.50063000  0.99844200  1
  Mn  Mn13  1  0.50063000  0.50063000  0.50155800  1
  Al  Al14  1  0.99907300  0.99907300  0.00061700  1
  Al  Al15  1  0.99907300  0.99907300  0.49938300  1
  O  O16  1  0.99629400  0.50151600  0.25000000  1
  O  O17  1  0.99909200  0.50093000  0.75000000  1
  O  O18  1  0.50151600  0.99629400  0.25000000  1
  O  O19  1  0.50093000  0.99909200  0.75000000  1
  O  O20  1  0.50413500  0.50413500  0.25000000  1
  O  O21  1  0.23377800  0.99795000  0.99656000  1
  O  O22  1  0.23377800  0.99795000  0.50344000  1
  O  O23  1  0.25617600  0.50225600  0.97648700  1
  O  O24  1  0.25617600  0.50225600  0.52351300  1
  O  O25  1  0.76522000  0.99928700  0.99994500  1
  O  O26  1  0.76522000  0.99928700  0.50005500  1
  O  O27  1  0.74430400  0.50055400  0.97778500  1
  O  O28  1  0.74430400  0.50055400  0.52221500  1
  O  O29  1  0.99795000  0.23377800  0.99656000  1
  O  O30  1  0.99795000  0.23377800  0.50344000  1
  O  O31  1  0.99928700  0.76522000  0.99994500  1
  O  O32  1  0.99928700  0.76522000  0.50005500  1
  O  O33  1  0.50225600  0.25617600  0.97648700  1
  O  O34  1  0.50225600  0.25617600  0.52351300  1
  O  O35  1  0.50055400  0.74430400  0.97778500  1
  O  O36  1  0.50055400  0.74430400  0.52221500  1
