# generated using pymatgen
data_SrCa7Mn7CrO20
_symmetry_space_group_name_H-M   'P 1'
_cell_length_a   11.03068913
_cell_length_b   15.44216295
_cell_length_c   11.15947640
_cell_angle_alpha   90.00149248
_cell_angle_beta   91.62169947
_cell_angle_gamma   90.28819958
_symmetry_Int_Tables_number   1
_chemical_formula_structural   SrCa7Mn7CrO20
_chemical_formula_sum   'Sr4 Ca28 Mn28 Cr4 O80'
_cell_volume   1900.09410594
_cell_formula_units_Z   4
loop_
 _symmetry_equiv_pos_site_id
 _symmetry_equiv_pos_as_xyz
  1  'x, y, z'
loop_
 _atom_site_type_symbol
 _atom_site_label
 _atom_site_symmetry_multiplicity
 _atom_site_fract_x
 _atom_site_fract_y
 _atom_site_fract_z
 _atom_site_occupancy
  Sr  Sr0  1  0.00076909  0.11192197  0.50989537  1
  Sr  Sr1  1  0.51266202  0.37667952  0.99277943  1
  Sr  Sr2  1  0.24091568  0.38919437  0.26299869  1
  Sr  Sr3  1  0.22981388  0.12128046  0.24927920  1
  Ca  Ca4  1  0.99664319  0.11187920  0.00832469  1
  Ca  Ca5  1  0.00495789  0.61287567  0.50718344  1
  Ca  Ca6  1  0.99846636  0.61241819  0.01130222  1
  Ca  Ca7  1  0.54289988  0.12923876  0.48123558  1
  Ca  Ca8  1  0.54845008  0.12787912  0.98313802  1
  Ca  Ca9  1  0.54280005  0.62976631  0.48176726  1
  Ca  Ca10  1  0.54345102  0.62865438  0.98256016  1
  Ca  Ca11  1  0.51626107  0.37277377  0.49163247  1
  Ca  Ca12  1  0.52013247  0.87279316  0.98801129  1
  Ca  Ca13  1  0.51942463  0.87472702  0.48930202  1
  Ca  Ca14  1  0.96174188  0.38580839  0.00559826  1
  Ca  Ca15  1  0.95776678  0.38721582  0.50629818  1
  Ca  Ca16  1  0.95754234  0.87992485  0.00808542  1
  Ca  Ca17  1  0.95893831  0.88254879  0.50330351  1
  Ca  Ca18  1  0.23419345  0.39642680  0.75721368  1
  Ca  Ca19  1  0.23177793  0.89077551  0.27148198  1
  Ca  Ca20  1  0.23259512  0.89131246  0.76986741  1
  Ca  Ca21  1  0.75841581  0.38196269  0.25716736  1
  Ca  Ca22  1  0.75691844  0.37257119  0.75676320  1
  Ca  Ca23  1  0.75849486  0.87299594  0.25875926  1
  Ca  Ca24  1  0.75380611  0.87384200  0.75538772  1
  Ca  Ca25  1  0.22468414  0.11507463  0.74471812  1
  Ca  Ca26  1  0.22738292  0.61963138  0.24331027  1
  Ca  Ca27  1  0.22452131  0.62172006  0.74833748  1
  Ca  Ca28  1  0.77574076  0.11653243  0.25108495  1
  Ca  Ca29  1  0.78223153  0.12181741  0.75445375  1
  Ca  Ca30  1  0.78138638  0.62437460  0.25188212  1
  Ca  Ca31  1  0.78153594  0.62235427  0.75471270  1
  Mn  Mn32  1  0.99510612  0.99346217  0.75896408  1
  Mn  Mn33  1  0.99545609  0.49837636  0.25716878  1
  Mn  Mn34  1  0.99412141  0.49715210  0.75444993  1
  Mn  Mn35  1  0.50455110  0.98741069  0.23157832  1
  Mn  Mn36  1  0.50571132  0.98957340  0.73684802  1
  Mn  Mn37  1  0.50774775  0.49695691  0.23821933  1
  Mn  Mn38  1  0.50255312  0.49219777  0.73389497  1
  Mn  Mn39  1  0.24550902  0.99647829  0.52229584  1
  Mn  Mn40  1  0.24053323  0.50376777  0.01741821  1
  Mn  Mn41  1  0.24606281  0.50478429  0.52142987  1
  Mn  Mn42  1  0.74648305  0.00088669  0.99747656  1
  Mn  Mn43  1  0.74375465  0.00182765  0.49942180  1
  Mn  Mn44  1  0.74697186  0.50333287  0.99798316  1
  Mn  Mn45  1  0.74283132  0.50349810  0.49894041  1
  Mn  Mn46  1  0.27056141  0.24735435  0.47306138  1
  Mn  Mn47  1  0.27192230  0.74489811  0.95983368  1
  Mn  Mn48  1  0.27502403  0.74266486  0.45920898  1
  Mn  Mn49  1  0.75951645  0.24839016  0.00457478  1
  Mn  Mn50  1  0.75216725  0.24889515  0.50464986  1
  Mn  Mn51  1  0.75656944  0.74665610  0.00079065  1
  Mn  Mn52  1  0.75639161  0.74655422  0.50343757  1
  Mn  Mn53  1  0.99780444  0.25411205  0.76483828  1
  Mn  Mn54  1  0.99634459  0.75233631  0.26196313  1
  Mn  Mn55  1  0.99485458  0.75273955  0.76004944  1
  Mn  Mn56  1  0.51765991  0.25152722  0.25276345  1
  Mn  Mn57  1  0.50731193  0.24808934  0.75240423  1
  Mn  Mn58  1  0.51281488  0.74675448  0.24933567  1
  Mn  Mn59  1  0.51206782  0.74615036  0.74938636  1
  Cr  Cr60  1  0.99484155  0.99650320  0.25462985  1
  Cr  Cr61  1  0.23841224  0.99598708  0.01900711  1
  Cr  Cr62  1  0.26670946  0.24109553  0.94656081  1
  Cr  Cr63  1  0.98550525  0.25332579  0.27179554  1
  O  O64  1  0.59428332  0.25142428  0.09769418  1
  O  O65  1  0.58276480  0.25437566  0.59714600  1
  O  O66  1  0.58758348  0.75440649  0.09106191  1
  O  O67  1  0.58570261  0.75522392  0.59237979  1
  O  O68  1  0.40103805  0.19958384  0.35804640  1
  O  O69  1  0.39474584  0.18199850  0.85996074  1
  O  O70  1  0.39995967  0.67915725  0.34802098  1
  O  O71  1  0.39999642  0.68371836  0.85141133  1
  O  O72  1  0.90557977  0.23759601  0.40661509  1
  O  O73  1  0.91039882  0.23679258  0.92100624  1
  O  O74  1  0.90580008  0.73384127  0.41872337  1
  O  O75  1  0.90727171  0.73364686  0.91786449  1
  O  O76  1  0.14621651  0.25293686  0.32615620  1
  O  O77  1  0.17509523  0.25554421  0.79976610  1
  O  O78  1  0.16465926  0.75186968  0.30881900  1
  O  O79  1  0.16228335  0.75408779  0.80774388  1
  O  O80  1  0.66022953  0.22606941  0.35513533  1
  O  O81  1  0.65862698  0.22965703  0.85614664  1
  O  O82  1  0.65985051  0.72720603  0.35593240  1
  O  O83  1  0.65950998  0.72533035  0.85347950  1
  O  O84  1  0.86527722  0.27652295  0.15103356  1
  O  O85  1  0.86408197  0.27243658  0.64674773  1
  O  O86  1  0.85629215  0.77100096  0.14987550  1
  O  O87  1  0.85628028  0.77336961  0.64959726  1
  O  O88  1  0.35684605  0.51212719  0.15404373  1
  O  O89  1  0.34689847  0.51362662  0.66922478  1
  O  O90  1  0.35031404  0.00609339  0.16122945  1
  O  O91  1  0.34647442  0.00357103  0.67047965  1
  O  O92  1  0.85191941  0.48494188  0.13803886  1
  O  O93  1  0.84533195  0.48114978  0.64060825  1
  O  O94  1  0.84984511  0.97885961  0.14173559  1
  O  O95  1  0.85647253  0.98304336  0.64789072  1
  O  O96  1  0.14821297  0.00554156  0.37319832  1
  O  O97  1  0.14856166  0.00879347  0.86704542  1
  O  O98  1  0.15726843  0.51275606  0.37304439  1
  O  O99  1  0.15384209  0.50887932  0.86876453  1
  O  O100  1  0.62257203  0.02590193  0.34432979  1
  O  O101  1  0.63290762  0.02471584  0.84890312  1
  O  O102  1  0.63442211  0.52773538  0.34943661  1
  O  O103  1  0.62662521  0.52216155  0.84875712  1
  O  O104  1  0.87950812  0.01211500  0.38951502  1
  O  O105  1  0.88658227  0.01475058  0.89485103  1
  O  O106  1  0.88527262  0.51855924  0.39409875  1
  O  O107  1  0.88671925  0.51810115  0.89061005  1
  O  O108  1  0.09800979  0.47549549  0.12246163  1
  O  O109  1  0.09656390  0.47352461  0.62120779  1
  O  O110  1  0.10269910  0.97012965  0.11580703  1
  O  O111  1  0.09897665  0.97013642  0.62576700  1
  O  O112  1  0.60232038  0.50020738  0.09380054  1
  O  O113  1  0.58847546  0.49682800  0.58473139  1
  O  O114  1  0.59502000  0.99568834  0.08512963  1
  O  O115  1  0.59258973  0.99682822  0.58771714  1
  O  O116  1  0.98773386  0.37863475  0.30052583  1
  O  O117  1  0.99563403  0.37555798  0.79848296  1
  O  O118  1  0.99496495  0.87317819  0.29634855  1
  O  O119  1  0.99135759  0.87464966  0.80108429  1
  O  O120  1  0.48172273  0.37694530  0.28113641  1
  O  O121  1  0.46345548  0.37375584  0.77592403  1
  O  O122  1  0.47541489  0.87195957  0.28463812  1
  O  O123  1  0.48180007  0.87086623  0.78241193  1
  O  O124  1  0.99495779  0.12802078  0.22152905  1
  O  O125  1  0.00317231  0.12759225  0.73264011  1
  O  O126  1  0.00046857  0.62756558  0.22207034  1
  O  O127  1  0.99950704  0.62802056  0.71832982  1
  O  O128  1  0.21648216  0.13888733  0.02756225  1
  O  O129  1  0.23299988  0.12896165  0.53802878  1
  O  O130  1  0.21571422  0.63372208  0.03556515  1
  O  O131  1  0.22027911  0.63384733  0.54122929  1
  O  O132  1  0.75761787  0.12515649  0.03791826  1
  O  O133  1  0.75310516  0.12480638  0.54071656  1
  O  O134  1  0.75352338  0.62552855  0.03887203  1
  O  O135  1  0.74950392  0.62568686  0.54457470  1
  O  O136  1  0.29949326  0.37748922  0.49978596  1
  O  O137  1  0.28054094  0.36046073  0.99806510  1
  O  O138  1  0.29958455  0.87552928  0.48635162  1
  O  O139  1  0.29949937  0.87722877  0.98243632  1
  O  O140  1  0.73811882  0.37838560  0.46631194  1
  O  O141  1  0.74563739  0.37756874  0.96671805  1
  O  O142  1  0.74086452  0.87419643  0.46860315  1
  O  O143  1  0.74182390  0.87249331  0.96461421  1
