# generated using pymatgen
data_SrCa7Mn8O22
_symmetry_space_group_name_H-M   'P 1'
_cell_length_a   7.70409321
_cell_length_b   7.70409321
_cell_length_c   7.65420100
_cell_angle_alpha   90.00000000
_cell_angle_beta   90.00000000
_cell_angle_gamma   90.02702626
_symmetry_Int_Tables_number   1
_chemical_formula_structural   SrCa7Mn8O22
_chemical_formula_sum   'Sr1 Ca7 Mn8 O22'
_cell_volume   454.30014138
_cell_formula_units_Z   1
loop_
 _symmetry_equiv_pos_site_id
 _symmetry_equiv_pos_as_xyz
  1  'x, y, z'
loop_
 _atom_site_type_symbol
 _atom_site_label
 _atom_site_symmetry_multiplicity
 _atom_site_fract_x
 _atom_site_fract_y
 _atom_site_fract_z
 _atom_site_occupancy
  Sr  Sr0  1  0.25000000  0.25000000  0.25000000  1
  Ca  Ca1  1  0.25000000  0.25000000  0.75000000  1
  Ca  Ca2  1  0.25000000  0.75000000  0.25000000  1
  Ca  Ca3  1  0.25000000  0.75000000  0.75000000  1
  Ca  Ca4  1  0.75000000  0.25000000  0.25000000  1
  Ca  Ca5  1  0.75000000  0.25000000  0.75000000  1
  Ca  Ca6  1  0.75000000  0.75000000  0.25000000  1
  Ca  Ca7  1  0.75000000  0.75000000  0.75000000  1
  Mn  Mn8  1  0.99935400  0.99935400  0.99166500  1
  Mn  Mn9  1  0.99935400  0.99935400  0.50833500  1
  Mn  Mn10  1  0.99896100  0.50103900  0.00522800  1
  Mn  Mn11  1  0.99896100  0.50103900  0.49477200  1
  Mn  Mn12  1  0.50103900  0.99896100  0.00522800  1
  Mn  Mn13  1  0.50103900  0.99896100  0.49477200  1
  Mn  Mn14  1  0.50064600  0.50064600  0.99166500  1
  Mn  Mn15  1  0.50064600  0.50064600  0.50833500  1
  O  O16  1  0.99876400  0.99876400  0.75000000  1
  O  O17  1  0.99850100  0.50149900  0.25000000  1
  O  O18  1  0.99846400  0.50153600  0.75000000  1
  O  O19  1  0.50149900  0.99850100  0.25000000  1
  O  O20  1  0.50153600  0.99846400  0.75000000  1
  O  O21  1  0.50123600  0.50123600  0.75000000  1
  O  O22  1  0.24587300  0.99608400  0.01605500  1
  O  O23  1  0.24587300  0.99608400  0.48394500  1
  O  O24  1  0.25412700  0.50391600  0.01605500  1
  O  O25  1  0.25412700  0.50391600  0.48394500  1
  O  O26  1  0.75469100  0.99878700  0.02167600  1
  O  O27  1  0.75469100  0.99878700  0.47832400  1
  O  O28  1  0.74530900  0.50121300  0.02167600  1
  O  O29  1  0.74530900  0.50121300  0.47832400  1
  O  O30  1  0.99608400  0.24587300  0.01605500  1
  O  O31  1  0.99608400  0.24587300  0.48394500  1
  O  O32  1  0.99878700  0.75469100  0.02167600  1
  O  O33  1  0.99878700  0.75469100  0.47832400  1
  O  O34  1  0.50391600  0.25412700  0.01605500  1
  O  O35  1  0.50391600  0.25412700  0.48394500  1
  O  O36  1  0.50121300  0.74530900  0.02167600  1
  O  O37  1  0.50121300  0.74530900  0.47832400  1
