# generated using pymatgen
data_Sr2Ca14Mn14Al2O43
_symmetry_space_group_name_H-M   'P 1'
_cell_length_a   10.95846678
_cell_length_b   15.33625195
_cell_length_c   10.88640824
_cell_angle_alpha   90.21940814
_cell_angle_beta   91.59416741
_cell_angle_gamma   89.98324683
_symmetry_Int_Tables_number   1
_chemical_formula_structural   Sr2Ca14Mn14Al2O43
_chemical_formula_sum   'Sr4 Ca28 Mn28 Al4 O86'
_cell_volume   1828.86786723
_cell_formula_units_Z   2
loop_
 _symmetry_equiv_pos_site_id
 _symmetry_equiv_pos_as_xyz
  1  'x, y, z'
loop_
 _atom_site_type_symbol
 _atom_site_label
 _atom_site_symmetry_multiplicity
 _atom_site_fract_x
 _atom_site_fract_y
 _atom_site_fract_z
 _atom_site_occupancy
  Sr  Sr0  1  0.99921037  0.11808911  0.50232441  1
  Sr  Sr1  1  0.50521700  0.36413889  0.99658508  1
  Sr  Sr2  1  0.24369057  0.37333047  0.25098859  1
  Sr  Sr3  1  0.25511138  0.12691103  0.23419981  1
  Ca  Ca4  1  0.00592700  0.11349487  0.00754399  1
  Ca  Ca5  1  0.00827938  0.62426818  0.50501655  1
  Ca  Ca6  1  0.01244652  0.62110474  0.99516843  1
  Ca  Ca7  1  0.53646347  0.12511916  0.49494391  1
  Ca  Ca8  1  0.53141430  0.12422305  0.99886924  1
  Ca  Ca9  1  0.52849970  0.63619345  0.48676408  1
  Ca  Ca10  1  0.54095168  0.63124584  0.98916969  1
  Ca  Ca11  1  0.51345303  0.36050371  0.49012986  1
  Ca  Ca12  1  0.50047658  0.88879625  0.98720514  1
  Ca  Ca13  1  0.48072297  0.87744906  0.51793766  1
  Ca  Ca14  1  0.96352308  0.38156349  0.00700316  1
  Ca  Ca15  1  0.95977884  0.38578556  0.50160170  1
  Ca  Ca16  1  0.96976767  0.88153875  0.00027476  1
  Ca  Ca17  1  0.97042200  0.87165488  0.50651157  1
  Ca  Ca18  1  0.23163791  0.39299088  0.76235767  1
  Ca  Ca19  1  0.23579133  0.89103817  0.25896798  1
  Ca  Ca20  1  0.22673802  0.87337009  0.74603989  1
  Ca  Ca21  1  0.74321415  0.36134150  0.24789255  1
  Ca  Ca22  1  0.74956643  0.36258157  0.75325696  1
  Ca  Ca23  1  0.75519494  0.88494681  0.25310498  1
  Ca  Ca24  1  0.72613407  0.87992646  0.74140574  1
  Ca  Ca25  1  0.26390117  0.11492671  0.76558508  1
  Ca  Ca26  1  0.23316271  0.61897574  0.26550919  1
  Ca  Ca27  1  0.22874239  0.63648480  0.72577172  1
  Ca  Ca28  1  0.76255165  0.12035282  0.25643137  1
  Ca  Ca29  1  0.77789652  0.12154426  0.75714744  1
  Ca  Ca30  1  0.78427231  0.62352955  0.25384720  1
  Ca  Ca31  1  0.77685758  0.62554290  0.75782478  1
  Mn  Mn32  1  0.00355250  0.00193183  0.25181466  1
  Mn  Mn33  1  0.99980559  0.99614841  0.75272436  1
  Mn  Mn34  1  0.99557805  0.49312445  0.25512968  1
  Mn  Mn35  1  0.99291786  0.49741147  0.75366801  1
  Mn  Mn36  1  0.49538482  0.00416652  0.74714830  1
  Mn  Mn37  1  0.51265674  0.49172342  0.23640904  1
  Mn  Mn38  1  0.50429612  0.48882261  0.72978357  1
  Mn  Mn39  1  0.25370754  0.99682270  0.00136653  1
  Mn  Mn40  1  0.24056089  0.50213539  0.01595421  1
  Mn  Mn41  1  0.24206500  0.49629539  0.51616022  1
  Mn  Mn42  1  0.75146223  0.99981019  0.99683719  1
  Mn  Mn43  1  0.74480296  0.99788586  0.49997496  1
  Mn  Mn44  1  0.74847966  0.50325223  0.99876972  1
  Mn  Mn45  1  0.74201701  0.50399914  0.49756041  1
  Mn  Mn46  1  0.25512074  0.24319904  0.48511693  1
  Mn  Mn47  1  0.26894483  0.73608614  0.97098058  1
  Mn  Mn48  1  0.24952397  0.75432765  0.48784964  1
  Mn  Mn49  1  0.76243528  0.24514087  0.00512828  1
  Mn  Mn50  1  0.75257862  0.24891983  0.50471846  1
  Mn  Mn51  1  0.75104962  0.75261807  0.99772139  1
  Mn  Mn52  1  0.75064289  0.74827531  0.50346353  1
  Mn  Mn53  1  0.00829402  0.25020324  0.76452175  1
  Mn  Mn54  1  0.99573321  0.75323197  0.25858018  1
  Mn  Mn55  1  0.99226806  0.75230643  0.75028661  1
  Mn  Mn56  1  0.50164954  0.24195534  0.24747507  1
  Mn  Mn57  1  0.51081325  0.24223712  0.75281620  1
  Mn  Mn58  1  0.51890549  0.76586549  0.25873920  1
  Mn  Mn59  1  0.49928317  0.75049648  0.74493473  1
  Al  Al60  1  0.51420948  0.99822015  0.23155780  1
  Al  Al61  1  0.22718912  0.99676094  0.51985001  1
  Al  Al62  1  0.27499489  0.25138658  0.97268236  1
  Al  Al63  1  0.98246971  0.24878407  0.27216343  1
  O  O64  1  0.10098806  0.76489738  0.61216493  1
  O  O65  1  0.61872896  0.25886101  0.11862357  1
  O  O66  1  0.61547837  0.26588680  0.61358111  1
  O  O67  1  0.58972230  0.76662777  0.09853999  1
  O  O68  1  0.59608766  0.75996604  0.59811245  1
  O  O69  1  0.40390236  0.22733039  0.39611654  1
  O  O70  1  0.40858357  0.22508472  0.88974808  1
  O  O71  1  0.40110363  0.71012852  0.34940983  1
  O  O72  1  0.39572616  0.69277400  0.86454372  1
  O  O73  1  0.88246459  0.23717574  0.39683362  1
  O  O74  1  0.90441118  0.23307421  0.90771685  1
  O  O75  1  0.89341668  0.73284430  0.40696012  1
  O  O76  1  0.89294759  0.73183177  0.90031339  1
  O  O77  1  0.13350991  0.24205808  0.35364192  1
  O  O78  1  0.17784145  0.25077285  0.81375119  1
  O  O79  1  0.15809068  0.74941926  0.32886424  1
  O  O80  1  0.13103173  0.73276039  0.86144396  1
  O  O81  1  0.64293741  0.22818653  0.36098974  1
  O  O82  1  0.65999106  0.23039820  0.86250782  1
  O  O83  1  0.65389745  0.72122943  0.35133951  1
  O  O84  1  0.64078614  0.72489338  0.85119624  1
  O  O85  1  0.36225712  0.26134590  0.13465126  1
  O  O86  1  0.35517732  0.75822813  0.63661717  1
  O  O87  1  0.87790234  0.27029335  0.14175483  1
  O  O88  1  0.87504686  0.27167781  0.63719441  1
  O  O89  1  0.86028410  0.77558881  0.14082698  1
  O  O90  1  0.84645089  0.77174433  0.65053925  1
  O  O91  1  0.35714883  0.50511849  0.16242348  1
  O  O92  1  0.34716915  0.51257313  0.66541774  1
  O  O93  1  0.36213023  0.98865842  0.14722733  1
  O  O94  1  0.35160275  0.98375581  0.63791077  1
  O  O95  1  0.84914817  0.48096626  0.15303229  1
  O  O96  1  0.84399361  0.47753972  0.64884619  1
  O  O97  1  0.86424997  0.97992902  0.13434825  1
  O  O98  1  0.85489742  0.98021180  0.64337272  1
  O  O99  1  0.15196167  0.01620281  0.36680359  1
  O  O100  1  0.14925666  0.00393684  0.85328912  1
  O  O101  1  0.15354509  0.49925460  0.36303409  1
  O  O102  1  0.15228731  0.52235547  0.86267158  1
  O  O103  1  0.62852714  0.01965654  0.36162425  1
  O  O104  1  0.64090244  0.02603728  0.85454017  1
  O  O105  1  0.63122406  0.53277007  0.34787330  1
  O  O106  1  0.62522563  0.52371743  0.84508196  1
  O  O107  1  0.39719687  0.02182906  0.89632136  1
  O  O108  1  0.87909972  0.00966437  0.38244064  1
  O  O109  1  0.89249943  0.01604892  0.89181209  1
  O  O110  1  0.89170191  0.51875907  0.40000446  1
  O  O111  1  0.89080700  0.51707711  0.89864674  1
  O  O112  1  0.09515845  0.47647601  0.11667167  1
  O  O113  1  0.09472749  0.47777910  0.61721611  1
  O  O114  1  0.11407983  0.98019605  0.10633222  1
  O  O115  1  0.09761488  0.97499950  0.61156848  1
  O  O116  1  0.59808153  0.49972637  0.08814710  1
  O  O117  1  0.58384886  0.49558470  0.57738123  1
  O  O118  1  0.61837902  0.98097134  0.10766142  1
  O  O119  1  0.60016026  0.98552248  0.60703307  1
  O  O120  1  -0.00000301  0.37185853  0.28820273  1
  O  O121  1  0.00785222  0.37512726  0.79588621  1
  O  O122  1  0.00928886  0.87762067  0.28394828  1
  O  O123  1  0.00537338  0.87399452  0.79157806  1
  O  O124  1  0.50290861  0.37213526  0.28144778  1
  O  O125  1  0.47402829  0.36937959  0.76591087  1
  O  O126  1  0.48297571  0.88705891  0.29244468  1
  O  O127  1  0.50503064  0.88035519  0.77734694  1
  O  O128  1  0.49102508  0.11911131  0.21956740  1
  O  O129  1  0.47656512  0.12813006  0.69784229  1
  O  O130  1  0.99417951  0.12852115  0.22400676  1
  O  O131  1  0.00288445  0.12485919  0.72897244  1
  O  O132  1  0.00527939  0.62699269  0.22047659  1
  O  O133  1  0.99028297  0.62426144  0.71619487  1
  O  O134  1  0.20751580  0.14996106  0.01621487  1
  O  O135  1  0.23696712  0.12692608  0.54114980  1
  O  O136  1  0.23435416  0.62959360  0.05023229  1
  O  O137  1  0.23352483  0.62457338  0.50599545  1
  O  O138  1  0.75318742  0.12201923  0.04150388  1
  O  O139  1  0.75184078  0.12428929  0.54005359  1
  O  O140  1  0.74866661  0.62960977  0.03784912  1
  O  O141  1  0.74242880  0.62572366  0.54450210  1
  O  O142  1  0.28669457  0.36662701  0.51476471  1
  O  O143  1  0.26559255  0.37569226  0.97896598  1
  O  O144  1  0.26810629  0.88093601  0.46817202  1
  O  O145  1  0.28907828  0.85453112  0.98147297  1
  O  O146  1  0.74021283  0.37797704  0.46290833  1
  O  O147  1  0.74857609  0.37456789  0.96898404  1
  O  O148  1  0.74730164  0.87199265  0.46563336  1
  O  O149  1  0.74894249  0.87630223  0.95553929  1
