# generated using pymatgen
data_SrCa7Mn7CrO20
_symmetry_space_group_name_H-M   'P 1'
_cell_length_a   7.86227849
_cell_length_b   7.86227849
_cell_length_c   7.67985896
_cell_angle_alpha   88.27277162
_cell_angle_beta   88.27277162
_cell_angle_gamma   90.62531633
_symmetry_Int_Tables_number   1
_chemical_formula_structural   SrCa7Mn7CrO20
_chemical_formula_sum   'Sr1 Ca7 Mn7 Cr1 O20'
_cell_volume   474.26923106
_cell_formula_units_Z   1
loop_
 _symmetry_equiv_pos_site_id
 _symmetry_equiv_pos_as_xyz
  1  'x, y, z'
loop_
 _atom_site_type_symbol
 _atom_site_label
 _atom_site_symmetry_multiplicity
 _atom_site_fract_x
 _atom_site_fract_y
 _atom_site_fract_z
 _atom_site_occupancy
  Sr  Sr0  1  0.24937600  0.24937600  0.25274500  1
  Ca  Ca1  1  0.27272300  0.27272300  0.70186400  1
  Ca  Ca2  1  0.25568100  0.73346700  0.26163400  1
  Ca  Ca3  1  0.25457500  0.72246700  0.71225800  1
  Ca  Ca4  1  0.73346700  0.25568100  0.26163400  1
  Ca  Ca5  1  0.72246700  0.25457500  0.71225800  1
  Ca  Ca6  1  0.74445300  0.74445300  0.27025000  1
  Ca  Ca7  1  0.73161400  0.73161400  0.72744400  1
  Mn  Mn8  1  0.00085500  0.00085500  0.52433800  1
  Mn  Mn9  1  0.99759600  0.48908400  0.00156400  1
  Mn  Mn10  1  0.99946000  0.50802000  0.49350200  1
  Mn  Mn11  1  0.48908400  0.99759600  0.00156400  1
  Mn  Mn12  1  0.50802000  0.99946000  0.49350200  1
  Mn  Mn13  1  0.50544500  0.50544500  0.99376100  1
  Mn  Mn14  1  0.50488500  0.50488500  0.49207900  1
  Cr  Cr15  1  0.01476300  0.01476300  0.98558000  1
  O  O16  1  0.93269400  0.93269400  0.79166900  1
  O  O17  1  0.01944600  0.53235400  0.24251200  1
  O  O18  1  0.99535500  0.52923600  0.74984200  1
  O  O19  1  0.53235400  0.01944600  0.24251200  1
  O  O20  1  0.52923600  0.99535500  0.74984200  1
  O  O21  1  0.51088600  0.51088600  0.74220600  1
  O  O22  1  0.22079500  0.95679300  0.06012700  1
  O  O23  1  0.25050900  0.00543200  0.52597400  1
  O  O24  1  0.25439100  0.50668000  0.99920600  1
  O  O25  1  0.26224200  0.50208400  0.48893800  1
  O  O26  1  0.76391700  0.00907100  0.46844200  1
  O  O27  1  0.74911300  0.51866900  0.03606400  1
  O  O28  1  0.74450400  0.50136800  0.46896700  1
  O  O29  1  0.95679300  0.22079500  0.06012700  1
  O  O30  1  0.00543200  0.25050900  0.52597400  1
  O  O31  1  0.00907100  0.76391700  0.46844200  1
  O  O32  1  0.50668000  0.25439100  0.99920600  1
  O  O33  1  0.50208400  0.26224200  0.48893800  1
  O  O34  1  0.51866900  0.74911300  0.03606400  1
  O  O35  1  0.50136800  0.74450400  0.46896700  1
