# generated using pymatgen
data_Ca4Mn3CrO12
_symmetry_space_group_name_H-M   'P 1'
_cell_length_a   3.83439600
_cell_length_b   7.58690000
_cell_length_c   7.58690000
_cell_angle_alpha   90.00000000
_cell_angle_beta   90.00000000
_cell_angle_gamma   90.00000000
_symmetry_Int_Tables_number   1
_chemical_formula_structural   Ca4Mn3CrO12
_chemical_formula_sum   'Ca4 Mn3 Cr1 O12'
_cell_volume   220.71186605
_cell_formula_units_Z   1
loop_
 _symmetry_equiv_pos_site_id
 _symmetry_equiv_pos_as_xyz
  1  'x, y, z'
loop_
 _atom_site_type_symbol
 _atom_site_label
 _atom_site_symmetry_multiplicity
 _atom_site_fract_x
 _atom_site_fract_y
 _atom_site_fract_z
 _atom_site_occupancy
  Ca  Ca0  1  0.50000000  0.25056300  0.25056300  1
  Ca  Ca1  1  0.50000000  0.25056300  0.74943700  1
  Ca  Ca2  1  0.50000000  0.74943700  0.25056300  1
  Ca  Ca3  1  0.50000000  0.74943700  0.74943700  1
  Mn  Mn4  1  0.00000000  0.00000000  0.50000000  1
  Mn  Mn5  1  0.00000000  0.50000000  0.00000000  1
  Mn  Mn6  1  0.00000000  0.50000000  0.50000000  1
  Cr  Cr7  1  0.00000000  0.00000000  0.00000000  1
  O  O8  1  0.00000000  0.00000000  0.24964200  1
  O  O9  1  0.00000000  0.00000000  0.75035800  1
  O  O10  1  0.00000000  0.50000000  0.24976000  1
  O  O11  1  0.00000000  0.50000000  0.75024000  1
  O  O12  1  0.50000000  0.00000000  0.00000000  1
  O  O13  1  0.50000000  0.00000000  0.50000000  1
  O  O14  1  0.50000000  0.50000000  0.00000000  1
  O  O15  1  0.50000000  0.50000000  0.50000000  1
  O  O16  1  0.00000000  0.24964200  0.00000000  1
  O  O17  1  0.00000000  0.24976000  0.50000000  1
  O  O18  1  0.00000000  0.75035800  0.00000000  1
  O  O19  1  0.00000000  0.75024000  0.50000000  1
