# generated using pymatgen
data_SrCa7Ti3Mn5O20
_symmetry_space_group_name_H-M   'P 1'
_cell_length_a   7.93548694
_cell_length_b   7.91531936
_cell_length_c   7.92750598
_cell_angle_alpha   90.95263775
_cell_angle_beta   90.72377267
_cell_angle_gamma   90.23932982
_symmetry_Int_Tables_number   1
_chemical_formula_structural   SrCa7Ti3Mn5O20
_chemical_formula_sum   'Sr1 Ca7 Ti3 Mn5 O20'
_cell_volume   497.82847787
_cell_formula_units_Z   1
loop_
 _symmetry_equiv_pos_site_id
 _symmetry_equiv_pos_as_xyz
  1  'x, y, z'
loop_
 _atom_site_type_symbol
 _atom_site_label
 _atom_site_symmetry_multiplicity
 _atom_site_fract_x
 _atom_site_fract_y
 _atom_site_fract_z
 _atom_site_occupancy
  Sr  Sr0  1  0.23302600  0.25042800  0.25681200  1
  Ca  Ca1  1  0.23221800  0.28378600  0.68675800  1
  Ca  Ca2  1  0.24781800  0.74320300  0.27319500  1
  Ca  Ca3  1  0.23225500  0.69470200  0.77122700  1
  Ca  Ca4  1  0.73641200  0.25711000  0.29266000  1
  Ca  Ca5  1  0.73385300  0.30505200  0.71684100  1
  Ca  Ca6  1  0.73335100  0.75492900  0.29239400  1
  Ca  Ca7  1  0.73275100  0.69965100  0.75851900  1
  Ti  Ti8  1  0.99786000  0.02275500  0.96646400  1
  Ti  Ti9  1  0.98651400  0.98744400  0.53129900  1
  Ti  Ti10  1  0.56190000  0.00665300  0.00331900  1
  Mn  Mn11  1  0.98900000  0.48212000  0.00739400  1
  Mn  Mn12  1  0.98663000  0.51017800  0.48700600  1
  Mn  Mn13  1  0.49738400  0.00467700  0.51901800  1
  Mn  Mn14  1  0.48664100  0.50048800  0.01320900  1
  Mn  Mn15  1  0.48457900  0.51407300  0.49980800  1
  O  O16  1  0.97890200  0.90511200  0.75891400  1
  O  O17  1  0.96864700  0.41841500  0.23814300  1
  O  O18  1  0.99261600  0.54474400  0.76446300  1
  O  O19  1  0.79003600  0.01522400  0.07827400  1
  O  O20  1  0.57016700  0.00803400  0.77645800  1
  O  O21  1  0.46956900  0.51745600  0.75930800  1
  O  O22  1  0.16528000  0.95266900  0.09475900  1
  O  O23  1  0.22505100  0.02980000  0.50770700  1
  O  O24  1  0.23185800  0.54840000  0.04204900  1
  O  O25  1  0.24286000  0.49949600  0.48341100  1
  O  O26  1  0.75722000  0.00203600  0.44328700  1
  O  O27  1  0.74260000  0.49446900  0.98460800  1
  O  O28  1  0.72949300  0.52686800  0.50497500  1
  O  O29  1  0.05630100  0.23341100  0.92260000  1
  O  O30  1  0.96675300  0.23384600  0.55216500  1
  O  O31  1  0.99912500  0.77612700  0.41664900  1
  O  O32  1  0.49068200  0.21275400  0.08885200  1
  O  O33  1  0.50452600  0.26630200  0.48555500  1
  O  O34  1  0.51317500  0.79353600  0.07180600  1
  O  O35  1  0.48294600  0.75405200  0.45009400  1
