# generated using pymatgen
data_Mn(BiTe2)2
_symmetry_space_group_name_H-M   'P 1'
_cell_length_a   13.87133937
_cell_length_b   13.87133937
_cell_length_c   13.87133974
_cell_angle_alpha   18.08977014
_cell_angle_beta   18.08977014
_cell_angle_gamma   18.08977182
_symmetry_Int_Tables_number   1
_chemical_formula_structural   Mn(BiTe2)2
_chemical_formula_sum   'Mn1 Bi2 Te4'
_cell_volume   224.70872686
_cell_formula_units_Z   1
loop_
 _symmetry_equiv_pos_site_id
 _symmetry_equiv_pos_as_xyz
  1  'x, y, z'
loop_
 _atom_site_type_symbol
 _atom_site_label
 _atom_site_symmetry_multiplicity
 _atom_site_fract_x
 _atom_site_fract_y
 _atom_site_fract_z
 _atom_site_occupancy
  Mn  Mn0  1  0.00000000  0.00000000  0.00000000  1
  Bi  Bi1  1  0.57669100  0.57669100  0.57669100  1
  Bi  Bi2  1  0.42330900  0.42330900  0.42330900  1
  Te  Te3  1  0.86704500  0.86704500  0.86704500  1
  Te  Te4  1  0.13295500  0.13295500  0.13295500  1
  Te  Te5  1  0.70398000  0.70398000  0.70398000  1
  Te  Te6  1  0.29602000  0.29602000  0.29602000  1
