# generated using pymatgen
data_Ca2MnAlO5
_symmetry_space_group_name_H-M   'P 1'
_cell_length_a   7.68646457
_cell_length_b   7.58126300
_cell_length_c   7.67118277
_cell_angle_alpha   90.00000000
_cell_angle_beta   89.81816141
_cell_angle_gamma   90.00000000
_symmetry_Int_Tables_number   1
_chemical_formula_structural   Ca2MnAlO5
_chemical_formula_sum   'Ca8 Mn4 Al4 O20'
_cell_volume   447.02142164
_cell_formula_units_Z   4
loop_
 _symmetry_equiv_pos_site_id
 _symmetry_equiv_pos_as_xyz
  1  'x, y, z'
loop_
 _atom_site_type_symbol
 _atom_site_label
 _atom_site_symmetry_multiplicity
 _atom_site_fract_x
 _atom_site_fract_y
 _atom_site_fract_z
 _atom_site_occupancy
  Ca  Ca0  1  0.25304300  0.26701800  0.24088600  1
  Ca  Ca1  1  0.26027400  0.25554800  0.75668300  1
  Ca  Ca2  1  0.25304300  0.73298200  0.24088600  1
  Ca  Ca3  1  0.26027400  0.74445200  0.75668300  1
  Ca  Ca4  1  0.79410800  0.26705700  0.21137400  1
  Ca  Ca5  1  0.72465200  0.26995800  0.72912600  1
  Ca  Ca6  1  0.79410800  0.73294300  0.21137400  1
  Ca  Ca7  1  0.72465200  0.73004200  0.72912600  1
  Mn  Mn8  1  0.01981800  0.50000000  0.97667800  1
  Mn  Mn9  1  0.00933800  0.50000000  0.47153800  1
  Mn  Mn10  1  0.50377700  0.00000000  0.02864100  1
  Mn  Mn11  1  0.50899000  0.00000000  0.49588300  1
  Al  Al12  1  0.99236300  0.00000000  0.95089500  1
  Al  Al13  1  0.97253900  0.00000000  0.52413300  1
  Al  Al14  1  0.50864500  0.50000000  0.97707600  1
  Al  Al15  1  0.49988600  0.50000000  0.51029300  1
  O  O16  1  0.99543200  0.50000000  0.22557000  1
  O  O17  1  0.01532900  0.50000000  0.72090200  1
  O  O18  1  0.40273500  0.00000000  0.26449000  1
  O  O19  1  0.44085800  0.00000000  0.78707500  1
  O  O20  1  0.50383500  0.50000000  0.74489000  1
  O  O21  1  0.07196100  0.00000000  0.73096500  1
  O  O22  1  0.26799800  0.50000000  0.99129400  1
  O  O23  1  0.27316100  0.50000000  0.44137600  1
  O  O24  1  0.77429200  0.00000000  0.02518200  1
  O  O25  1  0.75096600  0.00000000  0.58646800  1
  O  O26  1  0.76275800  0.50000000  0.97700900  1
  O  O27  1  0.73689100  0.50000000  0.46142800  1
  O  O28  1  0.06318100  0.21018100  0.01260800  1
  O  O29  1  0.01465500  0.20246100  0.42432400  1
  O  O30  1  0.06318100  0.78981900  0.01260800  1
  O  O31  1  0.01465500  0.79753900  0.42432400  1
  O  O32  1  0.51498900  0.26614500  0.04543200  1
  O  O33  1  0.49431200  0.24917100  0.50867500  1
  O  O34  1  0.51498900  0.73385500  0.04543200  1
  O  O35  1  0.49431200  0.75082900  0.50867500  1
