# generated using pymatgen
data_Ca16Mn14Al2O45
_symmetry_space_group_name_H-M   'P 1'
_cell_length_a   10.88809927
_cell_length_b   15.14993768
_cell_length_c   10.74697207
_cell_angle_alpha   89.97608115
_cell_angle_beta   90.80254362
_cell_angle_gamma   89.96236486
_symmetry_Int_Tables_number   1
_chemical_formula_structural   Ca16Mn14Al2O45
_chemical_formula_sum   'Ca32 Mn28 Al4 O90'
_cell_volume   1772.58185884
_cell_formula_units_Z   2
loop_
 _symmetry_equiv_pos_site_id
 _symmetry_equiv_pos_as_xyz
  1  'x, y, z'
loop_
 _atom_site_type_symbol
 _atom_site_label
 _atom_site_symmetry_multiplicity
 _atom_site_fract_x
 _atom_site_fract_y
 _atom_site_fract_z
 _atom_site_occupancy
  Ca  Ca0  1  0.01333990  0.11650115  0.49561301  1
  Ca  Ca1  1  0.01815827  0.11580248  0.99695223  1
  Ca  Ca2  1  0.02152240  0.62789174  0.49763792  1
  Ca  Ca3  1  0.02212752  0.62615129  0.99458867  1
  Ca  Ca4  1  0.53436036  0.12443234  0.49604487  1
  Ca  Ca5  1  0.52618360  0.12475097  0.99507391  1
  Ca  Ca6  1  0.52742695  0.63279571  0.50822031  1
  Ca  Ca7  1  0.52568494  0.62557767  0.97923611  1
  Ca  Ca8  1  0.48428790  0.37263885  0.99487112  1
  Ca  Ca9  1  0.49107087  0.37167439  0.50640648  1
  Ca  Ca10  1  0.47891721  0.87375700  0.99976081  1
  Ca  Ca11  1  0.47904685  0.87317123  0.50909256  1
  Ca  Ca12  1  0.97145425  0.38013796  0.00211546  1
  Ca  Ca13  1  0.96429916  0.38248061  0.50042015  1
  Ca  Ca14  1  0.97783904  0.87445553  0.00531641  1
  Ca  Ca15  1  0.97380280  0.87310092  0.50435707  1
  Ca  Ca16  1  0.23418188  0.37965266  0.24735389  1
  Ca  Ca17  1  0.23202844  0.38975574  0.76576451  1
  Ca  Ca18  1  0.23149662  0.87634190  0.24491595  1
  Ca  Ca19  1  0.22863656  0.87391073  0.74837008  1
  Ca  Ca20  1  0.72973106  0.36708882  0.24067565  1
  Ca  Ca21  1  0.72835485  0.37530052  0.74812106  1
  Ca  Ca22  1  0.73015843  0.87517317  0.24524401  1
  Ca  Ca23  1  0.72702784  0.87531156  0.74348420  1
  Ca  Ca24  1  0.26252963  0.12489366  0.23838841  1
  Ca  Ca25  1  0.26763077  0.11675200  0.75925263  1
  Ca  Ca26  1  0.24581131  0.63338332  0.24514982  1
  Ca  Ca27  1  0.27033697  0.62822811  0.75434045  1
  Ca  Ca28  1  0.77306181  0.12014420  0.25693356  1
  Ca  Ca29  1  0.77652518  0.12293345  0.75571686  1
  Ca  Ca30  1  0.77977146  0.62616758  0.25650805  1
  Ca  Ca31  1  0.77462713  0.62674546  0.75367871  1
  Mn  Mn32  1  0.00381641  0.00184840  0.24945894  1
  Mn  Mn33  1  0.99732578  0.99788828  0.75026830  1
  Mn  Mn34  1  0.00079476  0.49769423  0.25017754  1
  Mn  Mn35  1  0.99644301  0.49925009  0.75025016  1
  Mn  Mn36  1  0.49755001  0.00095307  0.74568660  1
  Mn  Mn37  1  0.51007528  0.48945421  0.23951292  1
  Mn  Mn38  1  0.50037708  0.49972475  0.74813858  1
  Mn  Mn39  1  0.25111119  0.00109903  0.00255284  1
  Mn  Mn40  1  0.24977159  0.50083286  0.00314850  1
  Mn  Mn41  1  0.24030374  0.49791707  0.50785048  1
  Mn  Mn42  1  0.75026454  0.99860560  0.99698361  1
  Mn  Mn43  1  0.74808690  0.99975382  0.49786091  1
  Mn  Mn44  1  0.75185040  0.50123534  0.99781272  1
  Mn  Mn45  1  0.74675567  0.50192405  0.49981349  1
  Mn  Mn46  1  0.25074497  0.24236325  0.47194905  1
  Mn  Mn47  1  0.24976972  0.75101583  0.99922787  1
  Mn  Mn48  1  0.25132405  0.75091783  0.49833946  1
  Mn  Mn49  1  0.75604897  0.24645944  0.00598797  1
  Mn  Mn50  1  0.75085898  0.24968188  0.50262790  1
  Mn  Mn51  1  0.74982783  0.75017887  0.00025498  1
  Mn  Mn52  1  0.75040036  0.75060631  0.49834239  1
  Mn  Mn53  1  0.99802371  0.24936936  0.76099312  1
  Mn  Mn54  1  0.99960164  0.75262613  0.25038699  1
  Mn  Mn55  1  0.99971805  0.75047824  0.74968819  1
  Mn  Mn56  1  0.49887049  0.24510633  0.24956761  1
  Mn  Mn57  1  0.51366207  0.24505843  0.75377085  1
  Mn  Mn58  1  0.49880381  0.76012142  0.25369343  1
  Mn  Mn59  1  0.49960406  0.75134687  0.75036843  1
  Al  Al60  1  0.51508570  0.00062305  0.23028253  1
  Al  Al61  1  0.22884404  0.99510888  0.51390896  1
  Al  Al62  1  0.27149869  0.24659572  0.98328149  1
  Al  Al63  1  0.98216655  0.24922433  0.26996401  1
  O  O64  1  0.10561376  0.76971275  0.10476356  1
  O  O65  1  0.10603300  0.77038751  0.60337222  1
  O  O66  1  0.60150933  0.26920278  0.10733710  1
  O  O67  1  0.60467246  0.26685826  0.60390981  1
  O  O68  1  0.60130925  0.76659554  0.10467663  1
  O  O69  1  0.60398393  0.76770228  0.60377496  1
  O  O70  1  0.40767378  0.22488760  0.40099164  1
  O  O71  1  0.40024234  0.23052049  0.88554988  1
  O  O72  1  0.39298931  0.71828043  0.38883649  1
  O  O73  1  0.39428466  0.73148113  0.89548626  1
  O  O74  1  0.89484986  0.23217127  0.40737283  1
  O  O75  1  0.89999405  0.23000662  0.91046365  1
  O  O76  1  0.89482431  0.73022726  0.39431194  1
  O  O77  1  0.89470012  0.72915674  0.89607608  1
  O  O78  1  0.13509754  0.23184645  0.34123473  1
  O  O79  1  0.15585881  0.23712564  0.84608394  1
  O  O80  1  0.14197473  0.73242090  0.35763515  1
  O  O81  1  0.14570594  0.73129112  0.85291876  1
  O  O82  1  0.64982408  0.22839890  0.35028599  1
  O  O83  1  0.65745589  0.22772859  0.86139829  1
  O  O84  1  0.64268456  0.72834204  0.35302400  1
  O  O85  1  0.64465031  0.72901302  0.85405302  1
  O  O86  1  0.34776050  0.26610816  0.14425057  1
  O  O87  1  0.35345488  0.76201720  0.14765892  1
  O  O88  1  0.35596380  0.77097778  0.64412811  1
  O  O89  1  0.86806420  0.27107362  0.14790618  1
  O  O90  1  0.86182984  0.27567535  0.64466050  1
  O  O91  1  0.85401875  0.77050705  0.14742268  1
  O  O92  1  0.85487120  0.77184082  0.64493437  1
  O  O93  1  0.35557317  0.49842945  0.16317560  1
  O  O94  1  0.36035556  0.47843398  0.63797997  1
  O  O95  1  0.35662655  0.98512749  0.14739099  1
  O  O96  1  0.35607492  0.98257823  0.63170908  1
  O  O97  1  0.85223211  0.47983528  0.15037022  1
  O  O98  1  0.85055312  0.47850889  0.64628829  1
  O  O99  1  0.85760393  0.97828803  0.14459539  1
  O  O100  1  0.85263112  0.97920816  0.64593742  1
  O  O101  1  0.15361936  0.02121776  0.35998668  1
  O  O102  1  0.14273240  0.01766356  0.85532329  1
  O  O103  1  0.15556221  0.51469061  0.35306460  1
  O  O104  1  0.14883352  0.51877344  0.85378046  1
  O  O105  1  0.63701598  0.02408824  0.35747865  1
  O  O106  1  0.64311112  0.02346728  0.85137594  1
  O  O107  1  0.62501437  0.53078754  0.35583627  1
  O  O108  1  0.64710900  0.52027461  0.85019470  1
  O  O109  1  0.39254706  0.02173163  0.89432567  1
  O  O110  1  0.39456208  0.51291555  0.89812351  1
  O  O111  1  0.89371988  0.01898738  0.39137701  1
  O  O112  1  0.89287462  0.02040539  0.89325177  1
  O  O113  1  0.89675444  0.51812150  0.39615922  1
  O  O114  1  0.89742421  0.51851169  0.89966555  1
  O  O115  1  0.10530484  0.47874055  0.10578159  1
  O  O116  1  0.09678027  0.47661597  0.61033902  1
  O  O117  1  0.10670737  0.98140376  0.10529057  1
  O  O118  1  0.09783432  0.97875385  0.60858444  1
  O  O119  1  0.60433375  0.48497711  0.09472167  1
  O  O120  1  0.60209908  0.48327133  0.60121502  1
  O  O121  1  0.61010158  0.97848107  0.09830525  1
  O  O122  1  0.60297531  0.98065007  0.60176270  1
  O  O123  1  0.01704201  0.37175559  0.28169142  1
  O  O124  1  0.01596557  0.37432165  0.78782394  1
  O  O125  1  0.01272912  0.87652627  0.29012033  1
  O  O126  1  0.01033263  0.87467982  0.79180253  1
  O  O127  1  0.50043469  0.37185717  0.29487897  1
  O  O128  1  0.50144433  0.37210058  0.77813545  1
  O  O129  1  0.49736520  0.89068571  0.29482126  1
  O  O130  1  0.50889863  0.87624548  0.78677903  1
  O  O131  1  0.48296905  0.12010232  0.21864134  1
  O  O132  1  0.48252843  0.12633537  0.70369440  1
  O  O133  1  0.48689406  0.62520820  0.71769266  1
  O  O134  1  0.99322093  0.12861398  0.21251153  1
  O  O135  1  0.99477395  0.12675012  0.71014973  1
  O  O136  1  0.99884261  0.62475546  0.21279295  1
  O  O137  1  0.98998838  0.62489097  0.71096719  1
  O  O138  1  0.23311902  0.13163843  0.03046018  1
  O  O139  1  0.23684674  0.12691956  0.53835131  1
  O  O140  1  0.23845597  0.62500927  0.03373474  1
  O  O141  1  0.24445461  0.62366652  0.53668401  1
  O  O142  1  0.74130467  0.12289704  0.04461478  1
  O  O143  1  0.74497942  0.12557823  0.54205234  1
  O  O144  1  0.73876424  0.62583522  0.04109422  1
  O  O145  1  0.74373817  0.62584038  0.53821746  1
  O  O146  1  0.26590940  0.36658100  0.48086707  1
  O  O147  1  0.25318263  0.37106026  0.98117240  1
  O  O148  1  0.26324945  0.87830894  0.46063454  1
  O  O149  1  0.26274466  0.87592319  0.96394791  1
  O  O150  1  0.74957857  0.37680057  0.45739442  1
  O  O151  1  0.75709857  0.37567454  0.96352122  1
  O  O152  1  0.75645046  0.87494621  0.45906865  1
  O  O153  1  0.76053636  0.87458759  0.95790342  1
