# generated using pymatgen
data_Sr3Ca5Mn8O20
_symmetry_space_group_name_H-M   'P 1'
_cell_length_a   11.20693532
_cell_length_b   15.57131360
_cell_length_c   11.19542774
_cell_angle_alpha   90.34319980
_cell_angle_beta   91.12132513
_cell_angle_gamma   90.26912917
_symmetry_Int_Tables_number   1
_chemical_formula_structural   Sr3Ca5Mn8O20
_chemical_formula_sum   'Sr12 Ca20 Mn32 O80'
_cell_volume   1953.24537701
_cell_formula_units_Z   4
loop_
 _symmetry_equiv_pos_site_id
 _symmetry_equiv_pos_as_xyz
  1  'x, y, z'
loop_
 _atom_site_type_symbol
 _atom_site_label
 _atom_site_symmetry_multiplicity
 _atom_site_fract_x
 _atom_site_fract_y
 _atom_site_fract_z
 _atom_site_occupancy
  Sr  Sr0  1  0.00463234  0.11535801  0.49964514  1
  Sr  Sr1  1  0.00290883  0.11603336  0.00100239  1
  Sr  Sr2  1  0.00406038  0.61817661  0.50135277  1
  Sr  Sr3  1  0.51169353  0.37546775  0.99478709  1
  Sr  Sr4  1  0.51313048  0.37579224  0.49502577  1
  Sr  Sr5  1  0.51180077  0.87521711  0.99264013  1
  Sr  Sr6  1  0.23451236  0.38609687  0.25956253  1
  Sr  Sr7  1  0.23572235  0.38570691  0.75792713  1
  Sr  Sr8  1  0.23522319  0.88326318  0.26411152  1
  Sr  Sr9  1  0.23384389  0.11768476  0.25198277  1
  Sr  Sr10  1  0.23235350  0.11911075  0.75311255  1
  Sr  Sr11  1  0.23071413  0.62126730  0.24720701  1
  Ca  Ca12  1  0.00159396  0.61098250  0.00450884  1
  Ca  Ca13  1  0.54437676  0.12949731  0.48444635  1
  Ca  Ca14  1  0.54545069  0.12930586  0.98458985  1
  Ca  Ca15  1  0.54403740  0.62965013  0.48747576  1
  Ca  Ca16  1  0.54636466  0.62962546  0.98556417  1
  Ca  Ca17  1  0.51366569  0.87332576  0.49699714  1
  Ca  Ca18  1  0.95717888  0.38423124  0.00134944  1
  Ca  Ca19  1  0.95836548  0.38525575  0.49951103  1
  Ca  Ca20  1  0.95851639  0.88389889  0.00172078  1
  Ca  Ca21  1  0.95751760  0.88355859  0.49939462  1
  Ca  Ca22  1  0.22228605  0.88974148  0.76643063  1
  Ca  Ca23  1  0.76450171  0.37567716  0.25740794  1
  Ca  Ca24  1  0.76182221  0.37579518  0.75576437  1
  Ca  Ca25  1  0.76307470  0.87658244  0.25641993  1
  Ca  Ca26  1  0.75414282  0.87374240  0.75406677  1
  Ca  Ca27  1  0.23138662  0.61921073  0.74813396  1
  Ca  Ca28  1  0.77911908  0.12057646  0.25138073  1
  Ca  Ca29  1  0.77866963  0.12059394  0.75391936  1
  Ca  Ca30  1  0.77816472  0.62024576  0.25105977  1
  Ca  Ca31  1  0.78170231  0.61988630  0.75588547  1
  Mn  Mn32  1  0.99427739  0.99514124  0.25151390  1
  Mn  Mn33  1  0.99177572  0.99412615  0.75128280  1
  Mn  Mn34  1  0.99333274  0.49703159  0.25006675  1
  Mn  Mn35  1  0.99564240  0.49658654  0.75304998  1
  Mn  Mn36  1  0.51134794  0.99002954  0.23578673  1
  Mn  Mn37  1  0.50607647  0.98858494  0.73434311  1
  Mn  Mn38  1  0.50755197  0.49406792  0.23337371  1
  Mn  Mn39  1  0.50817334  0.49580035  0.73777453  1
  Mn  Mn40  1  0.24431478  0.99715579  0.01678360  1
  Mn  Mn41  1  0.24678099  0.99567982  0.52231976  1
  Mn  Mn42  1  0.24017638  0.50188485  0.01399090  1
  Mn  Mn43  1  0.24422747  0.50154908  0.52178860  1
  Mn  Mn44  1  0.74686855  0.00192057  0.99720078  1
  Mn  Mn45  1  0.74334784  0.00130107  0.49763951  1
  Mn  Mn46  1  0.74713497  0.50303180  0.99852517  1
  Mn  Mn47  1  0.74613971  0.50396541  0.49905386  1
  Mn  Mn48  1  0.26553445  0.24651836  0.97022509  1
  Mn  Mn49  1  0.26728111  0.24595627  0.47091372  1
  Mn  Mn50  1  0.26496872  0.74329680  0.95626826  1
  Mn  Mn51  1  0.26804255  0.74542806  0.47436661  1
  Mn  Mn52  1  0.75531627  0.24806598  0.00313820  1
  Mn  Mn53  1  0.75520573  0.24743997  0.50412075  1
  Mn  Mn54  1  0.75983415  0.74722835  0.00218842  1
  Mn  Mn55  1  0.75300680  0.74874144  0.50515122  1
  Mn  Mn56  1  0.99055353  0.25233633  0.26145486  1
  Mn  Mn57  1  0.98978548  0.25256035  0.76090399  1
  Mn  Mn58  1  0.98864371  0.75173591  0.26038412  1
  Mn  Mn59  1  0.99432977  0.75124198  0.76135592  1
  Mn  Mn60  1  0.51926954  0.25151119  0.25587086  1
  Mn  Mn61  1  0.51845058  0.25141785  0.75533542  1
  Mn  Mn62  1  0.52014971  0.75047272  0.25977081  1
  Mn  Mn63  1  0.51618048  0.74615043  0.75240863  1
  O  O64  1  0.59343126  0.25083246  0.10253631  1
  O  O65  1  0.59312769  0.25036429  0.60175008  1
  O  O66  1  0.58854738  0.75231158  0.10509009  1
  O  O67  1  0.59050774  0.75552180  0.59575851  1
  O  O68  1  0.40464699  0.20426925  0.36192311  1
  O  O69  1  0.40435762  0.20465179  0.86300119  1
  O  O70  1  0.40364522  0.70199043  0.36179013  1
  O  O71  1  0.40238849  0.68912378  0.85682701  1
  O  O72  1  0.89391325  0.23960469  0.40829719  1
  O  O73  1  0.89434611  0.23991704  0.90780940  1
  O  O74  1  0.89117994  0.74028700  0.40788488  1
  O  O75  1  0.90725232  0.73401836  0.91566583  1
  O  O76  1  0.14615551  0.24830638  0.33446646  1
  O  O77  1  0.14459819  0.24884155  0.83441101  1
  O  O78  1  0.14182036  0.74639181  0.34043090  1
  O  O79  1  0.16183119  0.75135386  0.80261208  1
  O  O80  1  0.65697641  0.22497717  0.35746483  1
  O  O81  1  0.65689782  0.22494803  0.85796943  1
  O  O82  1  0.65533826  0.72117988  0.35532042  1
  O  O83  1  0.66016739  0.72650288  0.85798623  1
  O  O84  1  0.86079358  0.27314403  0.14370577  1
  O  O85  1  0.86060209  0.27346690  0.64402929  1
  O  O86  1  0.85752363  0.77452917  0.14625999  1
  O  O87  1  0.85960305  0.77319694  0.64526364  1
  O  O88  1  0.35986478  0.51236424  0.14684665  1
  O  O89  1  0.35529928  0.51247520  0.66245962  1
  O  O90  1  0.36190300  0.00249494  0.15423292  1
  O  O91  1  0.35050735  0.00069799  0.66796229  1
  O  O92  1  0.85001206  0.48128076  0.13757089  1
  O  O93  1  0.85573329  0.48303060  0.64472572  1
  O  O94  1  0.85282570  0.98188783  0.13592857  1
  O  O95  1  0.84864138  0.97983742  0.63739815  1
  O  O96  1  0.15338582  0.00352843  0.37632420  1
  O  O97  1  0.14822519  0.00459038  0.87306343  1
  O  O98  1  0.15426387  0.50797594  0.37315372  1
  O  O99  1  0.14894286  0.51013100  0.86431952  1
  O  O100  1  0.62754780  0.02843050  0.34909060  1
  O  O101  1  0.62384456  0.02524283  0.84998279  1
  O  O102  1  0.62192454  0.52473553  0.35482387  1
  O  O103  1  0.62948215  0.52561847  0.85507757  1
  O  O104  1  0.88029429  0.01041391  0.38634057  1
  O  O105  1  0.88021262  0.01198926  0.88555278  1
  O  O106  1  0.88123099  0.51308322  0.38548827  1
  O  O107  1  0.88667840  0.51506612  0.89166651  1
  O  O108  1  0.09623628  0.47752309  0.11688563  1
  O  O109  1  0.09631257  0.47498450  0.61900529  1
  O  O110  1  0.10061666  0.97550205  0.12123678  1
  O  O111  1  0.09828501  0.97162591  0.62139994  1
  O  O112  1  0.60493562  0.50105386  0.09423903  1
  O  O113  1  0.60382433  0.50163503  0.59619913  1
  O  O114  1  0.60379311  0.99994830  0.09365485  1
  O  O115  1  0.59415116  0.99644973  0.58673166  1
  O  O116  1  0.99318575  0.37530667  0.28888620  1
  O  O117  1  0.99231513  0.37642374  0.79179994  1
  O  O118  1  0.99350660  0.87404363  0.28929855  1
  O  O119  1  0.99552064  0.87302102  0.79365190  1
  O  O120  1  0.47505127  0.37333553  0.26989905  1
  O  O121  1  0.47965549  0.37341291  0.76925282  1
  O  O122  1  0.48311558  0.87409084  0.28788618  1
  O  O123  1  0.48406498  0.87044776  0.77428680  1
  O  O124  1  0.99755201  0.12698149  0.22778652  1
  O  O125  1  0.99652484  0.12689548  0.72586490  1
  O  O126  1  0.99482705  0.62794263  0.21854338  1
  O  O127  1  0.99884884  0.62637140  0.72642832  1
  O  O128  1  0.23571438  0.12808393  0.03110741  1
  O  O129  1  0.23874030  0.12740579  0.53312389  1
  O  O130  1  0.21470754  0.63197090  0.02828650  1
  O  O131  1  0.23124464  0.63027732  0.54125687  1
  O  O132  1  0.75568920  0.12530781  0.03773768  1
  O  O133  1  0.75279503  0.12425968  0.54085688  1
  O  O134  1  0.75509612  0.62637503  0.04030494  1
  O  O135  1  0.75387450  0.62777048  0.54206778  1
  O  O136  1  0.28646943  0.37496706  0.49994115  1
  O  O137  1  0.28346846  0.37553939  0.99360864  1
  O  O138  1  0.29799788  0.87354529  0.49354411  1
  O  O139  1  0.28365752  0.87231019  0.98506477  1
  O  O140  1  0.74187930  0.37537724  0.46875415  1
  O  O141  1  0.74139471  0.37616544  0.96558018  1
  O  O142  1  0.73554749  0.87542920  0.46551211  1
  O  O143  1  0.74362479  0.87456120  0.96480039  1
