# generated using pymatgen
data_SrCa7Ti2Mn6O20
_symmetry_space_group_name_H-M   'P 1'
_cell_length_a   11.11495582
_cell_length_b   15.75259527
_cell_length_c   11.21753110
_cell_angle_alpha   90.00784889
_cell_angle_beta   91.99183890
_cell_angle_gamma   90.39495010
_symmetry_Int_Tables_number   1
_chemical_formula_structural   SrCa7Ti2Mn6O20
_chemical_formula_sum   'Sr4 Ca28 Ti8 Mn24 O80'
_cell_volume   1962.83730557
_cell_formula_units_Z   4
loop_
 _symmetry_equiv_pos_site_id
 _symmetry_equiv_pos_as_xyz
  1  'x, y, z'
loop_
 _atom_site_type_symbol
 _atom_site_label
 _atom_site_symmetry_multiplicity
 _atom_site_fract_x
 _atom_site_fract_y
 _atom_site_fract_z
 _atom_site_occupancy
  Sr  Sr0  1  0.99104768  0.11987575  0.51898848  1
  Sr  Sr1  1  0.51067253  0.37674911  0.99980240  1
  Sr  Sr2  1  0.24210348  0.39087373  0.24019734  1
  Sr  Sr3  1  0.23093722  0.12007420  0.23440580  1
  Ca  Ca4  1  0.98045711  0.11756699  0.02114270  1
  Ca  Ca5  1  0.98567041  0.61987872  0.51449576  1
  Ca  Ca6  1  0.98525014  0.62001945  0.01803872  1
  Ca  Ca7  1  0.54724239  0.12716971  0.48143006  1
  Ca  Ca8  1  0.54887377  0.12582012  0.98221930  1
  Ca  Ca9  1  0.55206926  0.62867848  0.48319205  1
  Ca  Ca10  1  0.55213569  0.62848976  0.98390424  1
  Ca  Ca11  1  0.51488858  0.37386196  0.50265224  1
  Ca  Ca12  1  0.52448358  0.87097784  0.98222409  1
  Ca  Ca13  1  0.52453318  0.87057752  0.48139721  1
  Ca  Ca14  1  0.96105335  0.39148049  0.00569112  1
  Ca  Ca15  1  0.95813762  0.39033146  0.50539163  1
  Ca  Ca16  1  0.95071119  0.87711773  0.00340728  1
  Ca  Ca17  1  0.94923532  0.87813404  0.50317714  1
  Ca  Ca18  1  0.24271497  0.39560265  0.73168504  1
  Ca  Ca19  1  0.24276751  0.88449053  0.27130674  1
  Ca  Ca20  1  0.24661493  0.88358685  0.76873220  1
  Ca  Ca21  1  0.75626264  0.38503280  0.26260393  1
  Ca  Ca22  1  0.75203521  0.38087462  0.75984236  1
  Ca  Ca23  1  0.73138246  0.86337830  0.24637535  1
  Ca  Ca24  1  0.73051772  0.86556418  0.74567398  1
  Ca  Ca25  1  0.22869699  0.11529934  0.74232581  1
  Ca  Ca26  1  0.22514988  0.62212846  0.24072444  1
  Ca  Ca27  1  0.22421440  0.62188888  0.74239781  1
  Ca  Ca28  1  0.76128061  0.12751605  0.24988437  1
  Ca  Ca29  1  0.76813319  0.12545337  0.75292034  1
  Ca  Ca30  1  0.78136348  0.62104893  0.25645091  1
  Ca  Ca31  1  0.78394362  0.62107880  0.75879445  1
  Ti  Ti32  1  0.97938590  0.99243726  0.25817953  1
  Ti  Ti33  1  0.98361633  0.99220688  0.76191106  1
  Ti  Ti34  1  0.23684553  0.97461188  0.01965935  1
  Ti  Ti35  1  0.23811067  0.97399009  0.52509294  1
  Ti  Ti36  1  0.26218332  0.23681207  0.94409510  1
  Ti  Ti37  1  0.26856622  0.23981012  0.45875350  1
  Ti  Ti38  1  0.98593865  0.25538850  0.27306986  1
  Ti  Ti39  1  0.99517647  0.25580280  0.77568353  1
  Mn  Mn40  1  0.00031062  0.50031616  0.25629964  1
  Mn  Mn41  1  0.00069454  0.49833643  0.75604044  1
  Mn  Mn42  1  0.50279404  0.99163850  0.22461182  1
  Mn  Mn43  1  0.50280912  0.99325516  0.72744450  1
  Mn  Mn44  1  0.50563906  0.49925685  0.24054386  1
  Mn  Mn45  1  0.50116003  0.49707593  0.73749494  1
  Mn  Mn46  1  0.23350856  0.52055207  0.01256343  1
  Mn  Mn47  1  0.23211149  0.51972025  0.51546452  1
  Mn  Mn48  1  0.74313045  0.00097154  0.99013383  1
  Mn  Mn49  1  0.74030729  0.00205816  0.49099789  1
  Mn  Mn50  1  0.74896651  0.50373647  0.00172737  1
  Mn  Mn51  1  0.74620405  0.50314434  0.50313657  1
  Mn  Mn52  1  0.27317505  0.73790173  0.95439336  1
  Mn  Mn53  1  0.27484245  0.73709139  0.45487487  1
  Mn  Mn54  1  0.75177151  0.24968165  0.00367654  1
  Mn  Mn55  1  0.74785500  0.24932565  0.50681034  1
  Mn  Mn56  1  0.75778445  0.74931353  0.00226265  1
  Mn  Mn57  1  0.75734358  0.74911487  0.50370598  1
  Mn  Mn58  1  0.99936573  0.75640082  0.26361286  1
  Mn  Mn59  1  0.99931083  0.75615716  0.76265053  1
  Mn  Mn60  1  0.50793239  0.25671079  0.25890125  1
  Mn  Mn61  1  0.50407352  0.25298071  0.75594408  1
  Mn  Mn62  1  0.50727774  0.74402400  0.24952393  1
  Mn  Mn63  1  0.50790440  0.74375685  0.74993043  1
  O  O64  1  0.57495984  0.24572548  0.10034863  1
  O  O65  1  0.57403297  0.25127830  0.59761784  1
  O  O66  1  0.59495915  0.75939588  0.09529701  1
  O  O67  1  0.59369183  0.75846838  0.59492459  1
  O  O68  1  0.39167670  0.19231659  0.37123615  1
  O  O69  1  0.39018653  0.18373825  0.86846218  1
  O  O70  1  0.40098430  0.67230586  0.35352734  1
  O  O71  1  0.40086596  0.67379840  0.85482921  1
  O  O72  1  0.90512965  0.23413665  0.40146459  1
  O  O73  1  0.92081162  0.23079379  0.90891280  1
  O  O74  1  0.90762592  0.74098539  0.41918644  1
  O  O75  1  0.90737718  0.73968419  0.91793718  1
  O  O76  1  0.15988552  0.25041251  0.32853866  1
  O  O77  1  0.17361123  0.25508422  0.80053005  1
  O  O78  1  0.17157776  0.75420004  0.30144205  1
  O  O79  1  0.17124455  0.75417517  0.79928253  1
  O  O80  1  0.65539747  0.22846066  0.35710834  1
  O  O81  1  0.65835346  0.23020008  0.85391590  1
  O  O82  1  0.65989141  0.72806750  0.35513095  1
  O  O83  1  0.65976200  0.72687017  0.85512737  1
  O  O84  1  0.86705256  0.26795371  0.14962330  1
  O  O85  1  0.87745078  0.26422609  0.64982176  1
  O  O86  1  0.86103209  0.78142501  0.14800107  1
  O  O87  1  0.85956005  0.78200397  0.64857418  1
  O  O88  1  0.35805469  0.51532275  0.14347891  1
  O  O89  1  0.34921711  0.51591062  0.64938709  1
  O  O90  1  0.35349782  0.02113644  0.12142317  1
  O  O91  1  0.34610508  0.01830551  0.63863398  1
  O  O92  1  0.85540838  0.48353885  0.14697284  1
  O  O93  1  0.85228897  0.48102513  0.64859588  1
  O  O94  1  0.85484899  0.97531191  0.15618227  1
  O  O95  1  0.85691152  0.97829992  0.65947444  1
  O  O96  1  0.19224609  0.00796441  0.37482417  1
  O  O97  1  0.19161596  0.00507104  0.86792127  1
  O  O98  1  0.15840383  0.51057016  0.35774657  1
  O  O99  1  0.16138357  0.50619662  0.85335751  1
  O  O100  1  0.62648957  0.03566491  0.33795265  1
  O  O101  1  0.63137678  0.03372457  0.83754889  1
  O  O102  1  0.63825163  0.52690416  0.35476070  1
  O  O103  1  0.63383798  0.52258831  0.85568982  1
  O  O104  1  0.89404321  0.01083219  0.39761259  1
  O  O105  1  0.89905346  0.01190138  0.90276597  1
  O  O106  1  0.89029647  0.51310238  0.39673487  1
  O  O107  1  0.89271415  0.51573043  0.89545509  1
  O  O108  1  0.09798047  0.47862550  0.11407095  1
  O  O109  1  0.09739022  0.47248874  0.61409393  1
  O  O110  1  0.10543971  0.96977972  0.11398433  1
  O  O111  1  0.10366535  0.96498312  0.61269966  1
  O  O112  1  0.60579721  0.50071688  0.10072210  1
  O  O113  1  0.59687737  0.49621348  0.59306269  1
  O  O114  1  0.59832340  0.98985872  0.07783456  1
  O  O115  1  0.59338338  0.99027946  0.57789058  1
  O  O116  1  0.99903364  0.37031418  0.29536410  1
  O  O117  1  0.00030502  0.36961006  0.80131238  1
  O  O118  1  0.01629629  0.88021719  0.30182888  1
  O  O119  1  0.01509506  0.87883065  0.80411593  1
  O  O120  1  0.46774420  0.38173036  0.29748899  1
  O  O121  1  0.45617338  0.37772373  0.78458444  1
  O  O122  1  0.46145915  0.87013643  0.28098854  1
  O  O123  1  0.46595883  0.87029492  0.78198739  1
  O  O124  1  0.00208037  0.11918457  0.23152606  1
  O  O125  1  0.01268743  0.11578971  0.73901407  1
  O  O126  1  0.99590888  0.63653524  0.22815196  1
  O  O127  1  0.99668558  0.63633603  0.72423412  1
  O  O128  1  0.18311470  0.15917164  0.02836133  1
  O  O129  1  0.20630633  0.16046082  0.55252024  1
  O  O130  1  0.19577308  0.64507229  0.04051142  1
  O  O131  1  0.19780420  0.64346910  0.54084681  1
  O  O132  1  0.75998476  0.12410825  0.03826070  1
  O  O133  1  0.75474662  0.12426109  0.54221272  1
  O  O134  1  0.76159338  0.63050410  0.04133259  1
  O  O135  1  0.76074787  0.62889759  0.54315449  1
  O  O136  1  0.30132390  0.34066818  0.52941349  1
  O  O137  1  0.29298134  0.33143715  0.02888627  1
  O  O138  1  0.29690357  0.86642171  0.49943941  1
  O  O139  1  0.29427035  0.86644072  0.99749113  1
  O  O140  1  0.74306150  0.37270260  0.47171153  1
  O  O141  1  0.74864026  0.37255346  0.96794423  1
  O  O142  1  0.74001346  0.87797236  0.45703031  1
  O  O143  1  0.74155837  0.87666486  0.95538413  1
