# generated using pymatgen
data_Ca8TiMn7O22
_symmetry_space_group_name_H-M   'P 1'
_cell_length_a   10.87664586
_cell_length_b   15.54233695
_cell_length_c   10.85751625
_cell_angle_alpha   89.83391619
_cell_angle_beta   90.98559020
_cell_angle_gamma   90.22009425
_symmetry_Int_Tables_number   1
_chemical_formula_structural   Ca8TiMn7O22
_chemical_formula_sum   'Ca32 Ti4 Mn28 O88'
_cell_volume   1835.15432567
_cell_formula_units_Z   4
loop_
 _symmetry_equiv_pos_site_id
 _symmetry_equiv_pos_as_xyz
  1  'x, y, z'
loop_
 _atom_site_type_symbol
 _atom_site_label
 _atom_site_symmetry_multiplicity
 _atom_site_fract_x
 _atom_site_fract_y
 _atom_site_fract_z
 _atom_site_occupancy
  Ca  Ca0  1  0.99837940  0.10760262  0.50740451  1
  Ca  Ca1  1  0.98745867  0.11578374  0.01304852  1
  Ca  Ca2  1  0.01952375  0.62753836  0.50079955  1
  Ca  Ca3  1  0.01800256  0.62609358  0.99521571  1
  Ca  Ca4  1  0.54166815  0.12726193  0.48005775  1
  Ca  Ca5  1  0.54648371  0.12419502  0.98653812  1
  Ca  Ca6  1  0.52192607  0.62501405  0.50067284  1
  Ca  Ca7  1  0.52287320  0.62406611  0.99863126  1
  Ca  Ca8  1  0.49697211  0.39119766  0.99954752  1
  Ca  Ca9  1  0.49283730  0.39321159  0.49982510  1
  Ca  Ca10  1  0.49505630  0.85758706  0.00324776  1
  Ca  Ca11  1  0.49569089  0.85711459  0.49586987  1
  Ca  Ca12  1  0.96615005  0.38727442  0.99941897  1
  Ca  Ca13  1  0.96622685  0.39041181  0.50540386  1
  Ca  Ca14  1  0.96821809  0.86694675  0.00430591  1
  Ca  Ca15  1  0.96892823  0.87069199  0.51531160  1
  Ca  Ca16  1  0.23311307  0.39440588  0.25883541  1
  Ca  Ca17  1  0.23532256  0.39910050  0.76001573  1
  Ca  Ca18  1  0.22944406  0.86276663  0.25971294  1
  Ca  Ca19  1  0.22727197  0.87024417  0.74733471  1
  Ca  Ca20  1  0.73387203  0.38774555  0.25008053  1
  Ca  Ca21  1  0.73158493  0.38827588  0.75429768  1
  Ca  Ca22  1  0.73049945  0.86376555  0.24849715  1
  Ca  Ca23  1  0.73758049  0.86139242  0.75024840  1
  Ca  Ca24  1  0.22598450  0.12008895  0.24388997  1
  Ca  Ca25  1  0.22149584  0.11141067  0.72277066  1
  Ca  Ca26  1  0.27109571  0.62744238  0.26156847  1
  Ca  Ca27  1  0.26914979  0.62851827  0.75818017  1
  Ca  Ca28  1  0.77701070  0.11665866  0.25094179  1
  Ca  Ca29  1  0.78173415  0.12352727  0.75394263  1
  Ca  Ca30  1  0.76909500  0.62550972  0.25682056  1
  Ca  Ca31  1  0.77107716  0.62458909  0.75628192  1
  Ti  Ti32  1  0.99030624  0.98699050  0.26123679  1
  Ti  Ti33  1  0.23023440  0.99339402  0.01176986  1
  Ti  Ti34  1  0.26482318  0.23281140  0.93479004  1
  Ti  Ti35  1  0.98891668  0.25586286  0.27422883  1
  Mn  Mn36  1  0.99226559  0.99470826  0.75477476  1
  Mn  Mn37  1  0.00077245  0.50328775  0.25259550  1
  Mn  Mn38  1  0.00082643  0.50305954  0.75116605  1
  Mn  Mn39  1  0.50345727  0.99301437  0.23413852  1
  Mn  Mn40  1  0.50714504  0.98625919  0.73517893  1
  Mn  Mn41  1  0.49785048  0.50413918  0.25173333  1
  Mn  Mn42  1  0.49843066  0.50395365  0.75326489  1
  Mn  Mn43  1  0.24321038  0.99620478  0.50541428  1
  Mn  Mn44  1  0.24993930  0.50729729  0.00832324  1
  Mn  Mn45  1  0.25100167  0.50270773  0.50473209  1
  Mn  Mn46  1  0.74551725  0.99586179  0.99233519  1
  Mn  Mn47  1  0.74160766  0.99811715  0.49876655  1
  Mn  Mn48  1  0.74992352  0.50363167  0.00447633  1
  Mn  Mn49  1  0.74871912  0.50396805  0.50280915  1
  Mn  Mn50  1  0.26641959  0.24492194  0.45332365  1
  Mn  Mn51  1  0.25053209  0.74971635  0.00618972  1
  Mn  Mn52  1  0.25201853  0.74955958  0.50613049  1
  Mn  Mn53  1  0.75625948  0.25083650  0.00403702  1
  Mn  Mn54  1  0.74929050  0.25226432  0.50622274  1
  Mn  Mn55  1  0.75066172  0.74593381  0.00208809  1
  Mn  Mn56  1  0.75031611  0.74691057  0.50226879  1
  Mn  Mn57  1  0.99059921  0.25702295  0.75520922  1
  Mn  Mn58  1  0.00064756  0.74601476  0.25265851  1
  Mn  Mn59  1  0.00290434  0.74879400  0.75341175  1
  Mn  Mn60  1  0.52223224  0.25525505  0.25311652  1
  Mn  Mn61  1  0.51553014  0.25324624  0.75179327  1
  Mn  Mn62  1  0.49932661  0.74630053  0.25288532  1
  Mn  Mn63  1  0.49931605  0.74624543  0.75427015  1
  O  O64  1  0.10865687  0.77641318  0.10766307  1
  O  O65  1  0.10852352  0.77392542  0.60673484  1
  O  O66  1  0.58670482  0.25821522  0.09307293  1
  O  O67  1  0.57871353  0.25742106  0.58216478  1
  O  O68  1  0.61049200  0.76338277  0.11256182  1
  O  O69  1  0.60883954  0.76531405  0.61423905  1
  O  O70  1  0.40483659  0.19488996  0.34499546  1
  O  O71  1  0.39499921  0.17870483  0.85329450  1
  O  O72  1  0.39591208  0.72882232  0.39956657  1
  O  O73  1  0.39693344  0.72927699  0.90187098  1
  O  O74  1  0.92258002  0.23962109  0.42643685  1
  O  O75  1  0.91211326  0.23991020  0.92110872  1
  O  O76  1  0.89505856  0.72843436  0.39407399  1
  O  O77  1  0.89529332  0.73017622  0.89553613  1
  O  O78  1  0.16202909  0.25350592  0.29197630  1
  O  O79  1  0.17128124  0.24949099  0.79326682  1
  O  O80  1  0.14893940  0.73335666  0.35525831  1
  O  O81  1  0.14950879  0.73441655  0.85623528  1
  O  O82  1  0.66458925  0.22386118  0.34619542  1
  O  O83  1  0.65933383  0.22545911  0.85798662  1
  O  O84  1  0.64294117  0.72789030  0.35882627  1
  O  O85  1  0.64450992  0.72584700  0.85873107  1
  O  O86  1  0.35678226  0.77319442  0.14678369  1
  O  O87  1  0.35669788  0.77140043  0.64996246  1
  O  O88  1  0.85851249  0.27117113  0.15730749  1
  O  O89  1  0.84174032  0.27628362  0.65747178  1
  O  O90  1  0.85892583  0.76976789  0.14510912  1
  O  O91  1  0.86013863  0.76884797  0.64381639  1
  O  O92  1  0.35696870  0.48248409  0.14580153  1
  O  O93  1  0.35680565  0.48548941  0.64597568  1
  O  O94  1  0.35392512  0.02291317  0.13312112  1
  O  O95  1  0.34848374  0.99676626  0.66119097  1
  O  O96  1  0.85910768  0.48115214  0.14583637  1
  O  O97  1  0.85759539  0.48171887  0.64540460  1
  O  O98  1  0.85414866  0.97952397  0.14627652  1
  O  O99  1  0.84466995  0.97783493  0.64776135  1
  O  O100  1  0.14806985  0.00646544  0.35439710  1
  O  O101  1  0.14630898  0.02231485  0.86586229  1
  O  O102  1  0.14805836  0.51927402  0.35547532  1
  O  O103  1  0.14774200  0.51829065  0.85830829  1
  O  O104  1  0.63526788  0.02810007  0.34833491  1
  O  O105  1  0.63240759  0.02944200  0.84236366  1
  O  O106  1  0.64304932  0.52003867  0.35802268  1
  O  O107  1  0.64245215  0.51959087  0.85983785  1
  O  O108  1  0.39490569  0.52023211  0.39821509  1
  O  O109  1  0.39254534  0.51570888  0.89905860  1
  O  O110  1  0.88824810  0.01113866  0.39527400  1
  O  O111  1  0.89023964  0.01621386  0.89404140  1
  O  O112  1  0.89673194  0.52063868  0.39637231  1
  O  O113  1  0.89492964  0.51735675  0.89600271  1
  O  O114  1  0.10847607  0.47445002  0.10765851  1
  O  O115  1  0.10888993  0.47803781  0.60760587  1
  O  O116  1  0.10144480  0.97616368  0.11080955  1
  O  O117  1  0.09589655  0.98423786  0.61600167  1
  O  O118  1  0.60921652  0.48467077  0.11416744  1
  O  O119  1  0.60830103  0.48541875  0.61378231  1
  O  O120  1  0.59745952  0.98851644  0.08122802  1
  O  O121  1  0.58560334  0.99184510  0.57918946  1
  O  O122  1  0.00435607  0.38032095  0.29014064  1
  O  O123  1  0.01377659  0.37870981  0.78601157  1
  O  O124  1  0.00331619  0.86994758  0.29337702  1
  O  O125  1  0.00773890  0.87165625  0.79222826  1
  O  O126  1  0.49688613  0.37633826  0.28228815  1
  O  O127  1  0.49519598  0.37734482  0.78123172  1
  O  O128  1  0.50495227  0.87079354  0.28170059  1
  O  O129  1  0.51235173  0.87124727  0.79210426  1
  O  O130  1  0.48622913  0.62471641  0.21184285  1
  O  O131  1  0.48595917  0.62606705  0.71456126  1
  O  O132  1  0.99653536  0.12756948  0.23224601  1
  O  O133  1  0.99647393  0.13421204  0.71612324  1
  O  O134  1  0.99298837  0.62526272  0.20944633  1
  O  O135  1  0.99428078  0.62470389  0.71537969  1
  O  O136  1  0.20073649  0.15234083  0.03690944  1
  O  O137  1  0.22897873  0.12739720  0.51494667  1
  O  O138  1  0.23531273  0.63132000  0.04461080  1
  O  O139  1  0.23702449  0.62736644  0.54191345  1
  O  O140  1  0.75609253  0.12544236  0.03837787  1
  O  O141  1  0.75242590  0.12489288  0.53785776  1
  O  O142  1  0.74574800  0.62385218  0.04085326  1
  O  O143  1  0.74326387  0.62514468  0.54064015  1
  O  O144  1  0.27318675  0.36805552  0.47884915  1
  O  O145  1  0.28964171  0.33981662  0.99148999  1
  O  O146  1  0.28050044  0.88006952  0.46753417  1
  O  O147  1  0.27797379  0.88629025  0.96595743  1
  O  O148  1  0.74894721  0.37725391  0.46576032  1
  O  O149  1  0.74828105  0.37625009  0.97071090  1
  O  O150  1  0.74583904  0.87310776  0.46455465  1
  O  O151  1  0.74920245  0.87147196  0.96442332  1
