# generated using pymatgen
data_SrCa7Mn6Al2O23
_symmetry_space_group_name_H-M   'P 1'
_cell_length_a   7.55243901
_cell_length_b   7.55243901
_cell_length_c   7.69661800
_cell_angle_alpha   90.00000000
_cell_angle_beta   90.00000000
_cell_angle_gamma   90.00499185
_symmetry_Int_Tables_number   1
_chemical_formula_structural   SrCa7Mn6Al2O23
_chemical_formula_sum   'Sr1 Ca7 Mn6 Al2 O23'
_cell_volume   439.00997047
_cell_formula_units_Z   1
loop_
 _symmetry_equiv_pos_site_id
 _symmetry_equiv_pos_as_xyz
  1  'x, y, z'
loop_
 _atom_site_type_symbol
 _atom_site_label
 _atom_site_symmetry_multiplicity
 _atom_site_fract_x
 _atom_site_fract_y
 _atom_site_fract_z
 _atom_site_occupancy
  Sr  Sr0  1  0.25355300  0.25355300  0.25000000  1
  Ca  Ca1  1  0.25869100  0.25869100  0.75000000  1
  Ca  Ca2  1  0.25871600  0.74347300  0.25000000  1
  Ca  Ca3  1  0.25893400  0.74266100  0.75000000  1
  Ca  Ca4  1  0.74347300  0.25871600  0.25000000  1
  Ca  Ca5  1  0.74266100  0.25893400  0.75000000  1
  Ca  Ca6  1  0.74308300  0.74308300  0.25000000  1
  Ca  Ca7  1  0.74154000  0.74154000  0.75000000  1
  Mn  Mn8  1  0.99921900  0.50151300  0.00418300  1
  Mn  Mn9  1  0.99921900  0.50151300  0.49581700  1
  Mn  Mn10  1  0.50151300  0.99921900  0.00418300  1
  Mn  Mn11  1  0.50151300  0.99921900  0.49581700  1
  Mn  Mn12  1  0.50060500  0.50060500  0.99980300  1
  Mn  Mn13  1  0.50060500  0.50060500  0.50019700  1
  Al  Al14  1  0.99928000  0.99928000  0.97504100  1
  Al  Al15  1  0.99928000  0.99928000  0.52495900  1
  O  O16  1  0.99714200  0.99714200  0.75000000  1
  O  O17  1  0.99566900  0.49999300  0.25000000  1
  O  O18  1  0.99792900  0.50241700  0.75000000  1
  O  O19  1  0.49999300  0.99566900  0.25000000  1
  O  O20  1  0.50241700  0.99792900  0.75000000  1
  O  O21  1  0.50362700  0.50362700  0.25000000  1
  O  O22  1  0.50123600  0.50123600  0.75000000  1
  O  O23  1  0.24206700  0.99621300  0.01862100  1
  O  O24  1  0.24206700  0.99621300  0.48137900  1
  O  O25  1  0.24975200  0.50412600  0.99281700  1
  O  O26  1  0.24975200  0.50412600  0.50718300  1
  O  O27  1  0.75841600  0.99845400  0.02508400  1
  O  O28  1  0.75841600  0.99845400  0.47491600  1
  O  O29  1  0.74985400  0.50116800  0.99580300  1
  O  O30  1  0.74985400  0.50116800  0.50419700  1
  O  O31  1  0.99621300  0.24206700  0.01862100  1
  O  O32  1  0.99621300  0.24206700  0.48137900  1
  O  O33  1  0.99845400  0.75841600  0.02508400  1
  O  O34  1  0.99845400  0.75841600  0.47491600  1
  O  O35  1  0.50412600  0.24975200  0.99281700  1
  O  O36  1  0.50412600  0.24975200  0.50718300  1
  O  O37  1  0.50116800  0.74985400  0.99580300  1
  O  O38  1  0.50116800  0.74985400  0.50419700  1
