# generated using pymatgen
data_SrCa7Ti3Mn5O24
_symmetry_space_group_name_H-M   'P 1'
_cell_length_a   7.69987015
_cell_length_b   7.66953705
_cell_length_c   7.69987015
_cell_angle_alpha   89.99044992
_cell_angle_beta   90.02035855
_cell_angle_gamma   89.99044992
_symmetry_Int_Tables_number   1
_chemical_formula_structural   SrCa7Ti3Mn5O24
_chemical_formula_sum   'Sr1 Ca7 Ti3 Mn5 O24'
_cell_volume   454.71147377
_cell_formula_units_Z   1
loop_
 _symmetry_equiv_pos_site_id
 _symmetry_equiv_pos_as_xyz
  1  'x, y, z'
loop_
 _atom_site_type_symbol
 _atom_site_label
 _atom_site_symmetry_multiplicity
 _atom_site_fract_x
 _atom_site_fract_y
 _atom_site_fract_z
 _atom_site_occupancy
  Sr  Sr0  1  0.25142500  0.25455600  0.25142500  1
  Ca  Ca1  1  0.25194500  0.25667200  0.74815200  1
  Ca  Ca2  1  0.25204800  0.74400200  0.25204800  1
  Ca  Ca3  1  0.25201700  0.74317600  0.74797000  1
  Ca  Ca4  1  0.74815200  0.25667200  0.25194500  1
  Ca  Ca5  1  0.74795600  0.25664800  0.74795600  1
  Ca  Ca6  1  0.74797000  0.74317600  0.25201700  1
  Ca  Ca7  1  0.74793500  0.74329500  0.74793500  1
  Ti  Ti8  1  0.99917500  0.99863200  0.99917500  1
  Ti  Ti9  1  0.99863900  0.99879400  0.50087000  1
  Ti  Ti10  1  0.50087000  0.99879400  0.99863900  1
  Mn  Mn11  1  0.99927400  0.50032400  0.99927400  1
  Mn  Mn12  1  0.99924400  0.50010600  0.50070900  1
  Mn  Mn13  1  0.50042400  0.99907200  0.50042400  1
  Mn  Mn14  1  0.50070900  0.50010600  0.99924400  1
  Mn  Mn15  1  0.50056700  0.50064400  0.50056700  1
  O  O16  1  0.99822500  0.99825000  0.25078300  1
  O  O17  1  0.99921700  0.99926300  0.74923600  1
  O  O18  1  0.99669600  0.50396500  0.25025100  1
  O  O19  1  0.99945300  0.49996100  0.74978000  1
  O  O20  1  0.50220000  0.99786100  0.25292400  1
  O  O21  1  0.50071800  0.99925300  0.74710800  1
  O  O22  1  0.50334800  0.50357700  0.25019700  1
  O  O23  1  0.50057300  0.50034900  0.74986500  1
  O  O24  1  0.25078300  0.99825000  0.99822500  1
  O  O25  1  0.25292400  0.99786100  0.50220000  1
  O  O26  1  0.25025100  0.50396500  0.99669600  1
  O  O27  1  0.25019700  0.50357700  0.50334800  1
  O  O28  1  0.74923600  0.99926300  0.99921700  1
  O  O29  1  0.74710800  0.99925300  0.50071800  1
  O  O30  1  0.74978000  0.49996100  0.99945300  1
  O  O31  1  0.74986500  0.50034900  0.50057300  1
  O  O32  1  0.99791700  0.25359100  0.99791700  1
  O  O33  1  0.99785700  0.25314900  0.50220500  1
  O  O34  1  0.99930000  0.74641300  0.99930000  1
  O  O35  1  0.99931300  0.74698800  0.50065400  1
  O  O36  1  0.50220500  0.25314900  0.99785700  1
  O  O37  1  0.50338100  0.25029600  0.50338100  1
  O  O38  1  0.50065400  0.74698800  0.99931300  1
  O  O39  1  0.50044700  0.74980100  0.50044700  1
