# generated using pymatgen
data_Sr2Ca14Mn14Al2O41
_symmetry_space_group_name_H-M   'P 1'
_cell_length_a   11.01051081
_cell_length_b   15.49925903
_cell_length_c   11.00684021
_cell_angle_alpha   90.09208088
_cell_angle_beta   91.88270151
_cell_angle_gamma   90.00534977
_symmetry_Int_Tables_number   1
_chemical_formula_structural   Sr2Ca14Mn14Al2O41
_chemical_formula_sum   'Sr4 Ca28 Mn28 Al4 O82'
_cell_volume   1877.35323934
_cell_formula_units_Z   2
loop_
 _symmetry_equiv_pos_site_id
 _symmetry_equiv_pos_as_xyz
  1  'x, y, z'
loop_
 _atom_site_type_symbol
 _atom_site_label
 _atom_site_symmetry_multiplicity
 _atom_site_fract_x
 _atom_site_fract_y
 _atom_site_fract_z
 _atom_site_occupancy
  Sr  Sr0  1  0.99503408  0.11949884  0.51247933  1
  Sr  Sr1  1  0.50755593  0.36142569  0.99806731  1
  Sr  Sr2  1  0.24630823  0.37515774  0.25551672  1
  Sr  Sr3  1  0.26938636  0.12908647  0.23452312  1
  Ca  Ca4  1  0.01052447  0.11783495  0.98001521  1
  Ca  Ca5  1  0.00787483  0.61236399  0.50925958  1
  Ca  Ca6  1  0.99456080  0.61104167  0.01476563  1
  Ca  Ca7  1  0.53269616  0.12963083  0.49852845  1
  Ca  Ca8  1  0.53048869  0.12256770  0.99305469  1
  Ca  Ca9  1  0.53782633  0.63201649  0.47749868  1
  Ca  Ca10  1  0.54823103  0.63044990  0.98235847  1
  Ca  Ca11  1  0.51037256  0.35890906  0.48804145  1
  Ca  Ca12  1  0.50125677  0.89013215  0.98709487  1
  Ca  Ca13  1  0.48762819  0.88585734  0.50737879  1
  Ca  Ca14  1  0.96836731  0.38104774  0.00131620  1
  Ca  Ca15  1  0.95636147  0.39143435  0.51792105  1
  Ca  Ca16  1  0.97383840  0.88157194  0.98981511  1
  Ca  Ca17  1  0.95912808  0.86851493  0.52775803  1
  Ca  Ca18  1  0.22763040  0.38920927  0.76297613  1
  Ca  Ca19  1  0.25574915  0.89014302  0.25975374  1
  Ca  Ca20  1  0.24081528  0.89096793  0.76495676  1
  Ca  Ca21  1  0.73477105  0.37135294  0.24785395  1
  Ca  Ca22  1  0.75446542  0.35836087  0.75386563  1
  Ca  Ca23  1  0.74967813  0.88247737  0.24966143  1
  Ca  Ca24  1  0.73033724  0.88603663  0.75514203  1
  Ca  Ca25  1  0.26611316  0.11815899  0.75889008  1
  Ca  Ca26  1  0.22781322  0.61785153  0.24240165  1
  Ca  Ca27  1  0.22526837  0.61715367  0.74073953  1
  Ca  Ca28  1  0.73140945  0.12907607  0.24552856  1
  Ca  Ca29  1  0.76922386  0.11933984  0.75866179  1
  Ca  Ca30  1  0.78358010  0.62117521  0.25610013  1
  Ca  Ca31  1  0.77701846  0.62138427  0.75597749  1
  Mn  Mn32  1  0.02129861  0.98404970  0.25340101  1
  Mn  Mn33  1  0.99899647  0.99649888  0.75133494  1
  Mn  Mn34  1  0.99509605  0.49549285  0.26282460  1
  Mn  Mn35  1  0.99067865  0.49778319  0.75627602  1
  Mn  Mn36  1  0.49133401  0.00354185  0.74685863  1
  Mn  Mn37  1  0.50853507  0.49587904  0.23445883  1
  Mn  Mn38  1  0.50648457  0.48760103  0.72704982  1
  Mn  Mn39  1  0.25327358  0.00093942  0.00320025  1
  Mn  Mn40  1  0.23541406  0.49902917  0.01417914  1
  Mn  Mn41  1  0.24317484  0.49921636  0.51813098  1
  Mn  Mn42  1  0.75385202  -0.00005759  0.00309355  1
  Mn  Mn43  1  0.73342975  0.99749797  0.50627261  1
  Mn  Mn44  1  0.74783719  0.50014185  0.99850807  1
  Mn  Mn45  1  0.73917046  0.50327614  0.49729437  1
  Mn  Mn46  1  0.24519037  0.24281061  0.47912248  1
  Mn  Mn47  1  0.26645767  0.73562698  0.95498285  1
  Mn  Mn48  1  0.26386010  0.74747169  0.45458255  1
  Mn  Mn49  1  0.76437683  0.24535790  0.00445821  1
  Mn  Mn50  1  0.75234441  0.24770309  0.49911554  1
  Mn  Mn51  1  0.76008683  0.75081990  0.00615097  1
  Mn  Mn52  1  0.75009131  0.74884105  0.50590880  1
  Mn  Mn53  1  0.00652626  0.24947015  0.76004239  1
  Mn  Mn54  1  0.99405062  0.75363597  0.26774902  1
  Mn  Mn55  1  0.99035726  0.75095518  0.76309326  1
  Mn  Mn56  1  0.50144657  0.24548242  0.24823780  1
  Mn  Mn57  1  0.51116390  0.24298062  0.75422224  1
  Mn  Mn58  1  0.52032187  0.76158320  0.25424561  1
  Mn  Mn59  1  0.51367315  0.75069349  0.75020865  1
  Al  Al60  1  0.51380438  0.99837028  0.23034595  1
  Al  Al61  1  0.22533213  0.99696272  0.52128261  1
  Al  Al62  1  0.27429048  0.25107602  0.97459838  1
  Al  Al63  1  0.97835950  0.26770606  0.27855763  1
  O  O64  1  0.63283352  0.26067770  0.12593406  1
  O  O65  1  0.61656644  0.26450308  0.61401919  1
  O  O66  1  0.58601595  0.76490475  0.09607499  1
  O  O67  1  0.57984578  0.76038927  0.58411688  1
  O  O68  1  0.39694109  0.22679649  0.38781531  1
  O  O69  1  0.40597299  0.22433612  0.88899955  1
  O  O70  1  0.40349282  0.69922243  0.34227348  1
  O  O71  1  0.39815427  0.68556641  0.85380570  1
  O  O72  1  0.87500961  0.22063494  0.37929721  1
  O  O73  1  0.89732426  0.23322152  0.89777701  1
  O  O74  1  0.90703058  0.73130821  0.42777403  1
  O  O75  1  0.91440261  0.73671899  0.92481739  1
  O  O76  1  0.12242805  0.22914679  0.32328350  1
  O  O77  1  0.17407504  0.24838164  0.81769521  1
  O  O78  1  0.16552877  0.75461930  0.29020325  1
  O  O79  1  0.16277172  0.74960334  0.80521053  1
  O  O80  1  0.63372522  0.22900443  0.36912245  1
  O  O81  1  0.65661285  0.22951754  0.86632350  1
  O  O82  1  0.66031245  0.72448287  0.34679361  1
  O  O83  1  0.65995156  0.72827706  0.85821440  1
  O  O84  1  0.36709088  0.26274863  0.13235137  1
  O  O85  1  0.90090310  0.26369932  0.13550969  1
  O  O86  1  0.88032384  0.26827330  0.62390831  1
  O  O87  1  0.85747813  0.77610864  0.15553085  1
  O  O88  1  0.84240741  0.77390933  0.65700997  1
  O  O89  1  0.35045703  0.50681921  0.15442046  1
  O  O90  1  0.34493920  0.50417527  0.66957413  1
  O  O91  1  0.36189306  0.99108747  0.14779156  1
  O  O92  1  0.34845763  0.98844510  0.63679389  1
  O  O93  1  0.85429876  0.48030305  0.15424477  1
  O  O94  1  0.83826457  0.47995535  0.64960388  1
  O  O95  1  0.86843237  0.00209006  0.18276549  1
  O  O96  1  0.85673991  0.98162660  0.63884935  1
  O  O97  1  0.15686647  0.01418608  0.36336234  1
  O  O98  1  0.14604351  0.01009110  0.85592241  1
  O  O99  1  0.15383839  0.51195535  0.36619264  1
  O  O100  1  0.14541617  0.51139648  0.86363104  1
  O  O101  1  0.62226355  0.01837596  0.36570478  1
  O  O102  1  0.63233149  0.01768303  0.85274372  1
  O  O103  1  0.63745877  0.53041128  0.34752770  1
  O  O104  1  0.62594321  0.52510143  0.84123185  1
  O  O105  1  0.39041708  0.02105013  0.89665937  1
  O  O106  1  0.89309417  0.01131133  0.89224973  1
  O  O107  1  0.88932415  0.51974606  0.40189045  1
  O  O108  1  0.89018523  0.51431604  0.89665032  1
  O  O109  1  0.09433182  0.47507895  0.12387405  1
  O  O110  1  0.09316802  0.48343467  0.61976073  1
  O  O111  1  0.11220642  0.97808813  0.10398262  1
  O  O112  1  0.09492409  0.97278933  0.60884007  1
  O  O113  1  0.59990101  0.49729146  0.08739970  1
  O  O114  1  0.57756982  0.49523027  0.57194726  1
  O  O115  1  0.61912768  0.97841836  0.11335989  1
  O  O116  1  0.59642093  0.98386629  0.61610650  1
  O  O117  1  0.99700383  0.37835205  0.31174679  1
  O  O118  1  0.00161145  0.37232053  0.78550497  1
  O  O119  1  0.98803018  0.87585289  0.31977798  1
  O  O120  1  0.00523557  0.87415621  0.78314026  1
  O  O121  1  0.50471359  0.37130709  0.27853543  1
  O  O122  1  0.48337274  0.36700622  0.76761529  1
  O  O123  1  0.47963086  0.88479688  0.28874402  1
  O  O124  1  0.48515148  0.87671823  0.77515276  1
  O  O125  1  0.50361500  0.11957505  0.21425271  1
  O  O126  1  0.47932217  0.12869746  0.70113563  1
  O  O127  1  0.99719941  0.12375829  0.73409002  1
  O  O128  1  0.00103139  0.62680834  0.22686688  1
  O  O129  1  0.99411668  0.62901196  0.72131299  1
  O  O130  1  0.20516697  0.15243505  0.02429334  1
  O  O131  1  0.22272933  0.12406488  0.54483957  1
  O  O132  1  0.21688903  0.63005488  0.02887447  1
  O  O133  1  0.22954989  0.63253092  0.53183948  1
  O  O134  1  0.75205042  0.12226187  0.03626164  1
  O  O135  1  0.75168966  0.12024010  0.53660767  1
  O  O136  1  0.75685798  0.62796011  0.04090193  1
  O  O137  1  0.74105223  0.62727268  0.54539236  1
  O  O138  1  0.28108616  0.37392260  0.49770279  1
  O  O139  1  0.26278638  0.37316435  0.97781206  1
  O  O140  1  0.27349659  0.87785262  0.47568354  1
  O  O141  1  0.28937806  0.85312604  0.97986298  1
  O  O142  1  0.74342192  0.37540546  0.46245512  1
  O  O143  1  0.75364027  0.37230510  0.96965730  1
  O  O144  1  0.75311593  0.87715775  0.46171415  1
  O  O145  1  0.75962646  0.87634791  0.96920937  1
