# generated using pymatgen
data_Ca8Mn7CrO21
_symmetry_space_group_name_H-M   'P 1'
_cell_length_a   7.77913450
_cell_length_b   7.74899700
_cell_length_c   7.68646138
_cell_angle_alpha   90.00000000
_cell_angle_beta   90.09102797
_cell_angle_gamma   90.00000000
_symmetry_Int_Tables_number   1
_chemical_formula_structural   Ca8Mn7CrO21
_chemical_formula_sum   'Ca8 Mn7 Cr1 O21'
_cell_volume   463.34307287
_cell_formula_units_Z   1
loop_
 _symmetry_equiv_pos_site_id
 _symmetry_equiv_pos_as_xyz
  1  'x, y, z'
loop_
 _atom_site_type_symbol
 _atom_site_label
 _atom_site_symmetry_multiplicity
 _atom_site_fract_x
 _atom_site_fract_y
 _atom_site_fract_z
 _atom_site_occupancy
  Ca  Ca0  1  0.23506100  0.26268900  0.24514800  1
  Ca  Ca1  1  0.26932600  0.26726500  0.70132300  1
  Ca  Ca2  1  0.23506100  0.73731100  0.24514800  1
  Ca  Ca3  1  0.26932600  0.73273500  0.70132300  1
  Ca  Ca4  1  0.73860400  0.25803500  0.26010700  1
  Ca  Ca5  1  0.75494500  0.24595300  0.72352100  1
  Ca  Ca6  1  0.73860400  0.74196500  0.26010700  1
  Ca  Ca7  1  0.75494500  0.75404700  0.72352100  1
  Mn  Mn8  1  0.00740200  0.00000000  0.50343800  1
  Mn  Mn9  1  0.99127500  0.50000000  0.00930300  1
  Mn  Mn10  1  0.00195600  0.50000000  0.49785700  1
  Mn  Mn11  1  0.49470300  0.00000000  0.99845000  1
  Mn  Mn12  1  0.51042200  0.00000000  0.48095300  1
  Mn  Mn13  1  0.49931000  0.50000000  0.99205500  1
  Mn  Mn14  1  0.50533600  0.50000000  0.49772100  1
  Cr  Cr15  1  0.01494300  0.00000000  0.99025000  1
  O  O16  1  0.95962600  0.00000000  0.76529900  1
  O  O17  1  0.01322200  0.50000000  0.25485100  1
  O  O18  1  0.00383200  0.50000000  0.75728200  1
  O  O19  1  0.56372300  0.00000000  0.23222900  1
  O  O20  1  0.52653500  0.00000000  0.74741100  1
  O  O21  1  0.49280500  0.50000000  0.74644000  1
  O  O22  1  0.23699800  0.00000000  0.04817200  1
  O  O23  1  0.25637400  0.00000000  0.48337300  1
  O  O24  1  0.25229000  0.50000000  0.03033300  1
  O  O25  1  0.25941900  0.50000000  0.48670900  1
  O  O26  1  0.76226900  0.00000000  0.48392800  1
  O  O27  1  0.73750000  0.50000000  0.04196100  1
  O  O28  1  0.74891700  0.50000000  0.48926500  1
  O  O29  1  0.94645200  0.20720200  0.06207900  1
  O  O30  1  0.01176600  0.24845500  0.49854100  1
  O  O31  1  0.94645200  0.79279800  0.06207900  1
  O  O32  1  0.01176600  0.75154500  0.49854100  1
  O  O33  1  0.50085400  0.25363500  0.01797500  1
  O  O34  1  0.49856500  0.25543100  0.47266600  1
  O  O35  1  0.50085400  0.74636500  0.01797500  1
  O  O36  1  0.49856500  0.74456900  0.47266600  1
