# generated using pymatgen
data_SrCa3Mn4O10
_symmetry_space_group_name_H-M   'P 1'
_cell_length_a   5.59259633
_cell_length_b   11.11401653
_cell_length_c   15.45063063
_cell_angle_alpha   90.24337288
_cell_angle_beta   90.11258514
_cell_angle_gamma   91.31603801
_symmetry_Int_Tables_number   1
_chemical_formula_structural   SrCa3Mn4O10
_chemical_formula_sum   'Sr4 Ca12 Mn16 O40'
_cell_volume   960.08858458
_cell_formula_units_Z   4
loop_
 _symmetry_equiv_pos_site_id
 _symmetry_equiv_pos_as_xyz
  1  'x, y, z'
loop_
 _atom_site_type_symbol
 _atom_site_label
 _atom_site_symmetry_multiplicity
 _atom_site_fract_x
 _atom_site_fract_y
 _atom_site_fract_z
 _atom_site_occupancy
  Sr  Sr0  1  0.00867500  0.00222000  0.11335800  1
  Sr  Sr1  1  0.98148700  0.51410300  0.37705600  1
  Sr  Sr2  1  0.51208500  0.23992100  0.38844700  1
  Sr  Sr3  1  0.51082200  0.23173400  0.11749900  1
  Ca  Ca4  1  0.02380800  0.99429500  0.61354400  1
  Ca  Ca5  1  0.95809500  0.54357700  0.12928600  1
  Ca  Ca6  1  0.96573100  0.54508700  0.62898100  1
  Ca  Ca7  1  0.97900200  0.51890500  0.87164900  1
  Ca  Ca8  1  0.00984300  0.96026200  0.38457000  1
  Ca  Ca9  1  0.01011700  0.95817700  0.88273400  1
  Ca  Ca10  1  0.54495800  0.23238100  0.89072300  1
  Ca  Ca11  1  0.52333500  0.76680900  0.37684100  1
  Ca  Ca12  1  0.51744600  0.75957900  0.87383900  1
  Ca  Ca13  1  0.48368500  0.22483600  0.62120900  1
  Ca  Ca14  1  0.50043500  0.77807200  0.12142500  1
  Ca  Ca15  1  0.50691300  0.78048500  0.62184100  1
  Mn  Mn16  1  0.51078500  0.99219600  0.99354700  1
  Mn  Mn17  1  0.51206300  0.99581300  0.49805600  1
  Mn  Mn18  1  0.46664400  0.50852100  0.98519500  1
  Mn  Mn19  1  0.46638400  0.50540900  0.49835800  1
  Mn  Mn20  1  0.04698500  0.24727500  0.99419400  1
  Mn  Mn21  1  0.03162900  0.23833300  0.50599200  1
  Mn  Mn22  1  0.99266000  0.74267900  0.00098900  1
  Mn  Mn23  1  0.99978300  0.74784900  0.50394000  1
  Mn  Mn24  1  0.94104300  0.26839800  0.24752500  1
  Mn  Mn25  1  0.91438100  0.27050800  0.74236300  1
  Mn  Mn26  1  0.00806400  0.75566700  0.24800700  1
  Mn  Mn27  1  0.00730100  0.75671400  0.74714700  1
  Mn  Mn28  1  0.52672700  0.99166500  0.25278000  1
  Mn  Mn29  1  0.52382400  0.99412900  0.75200000  1
  Mn  Mn30  1  0.50260200  0.51872200  0.25259800  1
  Mn  Mn31  1  0.50233700  0.51505600  0.74483100  1
  O  O32  1  0.19542200  0.59242400  0.24991100  1
  O  O33  1  0.18567400  0.58866700  0.75362400  1
  O  O34  1  0.71681900  0.40470200  0.20458100  1
  O  O35  1  0.70318200  0.39999000  0.68115400  1
  O  O36  1  0.82514800  0.89718000  0.24014400  1
  O  O37  1  0.83818700  0.90617100  0.73542700  1
  O  O38  1  0.66172500  0.14939000  0.25183200  1
  O  O39  1  0.60975200  0.16208000  0.75360700  1
  O  O40  1  0.70970000  0.65727400  0.22843100  1
  O  O41  1  0.71349200  0.66075100  0.72505700  1
  O  O42  1  0.29586200  0.86008400  0.27108400  1
  O  O43  1  0.29982100  0.85618500  0.77144300  1
  O  O44  1  0.30189400  0.35459900  0.51886100  1
  O  O45  1  0.33976800  0.35079000  0.99761600  1
  O  O46  1  0.29327700  0.85698500  0.48476900  1
  O  O47  1  0.27059300  0.84818000  0.98185200  1
  O  O48  1  0.76142800  0.14866100  0.00162000  1
  O  O49  1  0.72859500  0.14858500  0.51168000  1
  O  O50  1  0.68951200  0.62761900  0.02623600  1
  O  O51  1  0.70560700  0.62643600  0.52162400  1
  O  O52  1  0.77292700  0.87779100  0.01200100  1
  O  O53  1  0.78530600  0.88651000  0.51684600  1
  O  O54  1  0.24150100  0.09589200  0.47631700  1
  O  O55  1  0.25581900  0.10056300  0.96959700  1
  O  O56  1  0.18801600  0.60401000  0.50199500  1
  O  O57  1  0.16600800  0.59106700  0.99667000  1
  O  O58  1  0.58961500  0.98729500  0.37767100  1
  O  O59  1  0.59446100  0.98549000  0.87315700  1
  O  O60  1  0.53077400  0.47506600  0.37556600  1
  O  O61  1  0.57104700  0.48480000  0.86993800  1
  O  O62  1  0.45977500  0.99785900  0.12666100  1
  O  O63  1  0.44503700  0.99815900  0.62694600  1
  O  O64  1  0.06899100  0.23893900  0.12798700  1
  O  O65  1  0.06961300  0.20903900  0.63379400  1
  O  O66  1  0.07317800  0.75205500  0.12377500  1
  O  O67  1  0.08272100  0.75716400  0.62687900  1
  O  O68  1  0.99288900  0.28604900  0.37852300  1
  O  O69  1  0.96838200  0.30141600  0.87316300  1
  O  O70  1  0.94351700  0.74586100  0.37666200  1
  O  O71  1  0.93277900  0.73932000  0.87450700  1
