# generated using pymatgen
data_SrCa7Mn6Al2O23
_symmetry_space_group_name_H-M   'P 1'
_cell_length_a   10.78967165
_cell_length_b   15.14131058
_cell_length_c   10.74047160
_cell_angle_alpha   89.86516750
_cell_angle_beta   90.33690688
_cell_angle_gamma   90.06051664
_symmetry_Int_Tables_number   1
_chemical_formula_structural   SrCa7Mn6Al2O23
_chemical_formula_sum   'Sr4 Ca28 Mn24 Al8 O92'
_cell_volume   1754.63222303
_cell_formula_units_Z   4
loop_
 _symmetry_equiv_pos_site_id
 _symmetry_equiv_pos_as_xyz
  1  'x, y, z'
loop_
 _atom_site_type_symbol
 _atom_site_label
 _atom_site_symmetry_multiplicity
 _atom_site_fract_x
 _atom_site_fract_y
 _atom_site_fract_z
 _atom_site_occupancy
  Sr  Sr0  1  0.01198368  0.12191150  0.49920365  1
  Sr  Sr1  1  0.49335574  0.37339424  0.99860963  1
  Sr  Sr2  1  0.24278709  0.37824539  0.25107980  1
  Sr  Sr3  1  0.24706359  0.12062940  0.26022436  1
  Ca  Ca4  1  0.01726879  0.12012546  0.99529635  1
  Ca  Ca5  1  0.02161341  0.62459277  0.49518113  1
  Ca  Ca6  1  0.02409817  0.62438917  0.99692751  1
  Ca  Ca7  1  0.51440627  0.13111922  0.50420529  1
  Ca  Ca8  1  0.52706977  0.12395841  0.97777454  1
  Ca  Ca9  1  0.52328933  0.62418540  0.49898274  1
  Ca  Ca10  1  0.51567725  0.62215550  0.99599044  1
  Ca  Ca11  1  0.47832951  0.38067658  0.51208369  1
  Ca  Ca12  1  0.48358182  0.87191083  0.99140160  1
  Ca  Ca13  1  0.48031205  0.87082669  0.51211383  1
  Ca  Ca14  1  0.97697241  0.38222181  0.00323422  1
  Ca  Ca15  1  0.98120094  0.37504616  0.50050535  1
  Ca  Ca16  1  0.97941199  0.87581387  0.00800277  1
  Ca  Ca17  1  0.97637299  0.87575947  0.50273410  1
  Ca  Ca18  1  0.22820031  0.37478455  0.73287781  1
  Ca  Ca19  1  0.22697552  0.87596372  0.24681729  1
  Ca  Ca20  1  0.23400357  0.87505604  0.75061800  1
  Ca  Ca21  1  0.74283690  0.38244999  0.24983619  1
  Ca  Ca22  1  0.72890375  0.37601266  0.74783244  1
  Ca  Ca23  1  0.74186580  0.86776227  0.24615735  1
  Ca  Ca24  1  0.72488367  0.87490742  0.74451126  1
  Ca  Ca25  1  0.27373727  0.12156178  0.73579691  1
  Ca  Ca26  1  0.27241532  0.62562517  0.25108346  1
  Ca  Ca27  1  0.26904645  0.62320242  0.75678651  1
  Ca  Ca28  1  0.76796255  0.12225803  0.25318737  1
  Ca  Ca29  1  0.76611090  0.12392712  0.75578644  1
  Ca  Ca30  1  0.77331874  0.62377801  0.25438974  1
  Ca  Ca31  1  0.77219637  0.62451121  0.75482678  1
  Mn  Mn32  1  0.99782243  0.99982806  0.24939956  1
  Mn  Mn33  1  0.99818599  0.99801277  0.75428940  1
  Mn  Mn34  1  0.00369841  0.49991927  0.24741465  1
  Mn  Mn35  1  0.00282361  0.49982036  0.75042439  1
  Mn  Mn36  1  0.50185113  0.50389729  0.25064777  1
  Mn  Mn37  1  0.49835829  0.50133683  0.75107065  1
  Mn  Mn38  1  0.25502233  0.00502910  0.00086894  1
  Mn  Mn39  1  0.25069114  0.50107037  0.50061681  1
  Mn  Mn40  1  0.75026690  0.99749800  0.99466630  1
  Mn  Mn41  1  0.74148600  0.99965976  0.50163485  1
  Mn  Mn42  1  0.75070973  0.50256921  0.00098948  1
  Mn  Mn43  1  0.75169029  0.50043917  0.50192430  1
  Mn  Mn44  1  0.25058569  0.74974747  0.00356024  1
  Mn  Mn45  1  0.25116619  0.75147727  0.49950651  1
  Mn  Mn46  1  0.75607601  0.24722889  0.00070649  1
  Mn  Mn47  1  0.75001992  0.24990737  0.50331033  1
  Mn  Mn48  1  0.74990397  0.74922426  0.99876130  1
  Mn  Mn49  1  0.75037649  0.74949706  0.50080545  1
  Mn  Mn50  1  0.99904839  0.25005839  0.74478681  1
  Mn  Mn51  1  0.00152184  0.74897612  0.24984676  1
  Mn  Mn52  1  0.00115835  0.75053607  0.75028319  1
  Mn  Mn53  1  0.50025543  0.24830294  0.74239737  1
  Mn  Mn54  1  0.50204202  0.74971422  0.25265023  1
  Mn  Mn55  1  0.49923266  0.74986670  0.75119094  1
  Al  Al56  1  0.51588696  0.97948456  0.23193201  1
  Al  Al57  1  0.49727971  0.99832531  0.74510549  1
  Al  Al58  1  0.23391752  0.99411232  0.51711665  1
  Al  Al59  1  0.25056202  0.49939818  0.00172997  1
  Al  Al60  1  0.25427384  0.24544747  0.95757150  1
  Al  Al61  1  0.24846234  0.24700627  0.49314590  1
  Al  Al62  1  0.98519139  0.25043065  0.26995917  1
  Al  Al63  1  0.52218898  0.26348695  0.27300190  1
  O  O64  1  0.10527261  0.26505085  0.60481063  1
  O  O65  1  0.10614141  0.77097151  0.10463753  1
  O  O66  1  0.10482705  0.77290235  0.60286114  1
  O  O67  1  0.57451742  0.24198048  0.11965668  1
  O  O68  1  0.60205300  0.26849093  0.59876786  1
  O  O69  1  0.60746428  0.77303562  0.10555665  1
  O  O70  1  0.60525688  0.76704846  0.60454440  1
  O  O71  1  0.39239202  0.22723010  0.35948760  1
  O  O72  1  0.39798180  0.23215285  0.88432820  1
  O  O73  1  0.39675897  0.72776796  0.39741954  1
  O  O74  1  0.39712484  0.73289837  0.89856000  1
  O  O75  1  0.88796386  0.23590028  0.40114089  1
  O  O76  1  0.89935338  0.23324720  0.90339302  1
  O  O77  1  0.89609808  0.73105760  0.39625994  1
  O  O78  1  0.89594058  0.72766145  0.89536579  1
  O  O79  1  0.13573839  0.24200646  0.35484290  1
  O  O80  1  0.14008643  0.22883313  0.84480165  1
  O  O81  1  0.14737824  0.73082453  0.35248089  1
  O  O82  1  0.14823015  0.73250518  0.85334585  1
  O  O83  1  0.65136549  0.22944616  0.35956625  1
  O  O84  1  0.64721848  0.23169383  0.85653532  1
  O  O85  1  0.64815545  0.72734818  0.35436580  1
  O  O86  1  0.64486130  0.72931083  0.85415302  1
  O  O87  1  0.35868067  0.26176821  0.63442993  1
  O  O88  1  0.35616943  0.77290673  0.14781792  1
  O  O89  1  0.35366674  0.76983019  0.64692953  1
  O  O90  1  0.86421477  0.26944896  0.14314859  1
  O  O91  1  0.85095555  0.27005961  0.64983435  1
  O  O92  1  0.85736416  0.76770584  0.14296973  1
  O  O93  1  0.85561870  0.77267491  0.64605379  1
  O  O94  1  0.36209773  0.49018383  0.13972304  1
  O  O95  1  0.35453776  0.48231624  0.64595125  1
  O  O96  1  0.36652098  0.99748637  0.16377857  1
  O  O97  1  0.35974459  0.98484874  0.63534706  1
  O  O98  1  0.85789239  0.48297714  0.14318029  1
  O  O99  1  0.85539806  0.47950263  0.64735355  1
  O  O100  1  0.85548181  0.97889866  0.14276501  1
  O  O101  1  0.85303390  0.97719398  0.64304275  1
  O  O102  1  0.13580177  0.00687226  0.36668986  1
  O  O103  1  0.14618456  0.02620367  0.85994537  1
  O  O104  1  0.14698622  0.51982922  0.35411113  1
  O  O105  1  0.14677216  0.51196174  0.85668958  1
  O  O106  1  0.60090236  0.03468924  0.35187709  1
  O  O107  1  0.64395848  0.01560278  0.85316608  1
  O  O108  1  0.64691012  0.52161271  0.35577347  1
  O  O109  1  0.64382939  0.51985250  0.85636775  1
  O  O110  1  0.39218695  0.02028121  0.89344486  1
  O  O111  1  0.39506886  0.52107857  0.39589530  1
  O  O112  1  0.39046511  0.51228989  0.89298617  1
  O  O113  1  0.87710897  0.01873329  0.38407871  1
  O  O114  1  0.89571710  0.01738428  0.89738917  1
  O  O115  1  0.89707026  0.51712050  0.39504336  1
  O  O116  1  0.89602393  0.51846695  0.89729706  1
  O  O117  1  0.10719642  0.48700913  0.10393978  1
  O  O118  1  0.10406277  0.47984497  0.60362992  1
  O  O119  1  0.10964000  0.98462534  0.10884677  1
  O  O120  1  0.10312797  0.97983116  0.61689922  1
  O  O121  1  0.61268539  0.48317057  0.11172540  1
  O  O122  1  0.60559357  0.48430474  0.60417274  1
  O  O123  1  0.60818155  0.98149642  0.09778921  1
  O  O124  1  0.60376577  0.98139655  0.60378901  1
  O  O125  1  0.00779521  0.37376209  0.27222032  1
  O  O126  1  0.01010544  0.37435710  0.78825948  1
  O  O127  1  0.00387833  0.87389708  0.28603012  1
  O  O128  1  0.01204197  0.87514281  0.79491900  1
  O  O129  1  0.50488288  0.37909650  0.28354088  1
  O  O130  1  0.50939924  0.37496153  0.77380249  1
  O  O131  1  0.51232814  0.87216816  0.29429382  1
  O  O132  1  0.50563199  0.87462588  0.77978829  1
  O  O133  1  0.49826525  0.12385943  0.71835534  1
  O  O134  1  0.49255449  0.62735284  0.21043698  1
  O  O135  1  0.48774265  0.62532336  0.71409195  1
  O  O136  1  0.99714776  0.12957745  0.21733335  1
  O  O137  1  0.98215483  0.12394621  0.72037944  1
  O  O138  1  0.99178808  0.62538119  0.21214849  1
  O  O139  1  0.99218408  0.62538624  0.71138492  1
  O  O140  1  0.23977220  0.14514533  0.04192080  1
  O  O141  1  0.25740093  0.11871199  0.51172821  1
  O  O142  1  0.24412761  0.62714964  0.03252033  1
  O  O143  1  0.23858005  0.62589425  0.54070116  1
  O  O144  1  0.74483359  0.12327426  0.03671788  1
  O  O145  1  0.73966945  0.12418626  0.54158189  1
  O  O146  1  0.73800278  0.62575978  0.03936611  1
  O  O147  1  0.74488084  0.62550717  0.54071750  1
  O  O148  1  0.26011370  0.37419579  0.47693228  1
  O  O149  1  0.24775491  0.35661045  0.00666534  1
  O  O150  1  0.26542943  0.87859461  0.46176074  1
  O  O151  1  0.26348261  0.88109056  0.96819288  1
  O  O152  1  0.75792948  0.37584008  0.46334834  1
  O  O153  1  0.74872924  0.37421814  0.96882461  1
  O  O154  1  0.75339922  0.87555381  0.45987694  1
  O  O155  1  0.76140464  0.87337705  0.95791935  1
