# generated using pymatgen
data_Ca4TiMn3O11
_symmetry_space_group_name_H-M   'P 1'
_cell_length_a   5.43844805
_cell_length_b   10.89224773
_cell_length_c   15.73654259
_cell_angle_alpha   90.35765761
_cell_angle_beta   89.75298851
_cell_angle_gamma   91.25539032
_symmetry_Int_Tables_number   1
_chemical_formula_structural   Ca4TiMn3O11
_chemical_formula_sum   'Ca16 Ti4 Mn12 O44'
_cell_volume   931.93433510
_cell_formula_units_Z   4
loop_
 _symmetry_equiv_pos_site_id
 _symmetry_equiv_pos_as_xyz
  1  'x, y, z'
loop_
 _atom_site_type_symbol
 _atom_site_label
 _atom_site_symmetry_multiplicity
 _atom_site_fract_x
 _atom_site_fract_y
 _atom_site_fract_z
 _atom_site_occupancy
  Ca  Ca0  1  0.03113200  0.98447400  0.11551400  1
  Ca  Ca1  1  0.99509000  0.01092800  0.62600700  1
  Ca  Ca2  1  0.96740400  0.54402300  0.12135800  1
  Ca  Ca3  1  0.00090400  0.52449500  0.62412400  1
  Ca  Ca4  1  0.99923900  0.49927300  0.39399400  1
  Ca  Ca5  1  0.99311600  0.50036600  0.85353000  1
  Ca  Ca6  1  0.00159400  0.96496600  0.39182700  1
  Ca  Ca7  1  0.01969600  0.96649800  0.86543800  1
  Ca  Ca8  1  0.50680700  0.23721100  0.39854800  1
  Ca  Ca9  1  0.51836800  0.23345000  0.85717700  1
  Ca  Ca10  1  0.50735500  0.73068400  0.39233700  1
  Ca  Ca11  1  0.49522300  0.72803000  0.85981200  1
  Ca  Ca12  1  0.45223400  0.21974500  0.11742300  1
  Ca  Ca13  1  0.52257800  0.26838500  0.62729700  1
  Ca  Ca14  1  0.50519100  0.77432200  0.12022800  1
  Ca  Ca15  1  0.51274900  0.76985600  0.62470000  1
  Ti  Ti16  1  0.52478300  0.98876700  0.98904000  1
  Ti  Ti17  1  0.02016700  0.23342600  0.99130200  1
  Ti  Ti18  1  0.86593400  0.26773500  0.23432500  1
  Ti  Ti19  1  0.54423800  0.98265900  0.25777000  1
  Mn  Mn20  1  0.49801800  0.00249600  0.50311800  1
  Mn  Mn21  1  0.46452400  0.50268800  0.99037800  1
  Mn  Mn22  1  0.50508400  0.49716200  0.50513500  1
  Mn  Mn23  1  0.01246400  0.24999200  0.50962200  1
  Mn  Mn24  1  0.98900200  0.74281500  0.99535800  1
  Mn  Mn25  1  0.00653900  0.74978400  0.50427600  1
  Mn  Mn26  1  0.01567400  0.25006200  0.74794300  1
  Mn  Mn27  1  0.01112500  0.74586300  0.25178300  1
  Mn  Mn28  1  0.00281000  0.75183200  0.74543400  1
  Mn  Mn29  1  0.50294100  0.00217000  0.74676700  1
  Mn  Mn30  1  0.50333800  0.51497200  0.25593400  1
  Mn  Mn31  1  0.50691600  0.49870300  0.74456200  1
  O  O32  1  0.21784700  0.11045800  0.77883100  1
  O  O33  1  0.16640800  0.58256000  0.25438300  1
  O  O34  1  0.22612200  0.61076000  0.76026700  1
  O  O35  1  0.69843700  0.39423400  0.17837800  1
  O  O36  1  0.80367100  0.39542900  0.72902000  1
  O  O37  1  0.84725900  0.91570000  0.24255500  1
  O  O38  1  0.79066200  0.89530700  0.73170600  1
  O  O39  1  0.58869000  0.16960400  0.25304800  1
  O  O40  1  0.71295900  0.15022300  0.73565300  1
  O  O41  1  0.70620700  0.66219400  0.22587000  1
  O  O42  1  0.71772300  0.64386800  0.72623100  1
  O  O43  1  0.29522000  0.35663700  0.76974700  1
  O  O44  1  0.32317800  0.85081900  0.27161200  1
  O  O45  1  0.28892500  0.86057700  0.77069500  1
  O  O46  1  0.28979200  0.35634100  0.48661000  1
  O  O47  1  0.24378600  0.35852200  0.02961700  1
  O  O48  1  0.28651000  0.86082800  0.47972700  1
  O  O49  1  0.29716900  0.85557600  0.97947700  1
  O  O50  1  0.72419500  0.15390400  0.01953100  1
  O  O51  1  0.71027800  0.14997700  0.51521500  1
  O  O52  1  0.69435400  0.63695400  0.02776400  1
  O  O53  1  0.71971200  0.64197600  0.52131500  1
  O  O54  1  0.80134100  0.39260000  0.51786300  1
  O  O55  1  0.79396600  0.89167800  0.01422900  1
  O  O56  1  0.78443700  0.89534700  0.51661800  1
  O  O57  1  0.21020500  0.11119100  0.47305900  1
  O  O58  1  0.22931800  0.10647800  0.98236500  1
  O  O59  1  0.23238400  0.60960700  0.48877800  1
  O  O60  1  0.16092900  0.59674400  0.98456700  1
  O  O61  1  0.57390400  0.01072100  0.37521500  1
  O  O62  1  0.59599800  0.01180000  0.87795500  1
  O  O63  1  0.56216400  0.49664000  0.37976900  1
  O  O64  1  0.56443200  0.50391100  0.86835000  1
  O  O65  1  0.42743100  0.48350400  0.62509200  1
  O  O66  1  0.45778600  0.99570200  0.13295800  1
  O  O67  1  0.42867500  0.99618600  0.62276200  1
  O  O68  1  0.05699700  0.19274900  0.15647400  1
  O  O69  1  0.08788700  0.22947300  0.63117500  1
  O  O70  1  0.07562500  0.75507100  0.12512400  1
  O  O71  1  0.07993600  0.75191800  0.62452000  1
  O  O72  1  0.99735500  0.29934100  0.33599900  1
  O  O73  1  0.94318200  0.28029700  0.88468800  1
  O  O74  1  0.94128000  0.74591000  0.37765400  1
  O  O75  1  0.92716500  0.74807800  0.87033200  1
