# generated using pymatgen
data_LiCr2(PO4)3
_symmetry_space_group_name_H-M   'P 1'
_cell_length_a   8.50593636
_cell_length_b   8.50593632
_cell_length_c   8.56145724
_cell_angle_alpha   60.12172916
_cell_angle_beta   60.12172617
_cell_angle_gamma   60.55708746
_symmetry_Int_Tables_number   1
_chemical_formula_structural   LiCr2(PO4)3
_chemical_formula_sum   'Li2 Cr4 P6 O24'
_cell_volume   440.63145717
_cell_formula_units_Z   2
loop_
 _symmetry_equiv_pos_site_id
 _symmetry_equiv_pos_as_xyz
  1  'x, y, z'
loop_
 _atom_site_type_symbol
 _atom_site_label
 _atom_site_symmetry_multiplicity
 _atom_site_fract_x
 _atom_site_fract_y
 _atom_site_fract_z
 _atom_site_occupancy
  Li  Li0  1  0.00000000  0.50000000  0.50000000  1
  Li  Li1  1  0.50000000  0.00000000  0.00000000  1
  Cr  Cr2  1  0.36343100  0.86251700  0.85268400  1
  Cr  Cr3  1  0.13748400  0.63656900  0.64731600  1
  Cr  Cr4  1  0.86251700  0.36343100  0.35268400  1
  Cr  Cr5  1  0.63656900  0.13748400  0.14731600  1
  P  P6  1  0.95953000  0.04047000  0.75000000  1
  P  P7  1  0.74748200  0.54488900  0.96382000  1
  P  P8  1  0.45511100  0.25251800  0.53618000  1
  P  P9  1  0.04047000  0.95953000  0.25000000  1
  P  P10  1  0.25251800  0.45511100  0.03618000  1
  P  P11  1  0.54488900  0.74748200  0.46382000  1
  O  O12  1  0.74109500  0.58604900  0.43940000  1
  O  O13  1  0.01036200  0.12514800  0.29831100  1
  O  O14  1  0.31660300  0.62066300  0.98089100  1
  O  O15  1  0.93494100  0.23593300  0.58412300  1
  O  O16  1  0.98963800  0.87485200  0.70168900  1
  O  O17  1  0.37933700  0.68339700  0.51910900  1
  O  O18  1  0.76406700  0.06505900  0.91587700  1
  O  O19  1  0.41395100  0.25890500  0.06060000  1
  O  O20  1  0.81298100  0.52248200  0.11434100  1
  O  O21  1  0.06505900  0.76406700  0.41587700  1
  O  O22  1  0.58604900  0.74109500  0.93940000  1
  O  O23  1  0.18701900  0.47751800  0.88565900  1
  O  O24  1  0.23593300  0.93494100  0.08412400  1
  O  O25  1  0.44341800  0.09033300  0.73398900  1
  O  O26  1  0.09033300  0.44341800  0.23398900  1
  O  O27  1  0.52248200  0.81298100  0.61434100  1
  O  O28  1  0.12514800  0.01036200  0.79831100  1
  O  O29  1  0.87485200  0.98963800  0.20168900  1
  O  O30  1  0.90966700  0.55658200  0.76601100  1
  O  O31  1  0.25890500  0.41395100  0.56060000  1
  O  O32  1  0.55658200  0.90966700  0.26601100  1
  O  O33  1  0.62066300  0.31660300  0.48089100  1
  O  O34  1  0.68339700  0.37933700  0.01910900  1
  O  O35  1  0.47751800  0.18701900  0.38565900  1
