# generated using pymatgen
data_Lu2FeCoO6
_symmetry_space_group_name_H-M   'P 1'
_cell_length_a   5.55959760
_cell_length_b   5.19071679
_cell_length_c   7.50578315
_cell_angle_alpha   90.72341533
_cell_angle_beta   90.08602785
_cell_angle_gamma   91.12609485
_symmetry_Int_Tables_number   1
_chemical_formula_structural   Lu2FeCoO6
_chemical_formula_sum   'Lu4 Fe2 Co2 O12'
_cell_volume   216.54468962
_cell_formula_units_Z   2
loop_
 _symmetry_equiv_pos_site_id
 _symmetry_equiv_pos_as_xyz
  1  'x, y, z'
loop_
 _atom_site_type_symbol
 _atom_site_label
 _atom_site_symmetry_multiplicity
 _atom_site_fract_x
 _atom_site_fract_y
 _atom_site_fract_z
 _atom_site_occupancy
  Lu  Lu0  1  0.42203300  0.47571200  0.75247900  1
  Lu  Lu1  1  0.07399600  0.97685300  0.24943200  1
  Lu  Lu2  1  0.57796700  0.52428800  0.24752100  1
  Lu  Lu3  1  0.92600400  0.02314700  0.75056800  1
  Fe  Fe4  1  0.00000000  0.50000000  0.50000000  1
  Fe  Fe5  1  0.50000000  0.00000000  0.00000000  1
  Co  Co6  1  0.50000000  0.00000000  0.50000000  1
  Co  Co7  1  0.00000000  0.50000000  0.00000000  1
  O  O8  1  0.04563800  0.62483400  0.75706800  1
  O  O9  1  0.45559900  0.12152700  0.25249200  1
  O  O10  1  0.95436200  0.37516600  0.24293200  1
  O  O11  1  0.54440100  0.87847300  0.74750800  1
  O  O12  1  0.18681900  0.19472500  0.56377400  1
  O  O13  1  0.30051000  0.68554400  0.06129100  1
  O  O14  1  0.81318100  0.80527500  0.43622600  1
  O  O15  1  0.69949000  0.31445600  0.93870900  1
  O  O16  1  0.19253500  0.19759300  0.93871600  1
  O  O17  1  0.31200500  0.69515600  0.43900200  1
  O  O18  1  0.80746500  0.80240700  0.06128400  1
  O  O19  1  0.68799500  0.30484400  0.56099800  1
