# generated using pymatgen
data_Mn7GeN6
_symmetry_space_group_name_H-M   'P 1'
_cell_length_a   8.92174687
_cell_length_b   6.91503709
_cell_length_c   9.93088720
_cell_angle_alpha   90.00000000
_cell_angle_beta   90.00000000
_cell_angle_gamma   90.00000000
_symmetry_Int_Tables_number   1
_chemical_formula_structural   Mn7GeN6
_chemical_formula_sum   'Mn28 Ge4 N24'
_cell_volume   612.67824550
_cell_formula_units_Z   4
loop_
 _symmetry_equiv_pos_site_id
 _symmetry_equiv_pos_as_xyz
  1  'x, y, z'
loop_
 _atom_site_type_symbol
 _atom_site_label
 _atom_site_symmetry_multiplicity
 _atom_site_fract_x
 _atom_site_fract_y
 _atom_site_fract_z
 _atom_site_occupancy
  Mn  Mn0  1  0.08630565  0.63553496  0.97219827  1
  Mn  Mn1  1  0.41369435  0.86446504  0.47219827  1
  Mn  Mn2  1  0.58630565  0.86446504  0.02780173  1
  Mn  Mn3  1  0.91369435  0.63553496  0.52780173  1
  Mn  Mn4  1  0.91369435  0.36446504  0.02780173  1
  Mn  Mn5  1  0.58630565  0.13553496  0.52780173  1
  Mn  Mn6  1  0.41369435  0.13553496  0.97219827  1
  Mn  Mn7  1  0.08630565  0.36446504  0.47219827  1
  Mn  Mn8  1  0.25321958  0.63789597  0.62606041  1
  Mn  Mn9  1  0.24678042  0.86210403  0.12606041  1
  Mn  Mn10  1  0.75321958  0.86210403  0.37393959  1
  Mn  Mn11  1  0.74678042  0.63789597  0.87393959  1
  Mn  Mn12  1  0.74678042  0.36210403  0.37393959  1
  Mn  Mn13  1  0.75321958  0.13789597  0.87393959  1
  Mn  Mn14  1  0.24678042  0.13789597  0.62606041  1
  Mn  Mn15  1  0.25321958  0.36210403  0.12606041  1
  Mn  Mn16  1  0.34707058  0.58111742  0.87792316  1
  Mn  Mn17  1  0.15292942  0.91888258  0.37792316  1
  Mn  Mn18  1  0.84707058  0.91888258  0.12207684  1
  Mn  Mn19  1  0.65292942  0.58111742  0.62207684  1
  Mn  Mn20  1  0.65292942  0.41888258  0.12207684  1
  Mn  Mn21  1  0.84707058  0.08111742  0.62207684  1
  Mn  Mn22  1  0.15292942  0.08111742  0.87792316  1
  Mn  Mn23  1  0.34707058  0.41888258  0.37792316  1
  Mn  Mn24  1  -0.00000000  0.38162905  0.75000000  1
  Mn  Mn25  1  0.50000000  0.11837095  0.25000000  1
  Mn  Mn26  1  -0.00000000  0.61837095  0.25000000  1
  Mn  Mn27  1  0.50000000  0.88162905  0.75000000  1
  Ge  Ge28  1  -0.00000000  0.81605721  0.75000000  1
  Ge  Ge29  1  0.50000000  0.68394279  0.25000000  1
  Ge  Ge30  1  -0.00000000  0.18394279  0.25000000  1
  Ge  Ge31  1  0.50000000  0.31605721  0.75000000  1
  N  N32  1  0.15149006  0.58029816  0.78844585  1
  N  N33  1  0.34850994  0.91970184  0.28844585  1
  N  N34  1  0.65149006  0.91970184  0.21155415  1
  N  N35  1  0.84850994  0.58029816  0.71155415  1
  N  N36  1  0.84850994  0.41970184  0.21155415  1
  N  N37  1  0.65149006  0.08029816  0.71155415  1
  N  N38  1  0.34850994  0.08029816  0.78844585  1
  N  N39  1  0.15149006  0.41970184  0.28844585  1
  N  N40  1  0.27299179  0.39517833  0.54975664  1
  N  N41  1  0.22700821  0.10482167  0.04975664  1
  N  N42  1  0.77299179  0.10482167  0.45024336  1
  N  N43  1  0.72700821  0.39517833  0.95024336  1
  N  N44  1  0.72700821  0.60482167  0.45024336  1
  N  N45  1  0.77299179  0.89517833  0.95024336  1
  N  N46  1  0.22700821  0.89517833  0.54975664  1
  N  N47  1  0.27299179  0.60482167  0.04975664  1
  N  N48  1  0.46360803  0.69612460  0.61172064  1
  N  N49  1  0.03639197  0.80387540  0.11172064  1
  N  N50  1  0.96360803  0.80387540  0.38827936  1
  N  N51  1  0.53639197  0.69612460  0.88827936  1
  N  N52  1  0.53639197  0.30387540  0.38827936  1
  N  N53  1  0.96360803  0.19612460  0.88827936  1
  N  N54  1  0.03639197  0.19612460  0.61172064  1
  N  N55  1  0.46360803  0.30387540  0.11172064  1
