# generated using pymatgen
data_VH6CNO3
_symmetry_space_group_name_H-M   'P 1'
_cell_length_a   12.26119800
_cell_length_b   19.13300500
_cell_length_c   8.66152500
_cell_angle_alpha   90.00000000
_cell_angle_beta   90.00000000
_cell_angle_gamma   90.00000000
_symmetry_Int_Tables_number   1
_chemical_formula_structural   VH6CNO3
_chemical_formula_sum   'V16 H96 C16 N16 O48'
_cell_volume   2031.93800765
_cell_formula_units_Z   16
loop_
 _symmetry_equiv_pos_site_id
 _symmetry_equiv_pos_as_xyz
  1  'x, y, z'
loop_
 _atom_site_type_symbol
 _atom_site_label
 _atom_site_symmetry_multiplicity
 _atom_site_fract_x
 _atom_site_fract_y
 _atom_site_fract_z
 _atom_site_occupancy
  V  V0  1  0.78226700  0.05321700  0.00492400  1
  V  V1  1  0.21773300  0.94678300  0.50492400  1
  V  V2  1  0.71773300  0.55321700  0.50492400  1
  V  V3  1  0.28226700  0.44678300  0.00492400  1
  V  V4  1  0.73948000  0.22614500  0.90369400  1
  V  V5  1  0.26052000  0.77385500  0.40369400  1
  V  V6  1  0.76052000  0.72614500  0.40369400  1
  V  V7  1  0.23948000  0.27385500  0.90369400  1
  V  V8  1  0.77909400  0.22625300  0.50010900  1
  V  V9  1  0.22090600  0.77374700  0.00010900  1
  V  V10  1  0.72090600  0.72625300  0.00010900  1
  V  V11  1  0.27909400  0.27374700  0.50010900  1
  V  V12  1  0.75224500  0.05545000  0.41708200  1
  V  V13  1  0.24775500  0.94455000  0.91708200  1
  V  V14  1  0.74775500  0.55545000  0.91708200  1
  V  V15  1  0.25224500  0.44455000  0.41708200  1
  H  H16  1  0.65773000  0.95740000  0.79321500  1
  H  H17  1  0.34227000  0.04260000  0.29321500  1
  H  H18  1  0.84227000  0.45740000  0.29321500  1
  H  H19  1  0.15773000  0.54260000  0.79321500  1
  H  H20  1  0.70850700  0.92389500  0.62917700  1
  H  H21  1  0.29149300  0.07610500  0.12917700  1
  H  H22  1  0.79149300  0.42389500  0.12917700  1
  H  H23  1  0.20850700  0.57610500  0.62917700  1
  H  H24  1  0.67116500  0.86885800  0.77399500  1
  H  H25  1  0.32883500  0.13114200  0.27399500  1
  H  H26  1  0.82883500  0.36885800  0.27399500  1
  H  H27  1  0.17116500  0.63114200  0.77399500  1
  H  H28  1  0.52670500  0.46752200  0.59452100  1
  H  H29  1  0.47329500  0.53247800  0.09452100  1
  H  H30  1  0.97329500  0.96752200  0.09452100  1
  H  H31  1  0.02670500  0.03247800  0.59452100  1
  H  H32  1  0.45216700  0.45947200  0.76284600  1
  H  H33  1  0.54783300  0.54052800  0.26284600  1
  H  H34  1  0.04783300  0.95947200  0.26284600  1
  H  H35  1  0.95216700  0.04052800  0.76284600  1
  H  H36  1  0.42524500  0.40927100  0.60650500  1
  H  H37  1  0.57475500  0.59072900  0.10650500  1
  H  H38  1  0.07475500  0.90927100  0.10650500  1
  H  H39  1  0.92524500  0.09072900  0.60650500  1
  H  H40  1  0.42133000  0.29717200  0.11476100  1
  H  H41  1  0.57867000  0.70282800  0.61476100  1
  H  H42  1  0.07867000  0.79717200  0.61476100  1
  H  H43  1  0.92133000  0.20282800  0.11476100  1
  H  H44  1  0.48672400  0.25641000  0.25717500  1
  H  H45  1  0.51327600  0.74359000  0.75717500  1
  H  H46  1  0.01327600  0.75641000  0.75717500  1
  H  H47  1  0.98672400  0.24359000  0.25717500  1
  H  H48  1  0.54327000  0.26178700  0.07525800  1
  H  H49  1  0.45673000  0.73821300  0.57525800  1
  H  H50  1  0.95673000  0.76178700  0.57525800  1
  H  H51  1  0.04327000  0.23821300  0.07525800  1
  H  H52  1  0.54186000  0.81568800  0.07377900  1
  H  H53  1  0.45814000  0.18431200  0.57377900  1
  H  H54  1  0.95814000  0.31568800  0.57377900  1
  H  H55  1  0.04186000  0.68431200  0.07377900  1
  H  H56  1  0.46366800  0.82211500  0.23744100  1
  H  H57  1  0.53633200  0.17788500  0.73744100  1
  H  H58  1  0.03633200  0.32211500  0.73744100  1
  H  H59  1  0.96366800  0.67788500  0.23744100  1
  H  H60  1  0.44449400  0.87773300  0.08362500  1
  H  H61  1  0.55550600  0.12226700  0.58362500  1
  H  H62  1  0.05550600  0.37773300  0.58362500  1
  H  H63  1  0.94449400  0.62226700  0.08362500  1
  H  H64  1  0.51791000  0.95597600  0.59063800  1
  H  H65  1  0.48209000  0.04402400  0.09063800  1
  H  H66  1  0.98209000  0.45597600  0.09063800  1
  H  H67  1  0.01791000  0.54402400  0.59063800  1
  H  H68  1  0.53629400  0.86355300  0.57276100  1
  H  H69  1  0.46370600  0.13644700  0.07276100  1
  H  H70  1  0.96370600  0.36355300  0.07276100  1
  H  H71  1  0.03629400  0.63644700  0.57276100  1
  H  H72  1  0.48234100  0.90007300  0.74829400  1
  H  H73  1  0.51765900  0.09992700  0.24829400  1
  H  H74  1  0.01765900  0.40007300  0.24829400  1
  H  H75  1  0.98234100  0.59992700  0.74829400  1
  H  H76  1  0.62814100  0.40372200  0.79496400  1
  H  H77  1  0.37185900  0.59627800  0.29496400  1
  H  H78  1  0.87185900  0.90372200  0.29496400  1
  H  H79  1  0.12814100  0.09627800  0.79496400  1
  H  H80  1  0.59975500  0.35079200  0.62774800  1
  H  H81  1  0.40024500  0.64920800  0.12774800  1
  H  H82  1  0.90024500  0.85079200  0.12774800  1
  H  H83  1  0.09975500  0.14920800  0.62774800  1
  H  H84  1  0.51950800  0.34122900  0.79869100  1
  H  H85  1  0.48049200  0.65877100  0.29869100  1
  H  H86  1  0.98049200  0.84122900  0.29869100  1
  H  H87  1  0.01950800  0.15877100  0.79869100  1
  H  H88  1  0.49753900  0.38117100  0.29165100  1
  H  H89  1  0.50246100  0.61882900  0.79165100  1
  H  H90  1  0.00246100  0.88117100  0.79165100  1
  H  H91  1  0.99753900  0.11882900  0.29165100  1
  H  H92  1  0.56164900  0.38790200  0.10505900  1
  H  H93  1  0.43835100  0.61209800  0.60505900  1
  H  H94  1  0.93835100  0.88790200  0.60505900  1
  H  H95  1  0.06164900  0.11209800  0.10505900  1
  H  H96  1  0.62885900  0.34249200  0.25969700  1
  H  H97  1  0.37114100  0.65750800  0.75969700  1
  H  H98  1  0.87114100  0.84249200  0.75969700  1
  H  H99  1  0.12885900  0.15750800  0.25969700  1
  H  H100  1  0.64706200  0.87176300  0.27310900  1
  H  H101  1  0.35293800  0.12823700  0.77310900  1
  H  H102  1  0.85293800  0.37176300  0.77310900  1
  H  H103  1  0.14706200  0.62823700  0.27310900  1
  H  H104  1  0.61609600  0.93120400  0.11868700  1
  H  H105  1  0.38390400  0.06879600  0.61868700  1
  H  H106  1  0.88390400  0.43120400  0.61868700  1
  H  H107  1  0.11609600  0.56879600  0.11868700  1
  H  H108  1  0.53946600  0.93487200  0.29474500  1
  H  H109  1  0.46053400  0.06512800  0.79474500  1
  H  H110  1  0.96053400  0.43487200  0.79474500  1
  H  H111  1  0.03946600  0.56512800  0.29474500  1
  C  C112  1  0.53914900  0.90799800  0.65219700  1
  C  C113  1  0.46085100  0.09200200  0.15219700  1
  C  C114  1  0.96085100  0.40799800  0.15219700  1
  C  C115  1  0.03914900  0.59200200  0.65219700  1
  C  C116  1  0.56430700  0.37840200  0.72661400  1
  C  C117  1  0.43569300  0.62159800  0.22661400  1
  C  C118  1  0.93569300  0.87840200  0.22661400  1
  C  C119  1  0.06430700  0.12159800  0.72661400  1
  C  C120  1  0.55021100  0.35510500  0.20735100  1
  C  C121  1  0.44978900  0.64489500  0.70735100  1
  C  C122  1  0.94978900  0.85510500  0.70735100  1
  C  C123  1  0.05021100  0.14489500  0.20735100  1
  C  C124  1  0.58210100  0.90045400  0.21387000  1
  C  C125  1  0.41789900  0.09954600  0.71387000  1
  C  C126  1  0.91789900  0.40045400  0.71387000  1
  C  C127  1  0.08210100  0.59954600  0.21387000  1
  N  N128  1  0.65167000  0.91451300  0.71551500  1
  N  N129  1  0.34833000  0.08548700  0.21551500  1
  N  N130  1  0.84833000  0.41451300  0.21551500  1
  N  N131  1  0.15167000  0.58548700  0.71551500  1
  N  N132  1  0.48719000  0.43248000  0.66994800  1
  N  N133  1  0.51281000  0.56752000  0.16994800  1
  N  N134  1  0.01281000  0.93248000  0.16994800  1
  N  N135  1  0.98719000  0.06752000  0.66994800  1
  N  N136  1  0.49751000  0.28819400  0.16150400  1
  N  N137  1  0.50249000  0.71180600  0.66150400  1
  N  N138  1  0.00249000  0.78819400  0.66150400  1
  N  N139  1  0.99751000  0.21180600  0.16150400  1
  N  N140  1  0.50242300  0.84980400  0.14938900  1
  N  N141  1  0.49757700  0.15019600  0.64938900  1
  N  N142  1  0.99757700  0.34980400  0.64938900  1
  N  N143  1  0.00242300  0.65019600  0.14938900  1
  O  O144  1  0.67178800  0.02322200  0.91242600  1
  O  O145  1  0.32821200  0.97677800  0.41242600  1
  O  O146  1  0.82821200  0.52322200  0.41242600  1
  O  O147  1  0.17178800  0.47677800  0.91242600  1
  O  O148  1  0.78652100  0.28949200  0.01534800  1
  O  O149  1  0.21347900  0.71050800  0.51534800  1
  O  O150  1  0.71347900  0.78949200  0.51534800  1
  O  O151  1  0.28652100  0.21050800  0.01534800  1
  O  O152  1  0.80582700  0.14557900  0.96736900  1
  O  O153  1  0.19417300  0.85442100  0.46736900  1
  O  O154  1  0.69417300  0.64557900  0.46736900  1
  O  O155  1  0.30582700  0.35442100  0.96736900  1
  O  O156  1  0.76174300  0.04399400  0.20896600  1
  O  O157  1  0.23825700  0.95600600  0.70896600  1
  O  O158  1  0.73825700  0.54399400  0.70896600  1
  O  O159  1  0.26174300  0.45600600  0.20896600  1
  O  O160  1  0.89543700  0.00919000  0.94762600  1
  O  O161  1  0.10456300  0.99081000  0.44762600  1
  O  O162  1  0.60456300  0.50919000  0.44762600  1
  O  O163  1  0.39543700  0.49081000  0.94762600  1
  O  O164  1  0.60110700  0.22147600  0.91692900  1
  O  O165  1  0.39889300  0.77852400  0.41692900  1
  O  O166  1  0.89889300  0.72147600  0.41692900  1
  O  O167  1  0.10110700  0.27852400  0.91692900  1
  O  O168  1  0.78458300  0.24086800  0.70678500  1
  O  O169  1  0.21541700  0.75913200  0.20678500  1
  O  O170  1  0.71541700  0.74086800  0.20678500  1
  O  O171  1  0.28458300  0.25913200  0.70678500  1
  O  O172  1  0.86451300  0.28457000  0.41447400  1
  O  O173  1  0.13548700  0.71543000  0.91447400  1
  O  O174  1  0.63548700  0.78457000  0.91447400  1
  O  O175  1  0.36451300  0.21543000  0.41447400  1
  O  O176  1  0.65264100  0.23674200  0.43677400  1
  O  O177  1  0.34735900  0.76325800  0.93677400  1
  O  O178  1  0.84735900  0.73674200  0.93677400  1
  O  O179  1  0.15264100  0.26325800  0.43677400  1
  O  O180  1  0.82755800  0.13554500  0.46933300  1
  O  O181  1  0.17244200  0.86445500  0.96933300  1
  O  O182  1  0.67244200  0.63554500  0.96933300  1
  O  O183  1  0.32755800  0.36445500  0.46933300  1
  O  O184  1  0.81280900  0.98770800  0.50346700  1
  O  O185  1  0.18719100  0.01229200  0.00346700  1
  O  O186  1  0.68719100  0.48770800  0.00346700  1
  O  O187  1  0.31280900  0.51229200  0.50346700  1
  O  O188  1  0.62287800  0.06136100  0.47798300  1
  O  O189  1  0.37712200  0.93863900  0.97798300  1
  O  O190  1  0.87712200  0.56136100  0.97798300  1
  O  O191  1  0.12287800  0.43863900  0.47798300  1
