# generated using pymatgen
data_Ag2Te
_symmetry_space_group_name_H-M   'P 1'
_cell_length_a   16.24211489
_cell_length_b   16.43273039
_cell_length_c   55.00260655
_cell_angle_alpha   52.47896601
_cell_angle_beta   53.00997021
_cell_angle_gamma   57.45431254
_symmetry_Int_Tables_number   1
_chemical_formula_structural   Ag2Te
_chemical_formula_sum   'Ag8 Te4'
_cell_volume   8952.70026454
_cell_formula_units_Z   4
loop_
 _symmetry_equiv_pos_site_id
 _symmetry_equiv_pos_as_xyz
  1  'x, y, z'
loop_
 _atom_site_type_symbol
 _atom_site_label
 _atom_site_symmetry_multiplicity
 _atom_site_fract_x
 _atom_site_fract_y
 _atom_site_fract_z
 _atom_site_occupancy
  Ag  Ag0  1  0.69980822  0.50006902  0.12497814  1
  Ag  Ag1  1  0.50269782  0.30275596  0.37500597  1
  Ag  Ag2  1  0.75001449  0.74991554  0.18753076  1
  Ag  Ag3  1  0.69728599  0.49736247  0.37496772  1
  Ag  Ag4  1  0.30098920  0.49989134  0.62504546  1
  Ag  Ag5  1  0.69896755  0.49998739  0.62503334  1
  Ag  Ag6  1  0.51706890  0.68318114  0.87496092  1
  Ag  Ag7  1  0.68321446  0.51701145  0.87496106  1
  Te  Te8  1  0.00010264  0.00001940  0.99991762  1
  Te  Te9  1  0.99989098  0.99988009  0.25008477  1
  Te  Te10  1  0.00011387  0.00008921  0.49993233  1
  Te  Te11  1  0.99984587  0.99983698  0.75008190  1
