# generated using pymatgen
data_Al17(BC3)6
_symmetry_space_group_name_H-M   'P 1'
_cell_length_a   5.82505400
_cell_length_b   5.82505422
_cell_length_c   16.14544900
_cell_angle_alpha   90.00000000
_cell_angle_beta   90.00000000
_cell_angle_gamma   119.99999873
_symmetry_Int_Tables_number   1
_chemical_formula_structural   Al17(BC3)6
_chemical_formula_sum   'Al17 B6 C18'
_cell_volume   474.43933937
_cell_formula_units_Z   1
loop_
 _symmetry_equiv_pos_site_id
 _symmetry_equiv_pos_as_xyz
  1  'x, y, z'
loop_
 _atom_site_type_symbol
 _atom_site_label
 _atom_site_symmetry_multiplicity
 _atom_site_fract_x
 _atom_site_fract_y
 _atom_site_fract_z
 _atom_site_occupancy
  Al  Al0  1  0.01626400  0.67111700  0.87677600  1
  Al  Al1  1  0.30445300  0.97970100  0.37616500  1
  Al  Al2  1  0.02029900  0.32475200  0.37616500  1
  Al  Al3  1  0.33333300  0.66666700  0.22839000  1
  Al  Al4  1  0.33333300  0.66666700  0.73334200  1
  Al  Al5  1  0.32888300  0.34514700  0.87677600  1
  Al  Al6  1  0.65485300  0.98373600  0.87677600  1
  Al  Al7  1  0.34514700  0.32888300  0.62322400  1
  Al  Al8  1  0.67524800  0.69554700  0.37616500  1
  Al  Al9  1  0.32475200  0.02029900  0.12383500  1
  Al  Al10  1  0.69554700  0.67524800  0.12383500  1
  Al  Al11  1  0.66666700  0.33333300  0.27161000  1
  Al  Al12  1  0.00000000  0.00000000  0.75000000  1
  Al  Al13  1  0.66666700  0.33333300  0.76665800  1
  Al  Al14  1  0.98373600  0.65485300  0.62322400  1
  Al  Al15  1  0.67111700  0.01626400  0.62322400  1
  Al  Al16  1  0.97970100  0.30445300  0.12383500  1
  B  B17  1  0.33333300  0.66666700  0.50686800  1
  B  B18  1  0.33333300  0.66666700  0.01312000  1
  B  B19  1  0.00000000  0.00000000  0.98939800  1
  B  B20  1  0.00000000  0.00000000  0.51060200  1
  B  B21  1  0.66666700  0.33333300  0.48688000  1
  B  B22  1  0.66666700  0.33333300  0.99313200  1
  C  C23  1  0.00000000  0.66297800  0.75000000  1
  C  C24  1  0.33333300  0.66666700  0.59690000  1
  C  C25  1  0.33333300  0.66666700  0.41806000  1
  C  C26  1  0.33333300  0.66666700  0.10256700  1
  C  C27  1  0.33333300  0.66666700  0.92403300  1
  C  C28  1  0.00000000  0.00000000  0.59950400  1
  C  C29  1  0.00000000  0.00000000  0.90049600  1
  C  C30  1  0.33702200  0.33702200  0.75000000  1
  C  C31  1  0.66297800  0.00000000  0.75000000  1
  C  C32  1  0.31410300  0.00000000  0.25000000  1
  C  C33  1  0.68589700  0.68589700  0.25000000  1
  C  C34  1  0.00000000  0.00000000  0.42254700  1
  C  C35  1  0.66666700  0.33333300  0.08194000  1
  C  C36  1  0.66666700  0.33333300  0.57596700  1
  C  C37  1  0.66666700  0.33333300  0.39743300  1
  C  C38  1  0.66666700  0.33333300  0.90310000  1
  C  C39  1  0.00000000  0.31410300  0.25000000  1
  C  C40  1  0.00000000  0.00000000  0.07745300  1
