# generated using pymatgen
data_Al2O3
_symmetry_space_group_name_H-M   'P 1'
_cell_length_a   6.19252509
_cell_length_b   7.44454642
_cell_length_c   21.28824006
_cell_angle_alpha   96.23991267
_cell_angle_beta   92.71464444
_cell_angle_gamma   114.60422980
_symmetry_Int_Tables_number   1
_chemical_formula_structural   Al2O3
_chemical_formula_sum   'Al32 O48'
_cell_volume   882.33795170
_cell_formula_units_Z   16
loop_
 _symmetry_equiv_pos_site_id
 _symmetry_equiv_pos_as_xyz
  1  'x, y, z'
loop_
 _atom_site_type_symbol
 _atom_site_label
 _atom_site_symmetry_multiplicity
 _atom_site_fract_x
 _atom_site_fract_y
 _atom_site_fract_z
 _atom_site_occupancy
  Al  Al0  1  0.42469800  0.90233000  0.18046000  1
  Al  Al1  1  0.24480600  0.38076900  0.56708500  1
  Al  Al2  1  0.19181100  0.47246800  0.94308400  1
  Al  Al3  1  0.53141300  0.52318900  0.77436100  1
  Al  Al4  1  0.84838900  0.24421700  0.20661500  1
  Al  Al5  1  0.93040000  0.52136500  0.60064900  1
  Al  Al6  1  0.41256600  0.89154000  0.41592400  1
  Al  Al7  1  0.62623100  0.66571300  0.10926500  1
  Al  Al8  1  0.61601900  0.87598800  0.90980800  1
  Al  Al9  1  0.23260600  0.08838600  0.29738300  1
  Al  Al10  1  0.23031700  0.90434800  0.58398700  1
  Al  Al11  1  0.22136700  0.06320700  0.95223100  1
  Al  Al12  1  0.59062800  0.75211800  0.62342600  1
  Al  Al13  1  0.38699300  0.08626000  0.83137200  1
  Al  Al14  1  0.37837700  0.35534400  0.19464800  1
  Al  Al15  1  0.33409700  0.16184100  0.48299100  1
  Al  Al16  1  0.72389700  0.60003400  0.50446700  1
  Al  Al17  1  0.96501300  0.73224800  0.86526000  1
  Al  Al18  1  0.90476700  0.67251600  0.23175400  1
  Al  Al19  1  0.10960900  0.10708600  0.09468000  1
  Al  Al20  1  0.73008700  0.52721200  0.98327100  1
  Al  Al21  1  0.95601300  0.88355000  0.40826800  1
  Al  Al22  1  0.95053600  0.69471200  0.71684100  1
  Al  Al23  1  0.67336100  0.39295100  0.38407600  1
  Al  Al24  1  0.64370400  0.20115200  0.69671300  1
  Al  Al25  1  0.74549100  0.05433700  0.51794000  1
  Al  Al26  1  0.01216700  0.41216300  0.79737300  1
  Al  Al27  1  0.62366000  0.18051400  0.06044600  1
  Al  Al28  1  0.73007400  0.03856500  0.32271000  1
  Al  Al29  1  0.18474100  0.41455600  0.40001000  1
  Al  Al30  1  0.79789700  0.95736400  0.78138300  1
  Al  Al31  1  0.04061700  0.52048900  0.09115500  1
  O  O32  1  0.03343000  0.55119600  0.00284900  1
  O  O33  1  0.97711900  0.49699900  0.17849400  1
  O  O34  1  0.88410600  0.28897900  0.36040100  1
  O  O35  1  0.81076100  0.43710700  0.67417100  1
  O  O36  1  0.18082000  0.89025600  0.22571000  1
  O  O37  1  0.02700400  0.67186100  0.53526200  1
  O  O38  1  0.29485400  0.89176200  0.89726200  1
  O  O39  1  0.35121400  0.70262400  0.11328600  1
  O  O40  1  0.23253100  0.64996000  0.39004500  1
  O  O41  1  0.26276400  0.53641800  0.76279100  1
  O  O42  1  0.95586400  0.25509300  0.07343100  1
  O  O43  1  0.93955400  0.92147800  0.32312600  1
  O  O44  1  0.03751700  0.80852600  0.64968600  1
  O  O45  1  0.13304100  0.25469900  0.24239400  1
  O  O46  1  0.23193900  0.13619700  0.56480300  1
  O  O47  1  0.19858500  0.24530700  0.90695700  1
  O  O48  1  0.67917800  0.00156500  0.23776500  1
  O  O49  1  0.91439300  0.87630100  0.93902400  1
  O  O50  1  0.71821400  0.83472600  0.54811600  1
  O  O51  1  0.50568900  0.62276100  0.96969700  1
  O  O52  1  0.60229400  0.50918900  0.57989300  1
  O  O53  1  0.35894100  0.31202200  0.35563700  1
  O  O54  1  0.61424100  0.61161700  0.18944400  1
  O  O55  1  0.24843500  0.37568900  0.47977500  1
  O  O56  1  0.63815200  0.68514000  0.84952100  1
  O  O57  1  0.57205600  0.24882400  0.94420300  1
  O  O58  1  0.47038600  0.24698700  0.76594100  1
  O  O59  1  0.61619300  0.32156100  0.24886600  1
  O  O60  1  0.75874900  0.64262600  0.42106200  1
  O  O61  1  0.62997800  0.32462700  0.46424300  1
  O  O62  1  0.86364100  0.56777500  0.78485600  1
  O  O63  1  0.30368400  0.09026900  0.03514800  1
  O  O64  1  0.59981200  0.10873200  0.13894300  1
  O  O65  1  0.68770600  0.46262300  0.06639900  1
  O  O66  1  0.89140300  0.86118300  0.09781600  1
  O  O67  1  0.43827000  0.99940200  0.34075000  1
  O  O68  1  0.67717400  0.74545000  0.71795500  1
  O  O69  1  0.42979400  0.96722700  0.50331500  1
  O  O70  1  0.64281900  0.02595000  0.84008800  1
  O  O71  1  0.51862400  0.98527400  0.63925700  1
  O  O72  1  0.68424800  0.12323900  0.97256600  1
  O  O73  1  0.74350400  0.98571500  0.43023400  1
  O  O74  1  0.86841700  0.17692500  0.74727000  1
  O  O75  1  0.91520600  0.28271600  0.56481700  1
  O  O76  1  0.01617500  0.50400100  0.88024700  1
  O  O77  1  0.75708600  0.51525200  0.29271000  1
  O  O78  1  0.27348800  0.59096000  0.61954800  1
  O  O79  1  0.07359800  0.93168100  0.79958700  1
