# generated using pymatgen
data_Ag2Se
_symmetry_space_group_name_H-M   'P 1'
_cell_length_a   10.17579519
_cell_length_b   11.09443060
_cell_length_c   28.26444959
_cell_angle_alpha   124.24490651
_cell_angle_beta   104.00603449
_cell_angle_gamma   101.81105252
_symmetry_Int_Tables_number   1
_chemical_formula_structural   Ag2Se
_chemical_formula_sum   'Ag6 Se3'
_cell_volume   2316.66715920
_cell_formula_units_Z   3
loop_
 _symmetry_equiv_pos_site_id
 _symmetry_equiv_pos_as_xyz
  1  'x, y, z'
loop_
 _atom_site_type_symbol
 _atom_site_label
 _atom_site_symmetry_multiplicity
 _atom_site_fract_x
 _atom_site_fract_y
 _atom_site_fract_z
 _atom_site_occupancy
  Ag  Ag0  1  0.51857743  0.49864017  0.67192841  1
  Ag  Ag1  1  0.73297661  0.50074699  0.74407897  1
  Ag  Ag2  1  0.50061311  0.50058886  0.33365069  1
  Ag  Ag3  1  0.75017290  0.25128467  0.50086933  1
  Ag  Ag4  1  0.62533704  0.99689862  0.12363686  1
  Ag  Ag5  1  0.62542682  0.37621827  0.00075454  1
  Se  Se6  1  0.99915702  0.99873990  -0.00009781  1
  Se  Se7  1  0.99874740  0.00038276  0.66677435  1
  Se  Se8  1  0.99899167  0.00149977  0.33340466  1
