# generated using pymatgen
data_AlZn2Sb(HO)12
_symmetry_space_group_name_H-M   'P 1'
_cell_length_a   5.73115400
_cell_length_b   5.73115404
_cell_length_c   32.85830000
_cell_angle_alpha   90.00000000
_cell_angle_beta   90.00000000
_cell_angle_gamma   119.99999979
_symmetry_Int_Tables_number   1
_chemical_formula_structural   AlZn2Sb(HO)12
_chemical_formula_sum   'Al3 Zn6 Sb3 H36 O36'
_cell_volume   934.67339892
_cell_formula_units_Z   3
loop_
 _symmetry_equiv_pos_site_id
 _symmetry_equiv_pos_as_xyz
  1  'x, y, z'
loop_
 _atom_site_type_symbol
 _atom_site_label
 _atom_site_symmetry_multiplicity
 _atom_site_fract_x
 _atom_site_fract_y
 _atom_site_fract_z
 _atom_site_occupancy
  Al  Al0  1  0.00000000  0.00000000  0.49042300  1
  Al  Al1  1  0.00000000  0.00000000  0.83561500  1
  Al  Al2  1  0.66666700  0.33333300  0.07139500  1
  Zn  Zn3  1  0.00000000  0.00000000  0.21840100  1
  Zn  Zn4  1  0.33333300  0.66666700  0.22181900  1
  Zn  Zn5  1  0.33333300  0.66666700  0.88150100  1
  Zn  Zn6  1  0.33333300  0.66666700  0.52684200  1
  Zn  Zn7  1  0.66666700  0.33333300  0.44079300  1
  Zn  Zn8  1  0.66666700  0.33333300  0.80141500  1
  Sb  Sb9  1  0.00000000  0.00000000  0.06525500  1
  Sb  Sb10  1  0.00000000  0.00000000  0.32662400  1
  Sb  Sb11  1  0.00000000  0.00000000  0.66642600  1
  H  H12  1  0.17891800  0.32565900  0.52458200  1
  H  H13  1  0.18606100  0.32591500  0.85699500  1
  H  H14  1  0.17091000  0.33585400  0.20443000  1
  H  H15  1  0.43376000  0.91836900  0.02958100  1
  H  H16  1  0.39580200  0.90166900  0.37346100  1
  H  H17  1  0.45462600  0.98852700  0.71993100  1
  H  H18  1  0.08163100  0.51539000  0.02958100  1
  H  H19  1  0.09833100  0.49413300  0.37346100  1
  H  H20  1  0.01147300  0.46610000  0.71993100  1
  H  H21  1  0.14674100  0.82108200  0.52458200  1
  H  H22  1  0.13985400  0.81393900  0.85699500  1
  H  H23  1  0.16494400  0.82909000  0.20443000  1
  H  H24  1  0.67434100  0.85325900  0.52458200  1
  H  H25  1  0.67408500  0.86014600  0.85699500  1
  H  H26  1  0.66414600  0.83505600  0.20443000  1
  H  H27  1  0.48461000  0.56624000  0.02958100  1
  H  H28  1  0.53390000  0.54537400  0.71993100  1
  H  H29  1  0.50586700  0.60419800  0.37346100  1
  H  H30  1  0.46742700  0.41566900  0.28196900  1
  H  H31  1  0.46608100  0.45799300  0.61288000  1
  H  H32  1  0.45895400  0.38008200  0.96203900  1
  H  H33  1  0.32684800  0.14160400  0.80365600  1
  H  H34  1  0.32835100  0.98642800  0.12257700  1
  H  H35  1  0.32667100  0.13747000  0.46949100  1
  H  H36  1  0.85839600  0.18524600  0.80365600  1
  H  H37  1  0.01357200  0.34192300  0.12257700  1
  H  H38  1  0.86253000  0.18920100  0.46949100  1
  H  H39  1  0.94824200  0.53257300  0.28196900  1
  H  H40  1  0.99191200  0.53391900  0.61288000  1
  H  H41  1  0.92112800  0.54104600  0.96203900  1
  H  H42  1  0.54200700  0.00808800  0.61288000  1
  H  H43  1  0.58433100  0.05175800  0.28196900  1
  H  H44  1  0.61991800  0.07887200  0.96203900  1
  H  H45  1  0.81475400  0.67315200  0.80365600  1
  H  H46  1  0.65807700  0.67164900  0.12257700  1
  H  H47  1  0.81079900  0.67332900  0.46949100  1
  O  O48  1  0.66010100  0.83994200  0.70055000  1
  O  O49  1  0.86803200  0.20898700  0.10576300  1
  O  O50  1  0.72464000  0.05918600  0.40682800  1
  O  O51  1  0.97101700  0.57861800  0.04249400  1
  O  O52  1  0.02572700  0.61558000  0.36718400  1
  O  O53  1  0.96879200  0.61187400  0.72747400  1
  O  O54  1  0.42138200  0.39240000  0.04249400  1
  O  O55  1  0.38442000  0.41014600  0.36718400  1
  O  O56  1  0.38812600  0.35691800  0.72747400  1
  O  O57  1  0.16005800  0.82015800  0.70055000  1
  O  O58  1  0.79101300  0.65904400  0.10576300  1
  O  O59  1  0.94081400  0.66545300  0.40682800  1
  O  O60  1  0.17984200  0.33989900  0.70055000  1
  O  O61  1  0.34095600  0.13196800  0.10576300  1
  O  O62  1  0.33454700  0.27536000  0.40682800  1
  O  O63  1  0.64308200  0.03120800  0.72747400  1
  O  O64  1  0.60760000  0.02898300  0.04249400  1
  O  O65  1  0.58985400  0.97427300  0.36718400  1
  O  O66  1  0.37851600  0.93023600  0.28142900  1
  O  O67  1  0.35483600  0.96893900  0.60537900  1
  O  O68  1  0.42530600  0.02003100  0.95829100  1
  O  O69  1  0.81949200  0.65941700  0.63269500  1
  O  O70  1  0.61597400  0.61522500  0.91637900  1
  O  O71  1  0.83735900  0.71130400  0.27844000  1
  O  O72  1  0.83992600  0.18050800  0.63269500  1
  O  O73  1  0.99925000  0.38402600  0.91637900  1
  O  O74  1  0.87394400  0.16264100  0.27844000  1
  O  O75  1  0.55172000  0.62148400  0.28142900  1
  O  O76  1  0.61410400  0.64516400  0.60537900  1
  O  O77  1  0.59472600  0.57469400  0.95829100  1
  O  O78  1  0.06976400  0.44828000  0.28142900  1
  O  O79  1  0.03106100  0.38589600  0.60537900  1
  O  O80  1  0.97996900  0.40527400  0.95829100  1
  O  O81  1  0.34058300  0.16007400  0.63269500  1
  O  O82  1  0.38477500  0.00075000  0.91637900  1
  O  O83  1  0.28869600  0.12605600  0.27844000  1
