# generated using pymatgen
data_As12S13
_symmetry_space_group_name_H-M   'P 1'
_cell_length_a   7.93453575
_cell_length_b   9.94696037
_cell_length_c   27.88110292
_cell_angle_alpha   84.81811205
_cell_angle_beta   52.61877386
_cell_angle_gamma   84.64643789
_symmetry_Int_Tables_number   1
_chemical_formula_structural   As12S13
_chemical_formula_sum   'As24 S26'
_cell_volume   1739.34424510
_cell_formula_units_Z   2
loop_
 _symmetry_equiv_pos_site_id
 _symmetry_equiv_pos_as_xyz
  1  'x, y, z'
loop_
 _atom_site_type_symbol
 _atom_site_label
 _atom_site_symmetry_multiplicity
 _atom_site_fract_x
 _atom_site_fract_y
 _atom_site_fract_z
 _atom_site_occupancy
  As  As0  1  0.13903669  0.70218718  0.99439659  1
  As  As1  1  0.81103469  0.40687297  0.17206348  1
  As  As2  1  0.16727349  0.46107909  0.52846803  1
  As  As3  1  0.54918201  0.29933034  0.28506743  1
  As  As4  1  0.25334415  0.27729603  0.81884330  1
  As  As5  1  0.83406808  0.74557961  0.10143595  1
  As  As6  1  0.44088370  0.31099446  0.65835263  1
  As  As7  1  0.57494150  0.59544863  0.37737736  1
  As  As8  1  0.53498143  0.40409016  0.91941541  1
  As  As9  1  0.63502219  0.83635736  0.33523796  1
  As  As10  1  0.56463574  0.54674868  0.26045681  1
  As  As11  1  0.63978369  0.84634006  0.68165186  1
  As  As12  1  0.80868543  0.60413553  0.59641690  1
  As  As13  1  0.51010614  0.90957223  0.58205877  1
  As  As14  1  0.88794784  0.80819128  0.51668216  1
  As  As15  1  0.76798895  0.98664741  0.07335693  1
  As  As16  1  0.32839092  0.49000235  0.57805729  1
  As  As17  1  0.96551495  0.42359463  0.89880912  1
  As  As18  1  0.14960335  0.33056363  0.99001003  1
  As  As19  1  0.36736249  0.28102237  0.23980162  1
  As  As20  1  0.34660757  0.56269876  0.68608380  1
  As  As21  1  0.92297408  0.04239039  0.37174822  1
  As  As22  1  0.91839508  0.47875565  0.23375469  1
  As  As23  1  0.77894664  0.99644324  0.72313651  1
  S  S24  1  0.20668191  0.13849688  0.03007370  1
  S  S25  1  0.27719490  0.50031301  0.01591984  1
  S  S26  1  0.08140792  -0.00915338  0.41113428  1
  S  S27  1  0.14641840  0.32313393  0.39013094  1
  S  S28  1  0.03061931  0.87173469  0.71290546  1
  S  S29  1  -0.01973166  0.47790568  0.74364365  1
  S  S30  1  0.41078297  0.04875221  0.23084162  1
  S  S31  1  0.41961154  0.02108451  0.15690724  1
  S  S32  1  0.71420630  0.27011903  0.94531044  1
  S  S33  1  0.52648789  0.10802515  0.52960832  1
  S  S34  1  0.55745805  0.07095430  0.45416223  1
  S  S35  1  0.36223301  0.64781386  0.47902158  1
  S  S36  1  0.29108269  0.16861754  0.74391656  1
  S  S37  1  0.34656140  0.11152525  0.86352788  1
  S  S38  1  0.81082162  0.64608945  0.03432906  1
  S  S39  1  0.36966162  0.58906640  0.76419068  1
  S  S40  1  0.44219730  0.93933764  0.81829508  1
  S  S41  1  0.52647164  0.41957704  0.76982958  1
  S  S42  1  0.85660606  0.71385343  0.34803298  1
  S  S43  1  0.02423361  0.29760164  0.34735239  1
  S  S44  1  0.07125385  0.69039917  0.19651281  1
  S  S45  1  0.91993651  0.69968928  0.64297910  1
  S  S46  1  0.12232663  0.35667613  0.67026048  1
  S  S47  1  0.77990820  0.96936576  0.58529134  1
  S  S48  1  0.82079090  0.82504921  0.22895696  1
  S  S49  1  0.90846963  0.10083114  0.10848488  1
