# generated using pymatgen
data_Al2O3
_symmetry_space_group_name_H-M   'P 1'
_cell_length_a   3.08948500
_cell_length_b   7.37556666
_cell_length_c   15.21597386
_cell_angle_alpha   89.72437262
_cell_angle_beta   90.00000000
_cell_angle_gamma   90.00000000
_symmetry_Int_Tables_number   1
_chemical_formula_structural   Al2O3
_chemical_formula_sum   'Al12 O18'
_cell_volume   346.71785851
_cell_formula_units_Z   6
loop_
 _symmetry_equiv_pos_site_id
 _symmetry_equiv_pos_as_xyz
  1  'x, y, z'
loop_
 _atom_site_type_symbol
 _atom_site_label
 _atom_site_symmetry_multiplicity
 _atom_site_fract_x
 _atom_site_fract_y
 _atom_site_fract_z
 _atom_site_occupancy
  Al  Al0  1  0.00000000  0.00375800  0.99333400  1
  Al  Al1  1  0.00000000  0.99819800  0.50296200  1
  Al  Al2  1  0.50000000  0.23660400  0.09145700  1
  Al  Al3  1  0.50000000  0.14943800  0.63908000  1
  Al  Al4  1  0.50000000  0.17440800  0.33013700  1
  Al  Al5  1  0.50000000  0.20518000  0.82471500  1
  Al  Al6  1  0.50000000  0.81327700  0.17872600  1
  Al  Al7  1  0.50000000  0.76669700  0.67340800  1
  Al  Al8  1  0.50000000  0.82386800  0.86400900  1
  Al  Al9  1  0.50000000  0.79139900  0.37001200  1
  Al  Al10  1  0.00000000  0.48828300  0.24177800  1
  Al  Al11  1  0.00000000  0.48569600  0.75115200  1
  O  O12  1  0.00000000  0.24158700  0.03706900  1
  O  O13  1  0.00000000  0.69756800  0.16314000  1
  O  O14  1  0.00000000  0.18775200  0.58628300  1
  O  O15  1  0.50000000  0.95590600  0.27520200  1
  O  O16  1  0.50000000  0.98564500  0.75351900  1
  O  O17  1  0.50000000  0.07920500  0.43793600  1
  O  O18  1  0.50000000  0.05740900  0.92092800  1
  O  O19  1  0.50000000  0.36975900  0.18354800  1
  O  O20  1  0.50000000  0.97535200  0.08279100  1
  O  O21  1  0.50000000  0.33879400  0.71469500  1
  O  O22  1  0.50000000  0.60382800  0.29641500  1
  O  O23  1  0.50000000  0.63661200  0.78974400  1
  O  O24  1  0.50000000  0.91750200  0.58118700  1
  O  O25  1  0.00000000  0.28856700  0.31848600  1
  O  O26  1  0.00000000  0.79226000  0.42877900  1
  O  O27  1  0.00000000  0.31901800  0.84377500  1
  O  O28  1  0.00000000  0.64946600  0.65838100  1
  O  O29  1  0.00000000  0.79366500  0.92425100  1
