# generated using pymatgen
data_Al8P8H34N7O36F5
_symmetry_space_group_name_H-M   'P 1'
_cell_length_a   9.56350930
_cell_length_b   9.68169007
_cell_length_c   9.96954548
_cell_angle_alpha   89.92600313
_cell_angle_beta   89.92214940
_cell_angle_gamma   89.98184140
_symmetry_Int_Tables_number   1
_chemical_formula_structural   Al8P8H34N7O36F5
_chemical_formula_sum   'Al8 P8 H34 N7 O36 F5'
_cell_volume   923.08785008
_cell_formula_units_Z   1
loop_
 _symmetry_equiv_pos_site_id
 _symmetry_equiv_pos_as_xyz
  1  'x, y, z'
loop_
 _atom_site_type_symbol
 _atom_site_label
 _atom_site_symmetry_multiplicity
 _atom_site_fract_x
 _atom_site_fract_y
 _atom_site_fract_z
 _atom_site_occupancy
  Al  Al0  1  0.10456800  0.25815500  0.35949600  1
  Al  Al1  1  0.15639900  0.47085300  0.82350000  1
  Al  Al2  1  0.34445400  0.52805400  0.32375100  1
  Al  Al3  1  0.39001800  0.73740800  0.86194400  1
  Al  Al4  1  0.60809700  0.23882600  0.63474100  1
  Al  Al5  1  0.65560700  0.02767000  0.17334800  1
  Al  Al6  1  0.84515000  0.97465100  0.67055400  1
  Al  Al7  1  0.89007300  0.76196800  0.13622500  1
  P  P8  1  0.07230700  0.79051200  0.85359500  1
  P  P9  1  0.07677500  0.48648200  0.13934500  1
  P  P10  1  0.41629000  0.51306000  0.64059400  1
  P  P11  1  0.42550500  0.21532400  0.35437400  1
  P  P12  1  0.57094000  0.71539500  0.14394900  1
  P  P13  1  0.57769400  0.01632000  0.85672700  1
  P  P14  1  0.92183500  0.98270200  0.35790300  1
  P  P15  1  0.92659300  0.29075300  0.64172600  1
  H  H16  1  0.00408200  0.09710300  0.05680400  1
  H  H17  1  0.02923300  0.25701000  0.99215400  1
  H  H18  1  0.06852700  0.66298100  0.62907200  1
  H  H19  1  0.14213500  0.68630500  0.46507400  1
  H  H20  1  0.14874400  0.03055500  0.69764700  1
  H  H21  1  0.17457900  0.98236900  0.22500300  1
  H  H22  1  0.24165100  0.89401100  0.09042400  1
  H  H23  1  0.23769000  0.17190900  0.74946300  1
  H  H24  1  0.25498200  0.82938700  0.24851500  1
  H  H25  1  0.25985300  0.11175300  0.59043700  1
  H  H26  1  0.28849900  0.56428100  0.00960000  1
  H  H27  1  0.32336500  0.02100100  0.72463500  1
  H  H28  1  0.35020800  0.96980500  0.20305700  1
  H  H29  1  0.36881500  0.30498800  0.95838400  1
  H  H30  1  0.45218900  0.36201200  0.09998200  1
  H  H31  1  0.48124500  0.73423000  0.49911200  1
  H  H32  1  0.49268700  0.89782600  0.55663200  1
  H  H33  1  0.50790600  0.40157900  0.94033000  1
  H  H34  1  0.52614700  0.23972000  0.00295800  1
  H  H35  1  0.54920700  0.85761600  0.39770300  1
  H  H36  1  0.63605800  0.80712700  0.54086500  1
  H  H37  1  0.64934000  0.47337700  0.30198900  1
  H  H38  1  0.67385800  0.52203100  0.77071300  1
  H  H39  1  0.70824600  0.06357400  0.48789100  1
  H  H40  1  0.74010700  0.60809800  0.90651800  1
  H  H41  1  0.73878100  0.33173800  0.25160200  1
  H  H42  1  0.76286300  0.67214900  0.74843000  1
  H  H43  1  0.75963300  0.39396800  0.41036400  1
  H  H44  1  0.79040900  0.93706000  0.98793100  1
  H  H45  1  0.82368200  0.48379300  0.27555800  1
  H  H46  1  0.84828600  0.52635400  0.79705000  1
  H  H47  1  0.86910000  0.19816500  0.03817700  1
  H  H48  1  0.95075800  0.13699600  0.89678400  1
  H  H49  1  0.02885100  0.57037400  0.49248600  1
  N  N50  1  0.24277000  0.08332600  0.68896900  1
  N  N51  1  0.25534400  0.91915700  0.19032700  1
  N  N52  1  0.46529600  0.32802800  0.00175000  1
  N  N53  1  0.53835400  0.82490200  0.49669500  1
  N  N54  1  0.74322300  0.42090400  0.31126000  1
  N  N55  1  0.75597900  0.58198500  0.80734500  1
  N  N56  1  0.96463500  0.17171800  0.99447400  1
  O  O57  1  0.00367400  0.90446900  0.76993000  1
  O  O58  1  0.99623700  0.76527200  0.98628300  1
  O  O59  1  0.02714300  0.09081900  0.29865400  1
  O  O60  1  0.05437900  0.66382200  0.52078100  1
  O  O61  1  0.04879400  0.34462000  0.20901600  1
  O  O62  1  0.05354000  0.46556000  0.98768100  1
  O  O63  1  0.07618900  0.65381300  0.76897700  1
  O  O64  1  0.22564000  0.83488200  0.88578300  1
  O  O65  1  0.23047100  0.53216300  0.16550700  1
  O  O66  1  0.26688000  0.46467800  0.67009400  1
  O  O67  1  0.27087900  0.17076600  0.38290300  1
  O  O68  1  0.30190300  0.56924500  0.91114000  1
  O  O69  1  0.42529900  0.35499500  0.27875600  1
  O  O70  1  0.43907500  0.53631400  0.48876700  1
  O  O71  1  0.44502600  0.65644900  0.70816400  1
  O  O72  1  0.47176700  0.90884900  0.80080100  1
  O  O73  1  0.49744500  0.22967800  0.49096800  1
  O  O74  1  0.49476000  0.10368200  0.26791300  1
  O  O75  1  0.49799200  0.60661600  0.23190000  1
  O  O76  1  0.50106200  0.72763300  0.00581200  1
  O  O77  1  0.52857700  0.41074000  0.69539700  1
  O  O78  1  0.54657000  0.15704100  0.78640700  1
  O  O79  1  0.55383500  0.03882900  0.00808600  1
  O  O80  1  0.56896100  0.85538400  0.21811300  1
  O  O81  1  0.69477400  0.06970100  0.58639100  1
  O  O82  1  0.72452700  0.66680200  0.11951800  1
  O  O83  1  0.73236600  0.97425200  0.83177800  1
  O  O84  1  0.76746800  0.02709400  0.33177800  1
  O  O85  1  0.77210000  0.33542700  0.61452200  1
  O  O86  1  0.80413400  0.93136300  0.08629800  1
  O  O87  1  0.92988300  0.15022500  0.71485300  1
  O  O88  1  0.94678600  0.96924800  0.50883000  1
  O  O89  1  0.95295500  0.84370800  0.28662100  1
  O  O90  1  0.96980200  0.59102500  0.19624300  1
  O  O91  1  0.99838200  0.28388600  0.50347400  1
  O  O92  1  0.99427600  0.40200900  0.73058800  1
  F  F93  1  0.19540200  0.43063300  0.40233600  1
  F  F94  1  0.21765000  0.29510200  0.86829000  1
  F  F95  1  0.26428200  0.69729600  0.37054300  1
  F  F96  1  0.72087800  0.20314900  0.13562600  1
  F  F97  1  0.77861600  0.80036500  0.63753700  1
