# generated using pymatgen
data_Al2O3
_symmetry_space_group_name_H-M   'P 1'
_cell_length_a   5.84948789
_cell_length_b   6.13919752
_cell_length_c   19.43764546
_cell_angle_alpha   94.81617588
_cell_angle_beta   122.95488152
_cell_angle_gamma   120.30918217
_symmetry_Int_Tables_number   1
_chemical_formula_structural   Al2O3
_chemical_formula_sum   'Al16 O24'
_cell_volume   439.39897991
_cell_formula_units_Z   8
loop_
 _symmetry_equiv_pos_site_id
 _symmetry_equiv_pos_as_xyz
  1  'x, y, z'
loop_
 _atom_site_type_symbol
 _atom_site_label
 _atom_site_symmetry_multiplicity
 _atom_site_fract_x
 _atom_site_fract_y
 _atom_site_fract_z
 _atom_site_occupancy
  Al  Al0  1  0.00252000  0.05838100  0.92514200  1
  Al  Al1  1  0.31774700  0.44504100  0.73816600  1
  Al  Al2  1  0.14513600  0.08062000  0.58308000  1
  Al  Al3  1  0.39390900  0.99896800  0.87521200  1
  Al  Al4  1  0.76687800  0.89406400  0.70179000  1
  Al  Al5  1  0.41404600  0.99922700  0.74000100  1
  Al  Al6  1  0.58987700  0.51137000  0.54790400  1
  Al  Al7  1  0.99785800  0.96342300  0.18036600  1
  Al  Al8  1  0.67332000  0.53700400  0.37710500  1
  Al  Al9  1  0.50159100  0.97896200  0.53003800  1
  Al  Al10  1  0.11278200  0.01633900  0.33831400  1
  Al  Al11  1  0.77091000  0.06248900  0.38590600  1
  Al  Al12  1  0.45255000  0.37566200  0.15299900  1
  Al  Al13  1  0.33557500  0.81307000  0.15739400  1
  Al  Al14  1  0.56849600  0.60673500  0.95050200  1
  Al  Al15  1  0.62278800  0.10579900  0.05744000  1
  O  O16  1  0.07712600  0.83374900  0.75040200  1
  O  O17  1  0.99322600  0.25828600  0.74461700  1
  O  O18  1  0.44449500  0.83938600  0.94935500  1
  O  O19  1  0.54887600  0.79040400  0.74416800  1
  O  O20  1  0.10365500  0.78223500  0.40566300  1
  O  O21  1  0.32070400  0.21484600  0.91151500  1
  O  O22  1  0.21915200  0.29156100  0.42691400  1
  O  O23  1  0.49859300  0.72800400  0.57733200  1
  O  O24  1  0.49715200  0.30083300  0.72659500  1
  O  O25  1  0.69469500  0.68573900  0.88520600  1
  O  O26  1  0.76179400  0.84519100  0.44476500  1
  O  O27  1  0.87754400  0.72172400  0.07293900  1
  O  O28  1  0.76541800  0.18157000  0.88405900  1
  O  O29  1  0.49131800  0.23523600  0.58026500  1
  O  O30  1  0.08432200  0.38365100  0.10842400  1
  O  O31  1  0.61337500  0.85487400  0.27579300  1
  O  O32  1  0.63055800  0.23940900  0.40359800  1
  O  O33  1  0.04245500  0.77598900  0.60265200  1
  O  O34  1  0.56258500  0.89032000  0.11182300  1
  O  O35  1  0.96624800  0.23096800  0.59267300  1
  O  O36  1  0.44028500  0.16742100  0.21083100  1
  O  O37  1  0.35724400  0.19460500  0.05013500  1
  O  O38  1  0.89660600  0.71979500  0.22635600  1
  O  O39  1  0.19658800  0.26205000  0.28089700  1
