# generated using pymatgen
data_Na4Al11Si13Ag7O48
_symmetry_space_group_name_H-M   'P 1'
_cell_length_a   12.81890061
_cell_length_b   12.41659346
_cell_length_c   11.79496723
_cell_angle_alpha   89.84422147
_cell_angle_beta   88.96280411
_cell_angle_gamma   90.11681706
_symmetry_Int_Tables_number   1
_chemical_formula_structural   Na4Al11Si13Ag7O48
_chemical_formula_sum   'Na4 Al11 Si13 Ag7 O48'
_cell_volume   1877.05183290
_cell_formula_units_Z   1
loop_
 _symmetry_equiv_pos_site_id
 _symmetry_equiv_pos_as_xyz
  1  'x, y, z'
loop_
 _atom_site_type_symbol
 _atom_site_label
 _atom_site_symmetry_multiplicity
 _atom_site_fract_x
 _atom_site_fract_y
 _atom_site_fract_z
 _atom_site_occupancy
  Na  Na0  1  0.58715070  0.00027705  0.53467750  1
  Na  Na1  1  0.59347352  0.39690649  0.91818867  1
  Na  Na2  1  0.59801324  0.60262623  0.08687417  1
  Na  Na3  1  0.77835246  0.79103242  0.80722530  1
  Al  Al4  1  0.37634287  0.19509397  0.99746521  1
  Al  Al5  1  0.37931443  0.00113778  0.79583377  1
  Al  Al6  1  0.38017231  0.80336109  0.99978132  1
  Al  Al7  1  0.60785640  0.99933811  0.22400380  1
  Al  Al8  1  0.61189020  0.18793845  0.00921358  1
  Al  Al9  1  0.61742015  0.00045635  0.79240582  1
  Al  Al10  1  0.61837954  0.81595703  0.00527528  1
  Al  Al11  1  0.82366298  0.00147975  0.36903575  1
  Al  Al12  1  0.81703256  0.37733251  0.00454357  1
  Al  Al13  1  0.82028237  0.62431977  0.99593364  1
  Al  Al14  1  0.83949788  0.99585779  0.64333849  1
  Si  Si15  1  0.99050467  0.18219818  0.36551146  1
  Si  Si16  1  0.99975920  0.37642124  0.19376757  1
  Si  Si17  1  0.00671878  0.37354097  0.81218764  1
  Si  Si18  1  0.99261175  0.82124734  0.36200146  1
  Si  Si19  1  0.00680829  0.62585323  0.80767124  1
  Si  Si20  1  0.99846926  0.81676792  0.63309715  1
  Si  Si21  1  0.16550420  0.00415827  0.35753993  1
  Si  Si22  1  0.17713762  0.36907935  0.00189782  1
  Si  Si23  1  0.17959236  0.62545712  0.99790525  1
  Si  Si24  1  0.17337453  0.00027065  0.62385463  1
  Si  Si25  1  0.37097036  0.99914355  0.19075618  1
  Si  Si26  1  0.99909993  0.18174664  0.63559565  1
  Si  Si27  1  0.00296995  0.62318916  0.19032717  1
  Ag  Ag28  1  0.21526514  0.81240451  0.80582273  1
  Ag  Ag29  1  0.21676623  0.19674020  0.80072461  1
  Ag  Ag30  1  0.21136450  0.79691605  0.19615028  1
  Ag  Ag31  1  0.80235030  0.17398845  0.84072166  1
  Ag  Ag32  1  0.79508750  0.17999656  0.16941291  1
  Ag  Ag33  1  0.80342302  0.82451680  0.16329975  1
  Ag  Ag34  1  0.75848100  0.00397052  0.00742278  1
  O  O35  1  0.98349161  0.20644150  0.50182705  1
  O  O36  1  0.01261711  0.29794823  0.69895443  1
  O  O37  1  0.02060185  0.49945206  0.77271581  1
  O  O38  1  0.01998247  0.69949512  0.69315672  1
  O  O39  1  0.10836820  0.11277038  0.65382191  1
  O  O40  1  0.11156685  0.65037438  0.11623577  1
  O  O41  1  0.10644892  0.66070274  0.88866232  1
  O  O42  1  0.10279667  0.89176138  0.65679445  1
  O  O43  1  0.09319163  0.10878527  0.33598164  1
  O  O44  1  0.10053207  0.35146420  0.11192539  1
  O  O45  1  0.10979792  0.33799736  0.88602855  1
  O  O46  1  0.09979511  0.89127772  0.32952793  1
  O  O47  1  0.19861735  0.99827097  0.48912530  1
  O  O48  1  0.20567957  0.49794791  0.99042927  1
  O  O49  1  0.27656224  0.99572238  0.69536912  1
  O  O50  1  0.28198674  0.69908991  0.99998426  1
  O  O51  1  0.26802870  0.00488309  0.27895172  1
  O  O52  1  0.27834920  0.29645348  0.00524723  1
  O  O53  1  0.36852282  0.10197677  0.10880477  1
  O  O54  1  0.35634536  0.12208647  0.87098328  1
  O  O55  1  0.35215376  0.88316579  0.12325638  1
  O  O56  1  0.36021410  0.88198452  0.87849688  1
  O  O57  1  0.47577881  0.99284328  0.26620920  1
  O  O58  1  0.49778942  0.26249096  0.99626118  1
  O  O59  1  0.50239818  0.74130323  0.01211799  1
  O  O60  1  0.49884950  0.99991401  0.72319842  1
  O  O61  1  0.63335352  0.11361841  0.13456599  1
  O  O62  1  0.63883285  0.11245400  0.88410629  1
  O  O63  1  0.63895062  0.88898214  0.13222601  1
  O  O64  1  0.64684553  0.89086812  0.88328656  1
  O  O65  1  0.70987855  0.99592885  0.68114091  1
  O  O66  1  0.72316173  0.72133390  0.00634905  1
  O  O67  1  0.69041174  0.99943770  0.34260442  1
  O  O68  1  0.71721902  0.28259285  0.99988724  1
  O  O69  1  0.75096370  0.50177592  0.99790122  1
  O  O70  1  0.86930165  0.99837454  0.50303134  1
  O  O71  1  0.90513499  0.11422780  0.69805053  1
  O  O72  1  0.90219394  0.64227484  0.11348768  1
  O  O73  1  0.89546294  0.64889092  0.86996161  1
  O  O74  1  0.89832472  0.87285044  0.69363812  1
  O  O75  1  0.88784187  0.12205502  0.31485331  1
  O  O76  1  0.89162315  0.35803312  0.12723544  1
  O  O77  1  0.89930574  0.35579645  0.88314994  1
  O  O78  1  0.89174482  0.88346201  0.31120753  1
  O  O79  1  0.00457659  0.29913388  0.30471108  1
  O  O80  1  0.00883915  0.50095939  0.23924421  1
  O  O81  1  0.00608007  0.70563229  0.29759398  1
  O  O82  1  0.98908973  0.79439882  0.49723583  1
