# generated using pymatgen
data_Al4B2O9
_symmetry_space_group_name_H-M   'P 1'
_cell_length_a   7.57743164
_cell_length_b   8.46791215
_cell_length_c   10.66258786
_cell_angle_alpha   89.88011434
_cell_angle_beta   81.68252101
_cell_angle_gamma   109.48000435
_symmetry_Int_Tables_number   1
_chemical_formula_structural   Al4B2O9
_chemical_formula_sum   'Al16 B8 O36'
_cell_volume   637.28817159
_cell_formula_units_Z   4
loop_
 _symmetry_equiv_pos_site_id
 _symmetry_equiv_pos_as_xyz
  1  'x, y, z'
loop_
 _atom_site_type_symbol
 _atom_site_label
 _atom_site_symmetry_multiplicity
 _atom_site_fract_x
 _atom_site_fract_y
 _atom_site_fract_z
 _atom_site_occupancy
  Al  Al0  1  0.00000000  0.50000000  0.00000000  1
  Al  Al1  1  0.00000000  0.50000000  0.50000000  1
  Al  Al2  1  0.17237800  0.95943200  0.77777900  1
  Al  Al3  1  0.23082600  0.20864800  0.55809400  1
  Al  Al4  1  0.21871900  0.36127100  0.82117600  1
  Al  Al5  1  0.31796000  0.71347800  0.61300300  1
  Al  Al6  1  0.38922400  0.80742100  0.90142800  1
  Al  Al7  1  0.15780600  0.87440100  0.12421200  1
  Al  Al8  1  0.50000000  0.50000000  0.50000000  1
  Al  Al9  1  0.50000000  0.50000000  0.00000000  1
  Al  Al10  1  0.84219400  0.12559900  0.87578800  1
  Al  Al11  1  0.61077600  0.19257900  0.09857200  1
  Al  Al12  1  0.68204000  0.28652200  0.38699700  1
  Al  Al13  1  0.78128100  0.63872900  0.17882300  1
  Al  Al14  1  0.76917400  0.79135200  0.44190600  1
  Al  Al15  1  0.82762200  0.04056800  0.22222100  1
  B  B16  1  0.25174000  0.24151500  0.16648100  1
  B  B17  1  0.04729700  0.30056400  0.34759300  1
  B  B18  1  0.48509700  0.76815200  0.15176500  1
  B  B19  1  0.28420800  0.77301200  0.34246000  1
  B  B20  1  0.71579200  0.22698800  0.65754000  1
  B  B21  1  0.51490300  0.23184800  0.84823500  1
  B  B22  1  0.95270300  0.69943600  0.65240700  1
  B  B23  1  0.74826000  0.75848500  0.83351900  1
  O  O24  1  0.05377400  0.59049300  0.66305000  1
  O  O25  1  0.19302900  0.89296500  0.94113900  1
  O  O26  1  0.01815100  0.63764800  0.11805600  1
  O  O27  1  0.16548400  0.83425500  0.29914200  1
  O  O28  1  0.07232700  0.19458600  0.25167800  1
  O  O29  1  0.09204600  0.13046200  0.82536700  1
  O  O30  1  0.31650400  0.40342100  0.13121500  1
  O  O31  1  0.11276200  0.31372600  0.46163600  1
  O  O32  1  0.30829500  0.40954000  0.64573700  1
  O  O33  1  0.29352200  0.57333800  0.91952900  1
  O  O34  1  0.23539700  0.66722700  0.45549500  1
  O  O35  1  0.34989300  0.84198500  0.73945800  1
  O  O36  1  0.39839700  0.83743300  0.07626800  1
  O  O37  1  0.46469500  0.78325700  0.28095000  1
  O  O38  1  0.33051000  0.12085400  0.13539100  1
  O  O39  1  0.45293500  0.29570100  0.44585700  1
  O  O40  1  0.20612800  0.00942800  0.60598200  1
  O  O41  1  0.59468200  0.67676800  0.10305800  1
  O  O42  1  0.40531800  0.32323200  0.89694200  1
  O  O43  1  0.79387200  0.99057200  0.39401800  1
  O  O44  1  0.54706500  0.70429900  0.55414300  1
  O  O45  1  0.66949000  0.87914600  0.86460900  1
  O  O46  1  0.53530500  0.21674300  0.71905000  1
  O  O47  1  0.60160300  0.16256700  0.92373200  1
  O  O48  1  0.65010700  0.15801500  0.26054200  1
  O  O49  1  0.76460300  0.33277300  0.54450500  1
  O  O50  1  0.70647800  0.42666200  0.08047100  1
  O  O51  1  0.69170500  0.59046000  0.35426300  1
  O  O52  1  0.88723800  0.68627400  0.53836400  1
  O  O53  1  0.68349600  0.59657900  0.86878500  1
  O  O54  1  0.90795400  0.86953800  0.17463300  1
  O  O55  1  0.92767300  0.80541400  0.74832200  1
  O  O56  1  0.83451600  0.16574500  0.70085800  1
  O  O57  1  0.98184900  0.36235200  0.88194400  1
  O  O58  1  0.80697100  0.10703500  0.05886100  1
  O  O59  1  0.94622600  0.40950700  0.33695000  1
