# generated using pymatgen
data_Y4Fe13Si2(SbO14)2
_symmetry_space_group_name_H-M   'P 1'
_cell_length_a   5.70271797
_cell_length_b   9.54613961
_cell_length_c   12.33386544
_cell_angle_alpha   87.58609804
_cell_angle_beta   76.67701545
_cell_angle_gamma   79.80249328
_symmetry_Int_Tables_number   1
_chemical_formula_structural   Y4Fe13Si2(SbO14)2
_chemical_formula_sum   'Y4 Fe13 Si2 Sb2 O28'
_cell_volume   643.04999949
_cell_formula_units_Z   1
loop_
 _symmetry_equiv_pos_site_id
 _symmetry_equiv_pos_as_xyz
  1  'x, y, z'
loop_
 _atom_site_type_symbol
 _atom_site_label
 _atom_site_symmetry_multiplicity
 _atom_site_fract_x
 _atom_site_fract_y
 _atom_site_fract_z
 _atom_site_occupancy
  Y  Y0  1  0.07253400  0.65642700  0.41135300  1
  Y  Y1  1  0.51467200  0.34579200  0.41167000  1
  Y  Y2  1  0.92625200  0.34694800  0.58836400  1
  Y  Y3  1  0.48451400  0.65683300  0.58784900  1
  Fe  Fe4  1  0.92186600  0.64676200  0.73733300  1
  Fe  Fe5  1  0.66419400  0.31635500  0.12566100  1
  Fe  Fe6  1  0.34327600  0.35423600  0.73728800  1
  Fe  Fe7  1  0.07902200  0.35316200  0.26289400  1
  Fe  Fe8  1  0.33604400  0.68285000  0.87410500  1
  Fe  Fe9  1  0.28739600  0.00098600  0.42451000  1
  Fe  Fe10  1  0.20871400  0.68235700  0.12621600  1
  Fe  Fe11  1  0.99973000  0.00032600  0.00019100  1
  Fe  Fe12  1  0.42722400  0.99870700  0.14910700  1
  Fe  Fe13  1  0.79112500  0.31667800  0.87337600  1
  Fe  Fe14  1  0.65808300  0.64587500  0.26213500  1
  Fe  Fe15  1  0.57607300  0.99918100  0.85118600  1
  Fe  Fe16  1  0.71240300  0.00093400  0.57693700  1
  Si  Si17  1  0.24370000  0.28023300  0.99996400  1
  Si  Si18  1  0.75701000  0.71813700  0.99980400  1
  Sb  Sb19  1  0.85532900  0.99990400  0.28643100  1
  Sb  Sb20  1  0.14263300  0.00043500  0.71395200  1
  O  O21  1  0.71438700  0.40920200  0.25612500  1
  O  O22  1  0.12691200  0.39096700  0.41948300  1
  O  O23  1  0.95547700  0.33696000  0.99957900  1
  O  O24  1  0.29528000  0.10409300  0.00003100  1
  O  O25  1  0.87284000  0.61038600  0.58010600  1
  O  O26  1  0.28725900  0.59056800  0.74289900  1
  O  O27  1  0.00961400  0.11190000  0.58744000  1
  O  O28  1  0.97697200  0.89324200  0.41972300  1
  O  O29  1  0.70675800  0.89415100  0.99982500  1
  O  O30  1  0.12070600  0.89620200  0.16072500  1
  O  O31  1  0.31373900  0.33732600  0.11082500  1
  O  O32  1  0.02785600  0.58931900  0.25693100  1
  O  O33  1  0.39654400  0.89318200  0.58146000  1
  O  O34  1  0.72486600  0.10196400  0.15734100  1
  O  O35  1  0.57453700  0.66137900  0.11017500  1
  O  O36  1  0.04539200  0.66100000  0.99975400  1
  O  O37  1  0.28070400  0.89699300  0.84061400  1
  O  O38  1  0.88190200  0.10224900  0.84248500  1
  O  O39  1  0.59509700  0.11035500  0.41272000  1
  O  O40  1  0.11396400  0.11916100  0.29370600  1
  O  O41  1  0.88742400  0.87901000  0.70816300  1
  O  O42  1  0.42535800  0.33803100  0.88967900  1
  O  O43  1  0.41086900  0.11859300  0.70679000  1
  O  O44  1  0.54593200  0.39136700  0.58049700  1
  O  O45  1  0.68653300  0.66112500  0.88907100  1
  O  O46  1  0.59568900  0.87782700  0.29087100  1
  O  O47  1  0.97274700  0.41065400  0.74345300  1
  O  O48  1  0.45284700  0.60967500  0.41920300  1
