# generated using pymatgen
data_K6Al11Si13Ag5O48
_symmetry_space_group_name_H-M   'P 1'
_cell_length_a   12.66052909
_cell_length_b   12.65336914
_cell_length_c   12.04560330
_cell_angle_alpha   90.00000000
_cell_angle_beta   89.91809526
_cell_angle_gamma   90.00000000
_symmetry_Int_Tables_number   1
_chemical_formula_structural   K6Al11Si13Ag5O48
_chemical_formula_sum   'K6 Al11 Si13 Ag5 O48'
_cell_volume   1929.68377819
_cell_formula_units_Z   1
loop_
 _symmetry_equiv_pos_site_id
 _symmetry_equiv_pos_as_xyz
  1  'x, y, z'
loop_
 _atom_site_type_symbol
 _atom_site_label
 _atom_site_symmetry_multiplicity
 _atom_site_fract_x
 _atom_site_fract_y
 _atom_site_fract_z
 _atom_site_occupancy
  K  K0  1  0.54392163  0.38917209  0.95134343  1
  K  K1  1  0.54392163  0.61082791  0.95134343  1
  K  K2  1  0.74928911  0.23219619  0.75535947  1
  K  K3  1  0.74576040  0.24885489  0.24722648  1
  K  K4  1  0.74576040  0.75114511  0.24722648  1
  K  K5  1  0.74928911  0.76780381  0.75535947  1
  Al  Al6  1  0.36808902  0.18213703  0.00345552  1
  Al  Al7  1  0.36808902  0.81786297  0.00345552  1
  Al  Al8  1  0.37085714  0.00000000  0.80724735  1
  Al  Al9  1  0.62992833  0.17497580  0.00983196  1
  Al  Al10  1  0.62259105  0.00000000  0.21341729  1
  Al  Al11  1  0.62992833  0.82502420  0.00983196  1
  Al  Al12  1  0.62881292  0.00000000  0.80264959  1
  Al  Al13  1  0.81661733  0.37531305  0.99672180  1
  Al  Al14  1  0.81661733  0.62468695  0.99672180  1
  Al  Al15  1  0.83140201  0.00000000  0.36823964  1
  Al  Al16  1  0.84140984  0.00000000  0.63807467  1
  Si  Si17  1  0.00273816  0.37767308  0.18933345  1
  Si  Si18  1  0.00205425  0.18465277  0.63079110  1
  Si  Si19  1  0.00273816  0.62232692  0.18933345  1
  Si  Si20  1  0.99575909  0.81734107  0.36510580  1
  Si  Si21  1  0.00659393  0.37508773  0.80978879  1
  Si  Si22  1  0.00205425  0.81534723  0.63079110  1
  Si  Si23  1  0.18335884  0.62536607  0.00033755  1
  Si  Si24  1  0.18335884  0.37463393  0.00033755  1
  Si  Si25  1  0.17462890  0.00000000  0.62677504  1
  Si  Si26  1  0.16903374  0.00000000  0.36544458  1
  Si  Si27  1  0.36427715  0.00000000  0.19319569  1
  Si  Si28  1  0.99575909  0.18265893  0.36510580  1
  Si  Si29  1  0.00659393  0.62491227  0.80978879  1
  Ag  Ag30  1  0.19833199  0.81047284  0.80699740  1
  Ag  Ag31  1  0.19833199  0.18952716  0.80699740  1
  Ag  Ag32  1  0.19716006  0.79913499  0.19205762  1
  Ag  Ag33  1  0.19716006  0.20086501  0.19205762  1
  Ag  Ag34  1  0.77628398  0.00000000  0.00882080  1
  O  O35  1  0.01160287  0.29571670  0.29563322  1
  O  O36  1  0.99806116  0.21493230  0.49749028  1
  O  O37  1  0.01495104  0.50000000  0.23521204  1
  O  O38  1  0.01933922  0.29818838  0.69937423  1
  O  O39  1  0.01160287  0.70428330  0.29563322  1
  O  O40  1  0.01933922  0.70181162  0.69937423  1
  O  O41  1  0.10309016  0.10961208  0.33515915  1
  O  O42  1  0.10961205  0.35145157  0.11214629  1
  O  O43  1  0.11323669  0.34864637  0.88744453  1
  O  O44  1  0.10309016  0.89038792  0.33515915  1
  O  O45  1  0.10839213  0.11085719  0.65425795  1
  O  O46  1  0.10961205  0.64854843  0.11214629  1
  O  O47  1  0.11323669  0.65135363  0.88744453  1
  O  O48  1  0.10839213  0.88914281  0.65425795  1
  O  O49  1  0.21573274  0.50000000  0.99852259  1
  O  O50  1  0.19564026  0.00000000  0.49470271  1
  O  O51  1  0.28751698  0.30249658  0.00677829  1
  O  O52  1  0.28062133  0.00000000  0.69450412  1
  O  O53  1  0.28751698  0.69750342  0.00677829  1
  O  O54  1  0.27816839  0.00000000  0.29801021  1
  O  O55  1  0.33135728  0.10741168  0.12331709  1
  O  O56  1  0.33250426  0.11430883  0.88403714  1
  O  O57  1  0.33135728  0.89258832  0.12331709  1
  O  O58  1  0.33250426  0.88569117  0.88403714  1
  O  O59  1  0.49813378  0.21919801  0.01083459  1
  O  O60  1  0.49828411  0.00000000  0.76453410  1
  O  O61  1  0.49813378  0.78080199  0.01083459  1
  O  O62  1  0.48325761  0.00000000  0.23565199  1
  O  O63  1  0.66044544  0.10997280  0.13279535  1
  O  O64  1  0.66399083  0.10914260  0.88801830  1
  O  O65  1  0.66044544  0.89002720  0.13279535  1
  O  O66  1  0.66399083  0.89085740  0.88801830  1
  O  O67  1  0.71616664  0.00000000  0.68995693  1
  O  O68  1  0.70957636  0.29070564  0.00496917  1
  O  O69  1  0.70957636  0.70929436  0.00496917  1
  O  O70  1  0.70048160  0.00000000  0.33235189  1
  O  O71  1  0.75937024  0.50000000  0.98362922  1
  O  O72  1  0.87689246  0.00000000  0.50140191  1
  O  O73  1  0.89382853  0.12238804  0.31812057  1
  O  O74  1  0.89621306  0.36105115  0.11983711  1
  O  O75  1  0.89980169  0.35061345  0.87732807  1
  O  O76  1  0.89382853  0.87761196  0.31812057  1
  O  O77  1  0.90278397  0.12364548  0.68260765  1
  O  O78  1  0.89621306  0.63894885  0.11983711  1
  O  O79  1  0.89980169  0.64938655  0.87732807  1
  O  O80  1  0.90278397  0.87635452  0.68260765  1
  O  O81  1  0.01555765  0.50000000  0.77066198  1
  O  O82  1  0.99806116  0.78506770  0.49749028  1
