# generated using pymatgen
data_Al2Co2O7
_symmetry_space_group_name_H-M   'P 1'
_cell_length_a   6.51888398
_cell_length_b   6.63652430
_cell_length_c   6.50244286
_cell_angle_alpha   59.74891111
_cell_angle_beta   59.28271378
_cell_angle_gamma   59.81123011
_symmetry_Int_Tables_number   1
_chemical_formula_structural   Al2Co2O7
_chemical_formula_sum   'Al4 Co4 O14'
_cell_volume   197.16479718
_cell_formula_units_Z   2
loop_
 _symmetry_equiv_pos_site_id
 _symmetry_equiv_pos_as_xyz
  1  'x, y, z'
loop_
 _atom_site_type_symbol
 _atom_site_label
 _atom_site_symmetry_multiplicity
 _atom_site_fract_x
 _atom_site_fract_y
 _atom_site_fract_z
 _atom_site_occupancy
  Al  Al0  1  0.50000000  0.00000000  0.50000000  1
  Al  Al1  1  0.00000000  0.50000000  0.50000000  1
  Al  Al2  1  0.50000000  0.50000000  0.00000000  1
  Al  Al3  1  0.50000000  0.50000000  0.50000000  1
  Co  Co4  1  0.00000000  0.50000000  0.00000000  1
  Co  Co5  1  0.50000000  0.00000000  0.00000000  1
  Co  Co6  1  0.00000000  0.00000000  0.50000000  1
  Co  Co7  1  0.00000000  0.00000000  0.00000000  1
  O  O8  1  0.62106500  0.63048700  0.61929000  1
  O  O9  1  0.37893500  0.36951300  0.38071000  1
  O  O10  1  0.34927400  0.92304900  0.88880700  1
  O  O11  1  0.07888600  0.65585400  0.65727800  1
  O  O12  1  0.90266300  0.34114700  0.89946400  1
  O  O13  1  0.88662700  0.92853100  0.34753200  1
  O  O14  1  0.34255400  0.34618300  0.91746600  1
  O  O15  1  0.33543300  0.88041500  0.33545800  1
  O  O16  1  0.92111400  0.34414600  0.34272200  1
  O  O17  1  0.65744600  0.65381700  0.08253400  1
  O  O18  1  0.11337300  0.07146900  0.65246800  1
  O  O19  1  0.65072600  0.07695100  0.11119300  1
  O  O20  1  0.66456700  0.11958500  0.66454200  1
  O  O21  1  0.09733700  0.65885300  0.10053600  1
