# generated using pymatgen
data_TiAlO3
_symmetry_space_group_name_H-M   'P 1'
_cell_length_a   5.49789459
_cell_length_b   5.49449102
_cell_length_c   12.00178100
_cell_angle_alpha   89.99892428
_cell_angle_beta   89.99927647
_cell_angle_gamma   119.87193301
_symmetry_Int_Tables_number   1
_chemical_formula_structural   TiAlO3
_chemical_formula_sum   'Ti6 Al6 O18'
_cell_volume   314.38311486
_cell_formula_units_Z   6
loop_
 _symmetry_equiv_pos_site_id
 _symmetry_equiv_pos_as_xyz
  1  'x, y, z'
loop_
 _atom_site_type_symbol
 _atom_site_label
 _atom_site_symmetry_multiplicity
 _atom_site_fract_x
 _atom_site_fract_y
 _atom_site_fract_z
 _atom_site_occupancy
  Ti  Ti0  1  0.66937000  0.95766700  0.50067600  1
  Ti  Ti1  1  0.62123400  0.62074400  0.00199200  1
  Ti  Ti2  1  0.04353800  0.33202300  0.00154000  1
  Ti  Ti3  1  0.95570300  0.66608800  0.50092400  1
  Ti  Ti4  1  0.37789600  0.37979800  0.50329500  1
  Ti  Ti5  1  0.33238200  0.04301700  0.00139100  1
  Al  Al6  1  0.66314800  0.33429700  0.25206900  1
  Al  Al7  1  0.33604300  0.66666000  0.75199600  1
  Al  Al8  1  0.66733800  0.33603500  0.75201900  1
  Al  Al9  1  0.33366200  0.66319100  0.25189500  1
  Al  Al10  1  0.00028600  0.00055200  0.75105800  1
  Al  Al11  1  0.99939000  0.99983200  0.25100900  1
  O  O12  1  0.69947800  0.33065400  0.00257200  1
  O  O13  1  0.30156900  0.67144300  0.50303900  1
  O  O14  1  0.66623500  0.29943300  0.50324000  1
  O  O15  1  0.33159000  0.69928200  0.00255900  1
  O  O16  1  0.96510300  0.96444600  0.99978600  1
  O  O17  1  0.03627300  0.03427300  0.49872900  1
  O  O18  1  0.33518800  0.00541000  0.82650500  1
  O  O19  1  0.34061100  0.34187400  0.32927500  1
  O  O20  1  0.99352300  0.66346100  0.32673300  1
  O  O21  1  0.00556600  0.33512400  0.82704100  1
  O  O22  1  0.65921900  0.65898900  0.82923000  1
  O  O23  1  0.66567000  0.99522100  0.32668100  1
  O  O24  1  0.33069200  0.00433500  0.17689000  1
  O  O25  1  0.33668100  0.33816200  0.67419300  1
  O  O26  1  0.99495200  0.66846200  0.67664200  1
  O  O27  1  0.00481200  0.33089300  0.17634300  1
  O  O28  1  0.66236600  0.66241700  0.17400000  1
  O  O29  1  0.67048300  0.99621800  0.67667600  1
