# generated using pymatgen
data_MgSi
_symmetry_space_group_name_H-M   'P 1'
_cell_length_a   5.79102424
_cell_length_b   4.49510676
_cell_length_c   10.37855759
_cell_angle_alpha   99.75240316
_cell_angle_beta   107.53902242
_cell_angle_gamma   61.32443035
_symmetry_Int_Tables_number   1
_chemical_formula_structural   MgSi
_chemical_formula_sum   'Mg6 Si6'
_cell_volume   225.91294890
_cell_formula_units_Z   6
loop_
 _symmetry_equiv_pos_site_id
 _symmetry_equiv_pos_as_xyz
  1  'x, y, z'
loop_
 _atom_site_type_symbol
 _atom_site_label
 _atom_site_symmetry_multiplicity
 _atom_site_fract_x
 _atom_site_fract_y
 _atom_site_fract_z
 _atom_site_occupancy
  Mg  Mg0  1  0.77239800  0.55483800  0.09549000  1
  Mg  Mg1  1  0.22761700  0.27847900  0.90451600  1
  Mg  Mg2  1  0.85616600  0.81329500  0.66099300  1
  Mg  Mg3  1  0.14385100  0.02002100  0.33901400  1
  Mg  Mg4  1  0.54498400  0.53596100  0.77528200  1
  Mg  Mg5  1  0.45503200  0.29735500  0.22472400  1
  Si  Si6  1  0.77082300  0.73413700  0.37844000  1
  Si  Si7  1  0.26388700  0.51608100  0.50607300  1
  Si  Si8  1  0.20588600  0.89015000  0.08361800  1
  Si  Si9  1  0.79413000  0.94316800  0.91638800  1
  Si  Si10  1  0.22919500  0.09917900  0.62156700  1
  Si  Si11  1  0.73613200  0.31723500  0.49393400  1
