# generated using pymatgen
data_Zn3Si4(WO7)2
_symmetry_space_group_name_H-M   'P 1'
_cell_length_a   8.04661609
_cell_length_b   10.29752099
_cell_length_c   9.25933062
_cell_angle_alpha   66.44412018
_cell_angle_beta   64.24562650
_cell_angle_gamma   67.00153311
_symmetry_Int_Tables_number   1
_chemical_formula_structural   Zn3Si4(WO7)2
_chemical_formula_sum   'Zn6 Si8 W4 O28'
_cell_volume   611.15253751
_cell_formula_units_Z   2
loop_
 _symmetry_equiv_pos_site_id
 _symmetry_equiv_pos_as_xyz
  1  'x, y, z'
loop_
 _atom_site_type_symbol
 _atom_site_label
 _atom_site_symmetry_multiplicity
 _atom_site_fract_x
 _atom_site_fract_y
 _atom_site_fract_z
 _atom_site_occupancy
  Zn  Zn0  1  0.04781500  0.87489700  0.41427700  1
  Zn  Zn1  1  0.33699000  0.62510300  0.08572300  1
  Zn  Zn2  1  0.66301000  0.37489700  0.91427700  1
  Zn  Zn3  1  0.59285700  0.25000000  0.75000000  1
  Zn  Zn4  1  0.95218500  0.12510300  0.58572300  1
  Zn  Zn5  1  0.40714300  0.75000000  0.25000000  1
  Si  Si6  1  0.48402600  0.31142300  0.33627900  1
  Si  Si7  1  0.86827100  0.81142300  0.83627900  1
  Si  Si8  1  0.46444400  0.91208800  0.81118800  1
  Si  Si9  1  0.81228100  0.41208800  0.31118800  1
  Si  Si10  1  0.13172900  0.18857700  0.16372100  1
  Si  Si11  1  0.53555600  0.08791200  0.18881200  1
  Si  Si12  1  0.18771900  0.58791200  0.68881200  1
  Si  Si13  1  0.51597400  0.68857700  0.66372100  1
  W  W14  1  0.18623400  0.25000000  0.75000000  1
  W  W15  1  0.81376600  0.75000000  0.25000000  1
  W  W16  1  0.00000000  0.00000000  0.00000000  1
  W  W17  1  0.00000000  0.50000000  0.50000000  1
  O  O18  1  0.09465500  0.63866700  0.53929900  1
  O  O19  1  0.07498600  0.60374400  0.24721200  1
  O  O20  1  0.56076300  0.91060200  0.24962800  1
  O  O21  1  0.07405900  0.10374400  0.74721200  1
  O  O22  1  0.72547000  0.65026500  0.51824000  1
  O  O23  1  0.99369500  0.35639000  0.15675200  1
  O  O24  1  0.27900600  0.41060200  0.74962800  1
  O  O25  1  0.89397500  0.84973500  0.98176000  1
  O  O26  1  0.00630500  0.64361000  0.84324800  1
  O  O27  1  0.35130300  0.67942400  0.60950500  1
  O  O28  1  0.92501400  0.39625600  0.75278800  1
  O  O29  1  0.27453000  0.34973500  0.48176000  1
  O  O30  1  0.50683800  0.14361000  0.34324800  1
  O  O31  1  0.72737800  0.13866700  0.03929900  1
  O  O32  1  0.35976800  0.17942400  0.10950500  1
  O  O33  1  0.10602500  0.15026500  0.01824000  1
  O  O34  1  0.06667200  0.08071400  0.35102500  1
  O  O35  1  0.64869700  0.32057600  0.39049500  1
  O  O36  1  0.49841100  0.41928600  0.14897500  1
  O  O37  1  0.64023200  0.82057600  0.89049500  1
  O  O38  1  0.49316200  0.85639000  0.65675200  1
  O  O39  1  0.92594100  0.89625600  0.25278800  1
  O  O40  1  0.50158900  0.58071400  0.85102500  1
  O  O41  1  0.43923700  0.08939800  0.75037200  1
  O  O42  1  0.93332800  0.91928600  0.64897500  1
  O  O43  1  0.72099400  0.58939800  0.25037200  1
  O  O44  1  0.27262200  0.86133300  0.96070100  1
  O  O45  1  0.90534500  0.36133300  0.46070100  1
