# generated using pymatgen
data_Ca3Si4(AgO7)2
_symmetry_space_group_name_H-M   'P 1'
_cell_length_a   9.53732539
_cell_length_b   9.53732539
_cell_length_c   10.41000665
_cell_angle_alpha   61.17118458
_cell_angle_beta   61.17118458
_cell_angle_gamma   48.70111639
_symmetry_Int_Tables_number   1
_chemical_formula_structural   Ca3Si4(AgO7)2
_chemical_formula_sum   'Ca6 Si8 Ag4 O28'
_cell_volume   603.57245523
_cell_formula_units_Z   2
loop_
 _symmetry_equiv_pos_site_id
 _symmetry_equiv_pos_as_xyz
  1  'x, y, z'
loop_
 _atom_site_type_symbol
 _atom_site_label
 _atom_site_symmetry_multiplicity
 _atom_site_fract_x
 _atom_site_fract_y
 _atom_site_fract_z
 _atom_site_occupancy
  Ca  Ca0  1  0.24037100  0.15166900  0.53657900  1
  Ca  Ca1  1  0.84833100  0.75962900  0.96342000  1
  Ca  Ca2  1  0.15166900  0.24037100  0.03657900  1
  Ca  Ca3  1  0.65860700  0.34139300  0.25000000  1
  Ca  Ca4  1  0.75962900  0.84833100  0.46342100  1
  Ca  Ca5  1  0.34139300  0.65860700  0.75000000  1
  Si  Si6  1  0.09170500  0.53638200  0.67078100  1
  Si  Si7  1  0.53638200  0.09170500  0.17078100  1
  Si  Si8  1  0.22996400  0.51483700  0.14016400  1
  Si  Si9  1  0.51483700  0.22996400  0.64016400  1
  Si  Si10  1  0.46361800  0.90829500  0.82921900  1
  Si  Si11  1  0.77003600  0.48516300  0.85983600  1
  Si  Si12  1  0.48516300  0.77003600  0.35983600  1
  Si  Si13  1  0.90829500  0.46361800  0.32921900  1
  Ag  Ag14  1  0.22735100  0.77264900  0.25000000  1
  Ag  Ag15  1  0.77264900  0.22735100  0.75000000  1
  Ag  Ag16  1  0.00000000  0.00000000  0.00000000  1
  Ag  Ag17  1  0.00000000  0.00000000  0.50000000  1
  O  O18  1  0.32812500  0.85609200  0.50594400  1
  O  O19  1  0.89766900  0.97045200  0.72188800  1
  O  O20  1  0.63153500  0.47418800  0.81937100  1
  O  O21  1  0.97045200  0.89766900  0.22188800  1
  O  O22  1  0.97931500  0.26002600  0.45877600  1
  O  O23  1  0.51101700  0.06305600  0.80090400  1
  O  O24  1  0.47418800  0.63153500  0.31937100  1
  O  O25  1  0.73997400  0.02068500  0.04122400  1
  O  O26  1  0.48898300  0.93694400  0.19909600  1
  O  O27  1  0.69785100  0.64549300  0.39897900  1
  O  O28  1  0.10233100  0.02954800  0.27811200  1
  O  O29  1  0.02068500  0.73997400  0.54122400  1
  O  O30  1  0.93694400  0.48898300  0.69909600  1
  O  O31  1  0.85609200  0.32812500  0.00594400  1
  O  O32  1  0.64549300  0.69785100  0.89897900  1
  O  O33  1  0.26002600  0.97931500  0.95877600  1
  O  O34  1  0.47051700  0.90344700  0.67326100  1
  O  O35  1  0.30214900  0.35450700  0.60102100  1
  O  O36  1  0.09655300  0.52948300  0.82673900  1
  O  O37  1  0.35450700  0.30214900  0.10102100  1
  O  O38  1  0.06305600  0.51101700  0.30090400  1
  O  O39  1  0.02954800  0.10233100  0.77811200  1
  O  O40  1  0.90344700  0.47051700  0.17326100  1
  O  O41  1  0.36846500  0.52581200  0.18062900  1
  O  O42  1  0.52948300  0.09655300  0.32673900  1
  O  O43  1  0.52581200  0.36846500  0.68062900  1
  O  O44  1  0.14390800  0.67187500  0.99405600  1
  O  O45  1  0.67187500  0.14390800  0.49405600  1
