# generated using pymatgen
data_MgCu(SiO3)2
_symmetry_space_group_name_H-M   'P 1'
_cell_length_a   6.81388176
_cell_length_b   6.81388176
_cell_length_c   5.25840399
_cell_angle_alpha   74.76361906
_cell_angle_beta   74.76361906
_cell_angle_gamma   85.32506093
_symmetry_Int_Tables_number   1
_chemical_formula_structural   MgCu(SiO3)2
_chemical_formula_sum   'Mg2 Cu2 Si4 O12'
_cell_volume   227.26042219
_cell_formula_units_Z   2
loop_
 _symmetry_equiv_pos_site_id
 _symmetry_equiv_pos_as_xyz
  1  'x, y, z'
loop_
 _atom_site_type_symbol
 _atom_site_label
 _atom_site_symmetry_multiplicity
 _atom_site_fract_x
 _atom_site_fract_y
 _atom_site_fract_z
 _atom_site_occupancy
  Mg  Mg0  1  0.75573600  0.24426400  0.75000000  1
  Mg  Mg1  1  0.24426400  0.75573600  0.25000000  1
  Cu  Cu2  1  0.89148900  0.10851100  0.25000000  1
  Cu  Cu3  1  0.10851100  0.89148900  0.75000000  1
  Si  Si4  1  0.38278800  0.20424500  0.25453300  1
  Si  Si5  1  0.79575500  0.61721200  0.24546700  1
  Si  Si6  1  0.20424500  0.38278800  0.75453300  1
  Si  Si7  1  0.61721200  0.79575500  0.74546700  1
  O  O8  1  0.37399400  0.31608600  0.49999300  1
  O  O9  1  0.68391400  0.62600600  0.00000700  1
  O  O10  1  0.62600600  0.68391400  0.50000700  1
  O  O11  1  0.31608600  0.37399400  0.99999300  1
  O  O12  1  0.61255100  0.13371600  0.13344300  1
  O  O13  1  0.86628400  0.38744900  0.36655700  1
  O  O14  1  0.38744900  0.86628400  0.86655700  1
  O  O15  1  0.13371600  0.61255100  0.63344300  1
  O  O16  1  0.01904600  0.21626200  0.86754700  1
  O  O17  1  0.78373800  0.98095400  0.63245300  1
  O  O18  1  0.21626200  0.01904600  0.36754700  1
  O  O19  1  0.98095400  0.78373800  0.13245300  1
