# generated using pymatgen
data_Ca2Mn2Si4H6O17
_symmetry_space_group_name_H-M   'P 1'
_cell_length_a   12.09165091
_cell_length_b   5.58213017
_cell_length_c   5.35550814
_cell_angle_alpha   68.43320654
_cell_angle_beta   92.61381105
_cell_angle_gamma   91.72901736
_symmetry_Int_Tables_number   1
_chemical_formula_structural   Ca2Mn2Si4H6O17
_chemical_formula_sum   'Ca2 Mn2 Si4 H6 O17'
_cell_volume   335.78945810
_cell_formula_units_Z   1
loop_
 _symmetry_equiv_pos_site_id
 _symmetry_equiv_pos_as_xyz
  1  'x, y, z'
loop_
 _atom_site_type_symbol
 _atom_site_label
 _atom_site_symmetry_multiplicity
 _atom_site_fract_x
 _atom_site_fract_y
 _atom_site_fract_z
 _atom_site_occupancy
  Ca  Ca0  1  0.73321800  0.30009400  0.30229900  1
  Ca  Ca1  1  0.26612800  0.70202500  0.69350100  1
  Mn  Mn2  1  0.99998100  0.00406500  0.49728800  1
  Mn  Mn3  1  0.99960500  0.50329800  0.99597800  1
  Si  Si4  1  0.84815600  0.94872600  0.97867700  1
  Si  Si5  1  0.15174500  0.05769200  0.01534400  1
  Si  Si6  1  0.60365200  0.91064800  0.88666200  1
  Si  Si7  1  0.39643300  0.11979200  0.08236400  1
  H  H8  1  0.50778600  0.53026400  0.05445600  1
  H  H9  1  0.49215700  0.94428800  0.47433900  1
  H  H10  1  0.68583600  0.69178800  0.56553700  1
  H  H11  1  0.31456600  0.43628200  0.29493300  1
  H  H12  1  0.81057500  0.59450500  0.59946200  1
  H  H13  1  0.19000000  0.39999600  0.40230400  1
  O  O14  1  0.91423200  0.10238400  0.15474500  1
  O  O15  1  0.08554500  0.90288400  0.84064800  1
  O  O16  1  0.71675900  0.00193700  0.02014500  1
  O  O17  1  0.28315400  0.99786100  0.98114100  1
  O  O18  1  0.87319500  0.08850700  0.65732100  1
  O  O19  1  0.13197400  0.36691400  0.90300000  1
  O  O20  1  0.12783800  0.92222500  0.33807800  1
  O  O21  1  0.86674400  0.63897600  0.08867600  1
  O  O22  1  0.50064600  0.07364600  0.92458600  1
  O  O23  1  0.61773200  0.96709800  0.57184900  1
  O  O24  1  0.38466700  0.42235800  0.02801200  1
  O  O25  1  0.41168500  0.93789100  0.40607500  1
  O  O26  1  0.58633000  0.59977100  0.06896400  1
  O  O27  1  0.95073800  0.65685200  0.62914900  1
  O  O28  1  0.04885600  0.35172300  0.36252100  1
  O  O29  1  0.73207700  0.54037900  0.58517400  1
  O  O30  1  0.26799300  0.43813100  0.44377300  1
