# generated using pymatgen
data_Nd4AlSi5(NO)7
_symmetry_space_group_name_H-M   'P 1'
_cell_length_a   6.85889571
_cell_length_b   6.78609831
_cell_length_c   21.09361075
_cell_angle_alpha   88.45883141
_cell_angle_beta   91.83310000
_cell_angle_gamma   88.89338651
_symmetry_Int_Tables_number   1
_chemical_formula_structural   Nd4AlSi5(NO)7
_chemical_formula_sum   'Nd12 Al3 Si15 N21 O21'
_cell_volume   980.74768698
_cell_formula_units_Z   3
loop_
 _symmetry_equiv_pos_site_id
 _symmetry_equiv_pos_as_xyz
  1  'x, y, z'
loop_
 _atom_site_type_symbol
 _atom_site_label
 _atom_site_symmetry_multiplicity
 _atom_site_fract_x
 _atom_site_fract_y
 _atom_site_fract_z
 _atom_site_occupancy
  Nd  Nd0  1  0.43154200  0.24498600  0.23486600  1
  Nd  Nd1  1  0.40941600  0.40215800  0.58781700  1
  Nd  Nd2  1  0.33641200  0.67484300  0.03965700  1
  Nd  Nd3  1  0.41205000  0.28537300  0.93330100  1
  Nd  Nd4  1  0.33901800  0.74046800  0.42768300  1
  Nd  Nd5  1  0.27451400  0.74557100  0.74258700  1
  Nd  Nd6  1  0.62182900  0.11844900  0.08669200  1
  Nd  Nd7  1  0.70620500  0.26918300  0.40512600  1
  Nd  Nd8  1  0.58189900  0.88890900  0.59353800  1
  Nd  Nd9  1  0.57410200  0.25529200  0.75840000  1
  Nd  Nd10  1  0.68264700  0.70495600  0.20658700  1
  Nd  Nd11  1  0.65077500  0.81476700  0.88467900  1
  Al  Al12  1  0.87507800  0.89851500  0.00914300  1
  Al  Al13  1  0.09961400  0.02486100  0.32290600  1
  Al  Al14  1  0.12085700  0.90285700  0.55428300  1
  Si  Si15  1  0.10396000  0.50616500  0.16433600  1
  Si  Si16  1  0.98749800  0.04977700  0.65994000  1
  Si  Si17  1  0.91424400  0.55332500  0.49672200  1
  Si  Si18  1  0.88695700  0.45480600  0.83870300  1
  Si  Si19  1  0.79488200  0.51201700  0.06275600  1
  Si  Si20  1  0.89025900  0.33005800  0.27385400  1
  Si  Si21  1  0.81674600  0.71676200  0.36246900  1
  Si  Si22  1  0.88845400  0.43363900  0.63220700  1
  Si  Si23  1  0.75693600  0.64347100  0.70628800  1
  Si  Si24  1  0.85946700  0.31434000  0.96688800  1
  Si  Si25  1  0.23680100  0.21169300  0.45752200  1
  Si  Si26  1  0.17575600  0.05576000  0.10878300  1
  Si  Si27  1  0.25586900  0.84158100  0.19332000  1
  Si  Si28  1  0.16519800  0.14020400  0.80688800  1
  Si  Si29  1  0.14378100  0.75649300  0.89142900  1
  N  N30  1  0.75383900  0.50357800  0.31581400  1
  N  N31  1  0.52117300  0.61836200  0.67214900  1
  N  N32  1  0.33894200  0.59391900  0.18563100  1
  N  N33  1  0.27097800  0.37540000  0.82071300  1
  N  N34  1  0.13074100  0.67209200  0.51070300  1
  N  N35  1  0.12926000  0.54474200  0.83112300  1
  N  N36  1  0.83395400  0.09712300  0.31528300  1
  N  N37  1  0.74930500  0.63468800  0.43677600  1
  N  N38  1  0.69346500  0.94696200  0.34081100  1
  N  N39  1  0.69159000  0.74278100  0.04718700  1
  N  N40  1  0.72817300  0.08864500  0.96096600  1
  N  N41  1  0.72471500  0.41348400  0.14447500  1
  N  N42  1  0.88938300  0.36958000  0.19156700  1
  N  N43  1  0.58574000  0.16732200  0.65038100  1
  N  N44  1  0.78170000  0.22629500  0.66774500  1
  N  N45  1  0.73240400  0.58333900  0.78487800  1
  N  N46  1  0.77319900  0.50323300  0.56050700  1
  N  N47  1  0.75152100  0.46443200  0.90497100  1
  N  N48  1  0.50127400  0.97715700  0.17909300  1
  N  N49  1  0.32032800  0.05429600  0.51810000  1
  N  N50  1  0.39535400  0.00005100  0.81871700  1
  O  O51  1  0.50046400  0.39492400  0.03044800  1
  O  O52  1  0.31964100  0.02326900  0.04782900  1
  O  O53  1  0.25554800  0.94739200  0.26494400  1
  O  O54  1  0.22086300  0.27097300  0.14386600  1
  O  O55  1  0.19000100  0.89387100  0.63756800  1
  O  O56  1  0.24270600  0.07868100  0.39360300  1
  O  O57  1  0.39493000  0.39050700  0.44819800  1
  O  O58  1  0.12516300  0.07195300  0.73153200  1
  O  O59  1  0.36800100  0.68809700  0.92272300  1
  O  O60  1  0.01567600  0.73066900  0.19870100  1
  O  O61  1  0.89456600  0.00445100  0.57722000  1
  O  O62  1  0.04098400  0.76175900  0.96417800  1
  O  O63  1  0.95833600  0.04429900  0.07449100  1
  O  O64  1  0.00971200  0.31791800  0.46364400  1
  O  O65  1  0.92077500  0.21602000  0.81770500  1
  O  O66  1  0.03709000  0.56076100  0.08813900  1
  O  O67  1  0.05374100  0.76918600  0.35958500  1
  O  O68  1  0.83986700  0.86794800  0.69381300  1
  O  O69  1  0.12442100  0.29999300  0.29130300  1
  O  O70  1  0.10562500  0.31195900  0.63047600  1
  O  O71  1  0.09208900  0.28661100  0.95307300  1
