# generated using pymatgen
data_SiO2
_symmetry_space_group_name_H-M   'P 1'
_cell_length_a   13.13454147
_cell_length_b   13.13454279
_cell_length_c   15.33321655
_cell_angle_alpha   90.00023311
_cell_angle_beta   89.99979009
_cell_angle_gamma   120.00065725
_symmetry_Int_Tables_number   1
_chemical_formula_structural   SiO2
_chemical_formula_sum   'Si36 O72'
_cell_volume   2290.81965277
_cell_formula_units_Z   36
loop_
 _symmetry_equiv_pos_site_id
 _symmetry_equiv_pos_as_xyz
  1  'x, y, z'
loop_
 _atom_site_type_symbol
 _atom_site_label
 _atom_site_symmetry_multiplicity
 _atom_site_fract_x
 _atom_site_fract_y
 _atom_site_fract_z
 _atom_site_occupancy
  Si  Si0  1  0.99730865  0.24100778  0.10087216  1
  Si  Si1  1  0.75899615  0.76461550  0.10087033  1
  Si  Si2  1  0.23539035  0.00269006  0.10087041  1
  Si  Si3  1  0.99715025  0.76451932  0.60087111  1
  Si  Si4  1  0.23547054  0.24092135  0.60086689  1
  Si  Si5  1  0.75907272  0.00284563  0.60087163  1
  Si  Si6  1  0.75899218  0.00269136  0.10087219  1
  Si  Si7  1  0.23538443  0.24100381  0.10087035  1
  Si  Si8  1  0.99730993  0.76460965  0.10087042  1
  Si  Si9  1  0.23548070  0.00284984  0.60087106  1
  Si  Si10  1  0.75907854  0.76452941  0.60086689  1
  Si  Si11  1  0.99715433  0.24092725  0.60087165  1
  Si  Si12  1  0.99715028  0.76452079  0.89899434  1
  Si  Si13  1  0.23547253  0.24092285  0.89899443  1
  Si  Si14  1  0.75907449  0.00284674  0.89899455  1
  Si  Si15  1  0.99730825  0.24100626  0.39899463  1
  Si  Si16  1  0.75899407  0.76461474  0.39899166  1
  Si  Si17  1  0.23539106  0.00269127  0.39899363  1
  Si  Si18  1  0.23547922  0.00284978  0.89899435  1
  Si  Si19  1  0.75907709  0.76452742  0.89899441  1
  Si  Si20  1  0.99715328  0.24092555  0.89899455  1
  Si  Si21  1  0.75899372  0.00269184  0.39899466  1
  Si  Si22  1  0.23538564  0.24100621  0.39899144  1
  Si  Si23  1  0.99730893  0.76460898  0.39899365  1
  Si  Si24  1  0.08886466  0.42649869  0.24993454  1
  Si  Si25  1  0.57349543  0.67066255  0.24993018  1
  Si  Si26  1  0.32933812  0.91113843  0.24993249  1
  Si  Si27  1  0.90560388  0.57903706  0.74993369  1
  Si  Si28  1  0.42095944  0.33486856  0.74993012  1
  Si  Si29  1  0.66512727  0.09439291  0.74993312  1
  Si  Si30  1  0.57350129  0.91113539  0.24993443  1
  Si  Si31  1  0.32933753  0.42650473  0.24993013  1
  Si  Si32  1  0.08886160  0.67066185  0.24993250  1
  Si  Si33  1  0.42096297  0.09439621  0.74993375  1
  Si  Si34  1  0.66513146  0.57904060  0.74993011  1
  Si  Si35  1  0.90560687  0.33487260  0.74993300  1
  O  O36  1  0.87048990  0.12951010  0.12689263  1
  O  O37  1  0.87049720  0.74930205  0.12689408  1
  O  O38  1  0.25069780  0.12950273  0.12689409  1
  O  O39  1  0.12397964  0.87602044  0.62689369  1
  O  O40  1  0.12397793  0.25625090  0.62689457  1
  O  O41  1  0.74374903  0.87602205  0.62689456  1
  O  O42  1  0.12397991  0.87602011  0.87296987  1
  O  O43  1  0.12397720  0.25625051  0.87297080  1
  O  O44  1  0.74374969  0.87602290  0.87297094  1
  O  O45  1  0.87048863  0.12951129  0.37297317  1
  O  O46  1  0.87049612  0.74930109  0.37296943  1
  O  O47  1  0.25069926  0.12950416  0.37296916  1
  O  O48  1  0.02347434  0.35146364  0.16273909  1
  O  O49  1  0.64854179  0.68031905  0.16273811  1
  O  O50  1  0.31967463  0.97652667  0.16274277  1
  O  O51  1  0.97100277  0.65407739  0.66274227  1
  O  O52  1  0.34591182  0.32521811  0.66274180  1
  O  O53  1  0.67477933  0.02899708  0.66274383  1
  O  O54  1  0.64853621  0.97652570  0.16273899  1
  O  O55  1  0.31968090  0.35145813  0.16273821  1
  O  O56  1  0.02347330  0.68032534  0.16274278  1
  O  O57  1  0.34592256  0.02899732  0.66274229  1
  O  O58  1  0.67478170  0.65408809  0.66274174  1
  O  O59  1  0.97100304  0.32522111  0.66274365  1
  O  O60  1  0.97100410  0.65407905  0.83712448  1
  O  O61  1  0.34591435  0.32521755  0.83711983  1
  O  O62  1  0.67478170  0.02899736  0.83712040  1
  O  O63  1  0.02347178  0.35146194  0.33712861  1
  O  O64  1  0.64854010  0.68031827  0.33712368  1
  O  O65  1  0.31967480  0.97652706  0.33712229  1
  O  O66  1  0.34592108  0.02899590  0.83712459  1
  O  O67  1  0.67478202  0.65408540  0.83711997  1
  O  O68  1  0.97100234  0.32521798  0.83712032  1
  O  O69  1  0.64853812  0.97652802  0.33712853  1
  O  O70  1  0.31968198  0.35146019  0.33712343  1
  O  O71  1  0.02347283  0.68032495  0.33712237  1
  O  O72  1  0.09774212  0.20379618  0.11455527  1
  O  O73  1  0.79620366  0.90225781  0.11455519  1
  O  O74  1  0.09775081  0.90224919  0.11454935  1
  O  O75  1  0.89671287  0.80171599  0.61455491  1
  O  O76  1  0.19828385  0.10328705  0.61455491  1
  O  O77  1  0.89670868  0.10329131  0.61454689  1
  O  O78  1  0.89671153  0.80171462  0.88531028  1
  O  O79  1  0.19828495  0.10328825  0.88531022  1
  O  O80  1  0.89670927  0.10329075  0.88531826  1
  O  O81  1  0.09774240  0.20379670  0.38530694  1
  O  O82  1  0.79620340  0.90225793  0.38530702  1
  O  O83  1  0.09775239  0.90224769  0.38531134  1
  O  O84  1  0.99721862  0.27957102  0.99993287  1
  O  O85  1  0.72041887  0.72595482  0.99993291  1
  O  O86  1  0.27405324  0.00278965  0.99993361  1
  O  O87  1  0.99721014  0.72594658  0.49993119  1
  O  O88  1  0.27404512  0.27958156  0.49992967  1
  O  O89  1  0.72042933  0.00278120  0.49993283  1
  O  O90  1  0.72042926  0.00278151  0.99993285  1
  O  O91  1  0.27404539  0.27958136  0.99993294  1
  O  O92  1  0.99721013  0.72594662  0.99993360  1
  O  O93  1  0.27405338  0.00278984  0.49993116  1
  O  O94  1  0.72041827  0.72595448  0.49992975  1
  O  O95  1  0.99721873  0.27957051  0.49993284  1
  O  O96  1  0.22647516  0.46124773  0.24993127  1
  O  O97  1  0.53875276  0.77352517  0.24993128  1
  O  O98  1  0.22646975  0.77353026  0.24993267  1
  O  O99  1  0.76800929  0.54432385  0.74993059  1
  O  O100  1  0.45567625  0.23199077  0.74993056  1
  O  O101  1  0.76801653  0.23198327  0.74993078  1
  O  O102  1  0.07979649  0.54404704  0.24993212  1
  O  O103  1  0.45593909  0.54406099  0.24993259  1
  O  O104  1  0.45595305  0.92020358  0.24993218  1
  O  O105  1  0.91465180  0.46147735  0.74993256  1
  O  O106  1  0.53851313  0.46148688  0.74993172  1
  O  O107  1  0.53852251  0.08534788  0.74993240  1
