# generated using pymatgen
data_Ca3Co2(Si2O7)2
_symmetry_space_group_name_H-M   'P 1'
_cell_length_a   9.35006770
_cell_length_b   9.35006770
_cell_length_c   10.10626042
_cell_angle_alpha   60.32411045
_cell_angle_beta   60.32411045
_cell_angle_gamma   48.69037883
_symmetry_Int_Tables_number   1
_chemical_formula_structural   Ca3Co2(Si2O7)2
_chemical_formula_sum   'Ca6 Co4 Si8 O28'
_cell_volume   557.12284358
_cell_formula_units_Z   2
loop_
 _symmetry_equiv_pos_site_id
 _symmetry_equiv_pos_as_xyz
  1  'x, y, z'
loop_
 _atom_site_type_symbol
 _atom_site_label
 _atom_site_symmetry_multiplicity
 _atom_site_fract_x
 _atom_site_fract_y
 _atom_site_fract_z
 _atom_site_occupancy
  Ca  Ca0  1  0.22889600  0.16242200  0.54104500  1
  Ca  Ca1  1  0.83757800  0.77110400  0.95895500  1
  Ca  Ca2  1  0.16242200  0.22889600  0.04104500  1
  Ca  Ca3  1  0.65298400  0.34701600  0.25000000  1
  Ca  Ca4  1  0.77110400  0.83757800  0.45895500  1
  Ca  Ca5  1  0.34701600  0.65298400  0.75000000  1
  Co  Co6  1  0.21384000  0.78616000  0.25000000  1
  Co  Co7  1  0.78616000  0.21384000  0.75000000  1
  Co  Co8  1  0.00000000  0.00000000  0.00000000  1
  Co  Co9  1  0.00000000  0.00000000  0.50000000  1
  Si  Si10  1  0.11181600  0.53507700  0.65744000  1
  Si  Si11  1  0.53507700  0.11181600  0.15744000  1
  Si  Si12  1  0.21228600  0.53573300  0.14587100  1
  Si  Si13  1  0.53573300  0.21228600  0.64587100  1
  Si  Si14  1  0.46492300  0.88818400  0.84256000  1
  Si  Si15  1  0.78771400  0.46426700  0.85412900  1
  Si  Si16  1  0.46426700  0.78771400  0.35412900  1
  Si  Si17  1  0.88818400  0.46492300  0.34256000  1
  O  O18  1  0.29389100  0.87790800  0.50438100  1
  O  O19  1  0.89615200  0.97597100  0.71658300  1
  O  O20  1  0.65140300  0.45189400  0.80949800  1
  O  O21  1  0.97597100  0.89615200  0.21658300  1
  O  O22  1  0.94347400  0.26306200  0.48287300  1
  O  O23  1  0.50936600  0.04959700  0.81596700  1
  O  O24  1  0.45189400  0.65140300  0.30949800  1
  O  O25  1  0.73693800  0.05652600  0.01712700  1
  O  O26  1  0.49063400  0.95040300  0.18403300  1
  O  O27  1  0.67332300  0.65693900  0.40731300  1
  O  O28  1  0.10384800  0.02402900  0.28341700  1
  O  O29  1  0.05652600  0.73693800  0.51712700  1
  O  O30  1  0.95040300  0.49063400  0.68403300  1
  O  O31  1  0.87790800  0.29389100  0.00438100  1
  O  O32  1  0.65693900  0.67332300  0.90731300  1
  O  O33  1  0.26306200  0.94347400  0.98287300  1
  O  O34  1  0.46980300  0.89356100  0.67849900  1
  O  O35  1  0.32667700  0.34306100  0.59268700  1
  O  O36  1  0.10643900  0.53019700  0.82150100  1
  O  O37  1  0.34306100  0.32667700  0.09268700  1
  O  O38  1  0.04959700  0.50936600  0.31596700  1
  O  O39  1  0.02402900  0.10384800  0.78341700  1
  O  O40  1  0.89356100  0.46980300  0.17849900  1
  O  O41  1  0.34859700  0.54810600  0.19050200  1
  O  O42  1  0.53019700  0.10643900  0.32150100  1
  O  O43  1  0.54810600  0.34859700  0.69050200  1
  O  O44  1  0.12209200  0.70610900  0.99561900  1
  O  O45  1  0.70610900  0.12209200  0.49561900  1
