# generated using pymatgen
data_SiO2
_symmetry_space_group_name_H-M   'P 1'
_cell_length_a   22.81595022
_cell_length_b   13.60412855
_cell_length_c   12.57358217
_cell_angle_alpha   89.99996484
_cell_angle_beta   69.38730945
_cell_angle_gamma   90.00001728
_symmetry_Int_Tables_number   1
_chemical_formula_structural   SiO2
_chemical_formula_sum   'Si56 O112'
_cell_volume   3652.88176460
_cell_formula_units_Z   56
loop_
 _symmetry_equiv_pos_site_id
 _symmetry_equiv_pos_as_xyz
  1  'x, y, z'
loop_
 _atom_site_type_symbol
 _atom_site_label
 _atom_site_symmetry_multiplicity
 _atom_site_fract_x
 _atom_site_fract_y
 _atom_site_fract_z
 _atom_site_occupancy
  Si  Si0  1  0.07106026  0.11478726  0.48194237  1
  Si  Si1  1  0.57105992  0.61478735  0.48194254  1
  Si  Si2  1  0.92893986  0.11478738  0.51805749  1
  Si  Si3  1  0.42893986  0.61478766  0.51805722  1
  Si  Si4  1  0.92894141  0.88341301  0.51804956  1
  Si  Si5  1  0.42894111  0.38341300  0.51804961  1
  Si  Si6  1  0.07105874  0.88341315  0.48195009  1
  Si  Si7  1  0.57105863  0.38341302  0.48195077  1
  Si  Si8  1  0.15923817  0.19736657  0.24940761  1
  Si  Si9  1  0.65923818  0.69736620  0.24940788  1
  Si  Si10  1  0.84076193  0.19736645  0.75059212  1
  Si  Si11  1  0.34076189  0.69736642  0.75059216  1
  Si  Si12  1  0.84076821  0.80082923  0.75059220  1
  Si  Si13  1  0.34076828  0.30082951  0.75059213  1
  Si  Si14  1  0.15923162  0.80082914  0.24940817  1
  Si  Si15  1  0.65923183  0.30082894  0.24940790  1
  Si  Si16  1  0.07178521  0.11450031  0.73208506  1
  Si  Si17  1  0.57178515  0.61450009  0.73208521  1
  Si  Si18  1  0.92821477  0.11450053  0.26791491  1
  Si  Si19  1  0.42821477  0.61450015  0.26791519  1
  Si  Si20  1  0.92821545  0.88370419  0.26790916  1
  Si  Si21  1  0.42821554  0.38370424  0.26790964  1
  Si  Si22  1  0.07178479  0.88370413  0.73209033  1
  Si  Si23  1  0.57178465  0.38370413  0.73209028  1
  Si  Si24  1  0.28858822  0.11196224  0.10676893  1
  Si  Si25  1  0.78858841  0.61196181  0.10676931  1
  Si  Si26  1  0.71141162  0.11196236  0.89323087  1
  Si  Si27  1  0.21141152  0.61196234  0.89323121  1
  Si  Si28  1  0.71141121  0.88623588  0.89321525  1
  Si  Si29  1  0.21141106  0.38623595  0.89321563  1
  Si  Si30  1  0.28858865  0.88623545  0.10678452  1
  Si  Si31  1  0.78858892  0.38623564  0.10678421  1
  Si  Si32  1  0.27542316  0.11180348  0.86158141  1
  Si  Si33  1  0.77542297  0.61180344  0.86158215  1
  Si  Si34  1  0.72457683  0.11180412  0.13841825  1
  Si  Si35  1  0.22457673  0.61180360  0.13841852  1
  Si  Si36  1  0.72457413  0.88638920  0.13840707  1
  Si  Si37  1  0.22457403  0.38638911  0.13840722  1
  Si  Si38  1  0.27542610  0.88638914  0.86159260  1
  Si  Si39  1  0.77542593  0.38638924  0.86159297  1
  Si  Si40  1  0.07003761  0.11783133  0.11863926  1
  Si  Si41  1  0.57003777  0.61783122  0.11863951  1
  Si  Si42  1  0.92996219  0.11783107  0.88136110  1
  Si  Si43  1  0.42996222  0.61783119  0.88136093  1
  Si  Si44  1  0.92996271  0.88035770  0.88136652  1
  Si  Si45  1  0.42996249  0.38035822  0.88136659  1
  Si  Si46  1  0.07003747  0.88035791  0.11863303  1
  Si  Si47  1  0.57003776  0.38035770  0.11863305  1
  Si  Si48  1  0.14255256  0.19659306  0.87743977  1
  Si  Si49  1  0.64255250  0.69659296  0.87743986  1
  Si  Si50  1  0.85744748  0.19659317  0.12256001  1
  Si  Si51  1  0.35744745  0.69659308  0.12256008  1
  Si  Si52  1  0.85744304  0.80160074  0.12256122  1
  Si  Si53  1  0.35744315  0.30160097  0.12256150  1
  Si  Si54  1  0.14255690  0.80160058  0.87743869  1
  Si  Si55  1  0.64255697  0.30160078  0.87743884  1
  O  O56  1  0.00000012  0.15082358  0.49999949  1
  O  O57  1  0.50000004  0.65082348  0.49999959  1
  O  O58  1  -0.00000012  0.84738795  0.50000009  1
  O  O59  1  0.49999993  0.34738884  0.50000080  1
  O  O60  1  0.07862948  0.99909944  0.44431068  1
  O  O61  1  0.57862965  0.49909915  0.44431135  1
  O  O62  1  0.92137056  0.99909928  0.55568908  1
  O  O63  1  0.42137023  0.49909921  0.55568856  1
  O  O64  1  0.12040902  0.18040922  0.38330570  1
  O  O65  1  0.62040886  0.68040896  0.38330602  1
  O  O66  1  0.87959150  0.18040911  0.61669420  1
  O  O67  1  0.37959109  0.68040900  0.61669430  1
  O  O68  1  0.87959284  0.81779253  0.61669830  1
  O  O69  1  0.37959298  0.31779305  0.61669841  1
  O  O70  1  0.12040679  0.81779291  0.38330188  1
  O  O71  1  0.62040694  0.31779208  0.38330203  1
  O  O72  1  0.08633246  0.13053343  0.59736518  1
  O  O73  1  0.58633218  0.63053314  0.59736616  1
  O  O74  1  0.91366735  0.13053264  0.40263491  1
  O  O75  1  0.41366710  0.63053312  0.40263448  1
  O  O76  1  0.91366145  0.86766504  0.40263453  1
  O  O77  1  0.41366103  0.36766497  0.40263475  1
  O  O78  1  0.08633876  0.86766580  0.59736488  1
  O  O79  1  0.58633876  0.36766463  0.59736536  1
  O  O80  1  0.22391696  0.13351901  0.21308867  1
  O  O81  1  0.72391706  0.63351935  0.21308931  1
  O  O82  1  0.77608297  0.13351955  0.78691132  1
  O  O83  1  0.27608292  0.63351934  0.78691128  1
  O  O84  1  0.77609007  0.86468634  0.78690290  1
  O  O85  1  0.27609019  0.36468738  0.78690226  1
  O  O86  1  0.22390987  0.86468645  0.21309709  1
  O  O87  1  0.72390972  0.36468709  0.21309694  1
  O  O88  1  0.17491890  0.31423597  0.22929246  1
  O  O89  1  0.67491868  0.81423632  0.22929279  1
  O  O90  1  0.82508142  0.31423659  0.77070703  1
  O  O91  1  0.32508169  0.81423634  0.77070725  1
  O  O92  1  0.82508230  0.68395973  0.77070526  1
  O  O93  1  0.32508198  0.18396062  0.77070536  1
  O  O94  1  0.17491768  0.68395950  0.22929517  1
  O  O95  1  0.67491777  0.18395963  0.22929528  1
  O  O96  1  0.11879621  0.16375885  0.17247686  1
  O  O97  1  0.61879609  0.66375834  0.17247664  1
  O  O98  1  0.88120354  0.16375888  0.82752384  1
  O  O99  1  0.38120393  0.66375871  0.82752405  1
  O  O100  1  0.88119828  0.83443174  0.82753829  1
  O  O101  1  0.38119853  0.33443272  0.82753895  1
  O  O102  1  0.11880145  0.83443164  0.17246136  1
  O  O103  1  0.61880164  0.33443225  0.17246167  1
  O  O104  1  0.12144721  0.17994363  0.76794261  1
  O  O105  1  0.62144725  0.67994386  0.76794270  1
  O  O106  1  0.87855243  0.17994376  0.23205794  1
  O  O107  1  0.37855244  0.67994354  0.23205727  1
  O  O108  1  0.87855087  0.81826318  0.23205388  1
  O  O109  1  0.37855145  0.31826281  0.23205335  1
  O  O110  1  0.12144914  0.81826279  0.76794582  1
  O  O111  1  0.62144874  0.31826237  0.76794621  1
  O  O112  1  0.00066626  0.14995728  0.80375910  1
  O  O113  1  0.50066634  0.64995777  0.80375960  1
  O  O114  1  0.99933361  0.14995805  0.19624050  1
  O  O115  1  0.49933386  0.64995768  0.19624050  1
  O  O116  1  0.99933523  0.84824523  0.19625175  1
  O  O117  1  0.49933564  0.34824541  0.19625178  1
  O  O118  1  0.00066464  0.84824510  0.80374812  1
  O  O119  1  0.50066452  0.34824501  0.80374802  1
  O  O120  1  0.08001035  0.99910224  0.75888421  1
  O  O121  1  0.58001044  0.49910208  0.75888454  1
  O  O122  1  0.91998969  0.99910217  0.24111559  1
  O  O123  1  0.41998994  0.49910205  0.24111580  1
  O  O124  1  0.31070717  0.99909890  0.11244081  1
  O  O125  1  0.81070759  0.49909897  0.11244117  1
  O  O126  1  0.68929260  0.99909902  0.88755901  1
  O  O127  1  0.18929269  0.49909940  0.88755886  1
  O  O128  1  0.27614032  0.13181793  0.98875974  1
  O  O129  1  0.77613981  0.63181760  0.98876017  1
  O  O130  1  0.72385972  0.13181912  0.01123987  1
  O  O131  1  0.22385991  0.63181808  0.01124068  1
  O  O132  1  0.72385672  0.86638260  0.01122647  1
  O  O133  1  0.22385649  0.36638332  0.01122721  1
  O  O134  1  0.27614324  0.86638307  0.98877350  1
  O  O135  1  0.77614308  0.36638269  0.98877280  1
  O  O136  1  0.34369155  0.18487165  0.11354576  1
  O  O137  1  0.84369168  0.68487141  0.11354545  1
  O  O138  1  0.65630826  0.18487131  0.88645445  1
  O  O139  1  0.15630809  0.68487109  0.88645515  1
  O  O140  1  0.65630668  0.81332672  0.88644432  1
  O  O141  1  0.15630672  0.31332650  0.88644482  1
  O  O142  1  0.34369337  0.81332647  0.11355477  1
  O  O143  1  0.84369342  0.31332658  0.11355464  1
  O  O144  1  0.29555443  0.99909550  0.82352445  1
  O  O145  1  0.79555445  0.49909577  0.82352541  1
  O  O146  1  0.70444584  0.99909570  0.17647420  1
  O  O147  1  0.20444550  0.49909523  0.17647510  1
  O  O148  1  0.20503088  0.13200600  0.86240103  1
  O  O149  1  0.70503064  0.63200626  0.86240100  1
  O  O150  1  0.79496881  0.13200644  0.13759865  1
  O  O151  1  0.29496925  0.63200610  0.13759939  1
  O  O152  1  0.79496891  0.86620074  0.13758160  1
  O  O153  1  0.29496906  0.36620057  0.13758186  1
  O  O154  1  0.20503134  0.86619979  0.86241861  1
  O  O155  1  0.70503119  0.36620073  0.86241759  1
  O  O156  1  0.07682346  0.99909657  0.11436194  1
  O  O157  1  0.57682388  0.49909661  0.11436143  1
  O  O158  1  0.92317663  0.99909602  0.88563782  1
  O  O159  1  0.42317681  0.49909667  0.88563834  1
  O  O160  1  0.08561595  0.16067770  0.99085950  1
  O  O161  1  0.58561581  0.66067776  0.99085952  1
  O  O162  1  0.91438404  0.16067722  0.00914086  1
  O  O163  1  0.41438450  0.66067778  0.00914098  1
  O  O164  1  0.91438388  0.83752511  0.00914955  1
  O  O165  1  0.41438414  0.33752511  0.00914928  1
  O  O166  1  0.08561624  0.83752560  0.99085021  1
  O  O167  1  0.58561637  0.33752488  0.99085026  1
