# generated using pymatgen
data_Ti3AlSe2ClO8
_symmetry_space_group_name_H-M   'P 1'
_cell_length_a   7.57809400
_cell_length_b   8.28796730
_cell_length_c   9.04292969
_cell_angle_alpha   89.24659744
_cell_angle_beta   81.41590180
_cell_angle_gamma   89.62102647
_symmetry_Int_Tables_number   1
_chemical_formula_structural   Ti3AlSe2ClO8
_chemical_formula_sum   'Ti6 Al2 Se4 Cl2 O16'
_cell_volume   561.54210871
_cell_formula_units_Z   2
loop_
 _symmetry_equiv_pos_site_id
 _symmetry_equiv_pos_as_xyz
  1  'x, y, z'
loop_
 _atom_site_type_symbol
 _atom_site_label
 _atom_site_symmetry_multiplicity
 _atom_site_fract_x
 _atom_site_fract_y
 _atom_site_fract_z
 _atom_site_occupancy
  Ti  Ti0  1  0.60960700  0.96110200  0.01576700  1
  Ti  Ti1  1  0.43387500  0.06735000  0.53621300  1
  Ti  Ti2  1  0.97399400  0.96070900  0.01858300  1
  Ti  Ti3  1  0.79507600  0.23105500  0.73817300  1
  Ti  Ti4  1  0.29447500  0.77575300  0.25538500  1
  Ti  Ti5  1  0.05295400  0.04253100  0.51368000  1
  Al  Al6  1  0.19075500  0.10389400  0.20456200  1
  Al  Al7  1  0.68096900  0.88783300  0.69640900  1
  Se  Se8  1  0.86576600  0.32254100  0.08517000  1
  Se  Se9  1  0.19202000  0.60409800  0.93168000  1
  Se  Se10  1  0.67865400  0.40542900  0.41732100  1
  Se  Se11  1  0.33520400  0.67668400  0.60574200  1
  Cl  Cl12  1  0.20221100  0.17535600  0.70119100  1
  Cl  Cl13  1  0.61963100  0.77828100  0.21940800  1
  O  O14  1  0.09608200  0.90118000  0.19336600  1
  O  O15  1  0.28254500  0.63378000  0.09886400  1
  O  O16  1  0.77498200  0.37829500  0.58236500  1
  O  O17  1  0.41088600  0.07011100  0.11265300  1
  O  O18  1  0.51262400  0.83337900  0.57688400  1
  O  O19  1  0.88920300  0.88784400  0.58160500  1
  O  O20  1  0.81855900  0.04898700  0.88192900  1
  O  O21  1  0.07192800  0.17699200  0.05093800  1
  O  O22  1  0.04649600  0.18306000  0.36091600  1
  O  O23  1  0.03832200  0.76582400  0.92601900  1
  O  O24  1  0.28914100  0.96597900  0.40400500  1
  O  O25  1  0.60797200  0.09746100  0.68198500  1
  O  O26  1  0.58317300  0.81598600  0.87379300  1
  O  O27  1  0.52224800  0.24241700  0.42549700  1
  O  O28  1  0.84774200  0.36765100  0.89351200  1
  O  O29  1  0.28290600  0.63844000  0.41638500  1
