# generated using pymatgen
data_Te4Pt3
_symmetry_space_group_name_H-M   'P 1'
_cell_length_a   8.33044900
_cell_length_b   8.33044900
_cell_length_c   7.42585692
_cell_angle_alpha   83.24000632
_cell_angle_beta   83.24000632
_cell_angle_gamma   32.62332279
_symmetry_Int_Tables_number   1
_chemical_formula_structural   Te4Pt3
_chemical_formula_sum   'Te4 Pt3'
_cell_volume   275.72269286
_cell_formula_units_Z   1
loop_
 _symmetry_equiv_pos_site_id
 _symmetry_equiv_pos_as_xyz
  1  'x, y, z'
loop_
 _atom_site_type_symbol
 _atom_site_label
 _atom_site_symmetry_multiplicity
 _atom_site_fract_x
 _atom_site_fract_y
 _atom_site_fract_z
 _atom_site_occupancy
  Te  Te0  1  0.15751900  0.15751900  0.03685000  1
  Te  Te1  1  0.84248100  0.84248100  0.96315000  1
  Te  Te2  1  0.39123900  0.39123900  0.67213100  1
  Te  Te3  1  0.60876100  0.60876100  0.32786900  1
  Pt  Pt4  1  0.00000000  0.00000000  0.00000000  1
  Pt  Pt5  1  0.04022200  0.04022200  0.33889600  1
  Pt  Pt6  1  0.95977800  0.95977800  0.66110400  1
