# generated using pymatgen
data_AlFe3(SiO4)3
_symmetry_space_group_name_H-M   'P 1'
_cell_length_a   9.97182526
_cell_length_b   9.97182526
_cell_length_c   9.97182526
_cell_angle_alpha   109.47122063
_cell_angle_beta   109.47122063
_cell_angle_gamma   109.47122063
_symmetry_Int_Tables_number   1
_chemical_formula_structural   AlFe3(SiO4)3
_chemical_formula_sum   'Al4 Fe12 Si12 O48'
_cell_volume   763.31199733
_cell_formula_units_Z   4
loop_
 _symmetry_equiv_pos_site_id
 _symmetry_equiv_pos_as_xyz
  1  'x, y, z'
loop_
 _atom_site_type_symbol
 _atom_site_label
 _atom_site_symmetry_multiplicity
 _atom_site_fract_x
 _atom_site_fract_y
 _atom_site_fract_z
 _atom_site_occupancy
  Al  Al0  1  0.00000000  0.00000000  0.50000000  1
  Al  Al1  1  0.50000000  0.00000000  0.00000000  1
  Al  Al2  1  0.00000000  0.50000000  0.00000000  1
  Al  Al3  1  0.50000000  0.50000000  0.50000000  1
  Fe  Fe4  1  0.25000000  0.86344200  0.61344200  1
  Fe  Fe5  1  0.75000000  0.63655800  0.88655800  1
  Fe  Fe6  1  0.63655800  0.88655800  0.75000000  1
  Fe  Fe7  1  0.86344200  0.61344200  0.25000000  1
  Fe  Fe8  1  0.61344200  0.25000000  0.86344200  1
  Fe  Fe9  1  0.88655800  0.75000000  0.63655800  1
  Fe  Fe10  1  0.75000000  0.13655800  0.38655800  1
  Fe  Fe11  1  0.25000000  0.36344200  0.11344200  1
  Fe  Fe12  1  0.36344200  0.11344200  0.25000000  1
  Fe  Fe13  1  0.13655800  0.38655800  0.75000000  1
  Fe  Fe14  1  0.38655800  0.75000000  0.13655800  1
  Fe  Fe15  1  0.11344200  0.25000000  0.36344200  1
  Si  Si16  1  0.12471600  0.87471600  0.25000000  1
  Si  Si17  1  0.25000000  0.12471600  0.87471600  1
  Si  Si18  1  0.75000000  0.37528400  0.62528400  1
  Si  Si19  1  0.62471600  0.37471600  0.25000000  1
  Si  Si20  1  0.62528400  0.75000000  0.37528400  1
  Si  Si21  1  0.37528400  0.62528400  0.75000000  1
  Si  Si22  1  0.12528400  0.75000000  0.87528400  1
  Si  Si23  1  0.75000000  0.87528400  0.12528400  1
  Si  Si24  1  0.87471600  0.25000000  0.12471600  1
  Si  Si25  1  0.37471600  0.25000000  0.62471600  1
  Si  Si26  1  0.25000000  0.62471600  0.37471600  1
  Si  Si27  1  0.87528400  0.12528400  0.75000000  1
  O  O28  1  0.47896400  0.37750500  0.29574500  1
  O  O29  1  0.31678100  0.89854100  0.02103600  1
  O  O30  1  0.60145900  0.91824000  0.12249500  1
  O  O31  1  0.58176000  0.18321900  0.20425500  1
  O  O32  1  0.13269300  0.03464400  0.23252500  1
  O  O33  1  0.18321900  0.20425500  0.58176000  1
  O  O34  1  0.19788000  0.46535600  0.59804900  1
  O  O35  1  0.20425500  0.58176000  0.18321900  1
  O  O36  1  0.36730700  0.59983100  0.90195100  1
  O  O37  1  0.90016900  0.26747500  0.30212000  1
  O  O38  1  0.26747500  0.30212000  0.90016900  1
  O  O39  1  0.23252400  0.13269300  0.03464400  1
  O  O40  1  0.46535600  0.59804900  0.19788000  1
  O  O41  1  0.90195100  0.36730700  0.59983100  1
  O  O42  1  0.03464400  0.23252400  0.13269300  1
  O  O43  1  0.59804900  0.19788000  0.46535600  1
  O  O44  1  0.59983100  0.90195100  0.36730700  1
  O  O45  1  0.02103600  0.31678100  0.89854100  1
  O  O46  1  0.91824000  0.12249500  0.60145900  1
  O  O47  1  0.63269300  0.40016900  0.09804900  1
  O  O48  1  0.12249500  0.60145900  0.91824000  1
  O  O49  1  0.29574500  0.47896400  0.37750500  1
  O  O50  1  0.89854100  0.02103600  0.31678100  1
  O  O51  1  0.30212000  0.90016900  0.26747500  1
  O  O52  1  0.52103600  0.62249500  0.70425500  1
  O  O53  1  0.68321900  0.10145900  0.97896400  1
  O  O54  1  0.39854100  0.08176000  0.87750500  1
  O  O55  1  0.41824000  0.81678100  0.79574500  1
  O  O56  1  0.86730700  0.96535600  0.76747500  1
  O  O57  1  0.81678100  0.79574500  0.41824000  1
  O  O58  1  0.80212000  0.53464400  0.40195100  1
  O  O59  1  0.79574500  0.41824000  0.81678100  1
  O  O60  1  0.69788000  0.09983100  0.73252500  1
  O  O61  1  0.10145900  0.97896400  0.68321900  1
  O  O62  1  0.70425500  0.52103600  0.62249500  1
  O  O63  1  0.62249500  0.70425500  0.52103600  1
  O  O64  1  0.87750500  0.39854100  0.08176000  1
  O  O65  1  0.08176000  0.87750500  0.39854100  1
  O  O66  1  0.97896400  0.68321900  0.10145900  1
  O  O67  1  0.40016900  0.09804900  0.63269300  1
  O  O68  1  0.40195100  0.80212000  0.53464400  1
  O  O69  1  0.96535600  0.76747500  0.86730700  1
  O  O70  1  0.09804900  0.63269300  0.40016900  1
  O  O71  1  0.53464400  0.40195100  0.80212000  1
  O  O72  1  0.76747500  0.86730700  0.96535600  1
  O  O73  1  0.73252400  0.69788000  0.09983100  1
  O  O74  1  0.09983100  0.73252500  0.69788000  1
  O  O75  1  0.37750500  0.29574500  0.47896400  1
