# generated using pymatgen
data_Ba2Mn2AlTlO7
_symmetry_space_group_name_H-M   'P 1'
_cell_length_a   3.76435300
_cell_length_b   3.76435300
_cell_length_c   13.98750800
_cell_angle_alpha   90.00000000
_cell_angle_beta   90.00000000
_cell_angle_gamma   90.00000000
_symmetry_Int_Tables_number   1
_chemical_formula_structural   Ba2Mn2AlTlO7
_chemical_formula_sum   'Ba2 Mn2 Al1 Tl1 O7'
_cell_volume   198.20793306
_cell_formula_units_Z   1
loop_
 _symmetry_equiv_pos_site_id
 _symmetry_equiv_pos_as_xyz
  1  'x, y, z'
loop_
 _atom_site_type_symbol
 _atom_site_label
 _atom_site_symmetry_multiplicity
 _atom_site_fract_x
 _atom_site_fract_y
 _atom_site_fract_z
 _atom_site_occupancy
  Ba  Ba0  1  0.50000000  0.50000000  0.19461000  1
  Ba  Ba1  1  0.50000000  0.50000000  0.80539000  1
  Mn  Mn2  1  0.00000000  0.00000000  0.37178200  1
  Mn  Mn3  1  0.00000000  0.00000000  0.62821800  1
  Al  Al4  1  0.50000000  0.50000000  0.50000000  1
  Tl  Tl5  1  0.00000000  0.00000000  0.00000000  1
  O  O6  1  0.00000000  0.00000000  0.22422900  1
  O  O7  1  0.00000000  0.50000000  0.41281700  1
  O  O8  1  0.50000000  0.00000000  0.41281700  1
  O  O9  1  0.50000000  0.00000000  0.58718300  1
  O  O10  1  0.50000000  0.50000000  0.00000000  1
  O  O11  1  0.00000000  0.50000000  0.58718300  1
  O  O12  1  0.00000000  0.00000000  0.77577100  1
