# generated using pymatgen
data_Ca5Si2HO9F
_symmetry_space_group_name_H-M   'P 1'
_cell_length_a   9.83001000
_cell_length_b   7.50564982
_cell_length_c   7.03946613
_cell_angle_alpha   110.78981657
_cell_angle_beta   90.00000000
_cell_angle_gamma   90.00000000
_symmetry_Int_Tables_number   1
_chemical_formula_structural   Ca5Si2HO9F
_chemical_formula_sum   'Ca10 Si4 H2 O18 F2'
_cell_volume   485.55890986
_cell_formula_units_Z   2
loop_
 _symmetry_equiv_pos_site_id
 _symmetry_equiv_pos_as_xyz
  1  'x, y, z'
loop_
 _atom_site_type_symbol
 _atom_site_label
 _atom_site_symmetry_multiplicity
 _atom_site_fract_x
 _atom_site_fract_y
 _atom_site_fract_z
 _atom_site_occupancy
  Ca  Ca0  1  0.19786000  0.00888500  0.51775700  1
  Ca  Ca1  1  0.55904500  0.85068400  0.40936400  1
  Ca  Ca2  1  0.84150000  0.10397400  0.62812000  1
  Ca  Ca3  1  0.42435500  0.35827600  0.40463600  1
  Ca  Ca4  1  0.57490000  0.44755300  0.88910500  1
  Ca  Ca5  1  0.69786000  0.99111500  0.98224300  1
  Ca  Ca6  1  0.05904500  0.14931600  0.09063600  1
  Ca  Ca7  1  0.34150000  0.89602600  0.87188000  1
  Ca  Ca8  1  0.92435500  0.64172400  0.09536400  1
  Ca  Ca9  1  0.07490000  0.55244700  0.61089500  1
  Si  Si10  1  0.77942100  0.61425400  0.62051600  1
  Si  Si11  1  0.73649000  0.41311500  0.23841700  1
  Si  Si12  1  0.27942100  0.38574600  0.87948400  1
  Si  Si13  1  0.23649000  0.58688500  0.26158300  1
  H  H14  1  0.60933400  0.27824000  0.16093900  1
  H  H15  1  0.10933400  0.72176000  0.33906100  1
  O  O16  1  0.37773300  0.49114200  0.10241600  1
  O  O17  1  0.26261600  0.95717800  0.19189900  1
  O  O18  1  0.74023500  0.83317200  0.63736200  1
  O  O19  1  0.14588300  0.52044600  0.01655200  1
  O  O20  1  0.53212900  0.10917600  0.79272900  1
  O  O21  1  0.88891900  0.95661300  0.18944500  1
  O  O22  1  0.69452600  0.59919000  0.17337200  1
  O  O23  1  0.10021700  0.83508800  0.87069000  1
  O  O24  1  0.33211600  0.72300200  0.46885000  1
  O  O25  1  0.87773300  0.50885800  0.39758400  1
  O  O26  1  0.76261600  0.04282200  0.30810100  1
  O  O27  1  0.24023500  0.16682800  0.86263800  1
  O  O28  1  0.64588300  0.47955400  0.48344800  1
  O  O29  1  0.03212900  0.89082400  0.70727100  1
  O  O30  1  0.38891900  0.04338700  0.31055500  1
  O  O31  1  0.19452600  0.40081000  0.32662800  1
  O  O32  1  0.60021700  0.16491200  0.62931000  1
  O  O33  1  0.83211600  0.27699800  0.03115000  1
  F  F34  1  0.03372000  0.23962800  0.57313100  1
  F  F35  1  0.53372000  0.76037200  0.92686900  1
