# generated using pymatgen
data_Li2AlFeO4
_symmetry_space_group_name_H-M   'P 1'
_cell_length_a   10.54583700
_cell_length_b   5.35407500
_cell_length_c   13.18596800
_cell_angle_alpha   90.00000000
_cell_angle_beta   90.00000000
_cell_angle_gamma   90.00000000
_symmetry_Int_Tables_number   1
_chemical_formula_structural   Li2AlFeO4
_chemical_formula_sum   'Li16 Al8 Fe8 O32'
_cell_volume   744.52197786
_cell_formula_units_Z   8
loop_
 _symmetry_equiv_pos_site_id
 _symmetry_equiv_pos_as_xyz
  1  'x, y, z'
loop_
 _atom_site_type_symbol
 _atom_site_label
 _atom_site_symmetry_multiplicity
 _atom_site_fract_x
 _atom_site_fract_y
 _atom_site_fract_z
 _atom_site_occupancy
  Li  Li0  1  0.95565500  0.94478500  0.56302800  1
  Li  Li1  1  0.95977000  0.44713300  0.93612800  1
  Li  Li2  1  0.21157400  0.87350400  0.20100900  1
  Li  Li3  1  0.21187400  0.37445000  0.29970200  1
  Li  Li4  1  0.28842600  0.87350400  0.70100900  1
  Li  Li5  1  0.28812600  0.37445000  0.79970200  1
  Li  Li6  1  0.54023000  0.44713300  0.43612800  1
  Li  Li7  1  0.54434500  0.94478500  0.06302800  1
  Li  Li8  1  0.45977000  0.55286700  0.93612800  1
  Li  Li9  1  0.45565500  0.05521500  0.56302800  1
  Li  Li10  1  0.71187400  0.62555000  0.29970200  1
  Li  Li11  1  0.71157400  0.12649600  0.20100900  1
  Li  Li12  1  0.78812600  0.62555000  0.79970200  1
  Li  Li13  1  0.78842600  0.12649600  0.70100900  1
  Li  Li14  1  0.04434500  0.05521500  0.06302800  1
  Li  Li15  1  0.04023000  0.55286700  0.43612800  1
  Al  Al16  1  0.03712900  0.95629200  0.81323000  1
  Al  Al17  1  0.20793200  0.54187700  0.05784500  1
  Al  Al18  1  0.29206800  0.54187700  0.55784500  1
  Al  Al19  1  0.46287100  0.95629200  0.31323000  1
  Al  Al20  1  0.53712900  0.04370800  0.81323000  1
  Al  Al21  1  0.70793200  0.45812300  0.05784500  1
  Al  Al22  1  0.79206800  0.45812300  0.55784500  1
  Al  Al23  1  0.96287100  0.04370800  0.31323000  1
  Fe  Fe24  1  0.03841000  0.45367100  0.68662800  1
  Fe  Fe25  1  0.20827500  0.04050200  0.44278600  1
  Fe  Fe26  1  0.29172500  0.04050200  0.94278600  1
  Fe  Fe27  1  0.46159000  0.45367100  0.18662800  1
  Fe  Fe28  1  0.53841000  0.54632900  0.68662800  1
  Fe  Fe29  1  0.70827500  0.95949900  0.44278600  1
  Fe  Fe30  1  0.79172500  0.95949900  0.94278600  1
  Fe  Fe31  1  0.96159000  0.54632900  0.18662800  1
  O  O32  1  0.01374800  0.36174500  0.30325600  1
  O  O33  1  0.01884000  0.88259700  0.20332200  1
  O  O34  1  0.05013300  0.43001400  0.06932500  1
  O  O35  1  0.03943400  0.92596900  0.42445200  1
  O  O36  1  0.20402600  0.01269700  0.81667200  1
  O  O37  1  0.21690600  0.50907500  0.67841800  1
  O  O38  1  0.21008800  0.39745500  0.45718700  1
  O  O39  1  0.20701400  0.87508800  0.04747500  1
  O  O40  1  0.28991200  0.39745500  0.95718700  1
  O  O41  1  0.29298600  0.87508800  0.54747500  1
  O  O42  1  0.28309400  0.50907500  0.17841800  1
  O  O43  1  0.29597400  0.01269700  0.31667200  1
  O  O44  1  0.44986700  0.43001400  0.56932500  1
  O  O45  1  0.46056600  0.92596900  0.92445200  1
  O  O46  1  0.48625200  0.36174500  0.80325600  1
  O  O47  1  0.48116000  0.88259700  0.70332200  1
  O  O48  1  0.51884000  0.11740300  0.20332200  1
  O  O49  1  0.51374800  0.63825500  0.30325600  1
  O  O50  1  0.53943400  0.07403100  0.42445200  1
  O  O51  1  0.55013300  0.56998600  0.06932500  1
  O  O52  1  0.71690600  0.49092500  0.67841800  1
  O  O53  1  0.70402600  0.98730300  0.81667200  1
  O  O54  1  0.70701400  0.12491200  0.04747500  1
  O  O55  1  0.71008800  0.60254500  0.45718700  1
  O  O56  1  0.79298600  0.12491200  0.54747500  1
  O  O57  1  0.78991200  0.60254500  0.95718700  1
  O  O58  1  0.78309400  0.49092500  0.17841800  1
  O  O59  1  0.79597400  0.98730300  0.31667200  1
  O  O60  1  0.96056600  0.07403100  0.92445200  1
  O  O61  1  0.94986700  0.56998600  0.56932500  1
  O  O62  1  0.98116000  0.11740300  0.70332200  1
  O  O63  1  0.98625200  0.63825500  0.80325600  1
