# generated using pymatgen
data_RbAl(H2N)4
_symmetry_space_group_name_H-M   'P 1'
_cell_length_a   7.68695100
_cell_length_b   7.68695100
_cell_length_c   5.12663300
_cell_angle_alpha   90.00000000
_cell_angle_beta   90.00000000
_cell_angle_gamma   90.00000000
_symmetry_Int_Tables_number   1
_chemical_formula_structural   RbAl(H2N)4
_chemical_formula_sum   'Rb2 Al2 H16 N8'
_cell_volume   302.92872303
_cell_formula_units_Z   2
loop_
 _symmetry_equiv_pos_site_id
 _symmetry_equiv_pos_as_xyz
  1  'x, y, z'
loop_
 _atom_site_type_symbol
 _atom_site_label
 _atom_site_symmetry_multiplicity
 _atom_site_fract_x
 _atom_site_fract_y
 _atom_site_fract_z
 _atom_site_occupancy
  Rb  Rb0  1  0.25000000  0.25000000  0.57661300  1
  Rb  Rb1  1  0.75000000  0.75000000  0.42338700  1
  Al  Al2  1  0.25000000  0.75000000  0.00000000  1
  Al  Al3  1  0.75000000  0.25000000  0.00000000  1
  H  H4  1  0.41634900  0.48413000  0.17155400  1
  H  H5  1  0.12866200  0.61382700  0.59372300  1
  H  H6  1  0.01587000  0.41634900  0.17155400  1
  H  H7  1  0.11382700  0.87133800  0.40627600  1
  H  H8  1  0.38617300  0.62866200  0.40627600  1
  H  H9  1  0.48413000  0.08365100  0.17155400  1
  H  H10  1  0.37133800  0.88617300  0.59372300  1
  H  H11  1  0.08365100  0.01587000  0.17155400  1
  H  H12  1  0.91634900  0.98413000  0.82844600  1
  H  H13  1  0.62866200  0.11382700  0.40627600  1
  H  H14  1  0.51587000  0.91634900  0.82844600  1
  H  H15  1  0.61382700  0.37133800  0.59372300  1
  H  H16  1  0.88617300  0.12866200  0.59372300  1
  H  H17  1  0.98413000  0.58365100  0.82844600  1
  H  H18  1  0.87133800  0.38617300  0.40627600  1
  H  H19  1  0.58365100  0.51587000  0.82844600  1
  N  N20  1  0.41641400  0.83800400  0.76706300  1
  N  N21  1  0.33800400  0.58358600  0.23293700  1
  N  N22  1  0.16199600  0.91641400  0.23293700  1
  N  N23  1  0.08358600  0.66199600  0.76706300  1
  N  N24  1  0.91641400  0.33800400  0.23293700  1
  N  N25  1  0.83800400  0.08358600  0.76706300  1
  N  N26  1  0.66199600  0.41641400  0.76706300  1
  N  N27  1  0.58358600  0.16199600  0.23293700  1
