# generated using pymatgen
data_Er2Mo2C3
_symmetry_space_group_name_H-M   'P 1'
_cell_length_a   5.89453507
_cell_length_b   5.89453507
_cell_length_c   5.66900908
_cell_angle_alpha   72.41760376
_cell_angle_beta   72.41760376
_cell_angle_gamma   33.35811750
_symmetry_Int_Tables_number   1
_chemical_formula_structural   Er2Mo2C3
_chemical_formula_sum   'Er2 Mo2 C3'
_cell_volume   102.78325803
_cell_formula_units_Z   1
loop_
 _symmetry_equiv_pos_site_id
 _symmetry_equiv_pos_as_xyz
  1  'x, y, z'
loop_
 _atom_site_type_symbol
 _atom_site_label
 _atom_site_symmetry_multiplicity
 _atom_site_fract_x
 _atom_site_fract_y
 _atom_site_fract_z
 _atom_site_occupancy
  Er  Er0  1  0.38578700  0.38578700  0.81853300  1
  Er  Er1  1  0.61421300  0.61421300  0.18146700  1
  Mo  Mo2  1  0.14920400  0.14920400  0.62827000  1
  Mo  Mo3  1  0.85079600  0.85079600  0.37173000  1
  C  C4  1  0.00000000  0.00000000  0.50000000  1
  C  C5  1  0.72809800  0.72809800  0.74427600  1
  C  C6  1  0.27190200  0.27190200  0.25572400  1
