# generated using pymatgen
data_AlV2O4
_symmetry_space_group_name_H-M   'P 1'
_cell_length_a   5.52392720
_cell_length_b   5.31791532
_cell_length_c   6.50400743
_cell_angle_alpha   110.88620651
_cell_angle_beta   115.93825398
_cell_angle_gamma   97.98494667
_symmetry_Int_Tables_number   1
_chemical_formula_structural   AlV2O4
_chemical_formula_sum   'Al2 V4 O8'
_cell_volume   150.31439036
_cell_formula_units_Z   2
loop_
 _symmetry_equiv_pos_site_id
 _symmetry_equiv_pos_as_xyz
  1  'x, y, z'
loop_
 _atom_site_type_symbol
 _atom_site_label
 _atom_site_symmetry_multiplicity
 _atom_site_fract_x
 _atom_site_fract_y
 _atom_site_fract_z
 _atom_site_occupancy
  Al  Al0  1  0.91849300  0.17918500  0.86164200  1
  Al  Al1  1  0.08150700  0.82081500  0.13835800  1
  V  V2  1  0.50000000  0.00000000  0.00000000  1
  V  V3  1  0.50000000  0.50000000  0.00000000  1
  V  V4  1  0.00000000  0.50000000  0.50000000  1
  V  V5  1  0.50000000  0.50000000  0.50000000  1
  O  O6  1  0.73274600  0.46464900  0.83524900  1
  O  O7  1  0.06205000  0.85507400  0.82284200  1
  O  O8  1  0.26725400  0.53535100  0.16475100  1
  O  O9  1  0.93795000  0.14492600  0.17715800  1
  O  O10  1  0.45213700  0.09895000  0.30111500  1
  O  O11  1  0.88232200  0.70662200  0.29316900  1
  O  O12  1  0.11767800  0.29337800  0.70683100  1
  O  O13  1  0.54786300  0.90105000  0.69888600  1
