# generated using pymatgen
data_MnAlF5
_symmetry_space_group_name_H-M   'P 1'
_cell_length_a   5.31357112
_cell_length_b   5.31357112
_cell_length_c   5.31357112
_cell_angle_alpha   139.97157199
_cell_angle_beta   106.13668153
_cell_angle_gamma   87.49795060
_symmetry_Int_Tables_number   1
_chemical_formula_structural   MnAlF5
_chemical_formula_sum   'Mn1 Al1 F5'
_cell_volume   89.14670976
_cell_formula_units_Z   1
loop_
 _symmetry_equiv_pos_site_id
 _symmetry_equiv_pos_as_xyz
  1  'x, y, z'
loop_
 _atom_site_type_symbol
 _atom_site_label
 _atom_site_symmetry_multiplicity
 _atom_site_fract_x
 _atom_site_fract_y
 _atom_site_fract_z
 _atom_site_occupancy
  Mn  Mn0  1  0.00000000  0.00000000  0.00000000  1
  Al  Al1  1  0.50000000  0.50000000  0.00000000  1
  F  F2  1  0.79048200  0.50000000  0.29048200  1
  F  F3  1  0.20951800  0.50000000  0.70951800  1
  F  F4  1  0.26633500  0.26633500  0.00000000  1
  F  F5  1  0.73366500  0.73366500  0.00000000  1
  F  F6  1  0.50000000  0.00000000  0.50000000  1
