# generated using pymatgen
data_VZn(Si2O5)2
_symmetry_space_group_name_H-M   'P 1'
_cell_length_a   7.34782900
_cell_length_b   7.34782900
_cell_length_c   15.03407700
_cell_angle_alpha   90.00000000
_cell_angle_beta   90.00000000
_cell_angle_gamma   90.00000000
_symmetry_Int_Tables_number   1
_chemical_formula_structural   VZn(Si2O5)2
_chemical_formula_sum   'V4 Zn4 Si16 O40'
_cell_volume   811.69870257
_cell_formula_units_Z   4
loop_
 _symmetry_equiv_pos_site_id
 _symmetry_equiv_pos_as_xyz
  1  'x, y, z'
loop_
 _atom_site_type_symbol
 _atom_site_label
 _atom_site_symmetry_multiplicity
 _atom_site_fract_x
 _atom_site_fract_y
 _atom_site_fract_z
 _atom_site_occupancy
  V  V0  1  0.50000000  0.00000000  0.57033500  1
  V  V1  1  0.00000000  0.50000000  0.92966500  1
  V  V2  1  0.00000000  0.50000000  0.42966500  1
  V  V3  1  0.50000000  0.00000000  0.07033500  1
  Zn  Zn4  1  0.50000000  0.50000000  0.50000000  1
  Zn  Zn5  1  0.00000000  0.00000000  0.50000000  1
  Zn  Zn6  1  0.00000000  0.00000000  0.00000000  1
  Zn  Zn7  1  0.50000000  0.50000000  0.00000000  1
  Si  Si8  1  0.15564300  0.23899600  0.64613800  1
  Si  Si9  1  0.84435700  0.76100400  0.64613800  1
  Si  Si10  1  0.23899600  0.15564300  0.85386200  1
  Si  Si11  1  0.73899600  0.34435700  0.64613800  1
  Si  Si12  1  0.26100400  0.65564300  0.64613800  1
  Si  Si13  1  0.34435700  0.73899600  0.85386200  1
  Si  Si14  1  0.65564300  0.26100400  0.85386200  1
  Si  Si15  1  0.76100400  0.84435700  0.85386200  1
  Si  Si16  1  0.34435700  0.26100400  0.35386200  1
  Si  Si17  1  0.65564300  0.73899600  0.35386200  1
  Si  Si18  1  0.26100400  0.34435700  0.14613800  1
  Si  Si19  1  0.76100400  0.15564300  0.35386200  1
  Si  Si20  1  0.23899600  0.84435700  0.35386200  1
  Si  Si21  1  0.15564300  0.76100400  0.14613800  1
  Si  Si22  1  0.84435700  0.23899600  0.14613800  1
  Si  Si23  1  0.73899600  0.65564300  0.14613800  1
  O  O24  1  0.22775400  0.08773700  0.57570000  1
  O  O25  1  0.77224600  0.91226300  0.57570000  1
  O  O26  1  0.08773700  0.22775400  0.92430000  1
  O  O27  1  0.58773700  0.27224600  0.57570000  1
  O  O28  1  0.41226300  0.72775400  0.57570000  1
  O  O29  1  0.27224600  0.58773700  0.92430000  1
  O  O30  1  0.72775400  0.41226300  0.92430000  1
  O  O31  1  0.91226300  0.77224600  0.92430000  1
  O  O32  1  0.27224600  0.41226300  0.42430000  1
  O  O33  1  0.72775400  0.58773700  0.42430000  1
  O  O34  1  0.41226300  0.27224600  0.07570000  1
  O  O35  1  0.91226300  0.22775400  0.42430000  1
  O  O36  1  0.08773700  0.77224600  0.42430000  1
  O  O37  1  0.22775400  0.91226300  0.07570000  1
  O  O38  1  0.77224600  0.08773700  0.07570000  1
  O  O39  1  0.25382800  0.06229000  0.37218900  1
  O  O40  1  0.58773700  0.72775400  0.07570000  1
  O  O41  1  0.75382800  0.56229000  0.62781100  1
  O  O42  1  0.43771000  0.24617200  0.87218900  1
  O  O43  1  0.93771000  0.25382800  0.62781100  1
  O  O44  1  0.06229000  0.74617200  0.62781100  1
  O  O45  1  0.25382800  0.93771000  0.87218900  1
  O  O46  1  0.74617200  0.06229000  0.87218900  1
  O  O47  1  0.56229000  0.75382800  0.87218900  1
  O  O48  1  0.68877300  0.68877300  0.25000000  1
  O  O49  1  0.81122700  0.18877300  0.25000000  1
  O  O50  1  0.18877300  0.81122700  0.25000000  1
  O  O51  1  0.31122700  0.31122700  0.25000000  1
  O  O52  1  0.81122700  0.81122700  0.75000000  1
  O  O53  1  0.68877300  0.31122700  0.75000000  1
  O  O54  1  0.31122700  0.68877300  0.75000000  1
  O  O55  1  0.18877300  0.18877300  0.75000000  1
  O  O56  1  0.93771000  0.74617200  0.12781100  1
  O  O57  1  0.75382800  0.43771000  0.12781100  1
  O  O58  1  0.24617200  0.56229000  0.12781100  1
  O  O59  1  0.43771000  0.75382800  0.37218900  1
  O  O60  1  0.56229000  0.24617200  0.37218900  1
  O  O61  1  0.06229000  0.25382800  0.12781100  1
  O  O62  1  0.74617200  0.93771000  0.37218900  1
  O  O63  1  0.24617200  0.43771000  0.62781100  1
