# generated using pymatgen
data_AlCrO3
_symmetry_space_group_name_H-M   'P 1'
_cell_length_a   5.51592820
_cell_length_b   5.51592820
_cell_length_c   11.63125600
_cell_angle_alpha   90.00000000
_cell_angle_beta   90.00000000
_cell_angle_gamma   120.00000235
_symmetry_Int_Tables_number   1
_chemical_formula_structural   AlCrO3
_chemical_formula_sum   'Al6 Cr6 O18'
_cell_volume   306.47456980
_cell_formula_units_Z   6
loop_
 _symmetry_equiv_pos_site_id
 _symmetry_equiv_pos_as_xyz
  1  'x, y, z'
loop_
 _atom_site_type_symbol
 _atom_site_label
 _atom_site_symmetry_multiplicity
 _atom_site_fract_x
 _atom_site_fract_y
 _atom_site_fract_z
 _atom_site_occupancy
  Al  Al0  1  0.66666700  0.33333300  0.24924600  1
  Al  Al1  1  0.33333300  0.66666700  0.74924600  1
  Al  Al2  1  0.66666700  0.33333300  0.74924600  1
  Al  Al3  1  0.33333300  0.66666700  0.24924600  1
  Al  Al4  1  0.00000000  0.00000000  0.75361700  1
  Al  Al5  1  0.00000000  0.00000000  0.25361700  1
  Cr  Cr6  1  0.66941100  0.00000000  0.50091900  1
  Cr  Cr7  1  0.66941100  0.66941100  0.00091900  1
  Cr  Cr8  1  0.00000000  0.33058900  0.00091900  1
  Cr  Cr9  1  0.00000000  0.66941100  0.50091900  1
  Cr  Cr10  1  0.33058900  0.33058900  0.50091900  1
  Cr  Cr11  1  0.33058900  0.00000000  0.00091900  1
  O  O12  1  0.66666700  0.33333300  0.01944500  1
  O  O13  1  0.33333300  0.66666700  0.51944500  1
  O  O14  1  0.66666700  0.33333300  0.51944500  1
  O  O15  1  0.33333300  0.66666700  0.01944500  1
  O  O16  1  0.00000000  0.00000000  0.97059600  1
  O  O17  1  0.00000000  0.00000000  0.47059600  1
  O  O18  1  0.35523100  0.00000000  0.82820500  1
  O  O19  1  0.35523100  0.35523100  0.32820500  1
  O  O20  1  0.00000000  0.64476900  0.32820500  1
  O  O21  1  0.00000000  0.35523100  0.82820500  1
  O  O22  1  0.64476900  0.64476900  0.82820500  1
  O  O23  1  0.64476900  0.00000000  0.32820500  1
  O  O24  1  0.31446800  0.00000000  0.17534500  1
  O  O25  1  0.31446800  0.31446800  0.67534500  1
  O  O26  1  0.00000000  0.68553200  0.67534500  1
  O  O27  1  0.00000000  0.31446800  0.17534500  1
  O  O28  1  0.68553200  0.68553200  0.17534500  1
  O  O29  1  0.68553200  0.00000000  0.67534500  1
