# generated using pymatgen
data_AlWO3
_symmetry_space_group_name_H-M   'P 1'
_cell_length_a   5.60385047
_cell_length_b   5.60385047
_cell_length_c   11.99355800
_cell_angle_alpha   90.00000000
_cell_angle_beta   90.00000000
_cell_angle_gamma   120.00000553
_symmetry_Int_Tables_number   1
_chemical_formula_structural   AlWO3
_chemical_formula_sum   'Al6 W6 O18'
_cell_volume   326.17579047
_cell_formula_units_Z   6
loop_
 _symmetry_equiv_pos_site_id
 _symmetry_equiv_pos_as_xyz
  1  'x, y, z'
loop_
 _atom_site_type_symbol
 _atom_site_label
 _atom_site_symmetry_multiplicity
 _atom_site_fract_x
 _atom_site_fract_y
 _atom_site_fract_z
 _atom_site_occupancy
  Al  Al0  1  0.66666700  0.33333300  0.26305600  1
  Al  Al1  1  0.33333300  0.66666700  0.76305600  1
  Al  Al2  1  0.66666700  0.33333300  0.76305600  1
  Al  Al3  1  0.33333300  0.66666700  0.26305600  1
  Al  Al4  1  0.00000000  0.00000000  0.73271000  1
  Al  Al5  1  0.00000000  0.00000000  0.23271000  1
  W  W6  1  0.70617100  0.00000000  0.50005600  1
  W  W7  1  0.70617100  0.70617100  0.00005600  1
  W  W8  1  0.00000000  0.29382900  0.00005600  1
  W  W9  1  0.00000000  0.70617100  0.50005600  1
  W  W10  1  0.29382900  0.29382900  0.50005600  1
  W  W11  1  0.29382900  0.00000000  0.00005600  1
  O  O12  1  0.66666700  0.33333300  0.03410400  1
  O  O13  1  0.33333300  0.66666700  0.53410400  1
  O  O14  1  0.66666700  0.33333300  0.53410400  1
  O  O15  1  0.33333300  0.66666700  0.03410400  1
  O  O16  1  0.00000000  0.00000000  0.88997500  1
  O  O17  1  0.00000000  0.00000000  0.38997500  1
  O  O18  1  0.43256200  0.00000000  0.83857400  1
  O  O19  1  0.43256200  0.43256200  0.33857400  1
  O  O20  1  0.00000000  0.56743800  0.33857400  1
  O  O21  1  0.00000000  0.43256200  0.83857400  1
  O  O22  1  0.56743800  0.56743800  0.83857400  1
  O  O23  1  0.56743800  0.00000000  0.33857400  1
  O  O24  1  0.30597900  0.00000000  0.18070200  1
  O  O25  1  0.30597900  0.30597900  0.68070200  1
  O  O26  1  0.00000000  0.69402100  0.68070200  1
  O  O27  1  0.00000000  0.30597900  0.18070200  1
  O  O28  1  0.69402100  0.69402100  0.18070200  1
  O  O29  1  0.69402100  0.00000000  0.68070200  1
