# generated using pymatgen
data_Ti3AlF15
_symmetry_space_group_name_H-M   'P 1'
_cell_length_a   9.92378800
_cell_length_b   6.06514500
_cell_length_c   9.38912863
_cell_angle_alpha   75.94500593
_cell_angle_beta   90.00000000
_cell_angle_gamma   90.00000000
_symmetry_Int_Tables_number   1
_chemical_formula_structural   Ti3AlF15
_chemical_formula_sum   'Ti6 Al2 F30'
_cell_volume   548.20618244
_cell_formula_units_Z   2
loop_
 _symmetry_equiv_pos_site_id
 _symmetry_equiv_pos_as_xyz
  1  'x, y, z'
loop_
 _atom_site_type_symbol
 _atom_site_label
 _atom_site_symmetry_multiplicity
 _atom_site_fract_x
 _atom_site_fract_y
 _atom_site_fract_z
 _atom_site_occupancy
  Ti  Ti0  1  0.50000000  0.00000000  0.50000000  1
  Ti  Ti1  1  0.55569000  0.97275500  0.16806300  1
  Ti  Ti2  1  0.44431000  0.02724500  0.83193700  1
  Ti  Ti3  1  0.00000000  0.00000000  0.50000000  1
  Ti  Ti4  1  0.94431000  0.97275500  0.16806300  1
  Ti  Ti5  1  0.05569000  0.02724500  0.83193700  1
  Al  Al6  1  0.75000000  0.43548000  0.76766600  1
  Al  Al7  1  0.25000000  0.56452000  0.23233400  1
  F  F8  1  0.75000000  0.59441400  0.59712900  1
  F  F9  1  0.75000000  0.87793800  0.16614600  1
  F  F10  1  0.75000000  0.56651600  0.90345400  1
  F  F11  1  0.25000000  0.40558600  0.40287100  1
  F  F12  1  0.25000000  0.43348400  0.09654600  1
  F  F13  1  0.25000000  0.12206200  0.83385400  1
  F  F14  1  0.39505900  0.15662000  0.62627600  1
  F  F15  1  0.42201200  0.09347800  0.30156600  1
  F  F16  1  0.41871900  0.12712700  0.01167600  1
  F  F17  1  0.60494100  0.84338000  0.37372400  1
  F  F18  1  0.58128100  0.87287300  0.98832400  1
  F  F19  1  0.57798800  0.90652200  0.69843400  1
  F  F20  1  0.10894400  0.75572600  0.54704200  1
  F  F21  1  0.10099600  0.73216800  0.20661800  1
  F  F22  1  0.11895000  0.75121900  0.86482400  1
  F  F23  1  0.89105600  0.24427400  0.45295800  1
  F  F24  1  0.88105000  0.24878100  0.13517600  1
  F  F25  1  0.89900400  0.26783200  0.79338200  1
  F  F26  1  0.60894400  0.24427400  0.45295800  1
  F  F27  1  0.61895000  0.24878100  0.13517600  1
  F  F28  1  0.60099600  0.26783200  0.79338200  1
  F  F29  1  0.39105600  0.75572600  0.54704200  1
  F  F30  1  0.39900400  0.73216800  0.20661800  1
  F  F31  1  0.38105000  0.75121900  0.86482400  1
  F  F32  1  0.10494100  0.15662000  0.62627600  1
  F  F33  1  0.07798800  0.09347800  0.30156600  1
  F  F34  1  0.08128100  0.12712700  0.01167600  1
  F  F35  1  0.89505900  0.84338000  0.37372400  1
  F  F36  1  0.91871900  0.87287300  0.98832400  1
  F  F37  1  0.92201200  0.90652200  0.69843400  1
