# generated using pymatgen
data_YbPO4
_symmetry_space_group_name_H-M   'P 1'
_cell_length_a   6.66577238
_cell_length_b   6.66577238
_cell_length_c   6.66577238
_cell_angle_alpha   136.91545231
_cell_angle_beta   136.91545231
_cell_angle_gamma   62.56816224
_symmetry_Int_Tables_number   1
_chemical_formula_structural   YbPO4
_chemical_formula_sum   'Yb2 P2 O8'
_cell_volume   136.50606258
_cell_formula_units_Z   2
loop_
 _symmetry_equiv_pos_site_id
 _symmetry_equiv_pos_as_xyz
  1  'x, y, z'
loop_
 _atom_site_type_symbol
 _atom_site_label
 _atom_site_symmetry_multiplicity
 _atom_site_fract_x
 _atom_site_fract_y
 _atom_site_fract_z
 _atom_site_occupancy
  Yb  Yb0  1  0.50000000  0.50000000  0.00000000  1
  Yb  Yb1  1  0.25000000  0.75000000  0.50000000  1
  P  P2  1  0.00000000  0.00000000  0.00000000  1
  P  P3  1  0.75000000  0.25000000  0.50000000  1
  O  O4  1  0.96033000  0.83032500  0.64457800  1
  O  O5  1  0.58032500  0.43574800  0.36999600  1
  O  O6  1  0.06575200  0.21033000  0.63000400  1
  O  O7  1  0.18574800  0.31575200  0.35542200  1
  O  O8  1  0.56425200  0.93424800  0.14457800  1
  O  O9  1  0.68424800  0.03967000  0.86999600  1
  O  O10  1  0.16967500  0.81425200  0.13000400  1
  O  O11  1  0.78967000  0.41967500  0.85542200  1
