# generated using pymatgen
data_Mg4Si3
_symmetry_space_group_name_H-M   'P 1'
_cell_length_a   7.08931264
_cell_length_b   8.23971955
_cell_length_c   5.45987987
_cell_angle_alpha   111.36344788
_cell_angle_beta   79.24741647
_cell_angle_gamma   110.00453828
_symmetry_Int_Tables_number   1
_chemical_formula_structural   Mg4Si3
_chemical_formula_sum   'Mg8 Si6'
_cell_volume   278.39805426
_cell_formula_units_Z   2
loop_
 _symmetry_equiv_pos_site_id
 _symmetry_equiv_pos_as_xyz
  1  'x, y, z'
loop_
 _atom_site_type_symbol
 _atom_site_label
 _atom_site_symmetry_multiplicity
 _atom_site_fract_x
 _atom_site_fract_y
 _atom_site_fract_z
 _atom_site_occupancy
  Mg  Mg0  1  0.33428380  0.88413379  0.56992037  1
  Mg  Mg1  1  0.16768292  0.22970143  0.02093091  1
  Mg  Mg2  1  0.20293555  0.62583970  0.97089701  1
  Mg  Mg3  1  0.48233589  0.38683049  0.56369358  1
  Mg  Mg4  1  0.98497811  0.50536135  0.46330411  1
  Mg  Mg5  1  0.59521299  0.06713786  0.08824681  1
  Mg  Mg6  1  0.74983552  0.46323196  0.02981217  1
  Mg  Mg7  1  0.80354763  0.84179341  0.47898175  1
  Si  Si8  1  0.05001281  0.23073818  0.56974873  1
  Si  Si9  1  0.68329545  0.16261854  0.61754492  1
  Si  Si10  1  0.61144060  0.72009140  0.95348202  1
  Si  Si11  1  0.42142564  0.57376868  0.28353206  1
  Si  Si12  1  0.19010990  0.99850820  0.25051674  1
  Si  Si13  1  0.97286121  0.81015702  0.88945583  1
