# generated using pymatgen
data_Ba2AlFe2F11
_symmetry_space_group_name_H-M   'P 1'
_cell_length_a   7.44947064
_cell_length_b   7.44947064
_cell_length_c   14.53670100
_cell_angle_alpha   90.00000000
_cell_angle_beta   90.00000000
_cell_angle_gamma   120.00000566
_symmetry_Int_Tables_number   1
_chemical_formula_structural   Ba2AlFe2F11
_chemical_formula_sum   'Ba6 Al3 Fe6 F33'
_cell_volume   698.63009511
_cell_formula_units_Z   3
loop_
 _symmetry_equiv_pos_site_id
 _symmetry_equiv_pos_as_xyz
  1  'x, y, z'
loop_
 _atom_site_type_symbol
 _atom_site_label
 _atom_site_symmetry_multiplicity
 _atom_site_fract_x
 _atom_site_fract_y
 _atom_site_fract_z
 _atom_site_occupancy
  Ba  Ba0  1  0.87242800  0.85748000  0.66600900  1
  Ba  Ba1  1  0.51138700  0.16263200  0.79799200  1
  Ba  Ba2  1  0.98505200  0.12757200  0.99934300  1
  Ba  Ba3  1  0.83736800  0.34875500  0.46465900  1
  Ba  Ba4  1  0.65124500  0.48861300  0.13132600  1
  Ba  Ba5  1  0.14252000  0.01494800  0.33267600  1
  Al  Al6  1  0.49794700  0.67597700  0.87428000  1
  Al  Al7  1  0.17803100  0.50205300  0.20761300  1
  Al  Al8  1  0.32402300  0.82196900  0.54094600  1
  Fe  Fe9  1  0.97594200  0.66023800  0.88521600  1
  Fe  Fe10  1  0.13433200  0.43491500  0.72417800  1
  Fe  Fe11  1  0.56508500  0.69941700  0.39084400  1
  Fe  Fe12  1  0.68429600  0.02405800  0.21854900  1
  Fe  Fe13  1  0.30058300  0.86566800  0.05751100  1
  Fe  Fe14  1  0.33976200  0.31570400  0.55188300  1
  F  F15  1  0.99039900  0.74641700  0.02377700  1
  F  F16  1  0.83589000  0.36282200  0.92417600  1
  F  F17  1  0.75601700  0.00960100  0.35711000  1
  F  F18  1  0.42256500  0.08719100  0.49523300  1
  F  F19  1  0.86575100  0.90663500  0.17964800  1
  F  F20  1  0.24367700  0.29832900  0.19077000  1
  F  F21  1  0.91280900  0.33537400  0.16189900  1
  F  F22  1  0.70167100  0.94534800  0.85743700  1
  F  F23  1  0.04088400  0.13424900  0.51298200  1
  F  F24  1  0.61113100  0.01453300  0.08068200  1
  F  F25  1  0.66462600  0.57743500  0.82856600  1
  F  F26  1  0.25358300  0.24398300  0.69044300  1
  F  F27  1  0.59263800  0.67249900  0.98573200  1
  F  F28  1  0.35789800  0.15478200  0.02517700  1
  F  F29  1  0.07986200  0.40736200  0.31906500  1
  F  F30  1  0.63717800  0.47306700  0.59084200  1
  F  F31  1  0.32322500  0.77974200  0.91275900  1
  F  F32  1  0.40340200  0.38886900  0.41401500  1
  F  F33  1  0.31487300  0.74292700  0.41864500  1
  F  F34  1  0.32750100  0.92013800  0.65239900  1
  F  F35  1  0.42805400  0.68512700  0.75197800  1
  F  F36  1  0.84521800  0.20311600  0.69184300  1
  F  F37  1  0.79688400  0.64210200  0.35851000  1
  F  F38  1  0.45651700  0.67677500  0.24609200  1
  F  F39  1  0.98546700  0.59659800  0.74734800  1
  F  F40  1  0.09336500  0.95911600  0.84631500  1
  F  F41  1  0.52693300  0.16411000  0.25750900  1
  F  F42  1  0.26676300  0.41520500  0.87369800  1
  F  F43  1  0.14844200  0.73323700  0.20703100  1
  F  F44  1  0.25707300  0.57194600  0.08531200  1
  F  F45  1  0.05465200  0.75632300  0.52410300  1
  F  F46  1  0.22025800  0.54348300  0.57942500  1
  F  F47  1  0.58479500  0.85155800  0.54036500  1
