# generated using pymatgen
data_AlCu(WO4)2
_symmetry_space_group_name_H-M   'P 1'
_cell_length_a   5.07215000
_cell_length_b   5.60153257
_cell_length_c   5.72937213
_cell_angle_alpha   109.79236212
_cell_angle_beta   90.73389643
_cell_angle_gamma   113.68036826
_symmetry_Int_Tables_number   1
_chemical_formula_structural   AlCu(WO4)2
_chemical_formula_sum   'Al1 Cu1 W2 O8'
_cell_volume   138.16178683
_cell_formula_units_Z   1
loop_
 _symmetry_equiv_pos_site_id
 _symmetry_equiv_pos_as_xyz
  1  'x, y, z'
loop_
 _atom_site_type_symbol
 _atom_site_label
 _atom_site_symmetry_multiplicity
 _atom_site_fract_x
 _atom_site_fract_y
 _atom_site_fract_z
 _atom_site_occupancy
  Al  Al0  1  0.00000000  0.00000000  0.50000000  1
  Cu  Cu1  1  0.50000000  0.00000000  0.00000000  1
  W  W2  1  0.24871500  0.49844900  0.18390500  1
  W  W3  1  0.75128500  0.50155100  0.81609500  1
  O  O4  1  0.21029900  0.77965400  0.43732100  1
  O  O5  1  0.22446900  0.24112300  0.32405600  1
  O  O6  1  0.15699500  0.70244700  0.96139400  1
  O  O7  1  0.32076600  0.28788200  0.81311800  1
  O  O8  1  0.77553100  0.75887700  0.67594400  1
  O  O9  1  0.78970100  0.22034600  0.56267900  1
  O  O10  1  0.84300500  0.29755300  0.03860600  1
  O  O11  1  0.67923400  0.71211800  0.18688200  1
