# generated using pymatgen
data_BaTi4AlO7
_symmetry_space_group_name_H-M   'P 1'
_cell_length_a   6.05696563
_cell_length_b   6.05696563
_cell_length_c   10.27584400
_cell_angle_alpha   90.00000000
_cell_angle_beta   90.00000000
_cell_angle_gamma   119.99999597
_symmetry_Int_Tables_number   1
_chemical_formula_structural   BaTi4AlO7
_chemical_formula_sum   'Ba2 Ti8 Al2 O14'
_cell_volume   326.48134474
_cell_formula_units_Z   2
loop_
 _symmetry_equiv_pos_site_id
 _symmetry_equiv_pos_as_xyz
  1  'x, y, z'
loop_
 _atom_site_type_symbol
 _atom_site_label
 _atom_site_symmetry_multiplicity
 _atom_site_fract_x
 _atom_site_fract_y
 _atom_site_fract_z
 _atom_site_occupancy
  Ba  Ba0  1  0.66666700  0.33333300  0.49821600  1
  Ba  Ba1  1  0.33333300  0.66666700  0.99821600  1
  Ti  Ti2  1  0.83528600  0.16471400  0.18183200  1
  Ti  Ti3  1  0.67057200  0.83528600  0.68183200  1
  Ti  Ti4  1  0.16471400  0.32942800  0.68183200  1
  Ti  Ti5  1  0.83528600  0.67057200  0.18183200  1
  Ti  Ti6  1  0.32942800  0.16471400  0.18183200  1
  Ti  Ti7  1  0.16471400  0.83528600  0.68183200  1
  Ti  Ti8  1  0.00000000  0.00000000  0.48058900  1
  Ti  Ti9  1  0.00000000  0.00000000  0.98058900  1
  Al  Al10  1  0.66666700  0.33333300  0.87160100  1
  Al  Al11  1  0.33333300  0.66666700  0.37160100  1
  O  O12  1  0.81373000  0.18627000  0.99019700  1
  O  O13  1  0.62746100  0.81373000  0.49019700  1
  O  O14  1  0.18627000  0.37253900  0.49019700  1
  O  O15  1  0.81373000  0.62746100  0.99019700  1
  O  O16  1  0.37253900  0.18627000  0.99019700  1
  O  O17  1  0.18627000  0.81373000  0.49019700  1
  O  O18  1  0.00000000  0.00000000  0.78674000  1
  O  O19  1  0.00000000  0.00000000  0.28674000  1
  O  O20  1  0.48386800  0.51613200  0.26025400  1
  O  O21  1  0.96773500  0.48386800  0.76025400  1
  O  O22  1  0.51613200  0.03226500  0.76025400  1
  O  O23  1  0.48386800  0.96773500  0.26025400  1
  O  O24  1  0.51613200  0.48386800  0.76025400  1
  O  O25  1  0.03226500  0.51613200  0.26025400  1
