# generated using pymatgen
data_ZnFeSiO5
_symmetry_space_group_name_H-M   'P 1'
_cell_length_a   5.47101946
_cell_length_b   7.12488234
_cell_length_c   8.13448588
_cell_angle_alpha   90.04053018
_cell_angle_beta   42.09538090
_cell_angle_gamma   71.44191794
_symmetry_Int_Tables_number   1
_chemical_formula_structural   ZnFeSiO5
_chemical_formula_sum   'Zn2 Fe2 Si2 O10'
_cell_volume   186.98996888
_cell_formula_units_Z   2
loop_
 _symmetry_equiv_pos_site_id
 _symmetry_equiv_pos_as_xyz
  1  'x, y, z'
loop_
 _atom_site_type_symbol
 _atom_site_label
 _atom_site_symmetry_multiplicity
 _atom_site_fract_x
 _atom_site_fract_y
 _atom_site_fract_z
 _atom_site_occupancy
  Zn  Zn0  1  0.45501500  0.23075600  0.70377800  1
  Zn  Zn1  1  0.54943600  0.72995300  0.28410700  1
  Fe  Fe2  1  0.49903100  0.48595500  0.99487800  1
  Fe  Fe3  1  0.49933200  0.98606700  0.99653000  1
  Si  Si4  1  0.52537900  0.23107100  0.33418700  1
  Si  Si5  1  0.47123700  0.74172800  0.65828000  1
  O  O6  1  0.51564800  0.03992900  0.23084800  1
  O  O7  1  0.57937400  0.40623300  0.19301900  1
  O  O8  1  0.48371600  0.93257000  0.75994100  1
  O  O9  1  0.41243100  0.56904900  0.80240400  1
  O  O10  1  0.87264600  0.62822600  0.33043100  1
  O  O11  1  0.11927500  0.83249800  0.68443800  1
  O  O12  1  0.12504600  0.34232700  0.66228700  1
  O  O13  1  0.87934100  0.13947200  0.30654400  1
  O  O14  1  0.49344400  0.73648900  0.07615500  1
  O  O15  1  0.50638000  0.23480100  0.91418400  1
