# generated using pymatgen
data_Ba2AlW3O7
_symmetry_space_group_name_H-M   'P 1'
_cell_length_a   3.90805500
_cell_length_b   4.15829400
_cell_length_c   12.57040900
_cell_angle_alpha   90.00000000
_cell_angle_beta   90.00000000
_cell_angle_gamma   90.00000000
_symmetry_Int_Tables_number   1
_chemical_formula_structural   Ba2AlW3O7
_chemical_formula_sum   'Ba2 Al1 W3 O7'
_cell_volume   204.27972624
_cell_formula_units_Z   1
loop_
 _symmetry_equiv_pos_site_id
 _symmetry_equiv_pos_as_xyz
  1  'x, y, z'
loop_
 _atom_site_type_symbol
 _atom_site_label
 _atom_site_symmetry_multiplicity
 _atom_site_fract_x
 _atom_site_fract_y
 _atom_site_fract_z
 _atom_site_occupancy
  Ba  Ba0  1  0.50000000  0.50000000  0.81401000  1
  Ba  Ba1  1  0.50000000  0.50000000  0.18535700  1
  Al  Al2  1  0.50000000  0.50000000  0.48210000  1
  W  W3  1  0.00000000  0.00000000  0.62721300  1
  W  W4  1  0.00000000  0.00000000  0.39057400  1
  W  W5  1  0.00000000  0.00000000  0.99835000  1
  O  O6  1  0.00000000  0.50000000  0.99896900  1
  O  O7  1  0.50000000  0.00000000  0.66553800  1
  O  O8  1  0.50000000  0.00000000  0.33197500  1
  O  O9  1  0.00000000  0.50000000  0.64975100  1
  O  O10  1  0.00000000  0.50000000  0.36034400  1
  O  O11  1  0.00000000  0.00000000  0.84509800  1
  O  O12  1  0.00000000  0.00000000  0.15071800  1
