# generated using pymatgen
data_CaSi2SnO6
_symmetry_space_group_name_H-M   'P 1'
_cell_length_a   7.23800613
_cell_length_b   7.23800613
_cell_length_c   5.42505511
_cell_angle_alpha   79.57461957
_cell_angle_beta   79.57461957
_cell_angle_gamma   84.57744745
_symmetry_Int_Tables_number   1
_chemical_formula_structural   CaSi2SnO6
_chemical_formula_sum   'Ca2 Si4 Sn2 O12'
_cell_volume   274.34447346
_cell_formula_units_Z   2
loop_
 _symmetry_equiv_pos_site_id
 _symmetry_equiv_pos_as_xyz
  1  'x, y, z'
loop_
 _atom_site_type_symbol
 _atom_site_label
 _atom_site_symmetry_multiplicity
 _atom_site_fract_x
 _atom_site_fract_y
 _atom_site_fract_z
 _atom_site_occupancy
  Ca  Ca0  1  0.67859400  0.32140600  0.25000000  1
  Ca  Ca1  1  0.32140600  0.67859400  0.75000000  1
  Si  Si2  1  0.81216100  0.61664400  0.73801800  1
  Si  Si3  1  0.38335600  0.18783900  0.76198200  1
  Si  Si4  1  0.61664400  0.81216100  0.23801800  1
  Si  Si5  1  0.18783900  0.38335600  0.26198200  1
  Sn  Sn6  1  0.88740800  0.11259200  0.75000000  1
  Sn  Sn7  1  0.11259200  0.88740800  0.25000000  1
  O  O8  1  0.68943400  0.66194300  0.49188400  1
  O  O9  1  0.33805700  0.31056600  0.00811600  1
  O  O10  1  0.31056600  0.33805700  0.50811600  1
  O  O11  1  0.66194300  0.68943400  0.99188400  1
  O  O12  1  0.82492800  0.39194000  0.84270900  1
  O  O13  1  0.60806000  0.17507200  0.65729100  1
  O  O14  1  0.17507200  0.60806000  0.15729100  1
  O  O15  1  0.39194000  0.82492800  0.34270900  1
  O  O16  1  0.70815600  0.01260600  0.16515600  1
  O  O17  1  0.98739400  0.29184400  0.33484400  1
  O  O18  1  0.01260600  0.70815600  0.66515600  1
  O  O19  1  0.29184400  0.98739400  0.83484400  1
