# generated using pymatgen
data_Mg7Si4
_symmetry_space_group_name_H-M   'P 1'
_cell_length_a   6.53191989
_cell_length_b   4.39253048
_cell_length_c   15.59318991
_cell_angle_alpha   97.84242253
_cell_angle_beta   83.38784763
_cell_angle_gamma   90.56605947
_symmetry_Int_Tables_number   1
_chemical_formula_structural   Mg7Si4
_chemical_formula_sum   'Mg14 Si8'
_cell_volume   440.25421249
_cell_formula_units_Z   2
loop_
 _symmetry_equiv_pos_site_id
 _symmetry_equiv_pos_as_xyz
  1  'x, y, z'
loop_
 _atom_site_type_symbol
 _atom_site_label
 _atom_site_symmetry_multiplicity
 _atom_site_fract_x
 _atom_site_fract_y
 _atom_site_fract_z
 _atom_site_occupancy
  Mg  Mg0  1  0.17946400  0.41412600  0.89317300  1
  Mg  Mg1  1  0.72574400  0.79785800  0.65422200  1
  Mg  Mg2  1  0.95673300  0.21983700  0.51104000  1
  Mg  Mg3  1  0.07736200  0.31970500  0.69894300  1
  Mg  Mg4  1  0.70368800  0.39561400  0.86137600  1
  Mg  Mg5  1  0.04995800  0.10485900  0.29468300  1
  Mg  Mg6  1  0.53424000  0.13006400  0.33175300  1
  Mg  Mg7  1  0.44100800  0.23594000  0.54256300  1
  Mg  Mg8  1  0.41193600  0.95756500  0.97757700  1
  Mg  Mg9  1  0.90447800  0.96118400  0.98889400  1
  Mg  Mg10  1  0.62238000  0.50189400  0.07361300  1
  Mg  Mg11  1  0.10497000  0.52725800  0.11019400  1
  Mg  Mg12  1  0.24548600  0.66872400  0.41445100  1
  Mg  Mg13  1  0.73886900  0.68043300  0.43068000  1
  Si  Si14  1  0.78436300  0.04689400  0.16263000  1
  Si  Si15  1  0.99600400  0.87661000  0.81337900  1
  Si  Si16  1  0.49711200  0.32836700  0.71576700  1
  Si  Si17  1  0.36741000  0.58260800  0.24297700  1
  Si  Si18  1  0.39505100  0.04617600  0.15888900  1
  Si  Si19  1  0.38231300  0.86333100  0.79688600  1
  Si  Si20  1  0.12303300  0.75623900  0.58273700  1
  Si  Si21  1  0.75838300  0.58829400  0.24720400  1
