# generated using pymatgen
data_CsMg6SiO8
_symmetry_space_group_name_H-M   'P 1'
_cell_length_a   7.39046687
_cell_length_b   4.20794920
_cell_length_c   6.80693818
_cell_angle_alpha   89.55689681
_cell_angle_beta   88.59535635
_cell_angle_gamma   90.01288069
_symmetry_Int_Tables_number   1
_chemical_formula_structural   CsMg6SiO8
_chemical_formula_sum   'Cs1 Mg6 Si1 O8'
_cell_volume   211.61703319
_cell_formula_units_Z   1
loop_
 _symmetry_equiv_pos_site_id
 _symmetry_equiv_pos_as_xyz
  1  'x, y, z'
loop_
 _atom_site_type_symbol
 _atom_site_label
 _atom_site_symmetry_multiplicity
 _atom_site_fract_x
 _atom_site_fract_y
 _atom_site_fract_z
 _atom_site_occupancy
  Cs  Cs0  1  0.97641800  0.48582900  0.64280000  1
  Mg  Mg1  1  0.50590900  0.99795800  0.89526200  1
  Mg  Mg2  1  0.49464700  0.49854500  0.58015000  1
  Mg  Mg3  1  0.27439200  0.99883200  0.39980000  1
  Mg  Mg4  1  0.70985900  0.99905800  0.37590100  1
  Mg  Mg5  1  0.28464500  0.49441400  0.10416400  1
  Mg  Mg6  1  0.73435300  0.49512600  0.08470300  1
  Si  Si7  1  0.01079400  0.96077600  0.10190500  1
  O  O8  1  0.27279700  0.00105600  0.09101500  1
  O  O9  1  0.74699400  0.00114200  0.06584200  1
  O  O10  1  0.28874100  0.49859200  0.39964600  1
  O  O11  1  0.68765500  0.49913600  0.37173900  1
  O  O12  1  0.99388900  0.00144000  0.34580800  1
  O  O13  1  0.49776400  0.99898000  0.59391000  1
  O  O14  1  0.01379000  0.57053400  0.04334700  1
  O  O15  1  0.50735500  0.49857900  0.90400900  1
