# generated using pymatgen
data_Ca2AlMoO5
_symmetry_space_group_name_H-M   'P 1'
_cell_length_a   8.25895965
_cell_length_b   8.25895965
_cell_length_c   5.65364485
_cell_angle_alpha   71.47916136
_cell_angle_beta   71.47916136
_cell_angle_gamma   42.10823781
_symmetry_Int_Tables_number   1
_chemical_formula_structural   Ca2AlMoO5
_chemical_formula_sum   'Ca4 Al2 Mo2 O10'
_cell_volume   243.14297421
_cell_formula_units_Z   2
loop_
 _symmetry_equiv_pos_site_id
 _symmetry_equiv_pos_as_xyz
  1  'x, y, z'
loop_
 _atom_site_type_symbol
 _atom_site_label
 _atom_site_symmetry_multiplicity
 _atom_site_fract_x
 _atom_site_fract_y
 _atom_site_fract_z
 _atom_site_occupancy
  Ca  Ca0  1  0.65610300  0.07455300  0.92172200  1
  Ca  Ca1  1  0.92117300  0.34827000  0.58231300  1
  Ca  Ca2  1  0.34827000  0.92117300  0.08231300  1
  Ca  Ca3  1  0.07455300  0.65610300  0.42172200  1
  Al  Al4  1  0.33359000  0.67103200  0.70749000  1
  Al  Al5  1  0.67103200  0.33359000  0.20749000  1
  Mo  Mo6  1  0.49976800  0.00174200  0.50373200  1
  Mo  Mo7  1  0.00174200  0.49976800  0.00373200  1
  O  O8  1  0.42308000  0.58430500  0.39450300  1
  O  O9  1  0.58430500  0.42308000  0.89450300  1
  O  O10  1  0.72495700  0.07412500  0.32761400  1
  O  O11  1  0.27302800  0.92970100  0.68629900  1
  O  O12  1  0.07412500  0.72495700  0.82761400  1
  O  O13  1  0.92970100  0.27302800  0.18629900  1
  O  O14  1  0.79463200  0.66978200  0.70312500  1
  O  O15  1  0.33246000  0.20700800  0.80433100  1
  O  O16  1  0.20700800  0.33246000  0.30433100  1
  O  O17  1  0.66978200  0.79463200  0.20312500  1
