# generated using pymatgen
data_VZnSiO5
_symmetry_space_group_name_H-M   'P 1'
_cell_length_a   5.20717883
_cell_length_b   5.55364379
_cell_length_c   12.88019845
_cell_angle_alpha   88.34183931
_cell_angle_beta   89.57450561
_cell_angle_gamma   78.79631073
_symmetry_Int_Tables_number   1
_chemical_formula_structural   VZnSiO5
_chemical_formula_sum   'V4 Zn4 Si4 O20'
_cell_volume   365.22799022
_cell_formula_units_Z   4
loop_
 _symmetry_equiv_pos_site_id
 _symmetry_equiv_pos_as_xyz
  1  'x, y, z'
loop_
 _atom_site_type_symbol
 _atom_site_label
 _atom_site_symmetry_multiplicity
 _atom_site_fract_x
 _atom_site_fract_y
 _atom_site_fract_z
 _atom_site_occupancy
  V  V0  1  0.24996500  0.25175600  0.74958500  1
  V  V1  1  0.99970400  0.50159100  0.49990600  1
  V  V2  1  0.74996300  0.75177400  0.24958600  1
  V  V3  1  0.49966300  0.00150300  0.99984900  1
  Zn  Zn4  1  0.36342100  0.52245100  0.13959800  1
  Zn  Zn5  1  0.86341800  0.02244500  0.63958000  1
  Zn  Zn6  1  0.13653400  0.98066600  0.35955800  1
  Zn  Zn7  1  0.63649800  0.48053900  0.85958700  1
  Si  Si8  1  0.93677500  0.23122900  0.12163700  1
  Si  Si9  1  0.43678900  0.73121800  0.62167400  1
  Si  Si10  1  0.56295400  0.27280900  0.37750200  1
  Si  Si11  1  0.06290800  0.77280000  0.87747900  1
  O  O12  1  0.64510800  0.28239400  0.06586600  1
  O  O13  1  0.14514100  0.78240200  0.56588700  1
  O  O14  1  0.85473600  0.22161700  0.43322200  1
  O  O15  1  0.35468600  0.72154100  0.93321300  1
  O  O16  1  0.95408100  0.01644400  0.21260500  1
  O  O17  1  0.45401900  0.51644000  0.71262700  1
  O  O18  1  0.54560600  0.48792600  0.28660600  1
  O  O19  1  0.04562900  0.98792700  0.78659000  1
  O  O20  1  0.49563900  0.01623000  0.33085100  1
  O  O21  1  0.99560700  0.51615300  0.83082300  1
  O  O22  1  0.00360300  0.48846800  0.16797200  1
  O  O23  1  0.50356100  0.98841100  0.66800400  1
  O  O24  1  0.33193200  0.34749600  0.46451200  1
  O  O25  1  0.83187300  0.84729800  0.96450400  1
  O  O26  1  0.16710600  0.15712500  0.03443700  1
  O  O27  1  0.66727000  0.65708600  0.53454200  1
  O  O28  1  0.96533200  0.68860600  0.36467300  1
  O  O29  1  0.46560700  0.18804700  0.86456100  1
  O  O30  1  0.53285300  0.81593800  0.13467000  1
  O  O31  1  0.03261600  0.31605500  0.63474700  1
