# generated using pymatgen
data_LiFe(SiO3)2
_symmetry_space_group_name_H-M   'P 1'
_cell_length_a   7.78244262
_cell_length_b   7.78234160
_cell_length_c   9.58966702
_cell_angle_alpha   89.99592820
_cell_angle_beta   89.99330230
_cell_angle_gamma   89.68934274
_symmetry_Int_Tables_number   1
_chemical_formula_structural   LiFe(SiO3)2
_chemical_formula_sum   'Li4 Fe4 Si8 O24'
_cell_volume   580.79565245
_cell_formula_units_Z   4
loop_
 _symmetry_equiv_pos_site_id
 _symmetry_equiv_pos_as_xyz
  1  'x, y, z'
loop_
 _atom_site_type_symbol
 _atom_site_label
 _atom_site_symmetry_multiplicity
 _atom_site_fract_x
 _atom_site_fract_y
 _atom_site_fract_z
 _atom_site_occupancy
  Li  Li0  1  0.17201800  0.17207400  0.49999300  1
  Li  Li1  1  0.40072500  0.59929500  0.25000300  1
  Li  Li2  1  0.59925100  0.40080400  0.74999100  1
  Li  Li3  1  0.82793300  0.82798400  0.99998800  1
  Fe  Fe4  1  0.13183500  0.31352000  0.76378300  1
  Fe  Fe5  1  0.31361700  0.13174100  0.23627300  1
  Fe  Fe6  1  0.68645300  0.86812200  0.73619700  1
  Fe  Fe7  1  0.86818300  0.68647400  0.26378800  1
  Si  Si8  1  0.10961300  0.89039200  0.75000700  1
  Si  Si9  1  0.16684500  0.59890200  0.51234600  1
  Si  Si10  1  0.40109200  0.83312200  0.98767100  1
  Si  Si11  1  0.42925200  0.42920500  0.99999900  1
  Si  Si12  1  0.57073200  0.57074000  0.50000300  1
  Si  Si13  1  0.59887500  0.16684400  0.48765500  1
  Si  Si14  1  0.83316200  0.40118700  0.01233700  1
  Si  Si15  1  0.89040500  0.10963200  0.24998100  1
  O  O16  1  0.94404500  0.36527400  0.87324500  1
  O  O17  1  0.13724700  0.08522100  0.69114700  1
  O  O18  1  0.13084500  0.41201400  0.58233500  1
  O  O19  1  0.14817500  0.75517300  0.62365700  1
  O  O20  1  0.24482000  0.85189400  0.87638200  1
  O  O21  1  0.08520700  0.13728900  0.30884200  1
  O  O22  1  0.36787600  0.59867300  0.45353100  1
  O  O23  1  0.33727600  0.37747300  0.85478700  1
  O  O24  1  0.37754800  0.33718700  0.14521000  1
  O  O25  1  0.36525200  0.94395000  0.12680000  1
  O  O26  1  0.40128700  0.63208000  0.04646600  1
  O  O27  1  0.58797400  0.86910700  0.91765600  1
  O  O28  1  0.41200200  0.13080600  0.41772700  1
  O  O29  1  0.59864000  0.36786100  0.54646800  1
  O  O30  1  0.63476500  0.05594700  0.62674600  1
  O  O31  1  0.62248000  0.66270500  0.64521300  1
  O  O32  1  0.66274100  0.62248800  0.35479300  1
  O  O33  1  0.63216100  0.40138100  0.95350000  1
  O  O34  1  0.91475300  0.86269300  0.80879900  1
  O  O35  1  0.75517200  0.14811200  0.37635200  1
  O  O36  1  0.85189100  0.24490200  0.12363400  1
  O  O37  1  0.86917200  0.58805200  0.08231600  1
  O  O38  1  0.86269400  0.91481800  0.19112500  1
  O  O39  1  0.05598800  0.63486100  0.37325500  1
