# generated using pymatgen
data_Al(WO2)2
_symmetry_space_group_name_H-M   'P 1'
_cell_length_a   6.38829232
_cell_length_b   6.38829232
_cell_length_c   5.38850882
_cell_angle_alpha   67.83208337
_cell_angle_beta   67.83208337
_cell_angle_gamma   106.80169343
_symmetry_Int_Tables_number   1
_chemical_formula_structural   Al(WO2)2
_chemical_formula_sum   'Al2 W4 O8'
_cell_volume   162.99687475
_cell_formula_units_Z   2
loop_
 _symmetry_equiv_pos_site_id
 _symmetry_equiv_pos_as_xyz
  1  'x, y, z'
loop_
 _atom_site_type_symbol
 _atom_site_label
 _atom_site_symmetry_multiplicity
 _atom_site_fract_x
 _atom_site_fract_y
 _atom_site_fract_z
 _atom_site_occupancy
  Al  Al0  1  0.06686400  0.93313600  0.25000000  1
  Al  Al1  1  0.93313600  0.06686400  0.75000000  1
  W  W2  1  0.50000000  0.50000000  0.50000000  1
  W  W3  1  0.50000000  0.50000000  0.00000000  1
  W  W4  1  0.50000000  0.00000000  0.50000000  1
  W  W5  1  0.00000000  0.50000000  0.00000000  1
  O  O6  1  0.91494400  0.75700400  0.71850500  1
  O  O7  1  0.24299600  0.08505600  0.78149500  1
  O  O8  1  0.08505600  0.24299600  0.28149500  1
  O  O9  1  0.75700400  0.91494400  0.21850500  1
  O  O10  1  0.08596900  0.39287400  0.68930800  1
  O  O11  1  0.60712600  0.91403100  0.81069200  1
  O  O12  1  0.39287400  0.08596900  0.18930800  1
  O  O13  1  0.91403100  0.60712600  0.31069200  1
