# generated using pymatgen
data_Al2Fe3(PO5)3
_symmetry_space_group_name_H-M   'P 1'
_cell_length_a   10.48010900
_cell_length_b   7.22535800
_cell_length_c   16.13439932
_cell_angle_alpha   80.94554368
_cell_angle_beta   90.00000000
_cell_angle_gamma   90.00000000
_symmetry_Int_Tables_number   1
_chemical_formula_structural   Al2Fe3(PO5)3
_chemical_formula_sum   'Al8 Fe12 P12 O60'
_cell_volume   1206.51387466
_cell_formula_units_Z   4
loop_
 _symmetry_equiv_pos_site_id
 _symmetry_equiv_pos_as_xyz
  1  'x, y, z'
loop_
 _atom_site_type_symbol
 _atom_site_label
 _atom_site_symmetry_multiplicity
 _atom_site_fract_x
 _atom_site_fract_y
 _atom_site_fract_z
 _atom_site_occupancy
  Al  Al0  1  0.17811900  0.35954100  0.99013200  1
  Al  Al1  1  0.17251200  0.36452500  0.31612800  1
  Al  Al2  1  0.67251200  0.63547500  0.18387200  1
  Al  Al3  1  0.67811900  0.64045900  0.50986800  1
  Al  Al4  1  0.32188100  0.35954100  0.49013200  1
  Al  Al5  1  0.32748800  0.36452500  0.81612800  1
  Al  Al6  1  0.82188100  0.64045900  0.00986800  1
  Al  Al7  1  0.82748800  0.63547500  0.68387200  1
  Fe  Fe8  1  0.63638900  0.98532100  0.04247200  1
  Fe  Fe9  1  0.64951400  0.98536200  0.36982800  1
  Fe  Fe10  1  0.63672200  0.96915600  0.71282500  1
  Fe  Fe11  1  0.14951400  0.01463800  0.13017200  1
  Fe  Fe12  1  0.13638900  0.01467900  0.45752800  1
  Fe  Fe13  1  0.13672200  0.03084400  0.78717500  1
  Fe  Fe14  1  0.36361100  0.01467900  0.95752800  1
  Fe  Fe15  1  0.36327800  0.03084400  0.28717500  1
  Fe  Fe16  1  0.35048600  0.01463800  0.63017200  1
  Fe  Fe17  1  0.85048600  0.98536200  0.86982800  1
  Fe  Fe18  1  0.86327800  0.96915600  0.21282500  1
  Fe  Fe19  1  0.86361100  0.98532100  0.54247200  1
  P  P20  1  0.60363500  0.23814900  0.85518200  1
  P  P21  1  0.59560800  0.22407900  0.17909600  1
  P  P22  1  0.59605500  0.22243700  0.52236100  1
  P  P23  1  0.39636500  0.76185100  0.14481800  1
  P  P24  1  0.40394500  0.77756300  0.47763900  1
  P  P25  1  0.40439200  0.77592100  0.82090400  1
  P  P26  1  0.90394500  0.22243700  0.02236100  1
  P  P27  1  0.89636500  0.23814900  0.35518200  1
  P  P28  1  0.90439200  0.22407900  0.67909600  1
  P  P29  1  0.09605500  0.77756300  0.97763900  1
  P  P30  1  0.09560800  0.77592100  0.32090400  1
  P  P31  1  0.10363500  0.76185100  0.64481800  1
  O  O32  1  0.45278200  0.89277700  0.06112600  1
  O  O33  1  0.45155800  0.89730400  0.39376800  1
  O  O34  1  0.44795900  0.89340100  0.73267600  1
  O  O35  1  0.95155800  0.10269600  0.10623200  1
  O  O36  1  0.95278200  0.10722300  0.43887400  1
  O  O37  1  0.94795900  0.10659900  0.76732400  1
  O  O38  1  0.54721800  0.10722300  0.93887400  1
  O  O39  1  0.55204100  0.10659900  0.26732400  1
  O  O40  1  0.54844200  0.10269600  0.60623200  1
  O  O41  1  0.04844200  0.89730400  0.89376800  1
  O  O42  1  0.05204100  0.89340100  0.23267600  1
  O  O43  1  0.04721800  0.89277700  0.56112600  1
  O  O44  1  0.69430700  0.08266500  0.14410200  1
  O  O45  1  0.68591800  0.08923800  0.47980300  1
  O  O46  1  0.68241600  0.09054400  0.81090600  1
  O  O47  1  0.18591800  0.91076200  0.02019700  1
  O  O48  1  0.19430700  0.91733500  0.35589800  1
  O  O49  1  0.18241600  0.90945600  0.68909400  1
  O  O50  1  0.30569300  0.91733500  0.85589800  1
  O  O51  1  0.31758400  0.90945600  0.18909400  1
  O  O52  1  0.31408200  0.91076200  0.52019700  1
  O  O53  1  0.81408200  0.08923800  0.97980300  1
  O  O54  1  0.81758400  0.09054400  0.31090600  1
  O  O55  1  0.80569300  0.08266500  0.64410200  1
  O  O56  1  0.98160300  0.71877700  0.03577100  1
  O  O57  1  0.99058900  0.73520500  0.38281400  1
  O  O58  1  0.98464100  0.71447000  0.70136700  1
  O  O59  1  0.49058900  0.26479500  0.11718600  1
  O  O60  1  0.48160300  0.28122300  0.46422900  1
  O  O61  1  0.48464100  0.28553000  0.79863300  1
  O  O62  1  0.01839700  0.28122300  0.96422900  1
  O  O63  1  0.01535900  0.28553000  0.29863300  1
  O  O64  1  0.00941100  0.26479500  0.61718600  1
  O  O65  1  0.50941100  0.73520500  0.88281400  1
  O  O66  1  0.51535900  0.71447000  0.20136700  1
  O  O67  1  0.51839700  0.71877700  0.53577100  1
  O  O68  1  0.80302800  0.75074900  0.90774500  1
  O  O69  1  0.78913700  0.74491900  0.23383300  1
  O  O70  1  0.79392000  0.73172400  0.57412200  1
  O  O71  1  0.29392000  0.26827600  0.92587800  1
  O  O72  1  0.28913700  0.25508100  0.26616700  1
  O  O73  1  0.30302800  0.24925100  0.59225500  1
  O  O74  1  0.19697200  0.24925100  0.09225500  1
  O  O75  1  0.20608000  0.26827600  0.42587800  1
  O  O76  1  0.21086300  0.25508100  0.76616700  1
  O  O77  1  0.70608000  0.73172400  0.07412200  1
  O  O78  1  0.69697200  0.75074900  0.40774500  1
  O  O79  1  0.71086300  0.74491900  0.73383300  1
  O  O80  1  0.68574100  0.38977500  0.87628900  1
  O  O81  1  0.67550200  0.38958700  0.20024900  1
  O  O82  1  0.67144600  0.39388000  0.53988400  1
  O  O83  1  0.31425900  0.61022500  0.12371100  1
  O  O84  1  0.32855400  0.60612000  0.46011600  1
  O  O85  1  0.32449800  0.61041300  0.79975100  1
  O  O86  1  0.17144600  0.60612000  0.96011600  1
  O  O87  1  0.17550200  0.61041300  0.29975100  1
  O  O88  1  0.18574100  0.61022500  0.62371100  1
  O  O89  1  0.82855400  0.39388000  0.03988400  1
  O  O90  1  0.81425900  0.38977500  0.37628900  1
  O  O91  1  0.82449800  0.38958700  0.70024900  1
