# generated using pymatgen
data_Ba2Ti3AlO7
_symmetry_space_group_name_H-M   'P 1'
_cell_length_a   3.92322000
_cell_length_b   3.97977200
_cell_length_c   11.50074600
_cell_angle_alpha   90.00000000
_cell_angle_beta   90.00000000
_cell_angle_gamma   90.00000000
_symmetry_Int_Tables_number   1
_chemical_formula_structural   Ba2Ti3AlO7
_chemical_formula_sum   'Ba2 Ti3 Al1 O7'
_cell_volume   179.56714040
_cell_formula_units_Z   1
loop_
 _symmetry_equiv_pos_site_id
 _symmetry_equiv_pos_as_xyz
  1  'x, y, z'
loop_
 _atom_site_type_symbol
 _atom_site_label
 _atom_site_symmetry_multiplicity
 _atom_site_fract_x
 _atom_site_fract_y
 _atom_site_fract_z
 _atom_site_occupancy
  Ba  Ba0  1  0.50000000  0.50000000  0.81885800  1
  Ba  Ba1  1  0.50000000  0.50000000  0.18114200  1
  Ti  Ti2  1  0.00000000  0.00000000  0.62485200  1
  Ti  Ti3  1  0.00000000  0.00000000  0.37514800  1
  Ti  Ti4  1  0.00000000  0.00000000  0.00000000  1
  Al  Al5  1  0.50000000  0.50000000  0.50000000  1
  O  O6  1  0.00000000  0.50000000  0.00000000  1
  O  O7  1  0.50000000  0.00000000  0.62123100  1
  O  O8  1  0.50000000  0.00000000  0.37876900  1
  O  O9  1  0.00000000  0.50000000  0.61952100  1
  O  O10  1  0.00000000  0.50000000  0.38047900  1
  O  O11  1  0.00000000  0.00000000  0.82816300  1
  O  O12  1  0.00000000  0.00000000  0.17183700  1
