# generated using pymatgen
data_Ti2Al2O7
_symmetry_space_group_name_H-M   'P 1'
_cell_length_a   6.77887856
_cell_length_b   6.77887856
_cell_length_c   6.77887856
_cell_angle_alpha   60.00000000
_cell_angle_beta   60.00000000
_cell_angle_gamma   60.00000000
_symmetry_Int_Tables_number   1
_chemical_formula_structural   Ti2Al2O7
_chemical_formula_sum   'Ti4 Al4 O14'
_cell_volume   220.27162921
_cell_formula_units_Z   2
loop_
 _symmetry_equiv_pos_site_id
 _symmetry_equiv_pos_as_xyz
  1  'x, y, z'
loop_
 _atom_site_type_symbol
 _atom_site_label
 _atom_site_symmetry_multiplicity
 _atom_site_fract_x
 _atom_site_fract_y
 _atom_site_fract_z
 _atom_site_occupancy
  Ti  Ti0  1  0.62500000  0.62500000  0.62500000  1
  Ti  Ti1  1  0.12500000  0.62500000  0.62500000  1
  Ti  Ti2  1  0.62500000  0.62500000  0.12500000  1
  Ti  Ti3  1  0.62500000  0.12500000  0.62500000  1
  Al  Al4  1  0.12500000  0.12500000  0.12500000  1
  Al  Al5  1  0.62500000  0.12500000  0.12500000  1
  Al  Al6  1  0.12500000  0.12500000  0.62500000  1
  Al  Al7  1  0.12500000  0.62500000  0.12500000  1
  O  O8  1  0.00000000  0.00000000  0.00000000  1
  O  O9  1  0.25000000  0.25000000  0.25000000  1
  O  O10  1  0.27656200  0.27656200  0.72343800  1
  O  O11  1  0.52656200  0.52656200  0.97343800  1
  O  O12  1  0.72343800  0.27656200  0.72343800  1
  O  O13  1  0.72343800  0.27656200  0.27656200  1
  O  O14  1  0.27656200  0.72343800  0.72343800  1
  O  O15  1  0.27656200  0.72343800  0.27656200  1
  O  O16  1  0.72343800  0.72343800  0.27656200  1
  O  O17  1  0.97343800  0.52656200  0.52656200  1
  O  O18  1  0.52656200  0.97343800  0.97343800  1
  O  O19  1  0.97343800  0.97343800  0.52656200  1
  O  O20  1  0.97343800  0.52656200  0.97343800  1
  O  O21  1  0.52656200  0.97343800  0.52656200  1
