# generated using pymatgen
data_Li2Fe2(SiO3)3
_symmetry_space_group_name_H-M   'P 1'
_cell_length_a   10.17608301
_cell_length_b   10.17682125
_cell_length_c   12.24749002
_cell_angle_alpha   89.99697088
_cell_angle_beta   90.00612802
_cell_angle_gamma   119.99787442
_symmetry_Int_Tables_number   1
_chemical_formula_structural   Li2Fe2(SiO3)3
_chemical_formula_sum   'Li12 Fe12 Si18 O54'
_cell_volume   1098.44878489
_cell_formula_units_Z   6
loop_
 _symmetry_equiv_pos_site_id
 _symmetry_equiv_pos_as_xyz
  1  'x, y, z'
loop_
 _atom_site_type_symbol
 _atom_site_label
 _atom_site_symmetry_multiplicity
 _atom_site_fract_x
 _atom_site_fract_y
 _atom_site_fract_z
 _atom_site_occupancy
  Li  Li0  1  0.15163800  0.98755300  0.17458200  1
  Li  Li1  1  0.20161800  0.76416800  0.01461400  1
  Li  Li2  1  0.23574700  0.43729700  0.68113300  1
  Li  Li3  1  0.01254300  0.16413300  0.84119500  1
  Li  Li4  1  0.56265000  0.79838200  0.34796800  1
  Li  Li5  1  0.17402600  0.02489500  0.67109400  1
  Li  Li6  1  0.31872400  0.27459100  0.78715100  1
  Li  Li7  1  0.83528700  0.84857100  0.50831700  1
  Li  Li8  1  0.85099800  0.82625200  0.00417900  1
  Li  Li9  1  0.72543300  0.04417500  0.45382400  1
  Li  Li10  1  0.95593100  0.68156400  0.12041300  1
  Li  Li11  1  0.97513300  0.14890900  0.33769200  1
  Fe  Fe12  1  0.33284400  0.84478500  0.49351600  1
  Fe  Fe13  1  0.15504700  0.48804600  0.16013300  1
  Fe  Fe14  1  0.51201800  0.66704800  0.82690200  1
  Fe  Fe15  1  0.33581500  0.32427200  0.24878900  1
  Fe  Fe16  1  0.36564400  0.33122400  0.00410100  1
  Fe  Fe17  1  0.50876500  0.16503700  0.83853400  1
  Fe  Fe18  1  0.65636800  0.49131700  0.17185300  1
  Fe  Fe19  1  0.98830700  0.66420300  0.58214000  1
  Fe  Fe20  1  0.96565300  0.63449800  0.33740200  1
  Fe  Fe21  1  0.66877700  0.03439400  0.67079400  1
  Fe  Fe22  1  0.67579100  0.01158800  0.91550500  1
  Fe  Fe23  1  0.83490200  0.34388200  0.50510100  1
  Si  Si24  1  0.13081100  0.95232000  0.91846300  1
  Si  Si25  1  0.29766700  0.82279600  0.76726900  1
  Si  Si26  1  0.18960600  0.50873400  0.89018900  1
  Si  Si27  1  0.31920800  0.81044800  0.22354100  1
  Si  Si28  1  0.04769400  0.17826800  0.58521600  1
  Si  Si29  1  0.17705800  0.47476000  0.43384100  1
  Si  Si30  1  0.18357800  0.01697600  0.42979000  1
  Si  Si31  1  0.49115700  0.68079100  0.55693600  1
  Si  Si32  1  0.52513100  0.70238900  0.10055600  1
  Si  Si33  1  0.61697900  0.49719300  0.44556900  1
  Si  Si34  1  0.47800800  0.20033600  0.57584500  1
  Si  Si35  1  0.82146900  0.86921500  0.25188700  1
  Si  Si36  1  0.83354600  0.81649400  0.76306700  1
  Si  Si37  1  0.72243600  0.52201700  0.90920900  1
  Si  Si38  1  0.50286800  0.11990400  0.11228300  1
  Si  Si39  1  0.88018400  0.38300900  0.77889600  1
  Si  Si40  1  0.79973200  0.27768500  0.24256400  1
  Si  Si41  1  0.98295800  0.16641600  0.09650100  1
  O  O42  1  0.10480800  0.83121500  0.43601400  1
  O  O43  1  0.07390500  0.87782200  0.03794000  1
  O  O44  1  0.19715300  0.84935400  0.86179000  1
  O  O45  1  0.13693400  0.69100200  0.21586800  1
  O  O46  1  0.05008600  0.52522500  0.44668000  1
  O  O47  1  0.03985500  0.38660700  0.81789800  1
  O  O48  1  0.22276900  0.80592800  0.64633800  1
  O  O49  1  0.14650000  0.55316300  0.00476400  1
  O  O50  1  0.34681100  0.96033200  0.15141000  1
  O  O51  1  0.28133200  0.66147600  0.81067100  1
  O  O52  1  0.15008700  0.34746200  0.52819800  1
  O  O53  1  0.40660200  0.85320400  0.33815400  1
  O  O54  1  0.12250500  0.19648700  0.70464900  1
  O  O55  1  0.19416200  0.41697600  0.31293100  1
  O  O56  1  0.47512000  0.94978400  0.78016100  1
  O  O57  1  0.38005700  0.71872600  0.14391400  1
  O  O58  1  0.30915100  0.44605000  0.88264000  1
  O  O59  1  0.16870600  0.27333600  0.10268000  1
  O  O60  1  0.08579400  0.05963900  0.51716900  1
  O  O61  1  0.33836200  0.61963600  0.47749100  1
  O  O62  1  0.19922000  0.09967400  0.31462000  1
  O  O63  1  0.44683600  0.59337500  0.67151900  1
  O  O64  1  0.55387800  0.86305800  0.54931600  1
  O  O65  1  0.58316500  0.77725800  0.97963400  1
  O  O66  1  0.25322900  0.12948100  0.90594200  1
  O  O67  1  0.47480400  0.52495500  0.11338100  1
  O  O68  1  0.65219500  0.80297600  0.19505500  1
  O  O69  1  0.61325300  0.65320500  0.48455600  1
  O  O70  1  0.35029800  0.06942600  0.49007400  1
  O  O71  1  0.72657500  0.89526600  0.76936400  1
  O  O72  1  0.54450800  0.45128000  0.32334300  1
  O  O73  1  0.39849800  0.16987800  0.69555100  1
  O  O74  1  0.80357500  0.92588500  0.37135600  1
  O  O75  1  0.50693800  0.36423600  0.53163700  1
  O  O76  1  0.46243800  0.25539700  0.12685300  1
  O  O77  1  0.55465000  0.37387300  0.90112800  1
  O  O78  1  0.71939000  0.64989600  0.82350300  1
  O  O79  1  0.54865100  0.09315400  0.99004600  1
  O  O80  1  0.77143300  0.60154700  0.02888100  1
  O  O81  1  0.90038800  0.80075000  0.64790900  1
  O  O82  1  0.87616500  0.74685400  0.23922200  1
  O  O83  1  0.62619800  0.18079500  0.56775500  1
  O  O84  1  0.79299000  0.53764000  0.46019000  1
  O  O85  1  0.97447400  0.91474100  0.85004100  1
  O  O86  1  0.63577700  0.14274000  0.19832400  1
  O  O87  1  0.85751800  0.49312700  0.86502400  1
  O  O88  1  0.81933900  0.44542700  0.23447300  1
  O  O89  1  0.74463800  0.20702700  0.79354900  1
  O  O90  1  0.83012700  0.22859500  0.36226100  1
  O  O91  1  0.90676600  0.45550700  0.65667600  1
  O  O92  1  0.87038900  0.12294100  0.57281200  1
  O  O93  1  0.93056400  0.28072100  0.15677500  1
  O  O94  1  0.90033600  0.09947000  0.98130900  1
  O  O95  1  0.94035300  0.02588800  0.18382500  1
