# generated using pymatgen
data_Ca3Ga8
_symmetry_space_group_name_H-M   'P 1'
_cell_length_a   13.28963240
_cell_length_b   13.28963240
_cell_length_c   13.28963240
_cell_angle_alpha   161.31160065
_cell_angle_beta   161.18990523
_cell_angle_gamma   26.63664998
_symmetry_Int_Tables_number   1
_chemical_formula_structural   Ca3Ga8
_chemical_formula_sum   'Ca3 Ga8'
_cell_volume   242.40275858
_cell_formula_units_Z   1
loop_
 _symmetry_equiv_pos_site_id
 _symmetry_equiv_pos_as_xyz
  1  'x, y, z'
loop_
 _atom_site_type_symbol
 _atom_site_label
 _atom_site_symmetry_multiplicity
 _atom_site_fract_x
 _atom_site_fract_y
 _atom_site_fract_z
 _atom_site_occupancy
  Ca  Ca0  1  0.00000000  0.00000000  0.00000000  1
  Ca  Ca1  1  0.85481800  0.35481800  0.50000000  1
  Ca  Ca2  1  0.14518200  0.64518200  0.50000000  1
  Ga  Ga3  1  0.24969800  0.24969800  0.00000000  1
  Ga  Ga4  1  0.75030200  0.75030200  0.00000000  1
  Ga  Ga5  1  0.45180500  0.45180500  0.00000000  1
  Ga  Ga6  1  0.54819500  0.54819500  0.00000000  1
  Ga  Ga7  1  0.59458000  0.09458000  0.50000000  1
  Ga  Ga8  1  0.40542000  0.90542000  0.50000000  1
  Ga  Ga9  1  0.69077300  0.19077300  0.50000000  1
  Ga  Ga10  1  0.30922700  0.80922700  0.50000000  1
