# generated using pymatgen
data_Mg5AlH21O17
_symmetry_space_group_name_H-M   'P 1'
_cell_length_a   8.00142769
_cell_length_b   8.07488868
_cell_length_c   48.31811083
_cell_angle_alpha   22.31624077
_cell_angle_beta   22.62800880
_cell_angle_gamma   22.28294234
_symmetry_Int_Tables_number   1
_chemical_formula_structural   Mg5AlH21O17
_chemical_formula_sum   'Mg5 Al1 H21 O17'
_cell_volume   397.85345171
_cell_formula_units_Z   1
loop_
 _symmetry_equiv_pos_site_id
 _symmetry_equiv_pos_as_xyz
  1  'x, y, z'
loop_
 _atom_site_type_symbol
 _atom_site_label
 _atom_site_symmetry_multiplicity
 _atom_site_fract_x
 _atom_site_fract_y
 _atom_site_fract_z
 _atom_site_occupancy
  Mg  Mg0  1  0.05301200  0.99177900  0.99268300  1
  Mg  Mg1  1  0.05144900  0.97749500  0.15956000  1
  Mg  Mg2  1  0.03864700  0.99187600  0.49559600  1
  Mg  Mg3  1  0.05066400  0.98041600  0.32815600  1
  Mg  Mg4  1  0.03730400  0.00687000  0.65851400  1
  Al  Al5  1  0.03861400  0.00625300  0.82527700  1
  H  H6  1  0.47139400  0.38234600  0.06634600  1
  H  H7  1  0.17779000  0.95232400  0.23719500  1
  H  H8  1  0.64016300  0.60659300  0.08106200  1
  H  H9  1  0.54633500  0.37073200  0.22121000  1
  H  H10  1  0.12041000  0.02178300  0.40303700  1
  H  H11  1  0.66688600  0.46457500  0.26836100  1
  H  H12  1  0.52644400  0.33000100  0.40001700  1
  H  H13  1  0.99156200  0.10740900  0.56759400  1
  H  H14  1  0.78312700  0.83973600  0.30299000  1
  H  H15  1  0.64525900  0.50442600  0.43309300  1
  H  H16  1  0.47079200  0.36527500  0.57047000  1
  H  H17  1  0.71311500  0.37770000  0.73552200  1
  H  H18  1  0.69923000  0.89752100  0.48238300  1
  H  H19  1  0.61562100  0.55786000  0.59463600  1
  H  H20  1  0.36690800  0.42788300  0.74177900  1
  H  H21  1  0.01612000  0.51342100  0.82896300  1
  H  H22  1  0.50929800  0.08108200  0.65303700  1
  H  H23  1  0.54461700  0.62900300  0.76188900  1
  H  H24  1  0.53782300  0.40718800  0.88429900  1
  H  H25  1  0.69671100  0.59701600  0.90964200  1
  H  H26  1  0.98721200  0.01999300  0.91458000  1
  O  O27  1  0.45036400  0.36871100  0.05176600  1
  O  O28  1  0.68388100  0.63516200  0.08956500  1
  O  O29  1  0.45252900  0.35748900  0.21858700  1
  O  O30  1  0.83362300  0.11975400  0.25731900  1
  O  O31  1  0.65947300  0.61837600  0.26339000  1
  O  O32  1  0.44046200  0.35351900  0.39006500  1
  O  O33  1  0.77089600  0.17772000  0.42679100  1
  O  O34  1  0.64724400  0.62360500  0.43295000  1
  O  O35  1  0.41185000  0.35133200  0.56190900  1
  O  O36  1  0.63382000  0.33535400  0.58850000  1
  O  O37  1  0.63117300  0.62012200  0.60229900  1
  O  O38  1  0.37665700  0.33823300  0.73466800  1
  O  O39  1  0.40127800  0.68232800  0.74022400  1
  O  O40  1  0.61244400  0.62105400  0.77318000  1
  O  O41  1  0.45988600  0.38287700  0.88037000  1
  O  O42  1  0.76422700  0.38047500  0.89108800  1
  O  O43  1  0.70035200  0.66199700  0.91887800  1
