# generated using pymatgen
data_CaSi2SnO6
_symmetry_space_group_name_H-M   'P 1'
_cell_length_a   5.53832700
_cell_length_b   9.67723300
_cell_length_c   20.44132200
_cell_angle_alpha   90.00000000
_cell_angle_beta   90.00000000
_cell_angle_gamma   90.00000000
_symmetry_Int_Tables_number   1
_chemical_formula_structural   CaSi2SnO6
_chemical_formula_sum   'Ca8 Si16 Sn8 O48'
_cell_volume   1095.56656923
_cell_formula_units_Z   8
loop_
 _symmetry_equiv_pos_site_id
 _symmetry_equiv_pos_as_xyz
  1  'x, y, z'
loop_
 _atom_site_type_symbol
 _atom_site_label
 _atom_site_symmetry_multiplicity
 _atom_site_fract_x
 _atom_site_fract_y
 _atom_site_fract_z
 _atom_site_occupancy
  Ca  Ca0  1  0.62498400  0.14274900  0.37456400  1
  Ca  Ca1  1  0.37501600  0.85725100  0.62543600  1
  Ca  Ca2  1  0.62498400  0.64274900  0.12543600  1
  Ca  Ca3  1  0.12498400  0.85725100  0.12543600  1
  Ca  Ca4  1  0.87501600  0.14274900  0.87456400  1
  Ca  Ca5  1  0.37501600  0.35725100  0.87456400  1
  Ca  Ca6  1  0.12498400  0.35725100  0.37456400  1
  Ca  Ca7  1  0.87501600  0.64274900  0.62543600  1
  Si  Si8  1  0.50577300  0.66126000  0.76274000  1
  Si  Si9  1  0.73362500  0.83800400  0.48684300  1
  Si  Si10  1  0.76637500  0.83800400  0.98684300  1
  Si  Si11  1  0.99422700  0.16126000  0.23726000  1
  Si  Si12  1  0.00577300  0.33874000  0.73726000  1
  Si  Si13  1  0.49422700  0.83874000  0.26274000  1
  Si  Si14  1  0.23362500  0.66199600  0.48684300  1
  Si  Si15  1  0.73362500  0.33800400  0.01315700  1
  Si  Si16  1  0.76637500  0.33800400  0.51315700  1
  Si  Si17  1  0.99422700  0.66126000  0.26274000  1
  Si  Si18  1  0.49422700  0.33874000  0.23726000  1
  Si  Si19  1  0.50577300  0.16126000  0.73726000  1
  Si  Si20  1  0.26637500  0.16199600  0.51315700  1
  Si  Si21  1  0.00577300  0.83874000  0.76274000  1
  Si  Si22  1  0.26637500  0.66199600  0.98684300  1
  Si  Si23  1  0.23362500  0.16199600  0.01315700  1
  Sn  Sn24  1  0.37373800  0.95777400  0.87686000  1
  Sn  Sn25  1  0.62626200  0.04222600  0.12314000  1
  Sn  Sn26  1  0.87373800  0.04222600  0.62314000  1
  Sn  Sn27  1  0.12626200  0.95777400  0.37686000  1
  Sn  Sn28  1  0.37373800  0.45777400  0.62314000  1
  Sn  Sn29  1  0.62626200  0.54222600  0.37686000  1
  Sn  Sn30  1  0.87373800  0.54222600  0.87686000  1
  Sn  Sn31  1  0.12626200  0.45777400  0.12314000  1
  O  O32  1  0.97180400  0.52210200  0.30597200  1
  O  O33  1  0.26296000  0.02109000  0.05455800  1
  O  O34  1  0.02819600  0.47789800  0.69402800  1
  O  O35  1  0.73557400  0.35146300  0.93257900  1
  O  O36  1  0.23557400  0.14853700  0.93257900  1
  O  O37  1  0.97013500  0.23688400  0.03243600  1
  O  O38  1  0.98821500  0.64487500  0.18238200  1
  O  O39  1  0.01178500  0.85512500  0.68238200  1
  O  O40  1  0.73557400  0.85146300  0.56742100  1
  O  O41  1  0.98821500  0.14487500  0.31761800  1
  O  O42  1  0.47180400  0.47789800  0.19402800  1
  O  O43  1  0.76442600  0.35146300  0.43257900  1
  O  O44  1  0.73704000  0.97891000  0.94544200  1
  O  O45  1  0.48821500  0.85512500  0.18238200  1
  O  O46  1  0.52819600  0.02210200  0.69402800  1
  O  O47  1  0.26296000  0.52109000  0.44544200  1
  O  O48  1  0.47180400  0.97789800  0.30597200  1
  O  O49  1  0.25171200  0.74208800  0.28134600  1
  O  O50  1  0.24828800  0.74208800  0.78134600  1
  O  O51  1  0.52986500  0.73688400  0.96756400  1
  O  O52  1  0.76442600  0.85146300  0.06742100  1
  O  O53  1  0.51178500  0.64487500  0.68238200  1
  O  O54  1  0.76296000  0.47891000  0.05455800  1
  O  O55  1  0.25171200  0.24208800  0.21865400  1
  O  O56  1  0.26442600  0.14853700  0.43257900  1
  O  O57  1  0.51178500  0.14487500  0.81761800  1
  O  O58  1  0.73704000  0.47891000  0.55455800  1
  O  O59  1  0.23557400  0.64853700  0.56742100  1
  O  O60  1  0.23704000  0.52109000  0.94544200  1
  O  O61  1  0.75171200  0.75791200  0.28134600  1
  O  O62  1  0.02819600  0.97789800  0.80597200  1
  O  O63  1  0.74828800  0.75791200  0.78134600  1
  O  O64  1  0.74828800  0.25791200  0.71865400  1
  O  O65  1  0.76296000  0.97891000  0.44544200  1
  O  O66  1  0.26442600  0.64853700  0.06742100  1
  O  O67  1  0.23704000  0.02109000  0.55455800  1
  O  O68  1  0.24828800  0.24208800  0.71865400  1
  O  O69  1  0.02986500  0.76311600  0.96756400  1
  O  O70  1  0.47013500  0.76311600  0.46756400  1
  O  O71  1  0.75171200  0.25791200  0.21865400  1
  O  O72  1  0.47013500  0.26311600  0.03243600  1
  O  O73  1  0.52986500  0.23688400  0.53243600  1
  O  O74  1  0.02986500  0.26311600  0.53243600  1
  O  O75  1  0.48821500  0.35512500  0.31761800  1
  O  O76  1  0.52819600  0.52210200  0.80597200  1
  O  O77  1  0.97013500  0.73688400  0.46756400  1
  O  O78  1  0.01178500  0.35512500  0.81761800  1
  O  O79  1  0.97180400  0.02210200  0.19402800  1
