# generated using pymatgen
data_Nd8AlSi3(NO5)3
_symmetry_space_group_name_H-M   'P 1'
_cell_length_a   10.68191591
_cell_length_b   8.79312280
_cell_length_c   11.28480219
_cell_angle_alpha   88.62514180
_cell_angle_beta   115.27753801
_cell_angle_gamma   93.17419843
_symmetry_Int_Tables_number   1
_chemical_formula_structural   Nd8AlSi3(NO5)3
_chemical_formula_sum   'Nd16 Al2 Si6 N6 O30'
_cell_volume   956.99117369
_cell_formula_units_Z   2
loop_
 _symmetry_equiv_pos_site_id
 _symmetry_equiv_pos_as_xyz
  1  'x, y, z'
loop_
 _atom_site_type_symbol
 _atom_site_label
 _atom_site_symmetry_multiplicity
 _atom_site_fract_x
 _atom_site_fract_y
 _atom_site_fract_z
 _atom_site_occupancy
  Nd  Nd0  1  0.07168400  0.30727800  0.91954300  1
  Nd  Nd1  1  0.03048700  0.12496900  0.35537300  1
  Nd  Nd2  1  0.16158500  0.54663100  0.66277100  1
  Nd  Nd3  1  0.40178300  0.12499900  0.97787500  1
  Nd  Nd4  1  0.26547700  0.94050800  0.19292800  1
  Nd  Nd5  1  0.36138800  0.41333700  0.46912400  1
  Nd  Nd6  1  0.39775400  0.93260500  0.56862200  1
  Nd  Nd7  1  0.58106600  0.43557800  0.81927400  1
  Nd  Nd8  1  0.33144800  0.65058700  0.00867300  1
  Nd  Nd9  1  0.63938000  0.98298900  0.34835200  1
  Nd  Nd10  1  0.77219700  0.57778400  0.59225400  1
  Nd  Nd11  1  0.76618900  0.05697400  0.82024200  1
  Nd  Nd12  1  0.66572000  0.81894700  0.06203200  1
  Nd  Nd13  1  0.67205200  0.43747600  0.21462200  1
  Nd  Nd14  1  0.01762500  0.95977100  0.66662400  1
  Nd  Nd15  1  0.94906800  0.55456400  0.13135400  1
  Al  Al16  1  0.03096700  0.79578200  0.92323100  1
  Al  Al17  1  0.25280900  0.21371800  0.64839800  1
  Si  Si18  1  0.12445700  0.75960900  0.41457000  1
  Si  Si19  1  0.74497300  0.71723600  0.82385000  1
  Si  Si20  1  0.39086300  0.29169000  0.21766100  1
  Si  Si21  1  0.83625000  0.76273100  0.34561500  1
  Si  Si22  1  0.90544900  0.29118400  0.54887900  1
  Si  Si23  1  0.77001600  0.20829700  0.04213200  1
  N  N24  1  0.06320200  0.27413000  0.54640100  1
  N  N25  1  0.26144600  0.18161300  0.08937300  1
  N  N26  1  0.86625100  0.81622000  0.95335200  1
  N  N27  1  0.66962500  0.70185900  0.25188000  1
  N  N28  1  0.96775600  0.66560900  0.33621600  1
  N  N29  1  0.87821700  0.30133000  0.19327100  1
  O  O30  1  0.22537500  0.10614700  0.77187900  1
  O  O31  1  0.93020900  0.38549100  0.68594700  1
  O  O32  1  0.02630800  0.30875300  0.20394400  1
  O  O33  1  0.15316700  0.90449100  0.32966500  1
  O  O34  1  0.14435700  0.84662100  0.55261700  1
  O  O35  1  0.25706600  0.64735900  0.46749000  1
  O  O36  1  0.21561400  0.45886400  0.86219800  1
  O  O37  1  0.34165800  0.40002300  0.67856500  1
  O  O38  1  0.09697400  0.59159800  0.01728000  1
  O  O39  1  0.18530400  0.65592500  0.15304900  1
  O  O40  1  0.27253500  0.16207600  0.50073800  1
  O  O41  1  0.48090400  0.65767100  0.89101400  1
  O  O42  1  0.54229200  0.20089100  0.23860800  1
  O  O43  1  0.44857000  0.10619000  0.75095000  1
  O  O44  1  0.34902200  0.72875200  0.80004300  1
  O  O45  1  0.54725000  0.17119600  0.69596200  1
  O  O46  1  0.45755700  0.92794700  0.39487000  1
  O  O47  1  0.57435200  0.47939100  0.60112700  1
  O  O48  1  0.45864600  0.90452700  0.09251500  1
  O  O49  1  0.63449500  0.83327100  0.71149100  1
  O  O50  1  0.42877600  0.45127700  0.14603700  1
  O  O51  1  0.84303900  0.79295500  0.49356600  1
  O  O52  1  0.61177600  0.27202300  0.01211300  1
  O  O53  1  0.81810600  0.30688600  0.93081700  1
  O  O54  1  0.71593800  0.57276400  0.04082300  1
  O  O55  1  0.79809600  0.41034800  0.44173300  1
  O  O56  1  0.82598000  0.11880500  0.52922300  1
  O  O57  1  0.97042200  0.07971400  0.82193500  1
  O  O58  1  0.95977200  0.72932600  0.75414600  1
  O  O59  1  0.83925400  0.94271100  0.28516700  1
