# generated using pymatgen
data_Zn3Cr2(Si2O7)2
_symmetry_space_group_name_H-M   'P 1'
_cell_length_a   9.03078691
_cell_length_b   9.03078691
_cell_length_c   9.89247951
_cell_angle_alpha   61.53424764
_cell_angle_beta   61.53424764
_cell_angle_gamma   50.29927411
_symmetry_Int_Tables_number   1
_chemical_formula_structural   Zn3Cr2(Si2O7)2
_chemical_formula_sum   'Zn6 Cr4 Si8 O28'
_cell_volume   527.71125298
_cell_formula_units_Z   2
loop_
 _symmetry_equiv_pos_site_id
 _symmetry_equiv_pos_as_xyz
  1  'x, y, z'
loop_
 _atom_site_type_symbol
 _atom_site_label
 _atom_site_symmetry_multiplicity
 _atom_site_fract_x
 _atom_site_fract_y
 _atom_site_fract_z
 _atom_site_occupancy
  Zn  Zn0  1  0.07378900  0.27500800  0.08922800  1
  Zn  Zn1  1  0.72499200  0.92621100  0.41077200  1
  Zn  Zn2  1  0.27500800  0.07378900  0.58922800  1
  Zn  Zn3  1  0.38727400  0.61272600  0.75000000  1
  Zn  Zn4  1  0.92621100  0.72499200  0.91077200  1
  Zn  Zn5  1  0.61272600  0.38727400  0.25000000  1
  Cr  Cr6  1  0.79009900  0.20990100  0.75000000  1
  Cr  Cr7  1  0.20990100  0.79009900  0.25000000  1
  Cr  Cr8  1  0.00000000  0.00000000  0.00000000  1
  Cr  Cr9  1  0.00000000  0.00000000  0.50000000  1
  Si  Si10  1  0.52792300  0.11073500  0.70723200  1
  Si  Si11  1  0.11073500  0.52792300  0.20723200  1
  Si  Si12  1  0.52679400  0.22932700  0.09716600  1
  Si  Si13  1  0.22932700  0.52679400  0.59716600  1
  Si  Si14  1  0.88926500  0.47207700  0.79276800  1
  Si  Si15  1  0.47320600  0.77067300  0.90283400  1
  Si  Si16  1  0.77067300  0.47320600  0.40283400  1
  Si  Si17  1  0.47207700  0.88926500  0.29276800  1
  O  O18  1  0.84703400  0.28491600  0.34112300  1
  O  O19  1  0.96131000  0.87464400  0.41672100  1
  O  O20  1  0.46931100  0.64330100  0.08782300  1
  O  O21  1  0.87464400  0.96131000  0.91672100  1
  O  O22  1  0.25592700  0.92697200  0.32994700  1
  O  O23  1  0.05188100  0.49879600  0.62734300  1
  O  O24  1  0.64330100  0.46931100  0.58782300  1
  O  O25  1  0.07302800  0.74407300  0.17005300  1
  O  O26  1  0.94811900  0.50120400  0.37265700  1
  O  O27  1  0.64326800  0.66274500  0.26989000  1
  O  O28  1  0.03869000  0.12535600  0.58327900  1
  O  O29  1  0.74407300  0.07302800  0.67005300  1
  O  O30  1  0.50120400  0.94811900  0.87265700  1
  O  O31  1  0.28491600  0.84703400  0.84112300  1
  O  O32  1  0.66274500  0.64326800  0.76989000  1
  O  O33  1  0.92697200  0.25592700  0.82994700  1
  O  O34  1  0.90478500  0.50647400  0.93210500  1
  O  O35  1  0.35673200  0.33725500  0.73011000  1
  O  O36  1  0.49352600  0.09521500  0.56789500  1
  O  O37  1  0.33725500  0.35673200  0.23011000  1
  O  O38  1  0.49879600  0.05188100  0.12734300  1
  O  O39  1  0.12535600  0.03869000  0.08327900  1
  O  O40  1  0.50647400  0.90478500  0.43210500  1
  O  O41  1  0.53068900  0.35669900  0.91217700  1
  O  O42  1  0.09521500  0.49352600  0.06789500  1
  O  O43  1  0.35669900  0.53068900  0.41217700  1
  O  O44  1  0.71508400  0.15296600  0.15887700  1
  O  O45  1  0.15296600  0.71508400  0.65887700  1
