# generated using pymatgen
data_CaMn(SiO3)2
_symmetry_space_group_name_H-M   'P 1'
_cell_length_a   5.48510200
_cell_length_b   9.83144900
_cell_length_c   19.22927600
_cell_angle_alpha   90.00000000
_cell_angle_beta   90.00000000
_cell_angle_gamma   90.00000000
_symmetry_Int_Tables_number   1
_chemical_formula_structural   CaMn(SiO3)2
_chemical_formula_sum   'Ca8 Mn8 Si16 O48'
_cell_volume   1036.96756323
_cell_formula_units_Z   8
loop_
 _symmetry_equiv_pos_site_id
 _symmetry_equiv_pos_as_xyz
  1  'x, y, z'
loop_
 _atom_site_type_symbol
 _atom_site_label
 _atom_site_symmetry_multiplicity
 _atom_site_fract_x
 _atom_site_fract_y
 _atom_site_fract_z
 _atom_site_occupancy
  Ca  Ca0  1  0.61186200  0.14508500  0.37744300  1
  Ca  Ca1  1  0.38813800  0.85491500  0.62255700  1
  Ca  Ca2  1  0.61186200  0.64508500  0.12255700  1
  Ca  Ca3  1  0.11186200  0.85491500  0.12255700  1
  Ca  Ca4  1  0.88813800  0.14508500  0.87744300  1
  Ca  Ca5  1  0.38813800  0.35491500  0.87744300  1
  Ca  Ca6  1  0.11186200  0.35491500  0.37744300  1
  Ca  Ca7  1  0.88813800  0.64508500  0.62255700  1
  Mn  Mn8  1  0.38568000  0.98947300  0.87306200  1
  Mn  Mn9  1  0.61432000  0.01052700  0.12693800  1
  Mn  Mn10  1  0.88568000  0.01052700  0.62693800  1
  Mn  Mn11  1  0.11432000  0.98947300  0.37306200  1
  Mn  Mn12  1  0.38568000  0.48947300  0.62693800  1
  Mn  Mn13  1  0.61432000  0.51052700  0.37306200  1
  Mn  Mn14  1  0.88568000  0.51052700  0.87306200  1
  Mn  Mn15  1  0.11432000  0.48947300  0.12693800  1
  Si  Si16  1  0.55738100  0.66602200  0.77329200  1
  Si  Si17  1  0.74121600  0.83187800  0.47537700  1
  Si  Si18  1  0.75878400  0.83187800  0.97537700  1
  Si  Si19  1  0.94261900  0.16602200  0.22670800  1
  Si  Si20  1  0.05738100  0.33397800  0.72670800  1
  Si  Si21  1  0.44261900  0.83397800  0.27329200  1
  Si  Si22  1  0.24121600  0.66812200  0.47537700  1
  Si  Si23  1  0.74121600  0.33187800  0.02462300  1
  Si  Si24  1  0.75878400  0.33187800  0.52462300  1
  Si  Si25  1  0.94261900  0.66602200  0.27329200  1
  Si  Si26  1  0.44261900  0.33397800  0.22670800  1
  Si  Si27  1  0.55738100  0.16602200  0.72670800  1
  Si  Si28  1  0.25878400  0.16812200  0.52462300  1
  Si  Si29  1  0.05738100  0.83397800  0.77329200  1
  Si  Si30  1  0.25878400  0.66812200  0.97537700  1
  Si  Si31  1  0.24121600  0.16812200  0.02462300  1
  O  O32  1  0.92715600  0.52155400  0.31340700  1
  O  O33  1  0.30685200  0.03279100  0.06828900  1
  O  O34  1  0.07284400  0.47844600  0.68659300  1
  O  O35  1  0.74544800  0.34677100  0.93960000  1
  O  O36  1  0.24544800  0.15322900  0.93960000  1
  O  O37  1  0.95559800  0.21618300  0.04561600  1
  O  O38  1  0.95759600  0.65703400  0.18844500  1
  O  O39  1  0.04240400  0.84296600  0.68844500  1
  O  O40  1  0.74544800  0.84677100  0.56040000  1
  O  O41  1  0.95759600  0.15703400  0.31155500  1
  O  O42  1  0.42715600  0.47844600  0.18659300  1
  O  O43  1  0.75455200  0.34677100  0.43960000  1
  O  O44  1  0.69314800  0.96720900  0.93171100  1
  O  O45  1  0.45759600  0.84296600  0.18844500  1
  O  O46  1  0.57284400  0.02155400  0.68659300  1
  O  O47  1  0.30685200  0.53279100  0.43171100  1
  O  O48  1  0.42715600  0.97844600  0.31340700  1
  O  O49  1  0.18122800  0.75884700  0.29888700  1
  O  O50  1  0.31877200  0.75884700  0.79888700  1
  O  O51  1  0.54440200  0.71618300  0.95438400  1
  O  O52  1  0.75455200  0.84677100  0.06040000  1
  O  O53  1  0.54240400  0.65703400  0.68844500  1
  O  O54  1  0.80685200  0.46720900  0.06828900  1
  O  O55  1  0.18122800  0.25884700  0.20111300  1
  O  O56  1  0.25455200  0.15322900  0.43960000  1
  O  O57  1  0.54240400  0.15703400  0.81155500  1
  O  O58  1  0.69314800  0.46720900  0.56828900  1
  O  O59  1  0.24544800  0.65322900  0.56040000  1
  O  O60  1  0.19314800  0.53279100  0.93171100  1
  O  O61  1  0.68122800  0.74115300  0.29888700  1
  O  O62  1  0.07284400  0.97844600  0.81340700  1
  O  O63  1  0.81877200  0.74115300  0.79888700  1
  O  O64  1  0.81877200  0.24115300  0.70111300  1
  O  O65  1  0.80685200  0.96720900  0.43171100  1
  O  O66  1  0.25455200  0.65322900  0.06040000  1
  O  O67  1  0.19314800  0.03279100  0.56828900  1
  O  O68  1  0.31877200  0.25884700  0.70111300  1
  O  O69  1  0.04440200  0.78381700  0.95438400  1
  O  O70  1  0.45559800  0.78381700  0.45438400  1
  O  O71  1  0.68122800  0.24115300  0.20111300  1
  O  O72  1  0.45559800  0.28381700  0.04561600  1
  O  O73  1  0.54440200  0.21618300  0.54561600  1
  O  O74  1  0.04440200  0.28381700  0.54561600  1
  O  O75  1  0.45759600  0.34296600  0.31155500  1
  O  O76  1  0.57284400  0.52155400  0.81340700  1
  O  O77  1  0.95559800  0.71618300  0.45438400  1
  O  O78  1  0.04240400  0.34296600  0.81155500  1
  O  O79  1  0.92715600  0.02155400  0.18659300  1
