# generated using pymatgen
data_Zn3Fe2(Si2O7)2
_symmetry_space_group_name_H-M   'P 1'
_cell_length_a   9.11666164
_cell_length_b   9.11666164
_cell_length_c   9.89451628
_cell_angle_alpha   60.96280340
_cell_angle_beta   60.96280340
_cell_angle_gamma   50.69167928
_symmetry_Int_Tables_number   1
_chemical_formula_structural   Zn3Fe2(Si2O7)2
_chemical_formula_sum   'Zn6 Fe4 Si8 O28'
_cell_volume   536.74548151
_cell_formula_units_Z   2
loop_
 _symmetry_equiv_pos_site_id
 _symmetry_equiv_pos_as_xyz
  1  'x, y, z'
loop_
 _atom_site_type_symbol
 _atom_site_label
 _atom_site_symmetry_multiplicity
 _atom_site_fract_x
 _atom_site_fract_y
 _atom_site_fract_z
 _atom_site_occupancy
  Zn  Zn0  1  0.05809900  0.28049000  0.09760100  1
  Zn  Zn1  1  0.71951000  0.94190100  0.40239900  1
  Zn  Zn2  1  0.28049000  0.05809900  0.59760100  1
  Zn  Zn3  1  0.39448000  0.60552000  0.75000000  1
  Zn  Zn4  1  0.94190100  0.71951000  0.90239900  1
  Zn  Zn5  1  0.60552000  0.39448000  0.25000000  1
  Fe  Fe6  1  0.79433800  0.20566200  0.75000000  1
  Fe  Fe7  1  0.20566200  0.79433800  0.25000000  1
  Fe  Fe8  1  0.00000000  0.00000000  0.00000000  1
  Fe  Fe9  1  0.00000000  0.00000000  0.50000000  1
  Si  Si10  1  0.53087300  0.10097700  0.70942700  1
  Si  Si11  1  0.10097700  0.53087300  0.20942700  1
  Si  Si12  1  0.51848900  0.24182900  0.10264700  1
  Si  Si13  1  0.24182900  0.51848900  0.60264700  1
  Si  Si14  1  0.89902300  0.46912700  0.79057300  1
  Si  Si15  1  0.48151100  0.75817100  0.89735300  1
  Si  Si16  1  0.75817100  0.48151100  0.39735300  1
  Si  Si17  1  0.46912700  0.89902300  0.29057300  1
  O  O18  1  0.83401500  0.30028400  0.33020000  1
  O  O19  1  0.95694500  0.88260700  0.41658900  1
  O  O20  1  0.45865000  0.63939400  0.08711200  1
  O  O21  1  0.88260700  0.95694500  0.91658900  1
  O  O22  1  0.25169200  0.94410600  0.32301700  1
  O  O23  1  0.05911500  0.50548700  0.62580500  1
  O  O24  1  0.63939400  0.45865000  0.58711200  1
  O  O25  1  0.05589400  0.74830800  0.17698300  1
  O  O26  1  0.94088500  0.49451300  0.37419500  1
  O  O27  1  0.63377500  0.67582100  0.26696400  1
  O  O28  1  0.04305500  0.11739300  0.58341100  1
  O  O29  1  0.74830800  0.05589400  0.67698300  1
  O  O30  1  0.49451300  0.94088500  0.87419500  1
  O  O31  1  0.30028400  0.83401500  0.83020000  1
  O  O32  1  0.67582100  0.63377500  0.76696400  1
  O  O33  1  0.94410600  0.25169200  0.82301700  1
  O  O34  1  0.90363100  0.50646000  0.93388800  1
  O  O35  1  0.36622500  0.32417900  0.73303600  1
  O  O36  1  0.49354000  0.09636900  0.56611200  1
  O  O37  1  0.32417900  0.36622500  0.23303600  1
  O  O38  1  0.50548700  0.05911500  0.12580500  1
  O  O39  1  0.11739300  0.04305500  0.08341100  1
  O  O40  1  0.50646000  0.90363100  0.43388800  1
  O  O41  1  0.54135000  0.36060600  0.91288800  1
  O  O42  1  0.09636900  0.49354000  0.06611200  1
  O  O43  1  0.36060600  0.54135000  0.41288800  1
  O  O44  1  0.69971600  0.16598500  0.16980000  1
  O  O45  1  0.16598500  0.69971600  0.66980000  1
