# generated using pymatgen
data_RbAl6H20N5F24
_symmetry_space_group_name_H-M   'P 1'
_cell_length_a   5.23435473
_cell_length_b   5.20536312
_cell_length_c   22.95336192
_cell_angle_alpha   102.85859095
_cell_angle_beta   102.16741292
_cell_angle_gamma   89.89387768
_symmetry_Int_Tables_number   1
_chemical_formula_structural   RbAl6H20N5F24
_chemical_formula_sum   'Rb1 Al6 H20 N5 F24'
_cell_volume   595.35687835
_cell_formula_units_Z   1
loop_
 _symmetry_equiv_pos_site_id
 _symmetry_equiv_pos_as_xyz
  1  'x, y, z'
loop_
 _atom_site_type_symbol
 _atom_site_label
 _atom_site_symmetry_multiplicity
 _atom_site_fract_x
 _atom_site_fract_y
 _atom_site_fract_z
 _atom_site_occupancy
  Rb  Rb0  1  0.25062600  0.82241600  0.16499700  1
  Al  Al1  1  0.02389700  0.91975500  0.65573800  1
  Al  Al2  1  0.95420700  0.97809400  0.33644100  1
  Al  Al3  1  0.52979600  0.42869400  0.66593700  1
  Al  Al4  1  0.00476900  0.06871500  0.01456000  1
  Al  Al5  1  0.44478800  0.45410700  0.32104500  1
  Al  Al6  1  0.50047900  0.55746900  0.00816200  1
  H  H7  1  0.37637900  0.64221400  0.80192700  1
  H  H8  1  0.72953100  0.38314700  0.89158700  1
  H  H9  1  0.35712400  0.52683300  0.50580600  1
  H  H10  1  0.81227400  0.45367700  0.82895300  1
  H  H11  1  0.64539400  0.05169800  0.77565500  1
  H  H12  1  0.68328600  0.92632900  0.78634500  1
  H  H13  1  0.89390700  0.67159700  0.89767000  1
  H  H14  1  0.93860300  0.99628100  0.76464000  1
  H  H15  1  0.05003100  0.39051700  0.88674500  1
  H  H16  1  0.50116200  0.48043700  0.39305700  1
  H  H17  1  0.44628100  0.87825700  0.44871900  1
  H  H18  1  0.73277700  0.25288200  0.54467900  1
  H  H19  1  0.91129900  0.50399700  0.53678000  1
  H  H20  1  0.84904000  0.21634400  0.48030400  1
  H  H21  1  0.05711000  0.22727300  0.54771100  1
  H  H22  1  0.70806200  0.70551400  0.14460100  1
  H  H23  1  0.81653500  0.11676300  0.20318200  1
  H  H24  1  0.66818500  0.40072600  0.20978700  1
  H  H25  1  0.83197500  0.29298500  0.15083400  1
  H  H26  1  0.00054000  0.39670300  0.22311600  1
  N  N27  1  0.22940300  0.72858400  0.82353300  1
  N  N28  1  0.34929200  0.67522600  0.48170800  1
  N  N29  1  0.86955900  0.46893000  0.87555600  1
  N  N30  1  0.88739100  0.29931600  0.52687900  1
  N  N31  1  0.82667200  0.30588000  0.19627600  1
  F  F32  1  0.41336400  0.49460600  0.92860000  1
  F  F33  1  0.08291600  0.05537300  0.74988200  1
  F  F34  1  0.28127700  0.69162500  0.67329200  1
  F  F35  1  0.27352200  0.17570600  0.66508800  1
  F  F36  1  0.44061000  0.36900700  0.58513700  1
  F  F37  1  0.01307700  0.10806900  0.41195000  1
  F  F38  1  0.94271400  0.96641000  0.93437000  1
  F  F39  1  0.17119200  0.70915000  0.31858700  1
  F  F40  1  0.62385100  0.47755600  0.74714000  1
  F  F41  1  0.16466200  0.17078000  0.30539000  1
  F  F42  1  0.78690900  0.68896300  0.66822000  1
  F  F43  1  0.36401200  0.40782400  0.23767800  1
  F  F44  1  0.77661400  0.16872300  0.65733600  1
  F  F45  1  0.05944100  0.17961500  0.09664700  1
  F  F46  1  0.96556000  0.82483300  0.57672300  1
  F  F47  1  0.26478500  0.81721900  0.02493900  1
  F  F48  1  0.52707100  0.00770600  0.43182100  1
  F  F49  1  0.25948600  0.31412800  0.01380700  1
  F  F50  1  0.70260800  0.71228900  0.31952100  1
  F  F51  1  0.68975000  0.17650300  0.30584400  1
  F  F52  1  0.78566400  0.79908600  0.19405300  1
  F  F53  1  0.60342500  0.59349600  0.09600400  1
  F  F54  1  0.75472600  0.81708100  0.01853100  1
  F  F55  1  0.75159000  0.31369000  0.00664300  1
