# generated using pymatgen
data_MgSi2WO6
_symmetry_space_group_name_H-M   'P 1'
_cell_length_a   5.40233100
_cell_length_b   9.39960300
_cell_length_c   18.97337100
_cell_angle_alpha   90.00000000
_cell_angle_beta   90.00000000
_cell_angle_gamma   90.00000000
_symmetry_Int_Tables_number   1
_chemical_formula_structural   MgSi2WO6
_chemical_formula_sum   'Mg8 Si16 W8 O48'
_cell_volume   963.46335241
_cell_formula_units_Z   8
loop_
 _symmetry_equiv_pos_site_id
 _symmetry_equiv_pos_as_xyz
  1  'x, y, z'
loop_
 _atom_site_type_symbol
 _atom_site_label
 _atom_site_symmetry_multiplicity
 _atom_site_fract_x
 _atom_site_fract_y
 _atom_site_fract_z
 _atom_site_occupancy
  Mg  Mg0  1  0.61113200  0.14868700  0.37179800  1
  Mg  Mg1  1  0.38886800  0.85131300  0.62820200  1
  Mg  Mg2  1  0.61113200  0.64868700  0.12820200  1
  Mg  Mg3  1  0.11113200  0.85131300  0.12820200  1
  Mg  Mg4  1  0.88886800  0.14868700  0.87179800  1
  Mg  Mg5  1  0.38886800  0.35131300  0.87179800  1
  Mg  Mg6  1  0.11113200  0.35131300  0.37179800  1
  Mg  Mg7  1  0.88886800  0.64868700  0.62820200  1
  Si  Si8  1  0.56751200  0.67033200  0.77168900  1
  Si  Si9  1  0.73398100  0.83756400  0.48120500  1
  Si  Si10  1  0.76601900  0.83756400  0.98120500  1
  Si  Si11  1  0.93248800  0.17033200  0.22831100  1
  Si  Si12  1  0.06751200  0.32966800  0.72831100  1
  Si  Si13  1  0.43248800  0.82966800  0.27168900  1
  Si  Si14  1  0.23398100  0.66243600  0.48120500  1
  Si  Si15  1  0.73398100  0.33756400  0.01879500  1
  Si  Si16  1  0.76601900  0.33756400  0.51879500  1
  Si  Si17  1  0.93248800  0.67033200  0.27168900  1
  Si  Si18  1  0.43248800  0.32966800  0.22831100  1
  Si  Si19  1  0.56751200  0.17033200  0.72831100  1
  Si  Si20  1  0.26601900  0.16243600  0.51879500  1
  Si  Si21  1  0.06751200  0.82966800  0.77168900  1
  Si  Si22  1  0.26601900  0.66243600  0.98120500  1
  Si  Si23  1  0.23398100  0.16243600  0.01879500  1
  W  W24  1  0.37127300  0.97166200  0.87667100  1
  W  W25  1  0.62872700  0.02833800  0.12332900  1
  W  W26  1  0.87127300  0.02833800  0.62332900  1
  W  W27  1  0.12872700  0.97166200  0.37667100  1
  W  W28  1  0.37127300  0.47166200  0.62332900  1
  W  W29  1  0.62872700  0.52833800  0.37667100  1
  W  W30  1  0.87127300  0.52833800  0.87667100  1
  W  W31  1  0.12872700  0.47166200  0.12332900  1
  O  O32  1  0.95707400  0.51545900  0.30837400  1
  O  O33  1  0.27975400  0.01531800  0.06224600  1
  O  O34  1  0.04292600  0.48454100  0.69162600  1
  O  O35  1  0.73006400  0.33962500  0.93164100  1
  O  O36  1  0.23006400  0.16037500  0.93164100  1
  O  O37  1  0.96259400  0.22903100  0.04217500  1
  O  O38  1  0.92006400  0.69212600  0.18763100  1
  O  O39  1  0.07993600  0.80787400  0.68763100  1
  O  O40  1  0.73006400  0.83962500  0.56835900  1
  O  O41  1  0.92006400  0.19212600  0.31236900  1
  O  O42  1  0.45707400  0.48454100  0.19162600  1
  O  O43  1  0.76993600  0.33962500  0.43164100  1
  O  O44  1  0.72024600  0.98468200  0.93775400  1
  O  O45  1  0.42006400  0.80787400  0.18763100  1
  O  O46  1  0.54292600  0.01545900  0.69162600  1
  O  O47  1  0.27975400  0.51531800  0.43775400  1
  O  O48  1  0.45707400  0.98454100  0.30837400  1
  O  O49  1  0.15402400  0.77631300  0.30550300  1
  O  O50  1  0.34597600  0.77631300  0.80550300  1
  O  O51  1  0.53740600  0.72903100  0.95782500  1
  O  O52  1  0.76993600  0.83962500  0.06835900  1
  O  O53  1  0.57993600  0.69212600  0.68763100  1
  O  O54  1  0.77975400  0.48468200  0.06224600  1
  O  O55  1  0.15402400  0.27631300  0.19449700  1
  O  O56  1  0.26993600  0.16037500  0.43164100  1
  O  O57  1  0.57993600  0.19212600  0.81236900  1
  O  O58  1  0.72024600  0.48468200  0.56224600  1
  O  O59  1  0.23006400  0.66037500  0.56835900  1
  O  O60  1  0.22024600  0.51531800  0.93775400  1
  O  O61  1  0.65402400  0.72368700  0.30550300  1
  O  O62  1  0.04292600  0.98454100  0.80837400  1
  O  O63  1  0.84597600  0.72368700  0.80550300  1
  O  O64  1  0.84597600  0.22368700  0.69449700  1
  O  O65  1  0.77975400  0.98468200  0.43775400  1
  O  O66  1  0.26993600  0.66037500  0.06835900  1
  O  O67  1  0.22024600  0.01531800  0.56224600  1
  O  O68  1  0.34597600  0.27631300  0.69449700  1
  O  O69  1  0.03740600  0.77096900  0.95782500  1
  O  O70  1  0.46259400  0.77096900  0.45782500  1
  O  O71  1  0.65402400  0.22368700  0.19449700  1
  O  O72  1  0.46259400  0.27096900  0.04217500  1
  O  O73  1  0.53740600  0.22903100  0.54217500  1
  O  O74  1  0.03740600  0.27096900  0.54217500  1
  O  O75  1  0.42006400  0.30787400  0.31236900  1
  O  O76  1  0.54292600  0.51545900  0.80837400  1
  O  O77  1  0.96259400  0.72903100  0.45782500  1
  O  O78  1  0.07993600  0.30787400  0.81236900  1
  O  O79  1  0.95707400  0.01545900  0.19162600  1
