# generated using pymatgen
data_ZnSi2SnO6
_symmetry_space_group_name_H-M   'P 1'
_cell_length_a   5.44799100
_cell_length_b   9.37547400
_cell_length_c   19.41478600
_cell_angle_alpha   90.00000000
_cell_angle_beta   90.00000000
_cell_angle_gamma   90.00000000
_symmetry_Int_Tables_number   1
_chemical_formula_structural   ZnSi2SnO6
_chemical_formula_sum   'Zn8 Si16 Sn8 O48'
_cell_volume   991.65869256
_cell_formula_units_Z   8
loop_
 _symmetry_equiv_pos_site_id
 _symmetry_equiv_pos_as_xyz
  1  'x, y, z'
loop_
 _atom_site_type_symbol
 _atom_site_label
 _atom_site_symmetry_multiplicity
 _atom_site_fract_x
 _atom_site_fract_y
 _atom_site_fract_z
 _atom_site_occupancy
  Zn  Zn0  1  0.61741900  0.14245700  0.37418300  1
  Zn  Zn1  1  0.38258100  0.85754300  0.62581700  1
  Zn  Zn2  1  0.61741900  0.64245700  0.12581700  1
  Zn  Zn3  1  0.11741900  0.85754300  0.12581700  1
  Zn  Zn4  1  0.88258100  0.14245700  0.87418300  1
  Zn  Zn5  1  0.38258100  0.35754300  0.87418300  1
  Zn  Zn6  1  0.11741900  0.35754300  0.37418300  1
  Zn  Zn7  1  0.88258100  0.64245700  0.62581700  1
  Si  Si8  1  0.53363000  0.66169400  0.76494700  1
  Si  Si9  1  0.69229100  0.83706800  0.48269800  1
  Si  Si10  1  0.80770900  0.83706800  0.98269800  1
  Si  Si11  1  0.96637000  0.16169400  0.23505300  1
  Si  Si12  1  0.03363000  0.33830600  0.73505300  1
  Si  Si13  1  0.46637000  0.83830600  0.26494700  1
  Si  Si14  1  0.19229100  0.66293200  0.48269800  1
  Si  Si15  1  0.69229100  0.33706800  0.01730200  1
  Si  Si16  1  0.80770900  0.33706800  0.51730200  1
  Si  Si17  1  0.96637000  0.66169400  0.26494700  1
  Si  Si18  1  0.46637000  0.33830600  0.23505300  1
  Si  Si19  1  0.53363000  0.16169400  0.73505300  1
  Si  Si20  1  0.30770900  0.16293200  0.51730200  1
  Si  Si21  1  0.03363000  0.83830600  0.76494700  1
  Si  Si22  1  0.30770900  0.66293200  0.98269800  1
  Si  Si23  1  0.19229100  0.16293200  0.01730200  1
  Sn  Sn24  1  0.38023200  0.97397400  0.88035900  1
  Sn  Sn25  1  0.61976800  0.02602600  0.11964100  1
  Sn  Sn26  1  0.88023200  0.02602600  0.61964100  1
  Sn  Sn27  1  0.11976800  0.97397400  0.38035900  1
  Sn  Sn28  1  0.38023200  0.47397400  0.61964100  1
  Sn  Sn29  1  0.61976800  0.52602600  0.38035900  1
  Sn  Sn30  1  0.88023200  0.52602600  0.88035900  1
  Sn  Sn31  1  0.11976800  0.47397400  0.11964100  1
  O  O32  1  0.95401600  0.50794300  0.30352200  1
  O  O33  1  0.22940200  0.00842900  0.05280700  1
  O  O34  1  0.04598400  0.49205700  0.69647800  1
  O  O35  1  0.70472800  0.33149000  0.93191000  1
  O  O36  1  0.20472800  0.16851000  0.93191000  1
  O  O37  1  0.92980500  0.23598700  0.04285000  1
  O  O38  1  0.95300400  0.66123600  0.17956100  1
  O  O39  1  0.04699600  0.83876400  0.67956100  1
  O  O40  1  0.70472800  0.83149000  0.56809000  1
  O  O41  1  0.95300400  0.16123600  0.32043900  1
  O  O42  1  0.45401600  0.49205700  0.19647800  1
  O  O43  1  0.79527200  0.33149000  0.43191000  1
  O  O44  1  0.77059800  0.99157100  0.94719300  1
  O  O45  1  0.45300400  0.83876400  0.17956100  1
  O  O46  1  0.54598400  0.00794300  0.69647800  1
  O  O47  1  0.22940200  0.50842900  0.44719300  1
  O  O48  1  0.45401600  0.99205700  0.30352200  1
  O  O49  1  0.21983500  0.74560800  0.28930600  1
  O  O50  1  0.28016500  0.74560800  0.78930600  1
  O  O51  1  0.57019500  0.73598700  0.95715000  1
  O  O52  1  0.79527200  0.83149000  0.06809000  1
  O  O53  1  0.54699600  0.66123600  0.67956100  1
  O  O54  1  0.72940200  0.49157100  0.05280700  1
  O  O55  1  0.21983500  0.24560800  0.21069400  1
  O  O56  1  0.29527200  0.16851000  0.43191000  1
  O  O57  1  0.54699600  0.16123600  0.82043900  1
  O  O58  1  0.77059800  0.49157100  0.55280700  1
  O  O59  1  0.20472800  0.66851000  0.56809000  1
  O  O60  1  0.27059800  0.50842900  0.94719300  1
  O  O61  1  0.71983500  0.75439200  0.28930600  1
  O  O62  1  0.04598400  0.99205700  0.80352200  1
  O  O63  1  0.78016500  0.75439200  0.78930600  1
  O  O64  1  0.78016500  0.25439200  0.71069400  1
  O  O65  1  0.72940200  0.99157100  0.44719300  1
  O  O66  1  0.29527200  0.66851000  0.06809000  1
  O  O67  1  0.27059800  0.00842900  0.55280700  1
  O  O68  1  0.28016500  0.24560800  0.71069400  1
  O  O69  1  0.07019500  0.76401300  0.95715000  1
  O  O70  1  0.42980500  0.76401300  0.45715000  1
  O  O71  1  0.71983500  0.25439200  0.21069400  1
  O  O72  1  0.42980500  0.26401300  0.04285000  1
  O  O73  1  0.57019500  0.23598700  0.54285000  1
  O  O74  1  0.07019500  0.26401300  0.54285000  1
  O  O75  1  0.45300400  0.33876400  0.32043900  1
  O  O76  1  0.54598400  0.50794300  0.80352200  1
  O  O77  1  0.92980500  0.73598700  0.45715000  1
  O  O78  1  0.04699600  0.33876400  0.82043900  1
  O  O79  1  0.95401600  0.00794300  0.19647800  1
