# generated using pymatgen
data_Mg3Si4(WO7)2
_symmetry_space_group_name_H-M   'P 1'
_cell_length_a   9.53420722
_cell_length_b   9.53420722
_cell_length_c   10.10409267
_cell_angle_alpha   59.39849581
_cell_angle_beta   59.39849581
_cell_angle_gamma   47.39267064
_symmetry_Int_Tables_number   1
_chemical_formula_structural   Mg3Si4(WO7)2
_chemical_formula_sum   'Mg6 Si8 W4 O28'
_cell_volume   561.91312761
_cell_formula_units_Z   2
loop_
 _symmetry_equiv_pos_site_id
 _symmetry_equiv_pos_as_xyz
  1  'x, y, z'
loop_
 _atom_site_type_symbol
 _atom_site_label
 _atom_site_symmetry_multiplicity
 _atom_site_fract_x
 _atom_site_fract_y
 _atom_site_fract_z
 _atom_site_occupancy
  Mg  Mg0  1  0.06915700  0.28374900  0.10279200  1
  Mg  Mg1  1  0.71625100  0.93084300  0.39720800  1
  Mg  Mg2  1  0.28374900  0.06915700  0.60279200  1
  Mg  Mg3  1  0.37871600  0.62128400  0.75000000  1
  Mg  Mg4  1  0.93084300  0.71625100  0.89720800  1
  Mg  Mg5  1  0.62128400  0.37871600  0.25000000  1
  Si  Si6  1  0.53360600  0.08763200  0.71368000  1
  Si  Si7  1  0.08763200  0.53360600  0.21368000  1
  Si  Si8  1  0.51197500  0.24618900  0.10088600  1
  Si  Si9  1  0.24618900  0.51197500  0.60088600  1
  Si  Si10  1  0.91236800  0.46639400  0.78632000  1
  Si  Si11  1  0.48802500  0.75381100  0.89911400  1
  Si  Si12  1  0.75381100  0.48802500  0.39911400  1
  Si  Si13  1  0.46639400  0.91236800  0.28632000  1
  W  W14  1  0.80624400  0.19375600  0.75000000  1
  W  W15  1  0.19375600  0.80624400  0.25000000  1
  W  W16  1  0.00000000  0.00000000  0.00000000  1
  W  W17  1  0.00000000  0.00000000  0.50000000  1
  O  O18  1  0.83742800  0.30699200  0.33406900  1
  O  O19  1  0.91546200  0.92022600  0.41118400  1
  O  O20  1  0.47740400  0.62795200  0.08493000  1
  O  O21  1  0.92022600  0.91546200  0.91118400  1
  O  O22  1  0.25506100  0.96999500  0.29737300  1
  O  O23  1  0.06485400  0.50959700  0.62049000  1
  O  O24  1  0.62795200  0.47740400  0.58493000  1
  O  O25  1  0.03000500  0.74493900  0.20262700  1
  O  O26  1  0.93514600  0.49040300  0.37951000  1
  O  O27  1  0.62955900  0.68436600  0.26793600  1
  O  O28  1  0.08453800  0.07977400  0.58881600  1
  O  O29  1  0.74493900  0.03000500  0.70262700  1
  O  O30  1  0.49040300  0.93514600  0.87951000  1
  O  O31  1  0.30699200  0.83742800  0.83406900  1
  O  O32  1  0.68436600  0.62955900  0.76793600  1
  O  O33  1  0.96999500  0.25506100  0.79737300  1
  O  O34  1  0.92011000  0.49439600  0.92809300  1
  O  O35  1  0.37044100  0.31563400  0.73206400  1
  O  O36  1  0.50560400  0.07989000  0.57190700  1
  O  O37  1  0.31563400  0.37044100  0.23206400  1
  O  O38  1  0.50959700  0.06485400  0.12049000  1
  O  O39  1  0.07977400  0.08453800  0.08881600  1
  O  O40  1  0.49439600  0.92011000  0.42809300  1
  O  O41  1  0.52259600  0.37204800  0.91507000  1
  O  O42  1  0.07989000  0.50560400  0.07190700  1
  O  O43  1  0.37204800  0.52259600  0.41507000  1
  O  O44  1  0.69300800  0.16257200  0.16593100  1
  O  O45  1  0.16257200  0.69300800  0.66593100  1
