# generated using pymatgen
data_Zn3Si4(AgO7)2
_symmetry_space_group_name_H-M   'P 1'
_cell_length_a   9.71705683
_cell_length_b   9.71705683
_cell_length_c   10.30858042
_cell_angle_alpha   58.38933696
_cell_angle_beta   58.38933696
_cell_angle_gamma   46.74509113
_symmetry_Int_Tables_number   1
_chemical_formula_structural   Zn3Si4(AgO7)2
_chemical_formula_sum   'Zn6 Si8 Ag4 O28'
_cell_volume   581.97395098
_cell_formula_units_Z   2
loop_
 _symmetry_equiv_pos_site_id
 _symmetry_equiv_pos_as_xyz
  1  'x, y, z'
loop_
 _atom_site_type_symbol
 _atom_site_label
 _atom_site_symmetry_multiplicity
 _atom_site_fract_x
 _atom_site_fract_y
 _atom_site_fract_z
 _atom_site_occupancy
  Zn  Zn0  1  0.05167200  0.27646000  0.12625600  1
  Zn  Zn1  1  0.72354000  0.94832800  0.37374400  1
  Zn  Zn2  1  0.27646000  0.05167200  0.62625600  1
  Zn  Zn3  1  0.38274400  0.61725600  0.75000000  1
  Zn  Zn4  1  0.94832800  0.72354000  0.87374400  1
  Zn  Zn5  1  0.61725600  0.38274400  0.25000000  1
  Si  Si6  1  0.57390700  0.04212200  0.70581700  1
  Si  Si7  1  0.04212200  0.57390700  0.20581700  1
  Si  Si8  1  0.48627200  0.27852300  0.10856700  1
  Si  Si9  1  0.27852300  0.48627200  0.60856700  1
  Si  Si10  1  0.95787800  0.42609300  0.79418300  1
  Si  Si11  1  0.51372800  0.72147700  0.89143300  1
  Si  Si12  1  0.72147700  0.51372800  0.39143300  1
  Si  Si13  1  0.42609300  0.95787800  0.29418300  1
  Ag  Ag14  1  0.77642200  0.22357800  0.75000000  1
  Ag  Ag15  1  0.22357800  0.77642200  0.25000000  1
  Ag  Ag16  1  0.00000000  0.00000000  0.00000000  1
  Ag  Ag17  1  0.00000000  0.00000000  0.50000000  1
  O  O18  1  0.79742200  0.35360400  0.31287800  1
  O  O19  1  0.96414200  0.89806300  0.40352000  1
  O  O20  1  0.47477800  0.62179000  0.08309400  1
  O  O21  1  0.89806300  0.96414200  0.90352000  1
  O  O22  1  0.20513500  0.05692500  0.29035900  1
  O  O23  1  0.08931000  0.49922800  0.63118700  1
  O  O24  1  0.62179000  0.47477800  0.58309400  1
  O  O25  1  0.94307500  0.79486500  0.20964100  1
  O  O26  1  0.91069000  0.50077200  0.36881300  1
  O  O27  1  0.57000600  0.72801600  0.29043800  1
  O  O28  1  0.03585800  0.10193700  0.59648000  1
  O  O29  1  0.79486500  0.94307500  0.70964100  1
  O  O30  1  0.50077200  0.91069000  0.86881300  1
  O  O31  1  0.35360400  0.79742200  0.81287800  1
  O  O32  1  0.72801600  0.57000600  0.79043800  1
  O  O33  1  0.05692500  0.20513500  0.79035900  1
  O  O34  1  0.95776900  0.44816700  0.93904500  1
  O  O35  1  0.42999400  0.27198400  0.70956200  1
  O  O36  1  0.55183300  0.04223100  0.56095500  1
  O  O37  1  0.27198400  0.42999400  0.20956200  1
  O  O38  1  0.49922800  0.08931000  0.13118700  1
  O  O39  1  0.10193700  0.03585800  0.09648000  1
  O  O40  1  0.44816700  0.95776900  0.43904500  1
  O  O41  1  0.52522200  0.37821000  0.91690600  1
  O  O42  1  0.04223100  0.55183300  0.06095500  1
  O  O43  1  0.37821000  0.52522200  0.41690600  1
  O  O44  1  0.64639600  0.20257800  0.18712200  1
  O  O45  1  0.20257800  0.64639600  0.68712200  1
