# generated using pymatgen
data_Li2Mn(SiO3)2
_symmetry_space_group_name_H-M   'P 1'
_cell_length_a   5.19762471
_cell_length_b   7.62104300
_cell_length_c   7.61980271
_cell_angle_alpha   90.92118247
_cell_angle_beta   110.37535889
_cell_angle_gamma   69.59401602
_symmetry_Int_Tables_number   1
_chemical_formula_structural   Li2Mn(SiO3)2
_chemical_formula_sum   'Li4 Mn2 Si4 O12'
_cell_volume   263.27723862
_cell_formula_units_Z   2
loop_
 _symmetry_equiv_pos_site_id
 _symmetry_equiv_pos_as_xyz
  1  'x, y, z'
loop_
 _atom_site_type_symbol
 _atom_site_label
 _atom_site_symmetry_multiplicity
 _atom_site_fract_x
 _atom_site_fract_y
 _atom_site_fract_z
 _atom_site_occupancy
  Li  Li0  1  0.49720700  0.79053900  0.58336600  1
  Li  Li1  1  0.24985900  0.79281200  0.79282400  1
  Li  Li2  1  0.00279800  0.58338800  0.79067100  1
  Li  Li3  1  0.75002600  0.22804100  0.22805800  1
  Mn  Mn4  1  0.74991500  0.96286700  0.96283400  1
  Mn  Mn5  1  0.25005100  0.18597800  0.18591100  1
  Si  Si6  1  0.84756300  0.77949200  0.36591100  1
  Si  Si7  1  0.34042500  0.61916600  0.19547200  1
  Si  Si8  1  0.65241800  0.36590800  0.77953000  1
  Si  Si9  1  0.15959600  0.19545200  0.61914500  1
  O  O10  1  0.66514300  0.97971700  0.21981900  1
  O  O11  1  0.87814400  0.79031000  0.58321500  1
  O  O12  1  0.13506700  0.75035000  0.99322600  1
  O  O13  1  0.66920300  0.63578700  0.27767800  1
  O  O14  1  0.62197200  0.58317200  0.79048400  1
  O  O15  1  0.18496900  0.70144600  0.35438800  1
  O  O16  1  0.83064100  0.27779200  0.63563000  1
  O  O17  1  0.37555200  0.40398100  0.16710100  1
  O  O18  1  0.31505600  0.35432300  0.70145900  1
  O  O19  1  0.83498900  0.21980400  0.97969300  1
  O  O20  1  0.12452900  0.16720400  0.40394900  1
  O  O21  1  0.36488000  0.99312100  0.75028700  1
