# generated using pymatgen
data_Mn2Zn3(SiO4)3
_symmetry_space_group_name_H-M   'P 1'
_cell_length_a   10.28216086
_cell_length_b   10.28216083
_cell_length_c   10.28216010
_cell_angle_alpha   112.47533622
_cell_angle_beta   107.99037215
_cell_angle_gamma   107.99037262
_symmetry_Int_Tables_number   1
_chemical_formula_structural   Mn2Zn3(SiO4)3
_chemical_formula_sum   'Mn8 Zn12 Si12 O48'
_cell_volume   835.08325382
_cell_formula_units_Z   4
loop_
 _symmetry_equiv_pos_site_id
 _symmetry_equiv_pos_as_xyz
  1  'x, y, z'
loop_
 _atom_site_type_symbol
 _atom_site_label
 _atom_site_symmetry_multiplicity
 _atom_site_fract_x
 _atom_site_fract_y
 _atom_site_fract_z
 _atom_site_occupancy
  Mn  Mn0  1  0.00000000  0.00000000  0.00000000  1
  Mn  Mn1  1  0.00000000  0.50000000  0.00000000  1
  Mn  Mn2  1  0.00000000  0.00000000  0.50000000  1
  Mn  Mn3  1  0.00000000  0.50000000  0.50000000  1
  Mn  Mn4  1  0.50000000  0.00000000  0.50000000  1
  Mn  Mn5  1  0.50000000  0.50000000  0.00000000  1
  Mn  Mn6  1  0.50000000  0.50000000  0.50000000  1
  Mn  Mn7  1  0.50000000  0.00000000  0.00000000  1
  Zn  Zn8  1  0.36823500  0.75000000  0.11823500  1
  Zn  Zn9  1  0.13176500  0.25000000  0.38176500  1
  Zn  Zn10  1  0.36823500  0.11823500  0.25000000  1
  Zn  Zn11  1  0.13176500  0.38176500  0.75000000  1
  Zn  Zn12  1  0.86823500  0.75000000  0.61823500  1
  Zn  Zn13  1  0.75000000  0.12500000  0.37500000  1
  Zn  Zn14  1  0.75000000  0.62500000  0.87500000  1
  Zn  Zn15  1  0.63176500  0.25000000  0.88176500  1
  Zn  Zn16  1  0.25000000  0.87500000  0.62500000  1
  Zn  Zn17  1  0.86823500  0.61823500  0.25000000  1
  Zn  Zn18  1  0.63176500  0.88176500  0.75000000  1
  Zn  Zn19  1  0.25000000  0.37500000  0.12500000  1
  Si  Si20  1  0.25000000  0.12500000  0.87500000  1
  Si  Si21  1  0.75000000  0.87500000  0.12500000  1
  Si  Si22  1  0.37464300  0.25000000  0.62464300  1
  Si  Si23  1  0.62535700  0.37535700  0.25000000  1
  Si  Si24  1  0.12535700  0.75000000  0.87535700  1
  Si  Si25  1  0.87464300  0.12464300  0.75000000  1
  Si  Si26  1  0.75000000  0.37500000  0.62500000  1
  Si  Si27  1  0.37464300  0.62464300  0.75000000  1
  Si  Si28  1  0.12535700  0.87535700  0.25000000  1
  Si  Si29  1  0.87464300  0.25000000  0.12464300  1
  Si  Si30  1  0.62535700  0.75000000  0.37535700  1
  Si  Si31  1  0.25000000  0.62500000  0.37500000  1
  O  O32  1  0.29165300  0.48071400  0.37249500  1
  O  O33  1  0.01642600  0.31085800  0.89557200  1
  O  O34  1  0.12210300  0.60128300  0.90289000  1
  O  O35  1  0.20834700  0.58084100  0.18906000  1
  O  O36  1  0.20834700  0.12750500  0.01928600  1
  O  O37  1  0.58471400  0.18914200  0.20556900  1
  O  O38  1  0.60821900  0.18906000  0.48071400  1
  O  O39  1  0.19839300  0.21921300  0.59711000  1
  O  O40  1  0.89178100  0.37249500  0.58084100  1
  O  O41  1  0.30160700  0.90289000  0.28078700  1
  O  O42  1  0.91528600  0.29443100  0.31085800  1
  O  O43  1  0.01642600  0.20556900  0.12085500  1
  O  O44  1  0.19839300  0.47918200  0.60128300  1
  O  O45  1  0.58471400  0.89557200  0.37914500  1
  O  O46  1  0.12210300  0.02081800  0.21921300  1
  O  O47  1  0.48357400  0.60442800  0.18914200  1
  O  O48  1  0.37789700  0.59711000  0.89871700  1
  O  O49  1  0.89178100  0.01928600  0.31094000  1
  O  O50  1  0.60821900  0.91915900  0.12750500  1
  O  O51  1  0.10821900  0.62750600  0.41915900  1
  O  O52  1  0.91528600  0.12085500  0.60442800  1
  O  O53  1  0.37789700  0.28078700  0.47918200  1
  O  O54  1  0.30160700  0.89871700  0.02081800  1
  O  O55  1  0.29165300  0.31094000  0.91915900  1
  O  O56  1  0.70834700  0.51928600  0.62750600  1
  O  O57  1  0.98357400  0.68914200  0.10442800  1
  O  O58  1  0.87789700  0.39871700  0.09711000  1
  O  O59  1  0.79165300  0.41915900  0.81094000  1
  O  O60  1  0.79165300  0.87249400  0.98071400  1
  O  O61  1  0.41528600  0.81085800  0.79443100  1
  O  O62  1  0.39178100  0.81094000  0.51928600  1
  O  O63  1  0.80160700  0.78078700  0.40289000  1
  O  O64  1  0.70834700  0.68906000  0.08084100  1
  O  O65  1  0.69839300  0.10128300  0.97918200  1
  O  O66  1  0.62210300  0.71921300  0.52081800  1
  O  O67  1  0.51642600  0.62085500  0.70556900  1
  O  O68  1  0.08471400  0.87914500  0.39557200  1
  O  O69  1  0.39178100  0.08084100  0.87249400  1
  O  O70  1  0.10821900  0.98071400  0.68906000  1
  O  O71  1  0.62210300  0.40289000  0.10128300  1
  O  O72  1  0.51642600  0.39557200  0.81085800  1
  O  O73  1  0.87789700  0.97918200  0.78078700  1
  O  O74  1  0.41528600  0.10442800  0.62085500  1
  O  O75  1  0.80160700  0.52081800  0.39871700  1
  O  O76  1  0.98357400  0.79443100  0.87914500  1
  O  O77  1  0.08471400  0.70556900  0.68914200  1
  O  O78  1  0.69839300  0.09711000  0.71921300  1
  O  O79  1  0.48357400  0.37914500  0.29443100  1
