# generated using pymatgen
data_CaCr(SiO3)2
_symmetry_space_group_name_H-M   'P 1'
_cell_length_a   5.46075900
_cell_length_b   9.70125100
_cell_length_c   19.28602100
_cell_angle_alpha   90.00000000
_cell_angle_beta   90.00000000
_cell_angle_gamma   90.00000000
_symmetry_Int_Tables_number   1
_chemical_formula_structural   CaCr(SiO3)2
_chemical_formula_sum   'Ca8 Cr8 Si16 O48'
_cell_volume   1021.69998438
_cell_formula_units_Z   8
loop_
 _symmetry_equiv_pos_site_id
 _symmetry_equiv_pos_as_xyz
  1  'x, y, z'
loop_
 _atom_site_type_symbol
 _atom_site_label
 _atom_site_symmetry_multiplicity
 _atom_site_fract_x
 _atom_site_fract_y
 _atom_site_fract_z
 _atom_site_occupancy
  Ca  Ca0  1  0.61778800  0.14643000  0.37631700  1
  Ca  Ca1  1  0.38221200  0.85357000  0.62368300  1
  Ca  Ca2  1  0.61778800  0.64643000  0.12368300  1
  Ca  Ca3  1  0.11778800  0.85357000  0.12368300  1
  Ca  Ca4  1  0.88221200  0.14643000  0.87631700  1
  Ca  Ca5  1  0.38221200  0.35357000  0.87631700  1
  Ca  Ca6  1  0.11778800  0.35357000  0.37631700  1
  Ca  Ca7  1  0.88221200  0.64643000  0.62368300  1
  Cr  Cr8  1  0.37396800  0.97510400  0.87484300  1
  Cr  Cr9  1  0.62603200  0.02489600  0.12515700  1
  Cr  Cr10  1  0.87396800  0.02489600  0.62515700  1
  Cr  Cr11  1  0.12603200  0.97510400  0.37484300  1
  Cr  Cr12  1  0.37396800  0.47510400  0.62515700  1
  Cr  Cr13  1  0.62603200  0.52489600  0.37484300  1
  Cr  Cr14  1  0.87396800  0.52489600  0.87484300  1
  Cr  Cr15  1  0.12603200  0.47510400  0.12515700  1
  Si  Si16  1  0.56481700  0.66763300  0.77522000  1
  Si  Si17  1  0.74654700  0.83466000  0.47773400  1
  Si  Si18  1  0.75345300  0.83466000  0.97773400  1
  Si  Si19  1  0.93518300  0.16763300  0.22478000  1
  Si  Si20  1  0.06481700  0.33236700  0.72478000  1
  Si  Si21  1  0.43518300  0.83236700  0.27522000  1
  Si  Si22  1  0.24654700  0.66534000  0.47773400  1
  Si  Si23  1  0.74654700  0.33466000  0.02226600  1
  Si  Si24  1  0.75345300  0.33466000  0.52226600  1
  Si  Si25  1  0.93518300  0.66763300  0.27522000  1
  Si  Si26  1  0.43518300  0.33236700  0.22478000  1
  Si  Si27  1  0.56481700  0.16763300  0.72478000  1
  Si  Si28  1  0.25345300  0.16534000  0.52226600  1
  Si  Si29  1  0.06481700  0.83236700  0.77522000  1
  Si  Si30  1  0.25345300  0.66534000  0.97773400  1
  Si  Si31  1  0.24654700  0.16534000  0.02226600  1
  O  O32  1  0.93233600  0.52059700  0.31434200  1
  O  O33  1  0.31257300  0.03271500  0.06886300  1
  O  O34  1  0.06766400  0.47940300  0.68565800  1
  O  O35  1  0.74860500  0.35511300  0.93772000  1
  O  O36  1  0.24860500  0.14488700  0.93772000  1
  O  O37  1  0.96048600  0.21632000  0.04205500  1
  O  O38  1  0.95477700  0.66381700  0.19154900  1
  O  O39  1  0.04522300  0.83618300  0.69154900  1
  O  O40  1  0.74860500  0.85511300  0.56228000  1
  O  O41  1  0.95477700  0.16381700  0.30845100  1
  O  O42  1  0.43233600  0.47940300  0.18565800  1
  O  O43  1  0.75139500  0.35511300  0.43772000  1
  O  O44  1  0.68742700  0.96728500  0.93113700  1
  O  O45  1  0.45477700  0.83618300  0.19154900  1
  O  O46  1  0.56766400  0.02059700  0.68565800  1
  O  O47  1  0.31257300  0.53271500  0.43113700  1
  O  O48  1  0.43233600  0.97940300  0.31434200  1
  O  O49  1  0.16043900  0.77139100  0.30437700  1
  O  O50  1  0.33956100  0.77139100  0.80437700  1
  O  O51  1  0.53951400  0.71632000  0.95794500  1
  O  O52  1  0.75139500  0.85511300  0.06228000  1
  O  O53  1  0.54522300  0.66381700  0.69154900  1
  O  O54  1  0.81257300  0.46728500  0.06886300  1
  O  O55  1  0.16043900  0.27139100  0.19562300  1
  O  O56  1  0.25139500  0.14488700  0.43772000  1
  O  O57  1  0.54522300  0.16381700  0.80845100  1
  O  O58  1  0.68742700  0.46728500  0.56886300  1
  O  O59  1  0.24860500  0.64488700  0.56228000  1
  O  O60  1  0.18742700  0.53271500  0.93113700  1
  O  O61  1  0.66043900  0.72860900  0.30437700  1
  O  O62  1  0.06766400  0.97940300  0.81434200  1
  O  O63  1  0.83956100  0.72860900  0.80437700  1
  O  O64  1  0.83956100  0.22860900  0.69562300  1
  O  O65  1  0.81257300  0.96728500  0.43113700  1
  O  O66  1  0.25139500  0.64488700  0.06228000  1
  O  O67  1  0.18742700  0.03271500  0.56886300  1
  O  O68  1  0.33956100  0.27139100  0.69562300  1
  O  O69  1  0.03951400  0.78368000  0.95794500  1
  O  O70  1  0.46048600  0.78368000  0.45794500  1
  O  O71  1  0.66043900  0.22860900  0.19562300  1
  O  O72  1  0.46048600  0.28368000  0.04205500  1
  O  O73  1  0.53951400  0.21632000  0.54205500  1
  O  O74  1  0.03951400  0.28368000  0.54205500  1
  O  O75  1  0.45477700  0.33618300  0.30845100  1
  O  O76  1  0.56766400  0.52059700  0.81434200  1
  O  O77  1  0.96048600  0.71632000  0.45794500  1
  O  O78  1  0.04522300  0.33618300  0.80845100  1
  O  O79  1  0.93233600  0.02059700  0.18565800  1
