# generated using pymatgen
data_Ca3Cr2(Si2O7)2
_symmetry_space_group_name_H-M   'P 1'
_cell_length_a   9.42133073
_cell_length_b   9.42133073
_cell_length_c   10.18188076
_cell_angle_alpha   58.76903629
_cell_angle_beta   58.76903629
_cell_angle_gamma   48.18917663
_symmetry_Int_Tables_number   1
_chemical_formula_structural   Ca3Cr2(Si2O7)2
_chemical_formula_sum   'Ca6 Cr4 Si8 O28'
_cell_volume   554.41719991
_cell_formula_units_Z   2
loop_
 _symmetry_equiv_pos_site_id
 _symmetry_equiv_pos_as_xyz
  1  'x, y, z'
loop_
 _atom_site_type_symbol
 _atom_site_label
 _atom_site_symmetry_multiplicity
 _atom_site_fract_x
 _atom_site_fract_y
 _atom_site_fract_z
 _atom_site_occupancy
  Ca  Ca0  1  0.23174700  0.16520200  0.53931900  1
  Ca  Ca1  1  0.83479800  0.76825300  0.96068100  1
  Ca  Ca2  1  0.16520200  0.23174700  0.03931900  1
  Ca  Ca3  1  0.65571900  0.34428100  0.25000000  1
  Ca  Ca4  1  0.76825300  0.83479800  0.46068100  1
  Ca  Ca5  1  0.34428100  0.65571900  0.75000000  1
  Cr  Cr6  1  0.20910400  0.79089600  0.25000000  1
  Cr  Cr7  1  0.79089600  0.20910400  0.75000000  1
  Cr  Cr8  1  0.00000000  0.00000000  0.00000000  1
  Cr  Cr9  1  0.00000000  0.00000000  0.50000000  1
  Si  Si10  1  0.11804700  0.53498200  0.65170200  1
  Si  Si11  1  0.53498200  0.11804700  0.15170200  1
  Si  Si12  1  0.21245200  0.53539100  0.14903100  1
  Si  Si13  1  0.53539100  0.21245200  0.64903100  1
  Si  Si14  1  0.46501800  0.88195300  0.84829800  1
  Si  Si15  1  0.78754800  0.46460900  0.85096900  1
  Si  Si16  1  0.46460900  0.78754800  0.35096900  1
  Si  Si17  1  0.88195300  0.46501800  0.34829800  1
  O  O18  1  0.28423100  0.88147100  0.49987000  1
  O  O19  1  0.89443000  0.96162600  0.72747000  1
  O  O20  1  0.64691500  0.46317000  0.80744400  1
  O  O21  1  0.96162600  0.89443000  0.22747000  1
  O  O22  1  0.92530400  0.26400200  0.49744400  1
  O  O23  1  0.49859700  0.05018500  0.82119300  1
  O  O24  1  0.46317000  0.64691500  0.30744400  1
  O  O25  1  0.73599800  0.07469600  0.00255600  1
  O  O26  1  0.50140300  0.94981500  0.17880700  1
  O  O27  1  0.66778200  0.65895800  0.41129500  1
  O  O28  1  0.10557000  0.03837400  0.27253000  1
  O  O29  1  0.07469600  0.73599800  0.50255600  1
  O  O30  1  0.94981500  0.50140300  0.67880700  1
  O  O31  1  0.88147100  0.28423100  0.99987000  1
  O  O32  1  0.65895800  0.66778200  0.91129500  1
  O  O33  1  0.26400200  0.92530400  0.99744400  1
  O  O34  1  0.46825000  0.89427200  0.68321600  1
  O  O35  1  0.33221800  0.34104200  0.58870500  1
  O  O36  1  0.10572800  0.53175000  0.81678400  1
  O  O37  1  0.34104200  0.33221800  0.08870500  1
  O  O38  1  0.05018500  0.49859700  0.32119300  1
  O  O39  1  0.03837400  0.10557000  0.77253000  1
  O  O40  1  0.89427200  0.46825000  0.18321600  1
  O  O41  1  0.35308500  0.53683000  0.19255600  1
  O  O42  1  0.53175000  0.10572800  0.31678400  1
  O  O43  1  0.53683000  0.35308500  0.69255600  1
  O  O44  1  0.11852900  0.71576900  0.00013000  1
  O  O45  1  0.71576900  0.11852900  0.50013000  1
