# generated using pymatgen
data_AlCo3Se2ClO8
_symmetry_space_group_name_H-M   'P 1'
_cell_length_a   5.87335600
_cell_length_b   8.18707411
_cell_length_c   9.76929762
_cell_angle_alpha   83.72129948
_cell_angle_beta   80.67748616
_cell_angle_gamma   88.66234522
_symmetry_Int_Tables_number   1
_chemical_formula_structural   AlCo3Se2ClO8
_chemical_formula_sum   'Al2 Co6 Se4 Cl2 O16'
_cell_volume   460.76983367
_cell_formula_units_Z   2
loop_
 _symmetry_equiv_pos_site_id
 _symmetry_equiv_pos_as_xyz
  1  'x, y, z'
loop_
 _atom_site_type_symbol
 _atom_site_label
 _atom_site_symmetry_multiplicity
 _atom_site_fract_x
 _atom_site_fract_y
 _atom_site_fract_z
 _atom_site_occupancy
  Al  Al0  1  0.29810500  0.86119200  0.76937300  1
  Al  Al1  1  0.70189500  0.13880800  0.23062700  1
  Co  Co2  1  0.50000000  0.00000000  0.00000000  1
  Co  Co3  1  0.50000000  0.00000000  0.50000000  1
  Co  Co4  1  0.00000000  0.00000000  0.00000000  1
  Co  Co5  1  0.80224300  0.76737900  0.24588600  1
  Co  Co6  1  0.19775700  0.23262100  0.75411400  1
  Co  Co7  1  0.00000000  0.00000000  0.50000000  1
  Se  Se8  1  0.78751100  0.65011500  0.91714900  1
  Se  Se9  1  0.21248900  0.34988500  0.08285100  1
  Se  Se10  1  0.71050600  0.62920800  0.57972600  1
  Se  Se11  1  0.28949400  0.37079200  0.42027400  1
  Cl  Cl12  1  0.20619900  0.83013200  0.19496400  1
  Cl  Cl13  1  0.79380100  0.16986800  0.80503600  1
  O  O14  1  0.28870500  0.03687000  0.87000000  1
  O  O15  1  0.23346300  0.38783200  0.90812900  1
  O  O16  1  0.69128500  0.61411500  0.40885400  1
  O  O17  1  0.55358200  0.78537400  0.89459000  1
  O  O18  1  0.52943400  0.22970500  0.37925200  1
  O  O19  1  0.06570100  0.24240900  0.41980200  1
  O  O20  1  0.71129500  0.96313000  0.13000000  1
  O  O21  1  0.02746500  0.78863800  0.88250300  1
  O  O22  1  0.93429900  0.75759100  0.58019800  1
  O  O23  1  0.97253500  0.21136200  0.11749700  1
  O  O24  1  0.22150000  0.01577000  0.62793700  1
  O  O25  1  0.77850000  0.98423000  0.37206300  1
  O  O26  1  0.44641800  0.21462600  0.10541000  1
  O  O27  1  0.47056600  0.77029500  0.62074800  1
  O  O28  1  0.76653700  0.61216800  0.09187100  1
  O  O29  1  0.30871500  0.38588500  0.59114600  1
