# generated using pymatgen
data_Mn3Al2F15
_symmetry_space_group_name_H-M   'P 1'
_cell_length_a   9.71946700
_cell_length_b   5.33247800
_cell_length_c   9.84901682
_cell_angle_alpha   80.39244900
_cell_angle_beta   90.00000000
_cell_angle_gamma   90.00000000
_symmetry_Int_Tables_number   1
_chemical_formula_structural   Mn3Al2F15
_chemical_formula_sum   'Mn6 Al4 F30'
_cell_volume   503.30342499
_cell_formula_units_Z   2
loop_
 _symmetry_equiv_pos_site_id
 _symmetry_equiv_pos_as_xyz
  1  'x, y, z'
loop_
 _atom_site_type_symbol
 _atom_site_label
 _atom_site_symmetry_multiplicity
 _atom_site_fract_x
 _atom_site_fract_y
 _atom_site_fract_z
 _atom_site_occupancy
  Mn  Mn0  1  0.49053400  0.81102100  0.16554800  1
  Mn  Mn1  1  0.50000000  0.50000000  0.50000000  1
  Mn  Mn2  1  0.50946600  0.18897900  0.83445200  1
  Mn  Mn3  1  0.00946600  0.81102100  0.16554800  1
  Mn  Mn4  1  0.00000000  0.50000000  0.50000000  1
  Mn  Mn5  1  0.99053400  0.18897900  0.83445200  1
  Al  Al6  1  0.25000000  0.97927800  0.59251300  1
  Al  Al7  1  0.25000000  0.64456500  0.93932800  1
  Al  Al8  1  0.75000000  0.35543500  0.06067200  1
  Al  Al9  1  0.75000000  0.02072200  0.40748700  1
  F  F10  1  0.25000000  0.54873600  0.11341200  1
  F  F11  1  0.25000000  0.16824900  0.43670500  1
  F  F12  1  0.25000000  0.79270900  0.76453900  1
  F  F13  1  0.75000000  0.20729100  0.23546100  1
  F  F14  1  0.75000000  0.83175100  0.56329500  1
  F  F15  1  0.75000000  0.45126400  0.88658800  1
  F  F16  1  0.60754700  0.11690800  0.03213200  1
  F  F17  1  0.61798100  0.82060200  0.34172600  1
  F  F18  1  0.58142000  0.44799600  0.67547600  1
  F  F19  1  0.41858000  0.55200400  0.32452400  1
  F  F20  1  0.38201900  0.17939800  0.65827400  1
  F  F21  1  0.39245300  0.88309200  0.96786800  1
  F  F22  1  0.88669900  0.57195400  0.10257100  1
  F  F23  1  0.88541900  0.24603000  0.44833300  1
  F  F24  1  0.89239500  0.94319300  0.78695500  1
  F  F25  1  0.10760500  0.05680700  0.21304500  1
  F  F26  1  0.11458100  0.75397000  0.55166700  1
  F  F27  1  0.11330100  0.42804600  0.89742900  1
  F  F28  1  0.39239500  0.05680700  0.21304500  1
  F  F29  1  0.38541900  0.75397000  0.55166700  1
  F  F30  1  0.38669900  0.42804600  0.89742900  1
  F  F31  1  0.61330100  0.57195400  0.10257100  1
  F  F32  1  0.61458100  0.24603000  0.44833300  1
  F  F33  1  0.60760500  0.94319300  0.78695500  1
  F  F34  1  0.89245300  0.11690800  0.03213200  1
  F  F35  1  0.88201900  0.82060200  0.34172600  1
  F  F36  1  0.91858000  0.44799600  0.67547600  1
  F  F37  1  0.08142000  0.55200400  0.32452400  1
  F  F38  1  0.11798100  0.17939800  0.65827400  1
  F  F39  1  0.10754700  0.88309200  0.96786800  1
