# generated using pymatgen
data_Al2Fe3F15
_symmetry_space_group_name_H-M   'P 1'
_cell_length_a   5.22076518
_cell_length_b   5.22076518
_cell_length_c   10.76037165
_cell_angle_alpha   75.54794697
_cell_angle_beta   75.54794697
_cell_angle_gamma   73.12075932
_symmetry_Int_Tables_number   1
_chemical_formula_structural   Al2Fe3F15
_chemical_formula_sum   'Al2 Fe3 F15'
_cell_volume   266.76282971
_cell_formula_units_Z   1
loop_
 _symmetry_equiv_pos_site_id
 _symmetry_equiv_pos_as_xyz
  1  'x, y, z'
loop_
 _atom_site_type_symbol
 _atom_site_label
 _atom_site_symmetry_multiplicity
 _atom_site_fract_x
 _atom_site_fract_y
 _atom_site_fract_z
 _atom_site_occupancy
  Al  Al0  1  0.65699000  0.65699000  0.84069200  1
  Al  Al1  1  0.34301000  0.34301000  0.15930800  1
  Fe  Fe2  1  0.00000000  0.00000000  0.00000000  1
  Fe  Fe3  1  0.37222000  0.37222000  0.63436900  1
  Fe  Fe4  1  0.62778000  0.62778000  0.36563100  1
  F  F5  1  0.93381400  0.34307600  0.86203100  1
  F  F6  1  0.30248900  0.69751100  0.50000000  1
  F  F7  1  0.65692400  0.06618600  0.13796900  1
  F  F8  1  0.34307600  0.93381400  0.86203100  1
  F  F9  1  0.69751100  0.30248900  0.50000000  1
  F  F10  1  0.06618600  0.65692400  0.13796900  1
  F  F11  1  0.47617200  0.47617200  0.76654100  1
  F  F12  1  0.83224800  0.83224800  0.37925200  1
  F  F13  1  0.17544600  0.17544600  0.07869500  1
  F  F14  1  0.82455400  0.82455400  0.92130500  1
  F  F15  1  0.16775200  0.16775200  0.62074800  1
  F  F16  1  0.52382800  0.52382800  0.23345900  1
  F  F17  1  0.50000000  0.50000000  0.00000000  1
  F  F18  1  0.80044900  0.80044900  0.68778600  1
  F  F19  1  0.19955100  0.19955100  0.31221400  1
