# generated using pymatgen
data_Be3Si3(SbO6)2
_symmetry_space_group_name_H-M   'P 1'
_cell_length_a   8.26429300
_cell_length_b   8.28120700
_cell_length_c   16.47367458
_cell_angle_alpha   60.70016056
_cell_angle_beta   90.00000000
_cell_angle_gamma   90.00000000
_symmetry_Int_Tables_number   1
_chemical_formula_structural   Be3Si3(SbO6)2
_chemical_formula_sum   'Be12 Si12 Sb8 O48'
_cell_volume   983.19915526
_cell_formula_units_Z   4
loop_
 _symmetry_equiv_pos_site_id
 _symmetry_equiv_pos_as_xyz
  1  'x, y, z'
loop_
 _atom_site_type_symbol
 _atom_site_label
 _atom_site_symmetry_multiplicity
 _atom_site_fract_x
 _atom_site_fract_y
 _atom_site_fract_z
 _atom_site_occupancy
  Be  Be0  1  0.15152100  0.32850900  0.24274900  1
  Be  Be1  1  0.33638500  0.98584100  0.59656200  1
  Be  Be2  1  0.83638500  0.01415900  0.90343800  1
  Be  Be3  1  0.66361500  0.01415900  0.40343800  1
  Be  Be4  1  0.16361500  0.98584100  0.09656200  1
  Be  Be5  1  0.83528400  0.30762800  0.57932400  1
  Be  Be6  1  0.33528400  0.69237200  0.92067600  1
  Be  Be7  1  0.16471600  0.69237200  0.42067600  1
  Be  Be8  1  0.66471600  0.30762800  0.07932400  1
  Be  Be9  1  0.34847900  0.32850900  0.74274900  1
  Be  Be10  1  0.84847900  0.67149100  0.75725100  1
  Be  Be11  1  0.65152100  0.67149100  0.25725100  1
  Si  Si12  1  0.77233600  0.32626500  0.24056300  1
  Si  Si13  1  0.27233600  0.67373500  0.25943700  1
  Si  Si14  1  0.22766400  0.67373500  0.75943700  1
  Si  Si15  1  0.72766400  0.32626500  0.74056300  1
  Si  Si16  1  0.28289800  0.30744800  0.08487100  1
  Si  Si17  1  0.78289800  0.69255200  0.41512900  1
  Si  Si18  1  0.71710200  0.69255200  0.91512900  1
  Si  Si19  1  0.21710200  0.30744800  0.58487100  1
  Si  Si20  1  0.78968200  0.97635500  0.09350800  1
  Si  Si21  1  0.28968200  0.02364500  0.40649200  1
  Si  Si22  1  0.21031800  0.02364500  0.90649200  1
  Si  Si23  1  0.71031800  0.97635500  0.59350800  1
  Sb  Sb24  1  0.50388000  0.35308800  0.90770700  1
  Sb  Sb25  1  0.99612000  0.35308800  0.40770700  1
  Sb  Sb26  1  0.49612000  0.64691200  0.09229300  1
  Sb  Sb27  1  0.00388000  0.64691200  0.59229300  1
  Sb  Sb28  1  0.44739300  0.67140200  0.58232800  1
  Sb  Sb29  1  0.94739300  0.32859800  0.91767200  1
  Sb  Sb30  1  0.55260700  0.32859800  0.41767200  1
  Sb  Sb31  1  0.05260700  0.67140200  0.08232800  1
  O  O32  1  0.83662600  0.79263100  0.95627700  1
  O  O33  1  0.95989800  0.39103500  0.20761800  1
  O  O34  1  0.45989800  0.60896500  0.29238200  1
  O  O35  1  0.04010200  0.60896500  0.79238200  1
  O  O36  1  0.54010200  0.39103500  0.70761800  1
  O  O37  1  0.46953700  0.27831700  0.04908000  1
  O  O38  1  0.96953700  0.72168300  0.45092000  1
  O  O39  1  0.53046300  0.72168300  0.95092000  1
  O  O40  1  0.03046300  0.27831700  0.54908000  1
  O  O41  1  0.97575300  0.88753700  0.11120000  1
  O  O42  1  0.47575300  0.11246300  0.38880000  1
  O  O43  1  0.02424700  0.11246300  0.88880000  1
  O  O44  1  0.83288000  0.79173000  0.64079100  1
  O  O45  1  0.33288000  0.20827000  0.85920900  1
  O  O46  1  0.16712000  0.20827000  0.35920900  1
  O  O47  1  0.66712000  0.79173000  0.14079100  1
  O  O48  1  0.33662600  0.20736900  0.54372300  1
  O  O49  1  0.52424700  0.88753700  0.61120000  1
  O  O50  1  0.66337400  0.79263100  0.45627700  1
  O  O51  1  0.16337400  0.20736900  0.04372300  1
  O  O52  1  0.26438400  0.90868500  0.52322300  1
  O  O53  1  0.34434600  0.58516500  0.85744900  1
  O  O54  1  0.15565400  0.58516500  0.35744900  1
  O  O55  1  0.65565400  0.41483500  0.14255100  1
  O  O56  1  0.25861800  0.88744700  0.18865600  1
  O  O57  1  0.75861800  0.11255300  0.31134400  1
  O  O58  1  0.74138200  0.11255300  0.81134400  1
  O  O59  1  0.24138200  0.88744700  0.68865600  1
  O  O60  1  0.26305400  0.25731300  0.19087600  1
  O  O61  1  0.76305400  0.74268700  0.30912400  1
  O  O62  1  0.73694600  0.74268700  0.80912400  1
  O  O63  1  0.23694600  0.25731300  0.69087600  1
  O  O64  1  0.76521100  0.12823000  0.12477500  1
  O  O65  1  0.26521100  0.87177000  0.37522500  1
  O  O66  1  0.23478900  0.87177000  0.87522500  1
  O  O67  1  0.73478900  0.12823000  0.62477500  1
  O  O68  1  0.20632900  0.55731400  0.20573200  1
  O  O69  1  0.70632900  0.44268600  0.29426800  1
  O  O70  1  0.79367100  0.44268600  0.79426800  1
  O  O71  1  0.29367100  0.55731400  0.70573200  1
  O  O72  1  0.26938900  0.54008600  0.02564500  1
  O  O73  1  0.76938900  0.45991400  0.47435500  1
  O  O74  1  0.73061100  0.45991400  0.97435500  1
  O  O75  1  0.23061100  0.54008600  0.52564500  1
  O  O76  1  0.23561600  0.90868500  0.02322300  1
  O  O77  1  0.73561600  0.09131500  0.47677700  1
  O  O78  1  0.76438400  0.09131500  0.97677700  1
  O  O79  1  0.84434600  0.41483500  0.64255100  1
