# generated using pymatgen
data_Y7Cu3(SiSe7)3
_symmetry_space_group_name_H-M   'P 1'
_cell_length_a   10.22019600
_cell_length_b   10.24461640
_cell_length_c   18.05160844
_cell_angle_alpha   89.98117388
_cell_angle_beta   90.23947889
_cell_angle_gamma   119.53428461
_symmetry_Int_Tables_number   1
_chemical_formula_structural   Y7Cu3(SiSe7)3
_chemical_formula_sum   'Y14 Cu6 Si6 Se42'
_cell_volume   1644.43162661
_cell_formula_units_Z   2
loop_
 _symmetry_equiv_pos_site_id
 _symmetry_equiv_pos_as_xyz
  1  'x, y, z'
loop_
 _atom_site_type_symbol
 _atom_site_label
 _atom_site_symmetry_multiplicity
 _atom_site_fract_x
 _atom_site_fract_y
 _atom_site_fract_z
 _atom_site_occupancy
  Y  Y0  1  0.63839100  0.77331000  0.69557000  1
  Y  Y1  1  0.64057500  0.77115700  0.35828400  1
  Y  Y2  1  0.64288200  0.77552900  0.02689700  1
  Y  Y3  1  0.13361800  0.36099900  0.69393200  1
  Y  Y4  1  0.12684600  0.35466900  0.02404200  1
  Y  Y5  1  0.77753400  0.13560300  0.52462500  1
  Y  Y6  1  0.77407400  0.13301800  0.19280400  1
  Y  Y7  1  0.36039500  0.22804600  0.85854600  1
  Y  Y8  1  0.35608800  0.22559400  0.52586700  1
  Y  Y9  1  0.36336100  0.22858000  0.19622900  1
  Y  Y10  1  0.22674100  0.86748600  0.35816200  1
  Y  Y11  1  0.22441700  0.86376200  0.02435800  1
  Y  Y12  1  0.86981400  0.64225900  0.85825900  1
  Y  Y13  1  0.87051800  0.64054400  0.52560800  1
  Cu  Cu14  1  0.00641600  0.99879400  0.67652300  1
  Cu  Cu15  1  0.00174700  0.00362500  0.34465200  1
  Cu  Cu16  1  0.99999800  0.00042700  0.00966500  1
  Cu  Cu17  1  0.99625300  0.00259900  0.84460700  1
  Cu  Cu18  1  0.99751300  0.99877100  0.50976500  1
  Cu  Cu19  1  0.99882100  0.99250300  0.17634100  1
  Si  Si20  1  0.66890500  0.33381000  0.72349300  1
  Si  Si21  1  0.66575100  0.33268500  0.38707400  1
  Si  Si22  1  0.66790300  0.33710700  0.05433500  1
  Si  Si23  1  0.33345000  0.66608200  0.88692100  1
  Si  Si24  1  0.33424600  0.67200800  0.55397000  1
  Si  Si25  1  0.33327700  0.66594100  0.22334500  1
  Se  Se26  1  0.26439800  0.15942200  0.68549600  1
  Se  Se27  1  0.25997700  0.16398800  0.34981000  1
  Se  Se28  1  0.26201600  0.16322000  0.01706000  1
  Se  Se29  1  0.09668200  0.57764300  0.93796100  1
  Se  Se30  1  0.09672800  0.57391300  0.60272800  1
  Se  Se31  1  0.10222100  0.58912000  0.26990400  1
  Se  Se32  1  0.89937200  0.73847400  0.68260700  1
  Se  Se33  1  0.90450100  0.74266400  0.35498400  1
  Se  Se34  1  0.90115300  0.73830200  0.01360400  1
  Se  Se35  1  0.74032100  0.83728100  0.85208600  1
  Se  Se36  1  0.73564800  0.83514200  0.51662500  1
  Se  Se37  1  0.73898900  0.83715600  0.18424700  1
  Se  Se38  1  0.41909000  0.51614700  0.94142300  1
  Se  Se39  1  0.41949500  0.51954300  0.60559400  1
  Se  Se40  1  0.42785400  0.52297600  0.26907900  1
  Se  Se41  1  0.09830900  0.26115100  0.85002800  1
  Se  Se42  1  0.09698700  0.25863800  0.52094000  1
  Se  Se43  1  0.09789700  0.25557700  0.17907800  1
  Se  Se44  1  0.90459900  0.42641000  0.76945200  1
  Se  Se45  1  0.90010800  0.41715200  0.43653100  1
  Se  Se46  1  0.90058400  0.41668000  0.10698800  1
  Se  Se47  1  0.33262700  0.66304100  0.76355000  1
  Se  Se48  1  0.33495300  0.67198900  0.42911600  1
  Se  Se49  1  0.33335300  0.66565600  0.09591100  1
  Se  Se50  1  0.51265500  0.10199400  0.76949500  1
  Se  Se51  1  0.51672000  0.09865200  0.43998000  1
  Se  Se52  1  0.51827600  0.09979500  0.10507600  1
  Se  Se53  1  0.66514100  0.33711000  0.92949400  1
  Se  Se54  1  0.66683400  0.33308200  0.59608300  1
  Se  Se55  1  0.66475700  0.33044800  0.26355100  1
  Se  Se56  1  0.83919300  0.09550900  0.67998200  1
  Se  Se57  1  0.83568400  0.09504800  0.35282700  1
  Se  Se58  1  0.83479700  0.09626300  0.02026100  1
  Se  Se59  1  0.16358700  0.90752800  0.85582900  1
  Se  Se60  1  0.16390800  0.90268600  0.51372800  1
  Se  Se61  1  0.16190400  0.89742300  0.18576100  1
  Se  Se62  1  0.47961500  0.89811900  0.93660900  1
  Se  Se63  1  0.48402400  0.90266200  0.60864900  1
  Se  Se64  1  0.48518700  0.90391100  0.27141100  1
  Se  Se65  1  0.58062900  0.48427900  0.77193800  1
  Se  Se66  1  0.57725500  0.48058300  0.43890500  1
  Se  Se67  1  0.57243300  0.47871800  0.10542700  1
