# generated using pymatgen
data_NaC
_symmetry_space_group_name_H-M   'P 1'
_cell_length_a   7.93140658
_cell_length_b   7.93140658
_cell_length_c   7.93140658
_cell_angle_alpha   129.33704355
_cell_angle_beta   129.33704355
_cell_angle_gamma   74.46885763
_symmetry_Int_Tables_number   1
_chemical_formula_structural   NaC
_chemical_formula_sum   'Na8 C8'
_cell_volume   290.87522031
_cell_formula_units_Z   8
loop_
 _symmetry_equiv_pos_site_id
 _symmetry_equiv_pos_as_xyz
  1  'x, y, z'
loop_
 _atom_site_type_symbol
 _atom_site_label
 _atom_site_symmetry_multiplicity
 _atom_site_fract_x
 _atom_site_fract_y
 _atom_site_fract_z
 _atom_site_occupancy
  Na  Na0  1  0.12500000  0.06381900  0.43881900  1
  Na  Na1  1  0.81381900  0.87500000  0.43881900  1
  Na  Na2  1  0.43618100  0.37500000  0.56118100  1
  Na  Na3  1  0.62500000  0.68618100  0.56118100  1
  Na  Na4  1  0.62500000  0.18618100  0.06118100  1
  Na  Na5  1  0.93618100  0.37500000  0.06118100  1
  Na  Na6  1  0.31381900  0.87500000  0.93881900  1
  Na  Na7  1  0.12500000  0.56381900  0.93881900  1
  C  C8  1  0.56583400  0.06583400  0.63166700  1
  C  C9  1  0.81583400  0.68416600  0.00000000  1
  C  C10  1  0.68416600  0.81583400  0.00000000  1
  C  C11  1  0.43416600  0.93416600  0.36833300  1
  C  C12  1  0.18416600  0.18416600  0.86833300  1
  C  C13  1  0.93416600  0.56583400  0.50000000  1
  C  C14  1  0.06583400  0.43416600  0.50000000  1
  C  C15  1  0.31583400  0.31583400  0.13166700  1
