# generated using pymatgen
data_Sr2YTi2AlO7
_symmetry_space_group_name_H-M   'P 1'
_cell_length_a   12.12821326
_cell_length_b   12.12821326
_cell_length_c   12.12821326
_cell_angle_alpha   153.70986542
_cell_angle_beta   153.01247777
_cell_angle_gamma   38.03187923
_symmetry_Int_Tables_number   1
_chemical_formula_structural   Sr2YTi2AlO7
_chemical_formula_sum   'Sr4 Y2 Ti4 Al2 O14'
_cell_volume   358.00633871
_cell_formula_units_Z   2
loop_
 _symmetry_equiv_pos_site_id
 _symmetry_equiv_pos_as_xyz
  1  'x, y, z'
loop_
 _atom_site_type_symbol
 _atom_site_label
 _atom_site_symmetry_multiplicity
 _atom_site_fract_x
 _atom_site_fract_y
 _atom_site_fract_z
 _atom_site_occupancy
  Sr  Sr0  1  0.81923300  0.83107700  0.96405100  1
  Sr  Sr1  1  0.18076700  0.14481800  0.01184300  1
  Sr  Sr2  1  0.63297400  0.64481800  0.96405100  1
  Sr  Sr3  1  0.36702600  0.33107700  0.01184300  1
  Y  Y4  1  0.50000000  0.48188500  0.98188500  1
  Y  Y5  1  0.00000000  0.98188500  0.98188500  1
  Ti  Ti6  1  0.93863100  0.42006900  0.48274200  1
  Ti  Ti7  1  0.06136900  0.54411100  0.48143800  1
  Ti  Ti8  1  0.56267300  0.04411100  0.48274200  1
  Ti  Ti9  1  0.43732700  0.92006900  0.48143800  1
  Al  Al10  1  0.17704300  0.75538800  0.43243100  1
  Al  Al11  1  0.82295700  0.25538800  0.57834500  1
  O  O12  1  0.90925100  0.57323300  0.98248400  1
  O  O13  1  0.09074900  0.07323300  0.66398200  1
  O  O14  1  0.68799300  0.66977800  0.49289400  1
  O  O15  1  0.31200700  0.80490200  0.98178500  1
  O  O16  1  0.32311700  0.30490200  0.49289400  1
  O  O17  1  0.67688300  0.16977800  0.98178500  1
  O  O18  1  0.17639100  0.15805700  0.47359500  1
  O  O19  1  0.82360900  0.29720400  0.98166700  1
  O  O20  1  0.81553800  0.79720400  0.47359500  1
  O  O21  1  0.18446200  0.65805700  0.98166700  1
  O  O22  1  0.37829100  0.76795600  0.50981400  1
  O  O23  1  0.62170900  0.13152300  0.38966500  1
  O  O24  1  0.24185800  0.63152300  0.50981400  1
  O  O25  1  0.75814200  0.26795600  0.38966500  1
