# generated using pymatgen
data_Li10Cu(SiO5)2
_symmetry_space_group_name_H-M   'P 1'
_cell_length_a   6.13450892
_cell_length_b   15.44524376
_cell_length_c   5.15715606
_cell_angle_alpha   80.17935333
_cell_angle_beta   89.92618097
_cell_angle_gamma   78.48003872
_symmetry_Int_Tables_number   1
_chemical_formula_structural   Li10Cu(SiO5)2
_chemical_formula_sum   'Li20 Cu2 Si4 O20'
_cell_volume   471.50395900
_cell_formula_units_Z   2
loop_
 _symmetry_equiv_pos_site_id
 _symmetry_equiv_pos_as_xyz
  1  'x, y, z'
loop_
 _atom_site_type_symbol
 _atom_site_label
 _atom_site_symmetry_multiplicity
 _atom_site_fract_x
 _atom_site_fract_y
 _atom_site_fract_z
 _atom_site_occupancy
  Li  Li0  1  0.50774800  0.98730100  0.74557400  1
  Li  Li1  1  0.36855300  0.84694400  0.27574200  1
  Li  Li2  1  0.78007200  0.85158300  0.26696600  1
  Li  Li3  1  0.13465500  0.72934200  0.49846500  1
  Li  Li4  1  0.34442300  0.73358600  0.02097600  1
  Li  Li5  1  0.91964500  0.73348700  0.02305500  1
  Li  Li6  1  0.67873500  0.65212700  0.41614100  1
  Li  Li7  1  0.44090200  0.60947800  0.78372200  1
  Li  Li8  1  0.95052700  0.60858700  0.78837500  1
  Li  Li9  1  0.72742500  0.53845900  0.13861100  1
  Li  Li10  1  0.27096800  0.46130200  0.85979000  1
  Li  Li11  1  0.55807400  0.39032400  0.21516800  1
  Li  Li12  1  0.04878900  0.39148200  0.21037700  1
  Li  Li13  1  0.31785500  0.34806000  0.58233700  1
  Li  Li14  1  0.07791800  0.26597800  0.97599900  1
  Li  Li15  1  0.65367500  0.26626700  0.97621200  1
  Li  Li16  1  0.86462500  0.27077100  0.50016900  1
  Li  Li17  1  0.62986700  0.15361100  0.71783800  1
  Li  Li18  1  0.21846000  0.14789100  0.73156600  1
  Li  Li19  1  0.49022400  0.01262800  0.25163800  1
  Cu  Cu20  1  0.04152600  0.92408400  0.99282000  1
  Cu  Cu21  1  0.95528600  0.07587900  0.00211900  1
  Si  Si22  1  0.60141400  0.79733900  0.70639300  1
  Si  Si23  1  0.21804300  0.56110300  0.30747700  1
  Si  Si24  1  0.78091900  0.43880100  0.69109500  1
  Si  Si25  1  0.39710700  0.20266000  0.29091000  1
  O  O26  1  0.55189800  0.89609400  0.51156100  1
  O  O27  1  0.09610800  0.80571300  0.15296700  1
  O  O28  1  0.59895500  0.79968200  0.02663000  1
  O  O29  1  0.41386500  0.74091200  0.63469700  1
  O  O30  1  0.84543400  0.74024200  0.63786300  1
  O  O31  1  0.41778100  0.61038400  0.16546800  1
  O  O32  1  0.96724300  0.61036900  0.16890100  1
  O  O33  1  0.21221800  0.57465500  0.61742600  1
  O  O34  1  0.72742100  0.54516000  0.72925100  1
  O  O35  1  0.27221900  0.45478600  0.26908200  1
  O  O36  1  0.78679100  0.42521100  0.38116200  1
  O  O37  1  0.03187500  0.38929600  0.82950000  1
  O  O38  1  0.58111700  0.38962400  0.83301900  1
  O  O39  1  0.15384500  0.26006400  0.36062800  1
  O  O40  1  0.58535000  0.25875800  0.36247700  1
  O  O41  1  0.39866200  0.20016500  0.97089300  1
  O  O42  1  0.90174900  0.19447500  0.84438700  1
  O  O43  1  0.44712700  0.10385600  0.48543300  1
  O  O44  1  0.24633600  0.00178400  0.99553700  1
  O  O45  1  0.75145900  0.99789600  0.00132900  1
