# generated using pymatgen
data_CaCo(SiO3)2
_symmetry_space_group_name_H-M   'P 1'
_cell_length_a   5.42842800
_cell_length_b   9.77238200
_cell_length_c   18.98905300
_cell_angle_alpha   90.00000000
_cell_angle_beta   90.00000000
_cell_angle_gamma   90.00000000
_symmetry_Int_Tables_number   1
_chemical_formula_structural   CaCo(SiO3)2
_chemical_formula_sum   'Ca8 Co8 Si16 O48'
_cell_volume   1007.34404562
_cell_formula_units_Z   8
loop_
 _symmetry_equiv_pos_site_id
 _symmetry_equiv_pos_as_xyz
  1  'x, y, z'
loop_
 _atom_site_type_symbol
 _atom_site_label
 _atom_site_symmetry_multiplicity
 _atom_site_fract_x
 _atom_site_fract_y
 _atom_site_fract_z
 _atom_site_occupancy
  Ca  Ca0  1  0.61192600  0.14600000  0.37859700  1
  Ca  Ca1  1  0.38807400  0.85400000  0.62140300  1
  Ca  Ca2  1  0.61192600  0.64600000  0.12140300  1
  Ca  Ca3  1  0.11192600  0.85400000  0.12140300  1
  Ca  Ca4  1  0.88807400  0.14600000  0.87859700  1
  Ca  Ca5  1  0.38807400  0.35400000  0.87859700  1
  Ca  Ca6  1  0.11192600  0.35400000  0.37859700  1
  Ca  Ca7  1  0.88807400  0.64600000  0.62140300  1
  Co  Co8  1  0.38453100  0.99326600  0.87187700  1
  Co  Co9  1  0.61546900  0.00673400  0.12812300  1
  Co  Co10  1  0.88453100  0.00673400  0.62812300  1
  Co  Co11  1  0.11546900  0.99326600  0.37187700  1
  Co  Co12  1  0.38453100  0.49326600  0.62812300  1
  Co  Co13  1  0.61546900  0.50673400  0.37187700  1
  Co  Co14  1  0.88453100  0.50673400  0.87187700  1
  Co  Co15  1  0.11546900  0.49326600  0.12812300  1
  Si  Si16  1  0.56239700  0.66516600  0.77473800  1
  Si  Si17  1  0.74903800  0.83234000  0.47422400  1
  Si  Si18  1  0.75096200  0.83234000  0.97422400  1
  Si  Si19  1  0.93760300  0.16516600  0.22526200  1
  Si  Si20  1  0.06239700  0.33483400  0.72526200  1
  Si  Si21  1  0.43760300  0.83483400  0.27473800  1
  Si  Si22  1  0.24903800  0.66766000  0.47422400  1
  Si  Si23  1  0.74903800  0.33234000  0.02577600  1
  Si  Si24  1  0.75096200  0.33234000  0.52577600  1
  Si  Si25  1  0.93760300  0.66516600  0.27473800  1
  Si  Si26  1  0.43760300  0.33483400  0.22526200  1
  Si  Si27  1  0.56239700  0.16516600  0.72526200  1
  Si  Si28  1  0.25096200  0.16766000  0.52577600  1
  Si  Si29  1  0.06239700  0.83483400  0.77473800  1
  Si  Si30  1  0.25096200  0.66766000  0.97422400  1
  Si  Si31  1  0.24903800  0.16766000  0.02577600  1
  O  O32  1  0.91747600  0.51848400  0.31457800  1
  O  O33  1  0.32095900  0.03248400  0.07042000  1
  O  O34  1  0.08252400  0.48151600  0.68542200  1
  O  O35  1  0.75265800  0.34927200  0.93983600  1
  O  O36  1  0.25265800  0.15072800  0.93983600  1
  O  O37  1  0.95907300  0.21223700  0.04601100  1
  O  O38  1  0.95807700  0.65498300  0.18887100  1
  O  O39  1  0.04192300  0.84501700  0.68887100  1
  O  O40  1  0.75265800  0.84927200  0.56016400  1
  O  O41  1  0.95807700  0.15498300  0.31112900  1
  O  O42  1  0.41747600  0.48151600  0.18542200  1
  O  O43  1  0.74734200  0.34927200  0.43983600  1
  O  O44  1  0.67904100  0.96751600  0.92958000  1
  O  O45  1  0.45807700  0.84501700  0.18887100  1
  O  O46  1  0.58252400  0.01848400  0.68542200  1
  O  O47  1  0.32095900  0.53248400  0.42958000  1
  O  O48  1  0.41747600  0.98151600  0.31457800  1
  O  O49  1  0.17514000  0.75936100  0.30077200  1
  O  O50  1  0.32486000  0.75936100  0.80077200  1
  O  O51  1  0.54092700  0.71223700  0.95398900  1
  O  O52  1  0.74734200  0.84927200  0.06016400  1
  O  O53  1  0.54192300  0.65498300  0.68887100  1
  O  O54  1  0.82095900  0.46751600  0.07042000  1
  O  O55  1  0.17514000  0.25936100  0.19922800  1
  O  O56  1  0.24734200  0.15072800  0.43983600  1
  O  O57  1  0.54192300  0.15498300  0.81112900  1
  O  O58  1  0.67904100  0.46751600  0.57042000  1
  O  O59  1  0.25265800  0.65072800  0.56016400  1
  O  O60  1  0.17904100  0.53248400  0.92958000  1
  O  O61  1  0.67514000  0.74063900  0.30077200  1
  O  O62  1  0.08252400  0.98151600  0.81457800  1
  O  O63  1  0.82486000  0.74063900  0.80077200  1
  O  O64  1  0.82486000  0.24063900  0.69922800  1
  O  O65  1  0.82095900  0.96751600  0.42958000  1
  O  O66  1  0.24734200  0.65072800  0.06016400  1
  O  O67  1  0.17904100  0.03248400  0.57042000  1
  O  O68  1  0.32486000  0.25936100  0.69922800  1
  O  O69  1  0.04092700  0.78776300  0.95398900  1
  O  O70  1  0.45907300  0.78776300  0.45398900  1
  O  O71  1  0.67514000  0.24063900  0.19922800  1
  O  O72  1  0.45907300  0.28776300  0.04601100  1
  O  O73  1  0.54092700  0.21223700  0.54601100  1
  O  O74  1  0.04092700  0.28776300  0.54601100  1
  O  O75  1  0.45807700  0.34501700  0.31112900  1
  O  O76  1  0.58252400  0.51848400  0.81457800  1
  O  O77  1  0.95907300  0.71223700  0.45398900  1
  O  O78  1  0.04192300  0.34501700  0.81112900  1
  O  O79  1  0.91747600  0.01848400  0.18542200  1
