# generated using pymatgen
data_TiZn(SiO3)2
_symmetry_space_group_name_H-M   'P 1'
_cell_length_a   5.30496800
_cell_length_b   9.15138300
_cell_length_c   18.63741800
_cell_angle_alpha   90.00000000
_cell_angle_beta   90.00000000
_cell_angle_gamma   90.00000000
_symmetry_Int_Tables_number   1
_chemical_formula_structural   TiZn(SiO3)2
_chemical_formula_sum   'Ti8 Zn8 Si16 O48'
_cell_volume   904.80552921
_cell_formula_units_Z   8
loop_
 _symmetry_equiv_pos_site_id
 _symmetry_equiv_pos_as_xyz
  1  'x, y, z'
loop_
 _atom_site_type_symbol
 _atom_site_label
 _atom_site_symmetry_multiplicity
 _atom_site_fract_x
 _atom_site_fract_y
 _atom_site_fract_z
 _atom_site_occupancy
  Ti  Ti0  1  0.36125700  0.97770400  0.87872500  1
  Ti  Ti1  1  0.63874300  0.02229600  0.12127500  1
  Ti  Ti2  1  0.86125700  0.02229600  0.62127500  1
  Ti  Ti3  1  0.13874300  0.97770400  0.37872500  1
  Ti  Ti4  1  0.36125700  0.47770400  0.62127500  1
  Ti  Ti5  1  0.63874300  0.52229600  0.37872500  1
  Ti  Ti6  1  0.86125700  0.52229600  0.87872500  1
  Ti  Ti7  1  0.13874300  0.47770400  0.12127500  1
  Zn  Zn8  1  0.62186300  0.15017300  0.37524700  1
  Zn  Zn9  1  0.37813700  0.84982700  0.62475300  1
  Zn  Zn10  1  0.62186300  0.65017300  0.12475300  1
  Zn  Zn11  1  0.12186300  0.84982700  0.12475300  1
  Zn  Zn12  1  0.87813700  0.15017300  0.87524700  1
  Zn  Zn13  1  0.37813700  0.34982700  0.87524700  1
  Zn  Zn14  1  0.12186300  0.34982700  0.37524700  1
  Zn  Zn15  1  0.87813700  0.65017300  0.62475300  1
  Si  Si16  1  0.55412900  0.66080100  0.76905900  1
  Si  Si17  1  0.70289200  0.83531600  0.47459200  1
  Si  Si18  1  0.79710800  0.83531600  0.97459200  1
  Si  Si19  1  0.94587100  0.16080100  0.23094100  1
  Si  Si20  1  0.05412900  0.33919900  0.73094100  1
  Si  Si21  1  0.44587100  0.83919900  0.26905900  1
  Si  Si22  1  0.20289200  0.66468400  0.47459200  1
  Si  Si23  1  0.70289200  0.33531600  0.02540800  1
  Si  Si24  1  0.79710800  0.33531600  0.52540800  1
  Si  Si25  1  0.94587100  0.66080100  0.26905900  1
  Si  Si26  1  0.44587100  0.33919900  0.23094100  1
  Si  Si27  1  0.55412900  0.16080100  0.73094100  1
  Si  Si28  1  0.29710800  0.16468400  0.52540800  1
  Si  Si29  1  0.05412900  0.83919900  0.76905900  1
  Si  Si30  1  0.29710800  0.66468400  0.97459200  1
  Si  Si31  1  0.20289200  0.16468400  0.02540800  1
  O  O32  1  0.94624600  0.50285400  0.30801900  1
  O  O33  1  0.29304900  0.01754300  0.06597800  1
  O  O34  1  0.05375400  0.49714600  0.69198100  1
  O  O35  1  0.71226200  0.33926400  0.93727100  1
  O  O36  1  0.21226200  0.16073600  0.93727100  1
  O  O37  1  0.90420200  0.20189700  0.05130300  1
  O  O38  1  0.95667600  0.66073200  0.18130600  1
  O  O39  1  0.04332400  0.83926800  0.68130600  1
  O  O40  1  0.71226200  0.83926400  0.56272900  1
  O  O41  1  0.95667600  0.16073200  0.31869400  1
  O  O42  1  0.44624600  0.49714600  0.19198100  1
  O  O43  1  0.78773800  0.33926400  0.43727100  1
  O  O44  1  0.70695100  0.98245700  0.93402200  1
  O  O45  1  0.45667600  0.83926800  0.18130600  1
  O  O46  1  0.55375400  0.00285400  0.69198100  1
  O  O47  1  0.29304900  0.51754300  0.43402200  1
  O  O48  1  0.44624600  0.99714600  0.30801900  1
  O  O49  1  0.17137900  0.77099000  0.29980300  1
  O  O50  1  0.32862100  0.77099000  0.79980300  1
  O  O51  1  0.59579800  0.70189700  0.94869700  1
  O  O52  1  0.78773800  0.83926400  0.06272900  1
  O  O53  1  0.54332400  0.66073200  0.68130600  1
  O  O54  1  0.79304900  0.48245700  0.06597800  1
  O  O55  1  0.17137900  0.27099000  0.20019700  1
  O  O56  1  0.28773800  0.16073600  0.43727100  1
  O  O57  1  0.54332400  0.16073200  0.81869400  1
  O  O58  1  0.70695100  0.48245700  0.56597800  1
  O  O59  1  0.21226200  0.66073600  0.56272900  1
  O  O60  1  0.20695100  0.51754300  0.93402200  1
  O  O61  1  0.67137900  0.72901000  0.29980300  1
  O  O62  1  0.05375400  0.99714600  0.80801900  1
  O  O63  1  0.82862100  0.72901000  0.79980300  1
  O  O64  1  0.82862100  0.22901000  0.70019700  1
  O  O65  1  0.79304900  0.98245700  0.43402200  1
  O  O66  1  0.28773800  0.66073600  0.06272900  1
  O  O67  1  0.20695100  0.01754300  0.56597800  1
  O  O68  1  0.32862100  0.27099000  0.70019700  1
  O  O69  1  0.09579800  0.79810300  0.94869700  1
  O  O70  1  0.40420200  0.79810300  0.44869700  1
  O  O71  1  0.67137900  0.22901000  0.20019700  1
  O  O72  1  0.40420200  0.29810300  0.05130300  1
  O  O73  1  0.59579800  0.20189700  0.55130300  1
  O  O74  1  0.09579800  0.29810300  0.55130300  1
  O  O75  1  0.45667600  0.33926800  0.31869400  1
  O  O76  1  0.55375400  0.50285400  0.80801900  1
  O  O77  1  0.90420200  0.70189700  0.44869700  1
  O  O78  1  0.04332400  0.33926800  0.81869400  1
  O  O79  1  0.94624600  0.00285400  0.19198100  1
