# generated using pymatgen
data_Ca3Ti2(Si2O7)2
_symmetry_space_group_name_H-M   'P 1'
_cell_length_a   9.47992986
_cell_length_b   9.47992986
_cell_length_c   10.10585859
_cell_angle_alpha   59.66022802
_cell_angle_beta   59.66022802
_cell_angle_gamma   48.36527291
_symmetry_Int_Tables_number   1
_chemical_formula_structural   Ca3Ti2(Si2O7)2
_chemical_formula_sum   'Ca6 Ti4 Si8 O28'
_cell_volume   565.22904901
_cell_formula_units_Z   2
loop_
 _symmetry_equiv_pos_site_id
 _symmetry_equiv_pos_as_xyz
  1  'x, y, z'
loop_
 _atom_site_type_symbol
 _atom_site_label
 _atom_site_symmetry_multiplicity
 _atom_site_fract_x
 _atom_site_fract_y
 _atom_site_fract_z
 _atom_site_occupancy
  Ca  Ca0  1  0.23643800  0.16368900  0.53560700  1
  Ca  Ca1  1  0.83631100  0.76356200  0.96439300  1
  Ca  Ca2  1  0.16368900  0.23643800  0.03560700  1
  Ca  Ca3  1  0.64981300  0.35018700  0.25000000  1
  Ca  Ca4  1  0.76356200  0.83631100  0.46439300  1
  Ca  Ca5  1  0.35018700  0.64981300  0.75000000  1
  Ti  Ti6  1  0.19728500  0.80271500  0.25000000  1
  Ti  Ti7  1  0.80271500  0.19728500  0.75000000  1
  Ti  Ti8  1  0.00000000  0.00000000  0.00000000  1
  Ti  Ti9  1  0.00000000  0.00000000  0.50000000  1
  Si  Si10  1  0.11262200  0.53305300  0.65540800  1
  Si  Si11  1  0.53305300  0.11262200  0.15540800  1
  Si  Si12  1  0.21762700  0.52982500  0.14555300  1
  Si  Si13  1  0.52982500  0.21762700  0.64555300  1
  Si  Si14  1  0.46694700  0.88737800  0.84459200  1
  Si  Si15  1  0.78237300  0.47017500  0.85444700  1
  Si  Si16  1  0.47017500  0.78237300  0.35444700  1
  Si  Si17  1  0.88737800  0.46694700  0.34459200  1
  O  O18  1  0.29190300  0.87734000  0.50256000  1
  O  O19  1  0.89609400  0.95549400  0.72930300  1
  O  O20  1  0.64689800  0.45985600  0.81230200  1
  O  O21  1  0.95549400  0.89609400  0.22930300  1
  O  O22  1  0.93189300  0.27021400  0.49283900  1
  O  O23  1  0.50465300  0.05194800  0.81493700  1
  O  O24  1  0.45985600  0.64689800  0.31230200  1
  O  O25  1  0.72978600  0.06810700  0.00716100  1
  O  O26  1  0.49534700  0.94805200  0.18506300  1
  O  O27  1  0.67493400  0.65916900  0.40865000  1
  O  O28  1  0.10390600  0.04450600  0.27069700  1
  O  O29  1  0.06810700  0.72978600  0.50716100  1
  O  O30  1  0.94805200  0.49534700  0.68506300  1
  O  O31  1  0.87734000  0.29190300  0.00256000  1
  O  O32  1  0.65916900  0.67493400  0.90865000  1
  O  O33  1  0.27021400  0.93189300  0.99283900  1
  O  O34  1  0.47038700  0.89519000  0.67989200  1
  O  O35  1  0.32506600  0.34083100  0.59135000  1
  O  O36  1  0.10481000  0.52961300  0.82010800  1
  O  O37  1  0.34083100  0.32506600  0.09135000  1
  O  O38  1  0.05194800  0.50465300  0.31493700  1
  O  O39  1  0.04450600  0.10390600  0.77069700  1
  O  O40  1  0.89519000  0.47038700  0.17989200  1
  O  O41  1  0.35310200  0.54014400  0.18769800  1
  O  O42  1  0.52961300  0.10481000  0.32010800  1
  O  O43  1  0.54014400  0.35310200  0.68769800  1
  O  O44  1  0.12266000  0.70809700  0.99744000  1
  O  O45  1  0.70809700  0.12266000  0.49744000  1
