# generated using pymatgen
data_NbPt3
_symmetry_space_group_name_H-M   'P 1'
_cell_length_a   5.62018900
_cell_length_b   4.93748200
_cell_length_c   9.41488323
_cell_angle_alpha   79.41375361
_cell_angle_beta   90.00000000
_cell_angle_gamma   90.00000000
_symmetry_Int_Tables_number   1
_chemical_formula_structural   NbPt3
_chemical_formula_sum   'Nb4 Pt12'
_cell_volume   256.81230853
_cell_formula_units_Z   4
loop_
 _symmetry_equiv_pos_site_id
 _symmetry_equiv_pos_as_xyz
  1  'x, y, z'
loop_
 _atom_site_type_symbol
 _atom_site_label
 _atom_site_symmetry_multiplicity
 _atom_site_fract_x
 _atom_site_fract_y
 _atom_site_fract_z
 _atom_site_occupancy
  Nb  Nb0  1  0.75000000  0.37926500  0.37774000  1
  Nb  Nb1  1  0.25000000  0.62073500  0.62226000  1
  Nb  Nb2  1  0.75000000  0.21320000  0.87257700  1
  Nb  Nb3  1  0.25000000  0.78680000  0.12742300  1
  Pt  Pt4  1  0.75000000  0.79215200  0.12816100  1
  Pt  Pt5  1  0.25000000  0.20784800  0.87183900  1
  Pt  Pt6  1  0.75000000  0.60905000  0.62437100  1
  Pt  Pt7  1  0.25000000  0.39095000  0.37562900  1
  Pt  Pt8  1  0.99906700  0.88044300  0.37409300  1
  Pt  Pt9  1  0.49906700  0.11955700  0.62590700  1
  Pt  Pt10  1  0.00093300  0.11955700  0.62590700  1
  Pt  Pt11  1  0.50093300  0.88044300  0.37409300  1
  Pt  Pt12  1  0.99855200  0.29148500  0.12280300  1
  Pt  Pt13  1  0.49855200  0.70851500  0.87719700  1
  Pt  Pt14  1  0.00144800  0.70851500  0.87719700  1
  Pt  Pt15  1  0.50144800  0.29148500  0.12280300  1
