# generated using pymatgen
data_V(FeSe2)2
_symmetry_space_group_name_H-M   'P 1'
_cell_length_a   6.69013494
_cell_length_b   6.69013494
_cell_length_c   6.32022183
_cell_angle_alpha   62.38209731
_cell_angle_beta   62.38209731
_cell_angle_gamma   30.11553796
_symmetry_Int_Tables_number   1
_chemical_formula_structural   V(FeSe2)2
_chemical_formula_sum   'V1 Fe2 Se4'
_cell_volume   124.50958891
_cell_formula_units_Z   1
loop_
 _symmetry_equiv_pos_site_id
 _symmetry_equiv_pos_as_xyz
  1  'x, y, z'
loop_
 _atom_site_type_symbol
 _atom_site_label
 _atom_site_symmetry_multiplicity
 _atom_site_fract_x
 _atom_site_fract_y
 _atom_site_fract_z
 _atom_site_occupancy
  V  V0  1  0.00000000  0.00000000  0.00000000  1
  Fe  Fe1  1  0.25006500  0.25006500  0.69612100  1
  Fe  Fe2  1  0.74993500  0.74993500  0.30387900  1
  Se  Se3  1  0.36108000  0.36108000  0.98061000  1
  Se  Se4  1  0.63892000  0.63892000  0.01939000  1
  Se  Se5  1  0.11155200  0.11155200  0.54363500  1
  Se  Se6  1  0.88844800  0.88844800  0.45636500  1
