# generated using pymatgen
data_Zn(SbN2)2
_symmetry_space_group_name_H-M   'P 1'
_cell_length_a   8.94627000
_cell_length_b   8.94627000
_cell_length_c   8.94627000
_cell_angle_alpha   90.00000000
_cell_angle_beta   90.00000000
_cell_angle_gamma   90.00000000
_symmetry_Int_Tables_number   1
_chemical_formula_structural   Zn(SbN2)2
_chemical_formula_sum   'Zn8 Sb16 N32'
_cell_volume   716.02140153
_cell_formula_units_Z   8
loop_
 _symmetry_equiv_pos_site_id
 _symmetry_equiv_pos_as_xyz
  1  'x, y, z'
loop_
 _atom_site_type_symbol
 _atom_site_label
 _atom_site_symmetry_multiplicity
 _atom_site_fract_x
 _atom_site_fract_y
 _atom_site_fract_z
 _atom_site_occupancy
  Zn  Zn0  1  0.37500000  0.37500000  0.37500000  1
  Zn  Zn1  1  0.37500000  0.87500000  0.87500000  1
  Zn  Zn2  1  0.87500000  0.37500000  0.87500000  1
  Zn  Zn3  1  0.87500000  0.87500000  0.37500000  1
  Zn  Zn4  1  0.62500000  0.62500000  0.62500000  1
  Zn  Zn5  1  0.62500000  0.12500000  0.12500000  1
  Zn  Zn6  1  0.12500000  0.62500000  0.12500000  1
  Zn  Zn7  1  0.12500000  0.12500000  0.62500000  1
  Sb  Sb8  1  0.00000000  0.00000000  0.00000000  1
  Sb  Sb9  1  0.00000000  0.25000000  0.25000000  1
  Sb  Sb10  1  0.25000000  0.00000000  0.25000000  1
  Sb  Sb11  1  0.25000000  0.25000000  0.00000000  1
  Sb  Sb12  1  0.00000000  0.50000000  0.50000000  1
  Sb  Sb13  1  0.00000000  0.75000000  0.75000000  1
  Sb  Sb14  1  0.25000000  0.50000000  0.75000000  1
  Sb  Sb15  1  0.25000000  0.75000000  0.50000000  1
  Sb  Sb16  1  0.50000000  0.00000000  0.50000000  1
  Sb  Sb17  1  0.50000000  0.25000000  0.75000000  1
  Sb  Sb18  1  0.75000000  0.00000000  0.75000000  1
  Sb  Sb19  1  0.75000000  0.25000000  0.50000000  1
  Sb  Sb20  1  0.50000000  0.50000000  0.00000000  1
  Sb  Sb21  1  0.50000000  0.75000000  0.25000000  1
  Sb  Sb22  1  0.75000000  0.50000000  0.25000000  1
  Sb  Sb23  1  0.75000000  0.75000000  0.00000000  1
  N  N24  1  0.75982000  0.75982000  0.75982000  1
  N  N25  1  0.75982000  0.49018000  0.49018000  1
  N  N26  1  0.49018000  0.75982000  0.49018000  1
  N  N27  1  0.49018000  0.49018000  0.75982000  1
  N  N28  1  0.24018000  0.24018000  0.24018000  1
  N  N29  1  0.24018000  0.00982000  0.00982000  1
  N  N30  1  0.00982000  0.24018000  0.00982000  1
  N  N31  1  0.00982000  0.00982000  0.24018000  1
  N  N32  1  0.75982000  0.25982000  0.25982000  1
  N  N33  1  0.75982000  0.99018000  0.99018000  1
  N  N34  1  0.49018000  0.25982000  0.99018000  1
  N  N35  1  0.49018000  0.99018000  0.25982000  1
  N  N36  1  0.24018000  0.74018000  0.74018000  1
  N  N37  1  0.24018000  0.50982000  0.50982000  1
  N  N38  1  0.00982000  0.74018000  0.50982000  1
  N  N39  1  0.00982000  0.50982000  0.74018000  1
  N  N40  1  0.25982000  0.75982000  0.25982000  1
  N  N41  1  0.25982000  0.49018000  0.99018000  1
  N  N42  1  0.99018000  0.75982000  0.99018000  1
  N  N43  1  0.99018000  0.49018000  0.25982000  1
  N  N44  1  0.74018000  0.24018000  0.74018000  1
  N  N45  1  0.74018000  0.00982000  0.50982000  1
  N  N46  1  0.50982000  0.24018000  0.50982000  1
  N  N47  1  0.50982000  0.00982000  0.74018000  1
  N  N48  1  0.25982000  0.25982000  0.75982000  1
  N  N49  1  0.25982000  0.99018000  0.49018000  1
  N  N50  1  0.99018000  0.25982000  0.49018000  1
  N  N51  1  0.99018000  0.99018000  0.75982000  1
  N  N52  1  0.74018000  0.74018000  0.24018000  1
  N  N53  1  0.74018000  0.50982000  0.00982000  1
  N  N54  1  0.50982000  0.74018000  0.00982000  1
  N  N55  1  0.50982000  0.50982000  0.24018000  1
