# generated using pymatgen
data_CoF3
_symmetry_space_group_name_H-M   'P 1'
_cell_length_a   3.87151990
_cell_length_b   5.42166064
_cell_length_c   5.43310209
_cell_angle_alpha   89.92604089
_cell_angle_beta   89.94209691
_cell_angle_gamma   90.26930206
_symmetry_Int_Tables_number   1
_chemical_formula_structural   CoF3
_chemical_formula_sum   'Co2 F6'
_cell_volume   114.03976383
_cell_formula_units_Z   2
loop_
 _symmetry_equiv_pos_site_id
 _symmetry_equiv_pos_as_xyz
  1  'x, y, z'
loop_
 _atom_site_type_symbol
 _atom_site_label
 _atom_site_symmetry_multiplicity
 _atom_site_fract_x
 _atom_site_fract_y
 _atom_site_fract_z
 _atom_site_occupancy
  Co  Co0  1  0.99999800  0.49999900  0.50000000  1
  Co  Co1  1  0.99999900  0.00000200  0.00000200  1
  F  F2  1  0.50000200  0.50000200  0.50000200  1
  F  F3  1  0.50000000  0.99999800  0.00000500  1
  F  F4  1  0.99981200  0.24196900  0.24128800  1
  F  F5  1  0.00017700  0.75803200  0.75870700  1
  F  F6  1  0.99904400  0.74088900  0.25816100  1
  F  F7  1  0.00096600  0.25910900  0.74183500  1
