# generated using pymatgen
data_Fe
_symmetry_space_group_name_H-M   'P 1'
_cell_length_a   2.44199437
_cell_length_b   3.97660440
_cell_length_c   4.38761833
_cell_angle_alpha   90.02450917
_cell_angle_beta   90.05195404
_cell_angle_gamma   90.13439780
_symmetry_Int_Tables_number   1
_chemical_formula_structural   Fe
_chemical_formula_sum   Fe4
_cell_volume   42.60734532
_cell_formula_units_Z   4
loop_
 _symmetry_equiv_pos_site_id
 _symmetry_equiv_pos_as_xyz
  1  'x, y, z'
loop_
 _atom_site_type_symbol
 _atom_site_label
 _atom_site_symmetry_multiplicity
 _atom_site_fract_x
 _atom_site_fract_y
 _atom_site_fract_z
 _atom_site_occupancy
  Fe  Fe0  1  0.37590400  0.99996700  0.46614800  1
  Fe  Fe1  1  0.37412500  0.50003200  0.78382900  1
  Fe  Fe2  1  0.87589300  0.99996600  0.96615700  1
  Fe  Fe3  1  0.87407700  0.50003500  0.28386600  1
