# generated using pymatgen
data_La2GaNiO6
_symmetry_space_group_name_H-M   'P 1'
_cell_length_a   5.54438775
_cell_length_b   9.37657818
_cell_length_c   5.67967050
_cell_angle_alpha   74.37254135
_cell_angle_beta   59.31368408
_cell_angle_gamma   73.71493093
_symmetry_Int_Tables_number   1
_chemical_formula_structural   La2GaNiO6
_chemical_formula_sum   'La4 Ga2 Ni2 O12'
_cell_volume   240.86903907
_cell_formula_units_Z   2
loop_
 _symmetry_equiv_pos_site_id
 _symmetry_equiv_pos_as_xyz
  1  'x, y, z'
loop_
 _atom_site_type_symbol
 _atom_site_label
 _atom_site_symmetry_multiplicity
 _atom_site_fract_x
 _atom_site_fract_y
 _atom_site_fract_z
 _atom_site_occupancy
  La  La0  1  0.37762200  0.87324900  0.38227600  1
  La  La1  1  0.87788500  0.37309900  0.88234500  1
  La  La2  1  0.12231300  0.62675500  0.11776900  1
  La  La3  1  0.62221500  0.12684400  0.61771400  1
  Ga  Ga4  1  0.25005200  0.25001400  0.24998100  1
  Ga  Ga5  1  0.74996400  0.74999100  0.75000400  1
  Ni  Ni6  1  0.49998300  0.50015000  0.50016000  1
  Ni  Ni7  1  0.99998500  0.99995300  0.99973100  1
  O  O8  1  0.87572900  0.38495100  0.30784700  1
  O  O9  1  0.37590100  0.88484400  0.80758100  1
  O  O10  1  0.43988600  0.37298500  0.89512600  1
  O  O11  1  0.93987200  0.87299800  0.39510300  1
  O  O12  1  0.32715700  0.36457200  0.45456100  1
  O  O13  1  0.82709300  0.86451800  0.95445800  1
  O  O14  1  0.06014300  0.12700900  0.60485400  1
  O  O15  1  0.56008200  0.62699500  0.10491000  1
  O  O16  1  0.17285500  0.13541700  0.04544300  1
  O  O17  1  0.67286000  0.63548700  0.54548400  1
  O  O18  1  0.62436900  0.11504100  0.19213100  1
  O  O19  1  0.12403400  0.61512700  0.69252200  1
