# generated using pymatgen
data_Ba3Cr2O8
_symmetry_space_group_name_H-M   'P 1'
_cell_length_a   5.84180042
_cell_length_b   7.96891981
_cell_length_c   9.90078622
_cell_angle_alpha   68.17368314
_cell_angle_beta   90.02679834
_cell_angle_gamma   90.06606962
_symmetry_Int_Tables_number   1
_chemical_formula_structural   Ba3Cr2O8
_chemical_formula_sum   'Ba6 Cr4 O16'
_cell_volume   427.86918124
_cell_formula_units_Z   2
loop_
 _symmetry_equiv_pos_site_id
 _symmetry_equiv_pos_as_xyz
  1  'x, y, z'
loop_
 _atom_site_type_symbol
 _atom_site_label
 _atom_site_symmetry_multiplicity
 _atom_site_fract_x
 _atom_site_fract_y
 _atom_site_fract_z
 _atom_site_occupancy
  Ba  Ba0  1  0.99879800  0.99908200  0.00151100  1
  Ba  Ba1  1  0.49799400  0.50116900  0.49830600  1
  Ba  Ba2  1  0.00012300  0.58616800  0.79402200  1
  Ba  Ba3  1  0.50040700  0.08885800  0.29329300  1
  Ba  Ba4  1  0.00054400  0.41123200  0.20650900  1
  Ba  Ba5  1  0.50012900  0.91376200  0.70621100  1
  Cr  Cr6  1  0.50002600  0.68634100  0.09261900  1
  Cr  Cr7  1  0.99985000  0.81359500  0.40741900  1
  Cr  Cr8  1  0.99904800  0.18572900  0.59275100  1
  Cr  Cr9  1  0.49947400  0.31448400  0.90689200  1
  O  O10  1  0.00554800  0.34892300  0.66608800  1
  O  O11  1  0.50016300  0.83799100  0.17751500  1
  O  O12  1  0.00106000  0.66178800  0.32268400  1
  O  O13  1  0.50392700  0.15029000  0.83468700  1
  O  O14  1  0.23910300  0.78695200  0.51683200  1
  O  O15  1  0.74362500  0.28820300  0.01309600  1
  O  O16  1  0.76069400  0.78716400  0.51682300  1
  O  O17  1  0.25602900  0.29116900  0.01258300  1
  O  O18  1  0.99988900  0.02897300  0.27262400  1
  O  O19  1  0.49777900  0.52984200  0.77474900  1
  O  O20  1  0.24287200  0.21270700  0.48613100  1
  O  O21  1  0.73927800  0.71272100  0.98349800  1
  O  O22  1  0.75582600  0.20839300  0.48711500  1
  O  O23  1  0.26092100  0.71296000  0.98303300  1
  O  O24  1  0.99615100  0.97044900  0.72559800  1
  O  O25  1  0.50074300  0.47105400  0.22741100  1
