# generated using pymatgen
data_Mn(HO)2
_symmetry_space_group_name_H-M   'P 1'
_cell_length_a   5.86834500
_cell_length_b   6.73556345
_cell_length_c   5.84136581
_cell_angle_alpha   89.90019422
_cell_angle_beta   118.86859889
_cell_angle_gamma   107.04169441
_symmetry_Int_Tables_number   1
_chemical_formula_structural   Mn(HO)2
_chemical_formula_sum   'Mn4 H8 O8'
_cell_volume   190.60657724
_cell_formula_units_Z   4
loop_
 _symmetry_equiv_pos_site_id
 _symmetry_equiv_pos_as_xyz
  1  'x, y, z'
loop_
 _atom_site_type_symbol
 _atom_site_label
 _atom_site_symmetry_multiplicity
 _atom_site_fract_x
 _atom_site_fract_y
 _atom_site_fract_z
 _atom_site_occupancy
  Mn  Mn0  1  0.97792700  0.45316400  0.98486100  1
  Mn  Mn1  1  0.97779500  0.20274600  0.48488300  1
  Mn  Mn2  1  0.97806100  0.95296400  0.98501900  1
  Mn  Mn3  1  0.97801400  0.70272800  0.48492400  1
  H  H4  1  0.55341200  0.34681000  0.44066600  1
  H  H5  1  0.55387400  0.84692000  0.44093800  1
  H  H6  1  0.55426700  0.09880900  0.94070000  1
  H  H7  1  0.55382300  0.59836100  0.94069000  1
  H  H8  1  0.40219100  0.56142500  0.51912100  1
  H  H9  1  0.40206200  0.06099800  0.51937100  1
  H  H10  1  0.40186000  0.31248500  0.01917800  1
  H  H11  1  0.40241300  0.81264000  0.01933600  1
  O  O12  1  0.75425200  0.39596300  0.54410400  1
  O  O13  1  0.75464100  0.89588700  0.54448000  1
  O  O14  1  0.75493900  0.14573300  0.04398700  1
  O  O15  1  0.75463300  0.64561400  0.04393200  1
  O  O16  1  0.20103600  0.51039000  0.42441200  1
  O  O17  1  0.20100200  0.01035000  0.42445700  1
  O  O18  1  0.20074700  0.26034000  0.92444800  1
  O  O19  1  0.20147500  0.76052100  0.92465800  1
