# generated using pymatgen
data_AlV2O4
_symmetry_space_group_name_H-M   'P 1'
_cell_length_a   6.03521209
_cell_length_b   5.98560249
_cell_length_c   10.18325630
_cell_angle_alpha   72.97478280
_cell_angle_beta   90.42399011
_cell_angle_gamma   120.92485264
_symmetry_Int_Tables_number   1
_chemical_formula_structural   AlV2O4
_chemical_formula_sum   'Al4 V8 O16'
_cell_volume   297.11414425
_cell_formula_units_Z   4
loop_
 _symmetry_equiv_pos_site_id
 _symmetry_equiv_pos_as_xyz
  1  'x, y, z'
loop_
 _atom_site_type_symbol
 _atom_site_label
 _atom_site_symmetry_multiplicity
 _atom_site_fract_x
 _atom_site_fract_y
 _atom_site_fract_z
 _atom_site_occupancy
  Al  Al0  1  0.68895600  0.37440600  0.93489000  1
  Al  Al1  1  0.18769700  0.37027600  0.43459400  1
  Al  Al2  1  0.81106900  0.62566500  0.56511500  1
  Al  Al3  1  0.31225600  0.62966100  0.06539600  1
  V  V4  1  0.25002000  0.50003700  0.74998200  1
  V  V5  1  0.25005400  0.00007200  0.74999600  1
  V  V6  1  0.75004600  0.00006400  0.75002000  1
  V  V7  1  0.00268200  0.00673000  0.99419100  1
  V  V8  1  0.49732300  0.99325000  0.50581400  1
  V  V9  1  0.74997100  0.49995500  0.25001800  1
  V  V10  1  0.74996400  0.99995000  0.24998000  1
  V  V11  1  0.24998500  0.99998200  0.24998900  1
  O  O12  1  0.87882700  0.75765000  0.37484100  1
  O  O13  1  0.37245700  0.75836300  0.87542200  1
  O  O14  1  0.62112100  0.24229900  0.12515700  1
  O  O15  1  0.12757100  0.24169200  0.62457300  1
  O  O16  1  0.87119300  0.25371500  0.87413500  1
  O  O17  1  0.36908800  0.24474800  0.37337300  1
  O  O18  1  0.11821200  0.75059700  0.62800600  1
  O  O19  1  0.62257300  0.75478400  0.12695400  1
  O  O20  1  0.62392700  0.25480500  0.62717300  1
  O  O21  1  0.12603300  0.25320000  0.12892300  1
  O  O22  1  0.38181700  0.24949400  0.87200000  1
  O  O23  1  0.87738000  0.24511600  0.37303500  1
  O  O24  1  0.62883700  0.74633000  0.62590300  1
  O  O25  1  0.13085200  0.75516000  0.12662900  1
  O  O26  1  0.87616100  0.74525900  0.87282200  1
  O  O27  1  0.37392400  0.74673900  0.37106900  1
