# generated using pymatgen
data_Ca2CrWO6
_symmetry_space_group_name_H-M   'P 1'
_cell_length_a   5.52861778
_cell_length_b   5.53014598
_cell_length_c   7.87532297
_cell_angle_alpha   90.71389573
_cell_angle_beta   90.23267314
_cell_angle_gamma   90.39150600
_symmetry_Int_Tables_number   1
_chemical_formula_structural   Ca2CrWO6
_chemical_formula_sum   'Ca4 Cr2 W2 O12'
_cell_volume   240.75424348
_cell_formula_units_Z   2
loop_
 _symmetry_equiv_pos_site_id
 _symmetry_equiv_pos_as_xyz
  1  'x, y, z'
loop_
 _atom_site_type_symbol
 _atom_site_label
 _atom_site_symmetry_multiplicity
 _atom_site_fract_x
 _atom_site_fract_y
 _atom_site_fract_z
 _atom_site_occupancy
  Ca  Ca0  1  0.01936300  0.51516600  0.24803600  1
  Ca  Ca1  1  0.51920100  0.01498900  0.74811000  1
  Ca  Ca2  1  0.49848300  0.99806600  0.23294000  1
  Ca  Ca3  1  0.99831400  0.49820100  0.73298900  1
  Cr  Cr4  1  0.50873300  0.50638500  0.99063100  1
  Cr  Cr5  1  0.00867800  0.00672100  0.49059700  1
  W  W6  1  0.00878900  0.00649300  0.99052400  1
  W  W7  1  0.50866700  0.50665000  0.49060700  1
  O  O8  1  0.70914500  0.20683100  0.44190500  1
  O  O9  1  0.20873100  0.70627600  0.94221600  1
  O  O10  1  0.80856300  0.30644800  0.03922300  1
  O  O11  1  0.30815500  0.80633800  0.53931400  1
  O  O12  1  0.05685900  0.94922200  0.24060100  1
  O  O13  1  0.55706900  0.44912900  0.74063700  1
  O  O14  1  0.46044600  0.56395000  0.24054500  1
  O  O15  1  0.96066300  0.06395300  0.74059900  1
  O  O16  1  0.20785300  0.31360900  0.49137800  1
  O  O17  1  0.70753600  0.81361000  0.99145800  1
  O  O18  1  0.30988700  0.19916500  0.98982000  1
  O  O19  1  0.80947800  0.69979600  0.48976000  1
