# generated using pymatgen
data_CaLaMn2O6
_symmetry_space_group_name_H-M   'P 1'
_cell_length_a   5.35888626
_cell_length_b   8.05871367
_cell_length_c   5.39658913
_cell_angle_alpha   90.01883384
_cell_angle_beta   89.98256455
_cell_angle_gamma   90.32152328
_symmetry_Int_Tables_number   1
_chemical_formula_structural   CaLaMn2O6
_chemical_formula_sum   'Ca2 La2 Mn4 O12'
_cell_volume   233.05194843
_cell_formula_units_Z   2
loop_
 _symmetry_equiv_pos_site_id
 _symmetry_equiv_pos_as_xyz
  1  'x, y, z'
loop_
 _atom_site_type_symbol
 _atom_site_label
 _atom_site_symmetry_multiplicity
 _atom_site_fract_x
 _atom_site_fract_y
 _atom_site_fract_z
 _atom_site_occupancy
  Ca  Ca0  1  0.01423400  0.50048600  0.78769700  1
  Ca  Ca1  1  0.51415400  0.00040300  0.21227800  1
  La  La2  1  0.03057900  0.99942600  0.72066300  1
  La  La3  1  0.53040500  0.49933400  0.27933100  1
  Mn  Mn4  1  0.02276700  0.24934000  0.24965800  1
  Mn  Mn5  1  0.02340700  0.75027400  0.25026000  1
  Mn  Mn6  1  0.52367000  0.25022500  0.74950100  1
  Mn  Mn7  1  0.52291100  0.74949200  0.75044900  1
  O  O8  1  0.08702800  0.48772300  0.23508600  1
  O  O9  1  0.58707600  0.98784600  0.76498900  1
  O  O10  1  0.95047300  0.01210300  0.26053200  1
  O  O11  1  0.45063400  0.51208900  0.73934800  1
  O  O12  1  0.23538900  0.21480800  0.96406500  1
  O  O13  1  0.23772400  0.78420900  0.96250300  1
  O  O14  1  0.73765800  0.28422600  0.03744900  1
  O  O15  1  0.73511900  0.71500500  0.03620100  1
  O  O16  1  0.81218800  0.71010300  0.54067000  1
  O  O17  1  0.81414500  0.29141600  0.53810200  1
  O  O18  1  0.31409800  0.79141600  0.46186200  1
  O  O19  1  0.31214200  0.21007900  0.45935700  1
