# generated using pymatgen
data_MgVPO5
_symmetry_space_group_name_H-M   'P 1'
_cell_length_a   5.28928395
_cell_length_b   7.11478399
_cell_length_c   10.93590502
_cell_angle_alpha   77.84785790
_cell_angle_beta   99.35783501
_cell_angle_gamma   73.03114174
_symmetry_Int_Tables_number   1
_chemical_formula_structural   MgVPO5
_chemical_formula_sum   'Mg4 V4 P4 O20'
_cell_volume   373.59479635
_cell_formula_units_Z   4
loop_
 _symmetry_equiv_pos_site_id
 _symmetry_equiv_pos_as_xyz
  1  'x, y, z'
loop_
 _atom_site_type_symbol
 _atom_site_label
 _atom_site_symmetry_multiplicity
 _atom_site_fract_x
 _atom_site_fract_y
 _atom_site_fract_z
 _atom_site_occupancy
  Mg  Mg0  1  0.55783800  0.93619100  0.31037600  1
  Mg  Mg1  1  0.05816400  0.43505900  0.81028100  1
  Mg  Mg2  1  0.44146600  0.04706400  0.69119900  1
  Mg  Mg3  1  0.94169600  0.54746000  0.19118600  1
  V  V4  1  0.99979900  0.99156900  0.50071900  1
  V  V5  1  0.99982800  0.49134800  0.50073400  1
  V  V6  1  0.49997800  0.49145800  0.00057700  1
  V  V7  1  0.49960800  0.99147100  0.00079700  1
  P  P8  1  0.51829700  0.56039500  0.69164300  1
  P  P9  1  0.01821600  0.06083800  0.19164600  1
  P  P10  1  0.48149100  0.42247100  0.30970700  1
  P  P11  1  0.98130800  0.92222700  0.80963200  1
  O  O12  1  0.30698900  0.44888700  0.67328400  1
  O  O13  1  0.80696700  0.94925500  0.17326700  1
  O  O14  1  0.37896500  0.79384400  0.63442700  1
  O  O15  1  0.87928800  0.29410200  0.13426700  1
  O  O16  1  0.69319500  0.53371000  0.32834100  1
  O  O17  1  0.19245800  0.03397100  0.82830400  1
  O  O18  1  0.62077200  0.18911800  0.36689800  1
  O  O19  1  0.12132400  0.68896900  0.86666700  1
  O  O20  1  0.33780800  0.47478100  0.16381300  1
  O  O21  1  0.83745200  0.97504800  0.66373600  1
  O  O22  1  0.73218900  0.00692100  0.86456000  1
  O  O23  1  0.23252600  0.50792300  0.36460800  1
  O  O24  1  0.66236500  0.50785700  0.83754400  1
  O  O25  1  0.16146000  0.00871900  0.33758300  1
  O  O26  1  0.26742400  0.97549800  0.13684000  1
  O  O27  1  0.76692800  0.47503200  0.63646800  1
  O  O28  1  0.13885200  0.19870500  0.54287400  1
  O  O29  1  0.63878300  0.69871500  0.04289400  1
  O  O30  1  0.86063000  0.78435900  0.45840800  1
  O  O31  1  0.36117700  0.28423500  0.95852000  1
