# generated using pymatgen
data_SrLaMnRuO6
_symmetry_space_group_name_H-M   'P 1'
_cell_length_a   5.60695610
_cell_length_b   8.14057788
_cell_length_c   5.70208517
_cell_angle_alpha   89.95727589
_cell_angle_beta   90.05298180
_cell_angle_gamma   91.30965519
_symmetry_Int_Tables_number   1
_chemical_formula_structural   SrLaMnRuO6
_chemical_formula_sum   'Sr2 La2 Mn2 Ru2 O12'
_cell_volume   260.19702494
_cell_formula_units_Z   2
loop_
 _symmetry_equiv_pos_site_id
 _symmetry_equiv_pos_as_xyz
  1  'x, y, z'
loop_
 _atom_site_type_symbol
 _atom_site_label
 _atom_site_symmetry_multiplicity
 _atom_site_fract_x
 _atom_site_fract_y
 _atom_site_fract_z
 _atom_site_occupancy
  Sr  Sr0  1  0.49173300  0.24451100  0.00116100  1
  Sr  Sr1  1  0.99174300  0.74450600  0.50114400  1
  La  La2  1  0.49227800  0.74378400  0.00120800  1
  La  La3  1  0.99228400  0.24378700  0.50118800  1
  Mn  Mn4  1  0.49588200  0.99536500  0.50025800  1
  Mn  Mn5  1  0.99591500  0.49535300  0.00010300  1
  Ru  Ru6  1  0.49793800  0.49789700  0.50056000  1
  Ru  Ru7  1  0.99791700  0.99786000  0.00056300  1
  O  O8  1  0.70633500  0.54691900  0.77783100  1
  O  O9  1  0.20634000  0.04692700  0.27784000  1
  O  O10  1  0.79022400  0.46260000  0.30727600  1
  O  O11  1  0.29019500  0.96260100  0.80731700  1
  O  O12  1  0.00486100  0.24122000  0.91647100  1
  O  O13  1  0.50486100  0.74120700  0.41646300  1
  O  O14  1  0.99478200  0.76017000  0.06375600  1
  O  O15  1  0.49480400  0.26022700  0.56373200  1
  O  O16  1  0.22876100  0.53602500  0.71132800  1
  O  O17  1  0.72873900  0.03603200  0.21136000  1
  O  O18  1  0.29719100  0.47149900  0.22020500  1
  O  O19  1  0.79722000  0.97150500  0.72023800  1
