# generated using pymatgen
data_La2ZnFeO6
_symmetry_space_group_name_H-M   'P 1'
_cell_length_a   5.53722294
_cell_length_b   5.53806470
_cell_length_c   5.53921521
_cell_angle_alpha   61.31362289
_cell_angle_beta   61.33205804
_cell_angle_gamma   61.33856436
_symmetry_Int_Tables_number   1
_chemical_formula_structural   La2ZnFeO6
_chemical_formula_sum   'La2 Zn1 Fe1 O6'
_cell_volume   123.69617209
_cell_formula_units_Z   1
loop_
 _symmetry_equiv_pos_site_id
 _symmetry_equiv_pos_as_xyz
  1  'x, y, z'
loop_
 _atom_site_type_symbol
 _atom_site_label
 _atom_site_symmetry_multiplicity
 _atom_site_fract_x
 _atom_site_fract_y
 _atom_site_fract_z
 _atom_site_occupancy
  La  La0  1  0.75073800  0.75070700  0.75064200  1
  La  La1  1  0.24926200  0.24929200  0.24935900  1
  Zn  Zn2  1  0.50000000  0.50000000  0.50000000  1
  Fe  Fe3  1  0.00000000  0.00000000  0.00000000  1
  O  O4  1  0.31837400  0.75986500  0.16954000  1
  O  O5  1  0.75974100  0.16959900  0.31855000  1
  O  O6  1  0.16958400  0.31852500  0.75977200  1
  O  O7  1  0.68162600  0.24013600  0.83045900  1
  O  O8  1  0.83041700  0.68147400  0.24022800  1
  O  O9  1  0.24025800  0.83040100  0.68145000  1
