# generated using pymatgen
data_Sr2CoSbO6
_symmetry_space_group_name_H-M   'P 1'
_cell_length_a   5.73634232
_cell_length_b   7.79245215
_cell_length_c   5.73636631
_cell_angle_alpha   90.00971476
_cell_angle_beta   90.00291057
_cell_angle_gamma   89.98097500
_symmetry_Int_Tables_number   1
_chemical_formula_structural   Sr2CoSbO6
_chemical_formula_sum   'Sr4 Co2 Sb2 O12'
_cell_volume   256.41654823
_cell_formula_units_Z   2
loop_
 _symmetry_equiv_pos_site_id
 _symmetry_equiv_pos_as_xyz
  1  'x, y, z'
loop_
 _atom_site_type_symbol
 _atom_site_label
 _atom_site_symmetry_multiplicity
 _atom_site_fract_x
 _atom_site_fract_y
 _atom_site_fract_z
 _atom_site_occupancy
  Sr  Sr0  1  0.50001000  0.75003800  0.00002000  1
  Sr  Sr1  1  0.00004100  0.24996200  0.50000600  1
  Sr  Sr2  1  0.49999000  0.24996200  0.99998000  1
  Sr  Sr3  1  0.99995900  0.75003900  0.49999400  1
  Co  Co4  1  0.50000000  0.00000000  0.50000000  1
  Co  Co5  1  0.00000000  0.50000000  0.00000000  1
  Sb  Sb6  1  0.00000000  0.00000000  0.00000000  1
  Sb  Sb7  1  0.50000000  0.50000000  0.50000000  1
  O  O8  1  0.25541500  0.50000500  0.74458500  1
  O  O9  1  0.75543200  0.00006000  0.24456600  1
  O  O10  1  0.74458500  0.49999400  0.25541500  1
  O  O11  1  0.24456800  0.99994100  0.75543400  1
  O  O12  1  0.25540000  0.50000100  0.25540000  1
  O  O13  1  0.75541800  0.00002000  0.75542000  1
  O  O14  1  0.74460000  0.49999900  0.74460000  1
  O  O15  1  0.24458200  0.99997900  0.24458000  1
  O  O16  1  0.00000400  0.74127700  0.99999600  1
  O  O17  1  0.50009100  0.24129800  0.49995500  1
  O  O18  1  0.99999600  0.25872300  0.00000400  1
  O  O19  1  0.49990900  0.75870200  0.50004500  1
