# generated using pymatgen
data_SiBr3
_symmetry_space_group_name_H-M   'P 1'
_cell_length_a   6.87927337
_cell_length_b   6.87927337
_cell_length_c   7.83967615
_cell_angle_alpha   80.88970088
_cell_angle_beta   80.88970088
_cell_angle_gamma   119.77133773
_symmetry_Int_Tables_number   1
_chemical_formula_structural   SiBr3
_chemical_formula_sum   'Si2 Br6'
_cell_volume   305.58342089
_cell_formula_units_Z   2
loop_
 _symmetry_equiv_pos_site_id
 _symmetry_equiv_pos_as_xyz
  1  'x, y, z'
loop_
 _atom_site_type_symbol
 _atom_site_label
 _atom_site_symmetry_multiplicity
 _atom_site_fract_x
 _atom_site_fract_y
 _atom_site_fract_z
 _atom_site_occupancy
  Si  Si0  1  0.45362100  0.45362100  0.65907100  1
  Si  Si1  1  0.54637900  0.54637900  0.34092900  1
  Br  Br2  1  0.73499900  0.73499900  0.73953700  1
  Br  Br3  1  0.26500100  0.26500100  0.26046300  1
  Br  Br4  1  0.11726600  0.42258500  0.76585100  1
  Br  Br5  1  0.42258500  0.11726600  0.76585100  1
  Br  Br6  1  0.88273400  0.57741500  0.23414900  1
  Br  Br7  1  0.57741500  0.88273400  0.23414900  1
