# generated using pymatgen
data_Mg2CoWO6
_symmetry_space_group_name_H-M   'P 1'
_cell_length_a   5.21658557
_cell_length_b   5.56906349
_cell_length_c   9.00897590
_cell_angle_alpha   74.43495374
_cell_angle_beta   89.81224474
_cell_angle_gamma   62.26282173
_symmetry_Int_Tables_number   1
_chemical_formula_structural   Mg2CoWO6
_chemical_formula_sum   'Mg4 Co2 W2 O12'
_cell_volume   220.87309245
_cell_formula_units_Z   2
loop_
 _symmetry_equiv_pos_site_id
 _symmetry_equiv_pos_as_xyz
  1  'x, y, z'
loop_
 _atom_site_type_symbol
 _atom_site_label
 _atom_site_symmetry_multiplicity
 _atom_site_fract_x
 _atom_site_fract_y
 _atom_site_fract_z
 _atom_site_occupancy
  Mg  Mg0  1  0.32489500  0.36579200  0.10367900  1
  Mg  Mg1  1  0.82500300  0.36578000  0.60362500  1
  Mg  Mg2  1  0.07135900  0.87035500  0.35385800  1
  Mg  Mg3  1  0.57129300  0.87040000  0.85385700  1
  Co  Co4  1  0.24868000  0.51191800  0.74605600  1
  Co  Co5  1  0.74858000  0.51196900  0.24609200  1
  W  W6  1  0.51746600  0.97783900  0.50193300  1
  W  W7  1  0.01749900  0.97778200  0.00186300  1
  O  O8  1  0.86257600  0.70146200  0.05062300  1
  O  O9  1  0.36254200  0.70144500  0.55059100  1
  O  O10  1  0.30508600  0.70155100  0.19304400  1
  O  O11  1  0.80493800  0.70163500  0.69305800  1
  O  O12  1  0.79963000  0.69943000  0.40075700  1
  O  O13  1  0.29963200  0.69940900  0.90075600  1
  O  O14  1  0.73601600  0.18084300  0.45264600  1
  O  O15  1  0.23612400  0.18078600  0.95266700  1
  O  O16  1  0.77968200  0.18221900  0.13503000  1
  O  O17  1  0.27968800  0.18232600  0.63501700  1
  O  O18  1  0.23793900  0.17880500  0.31596200  1
  O  O19  1  0.73815400  0.17876500  0.81593900  1
