# generated using pymatgen
data_NaNiO2
_symmetry_space_group_name_H-M   'P 1'
_cell_length_a   2.97082677
_cell_length_b   3.04039765
_cell_length_c   10.69722343
_cell_angle_alpha   87.75971983
_cell_angle_beta   91.14042574
_cell_angle_gamma   120.93584188
_symmetry_Int_Tables_number   1
_chemical_formula_structural   NaNiO2
_chemical_formula_sum   'Na2 Ni2 O4'
_cell_volume   82.81407144
_cell_formula_units_Z   2
loop_
 _symmetry_equiv_pos_site_id
 _symmetry_equiv_pos_as_xyz
  1  'x, y, z'
loop_
 _atom_site_type_symbol
 _atom_site_label
 _atom_site_symmetry_multiplicity
 _atom_site_fract_x
 _atom_site_fract_y
 _atom_site_fract_z
 _atom_site_occupancy
  Na  Na0  1  0.67420400  0.33641100  0.25003000  1
  Na  Na1  1  0.32558000  0.66349300  0.74995400  1
  Ni  Ni2  1  0.00024100  0.00049300  0.49999900  1
  Ni  Ni3  1  0.99991000  0.99955800  0.00001400  1
  O  O4  1  0.35672100  0.65526100  0.40223800  1
  O  O5  1  0.64390800  0.34589500  0.59773700  1
  O  O6  1  0.64445600  0.29928900  0.90229100  1
  O  O7  1  0.35498000  0.69960000  0.09773700  1
