# generated using pymatgen
data_Ba2V2O5
_symmetry_space_group_name_H-M   'P 1'
_cell_length_a   4.04460809
_cell_length_b   8.08813404
_cell_length_c   9.25104214
_cell_angle_alpha   64.08937671
_cell_angle_beta   89.97894250
_cell_angle_gamma   90.00084412
_symmetry_Int_Tables_number   1
_chemical_formula_structural   Ba2V2O5
_chemical_formula_sum   'Ba4 V4 O10'
_cell_volume   272.21080635
_cell_formula_units_Z   2
loop_
 _symmetry_equiv_pos_site_id
 _symmetry_equiv_pos_as_xyz
  1  'x, y, z'
loop_
 _atom_site_type_symbol
 _atom_site_label
 _atom_site_symmetry_multiplicity
 _atom_site_fract_x
 _atom_site_fract_y
 _atom_site_fract_z
 _atom_site_occupancy
  Ba  Ba0  1  0.00823100  0.99978500  0.00005200  1
  Ba  Ba1  1  0.00813200  0.50020000  0.99997400  1
  Ba  Ba2  1  0.01076800  0.75042200  0.49983100  1
  Ba  Ba3  1  0.01073300  0.24970800  0.49991500  1
  V  V4  1  0.51331400  0.61884300  0.26233900  1
  V  V5  1  0.51314600  0.88095600  0.73788100  1
  V  V6  1  0.51257500  0.11931700  0.26167200  1
  V  V7  1  0.51284800  0.38095100  0.73786300  1
  O  O8  1  0.48625000  0.00002200  0.50001600  1
  O  O9  1  0.48359200  0.49993900  0.50011900  1
  O  O10  1  0.49554000  0.88474700  0.22982400  1
  O  O11  1  0.49548600  0.38483700  0.22979900  1
  O  O12  1  0.49474600  0.61487400  0.77080800  1
  O  O13  1  0.49478700  0.11493600  0.77082100  1
  O  O14  1  0.99089600  0.13616800  0.22717500  1
  O  O15  1  0.99012300  0.63540100  0.22864600  1
  O  O16  1  0.98990300  0.86444600  0.77166100  1
  O  O17  1  0.98894100  0.36445000  0.77160900  1
