# generated using pymatgen
data_CaNi5H
_symmetry_space_group_name_H-M   'P 1'
_cell_length_a   4.97201881
_cell_length_b   4.97201881
_cell_length_c   3.97469783
_cell_angle_alpha   89.07256086
_cell_angle_beta   89.07256086
_cell_angle_gamma   60.92227668
_symmetry_Int_Tables_number   1
_chemical_formula_structural   CaNi5H
_chemical_formula_sum   'Ca1 Ni5 H1'
_cell_volume   85.85888328
_cell_formula_units_Z   1
loop_
 _symmetry_equiv_pos_site_id
 _symmetry_equiv_pos_as_xyz
  1  'x, y, z'
loop_
 _atom_site_type_symbol
 _atom_site_label
 _atom_site_symmetry_multiplicity
 _atom_site_fract_x
 _atom_site_fract_y
 _atom_site_fract_z
 _atom_site_occupancy
  Ca  Ca0  1  0.99604900  0.99604900  0.97980900  1
  Ni  Ni1  1  0.34019000  0.34019000  0.01155400  1
  Ni  Ni2  1  0.66192100  0.66192100  0.00975900  1
  Ni  Ni3  1  0.50029200  0.50029200  0.51251400  1
  Ni  Ni4  1  0.51101500  0.99182100  0.51720700  1
  Ni  Ni5  1  0.99182100  0.51101500  0.51720700  1
  H  H6  1  0.20288600  0.20288600  0.30585500  1
