# generated using pymatgen
data_Ba2MnNbO6
_symmetry_space_group_name_H-M   'P 1'
_cell_length_a   5.79750783
_cell_length_b   5.79703629
_cell_length_c   19.30034575
_cell_angle_alpha   82.61157194
_cell_angle_beta   91.56531997
_cell_angle_gamma   61.22542836
_symmetry_Int_Tables_number   1
_chemical_formula_structural   Ba2MnNbO6
_chemical_formula_sum   'Ba8 Mn4 Nb4 O24'
_cell_volume   560.85918584
_cell_formula_units_Z   4
loop_
 _symmetry_equiv_pos_site_id
 _symmetry_equiv_pos_as_xyz
  1  'x, y, z'
loop_
 _atom_site_type_symbol
 _atom_site_label
 _atom_site_symmetry_multiplicity
 _atom_site_fract_x
 _atom_site_fract_y
 _atom_site_fract_z
 _atom_site_occupancy
  Ba  Ba0  1  0.50579800  0.99373000  0.50007100  1
  Ba  Ba1  1  0.24454500  0.50601000  0.75014400  1
  Ba  Ba2  1  0.00674500  0.99350100  0.99998600  1
  Ba  Ba3  1  0.74301400  0.50694700  0.25015400  1
  Ba  Ba4  1  0.88135700  0.24354000  0.62482700  1
  Ba  Ba5  1  0.61959200  0.75619000  0.87492000  1
  Ba  Ba6  1  0.38123600  0.24363900  0.12485100  1
  Ba  Ba7  1  0.11796700  0.75667700  0.37503800  1
  Mn  Mn8  1  0.56329300  0.87453800  0.68737900  1
  Mn  Mn9  1  0.31249100  0.37531500  0.93751900  1
  Mn  Mn10  1  0.06200200  0.87532200  0.18749200  1
  Mn  Mn11  1  0.81216200  0.37479100  0.43750900  1
  Nb  Nb12  1  0.19836700  0.61369600  0.56250700  1
  Nb  Nb13  1  0.92688200  0.13600800  0.81248700  1
  Nb  Nb14  1  0.69838400  0.61394700  0.06247200  1
  Nb  Nb15  1  0.42594200  0.13635500  0.31250300  1
  O  O16  1  0.52420600  0.47991600  0.50118200  1
  O  O17  1  0.21173600  0.02679600  0.75195000  1
  O  O18  1  0.02433400  0.48002900  0.00108600  1
  O  O19  1  0.71136200  0.02708300  0.25200500  1
  O  O20  1  0.91327300  0.72316600  0.62306700  1
  O  O21  1  0.60100000  0.27013700  0.87389000  1
  O  O22  1  0.41343800  0.72296900  0.12301600  1
  O  O23  1  0.10093000  0.26972300  0.37399300  1
  O  O24  1  0.39426100  0.73502800  0.62527000  1
  O  O25  1  0.11055300  0.26893600  0.87552600  1
  O  O26  1  0.89412600  0.73522100  0.12529300  1
  O  O27  1  0.61010400  0.26883600  0.37553600  1
  O  O28  1  0.01447700  0.48117700  0.49943900  1
  O  O29  1  0.73080300  0.01497100  0.74977200  1
  O  O30  1  0.51490300  0.48137200  0.99938700  1
  O  O31  1  0.23050700  0.01494600  0.24977100  1
  O  O32  1  0.02905100  0.95927700  0.50192400  1
  O  O33  1  0.73292500  0.52301900  0.75103600  1
  O  O34  1  0.52927300  0.95926300  0.00193000  1
  O  O35  1  0.23216200  0.52288500  0.25107100  1
  O  O36  1  0.39238300  0.22684200  0.62394700  1
  O  O37  1  0.09640600  0.79052900  0.87308200  1
  O  O38  1  0.89224000  0.22690400  0.12393500  1
  O  O39  1  0.59577200  0.79077200  0.37303600  1
