# generated using pymatgen
data_Na3V5O10
_symmetry_space_group_name_H-M   'P 1'
_cell_length_a   5.13375502
_cell_length_b   8.06019793
_cell_length_c   11.24824434
_cell_angle_alpha   81.99556590
_cell_angle_beta   86.61040647
_cell_angle_gamma   71.46089750
_symmetry_Int_Tables_number   1
_chemical_formula_structural   Na3V5O10
_chemical_formula_sum   'Na6 V10 O20'
_cell_volume   436.93476913
_cell_formula_units_Z   2
loop_
 _symmetry_equiv_pos_site_id
 _symmetry_equiv_pos_as_xyz
  1  'x, y, z'
loop_
 _atom_site_type_symbol
 _atom_site_label
 _atom_site_symmetry_multiplicity
 _atom_site_fract_x
 _atom_site_fract_y
 _atom_site_fract_z
 _atom_site_occupancy
  Na  Na0  1  0.15240000  0.45003600  0.74947000  1
  Na  Na1  1  0.65236300  0.94979700  0.24976900  1
  Na  Na2  1  0.44786800  0.34588700  0.25148800  1
  Na  Na3  1  0.94831100  0.84590600  0.75146700  1
  Na  Na4  1  0.84960800  0.55389500  0.24889400  1
  Na  Na5  1  0.34973600  0.05377900  0.74888300  1
  V  V6  1  0.90185400  0.69898800  0.49895900  1
  V  V7  1  0.20541900  0.60258100  0.00324400  1
  V  V8  1  0.70589500  0.10281500  0.50339300  1
  V  V9  1  0.59631100  0.79965600  0.99747400  1
  V  V10  1  0.09667400  0.29852700  0.49731400  1
  V  V11  1  0.40219700  0.19851900  0.99898500  1
  V  V12  1  0.79936200  0.40143500  0.99582500  1
  V  V13  1  0.29935100  0.90191300  0.49598800  1
  V  V14  1  0.50023000  0.49647800  0.50367700  1
  V  V15  1  0.00026000  0.99694900  0.00388100  1
  O  O16  1  0.70653400  0.18541400  0.09353900  1
  O  O17  1  0.20693800  0.68554900  0.59322900  1
  O  O18  1  0.09245500  0.21715300  0.90634200  1
  O  O19  1  0.59190300  0.71728800  0.40656900  1
  O  O20  1  0.16757800  0.52130700  0.40406300  1
  O  O21  1  0.66873600  0.02117800  0.90357000  1
  O  O22  1  0.12967100  0.38575300  0.09416000  1
  O  O23  1  0.63021600  0.88576600  0.59403600  1
  O  O24  1  0.92672400  0.77844900  0.09620800  1
  O  O25  1  0.42640300  0.27820000  0.59626100  1
  O  O26  1  0.89309400  0.61758900  0.90687900  1
  O  O27  1  0.39295700  0.11772900  0.40673300  1
  O  O28  1  0.46013700  0.41984000  0.90959500  1
  O  O29  1  0.95978900  0.91978200  0.40989200  1
  O  O30  1  0.84012300  0.48386800  0.58942300  1
  O  O31  1  0.33911200  0.98374600  0.09044000  1
  O  O32  1  0.51383200  0.57674700  0.09667200  1
  O  O33  1  0.01378300  0.07655300  0.59717700  1
  O  O34  1  0.26595000  0.81569300  0.90339500  1
  O  O35  1  0.76622500  0.31523500  0.40310800  1
