# generated using pymatgen
data_Sr3TaCoO7
_symmetry_space_group_name_H-M   'P 1'
_cell_length_a   3.96903679
_cell_length_b   15.77238537
_cell_length_c   11.15673052
_cell_angle_alpha   100.17372555
_cell_angle_beta   79.68364475
_cell_angle_gamma   90.02369346
_symmetry_Int_Tables_number   1
_chemical_formula_structural   Sr3TaCoO7
_chemical_formula_sum   'Sr12 Ta4 Co4 O28'
_cell_volume   675.97815943
_cell_formula_units_Z   4
loop_
 _symmetry_equiv_pos_site_id
 _symmetry_equiv_pos_as_xyz
  1  'x, y, z'
loop_
 _atom_site_type_symbol
 _atom_site_label
 _atom_site_symmetry_multiplicity
 _atom_site_fract_x
 _atom_site_fract_y
 _atom_site_fract_z
 _atom_site_occupancy
  Sr  Sr0  1  0.51830500  0.37066100  0.95913800  1
  Sr  Sr1  1  0.52097800  0.61773800  0.96129200  1
  Sr  Sr2  1  0.52597600  0.87214900  0.95976800  1
  Sr  Sr3  1  0.52384400  0.11894900  0.96109600  1
  Sr  Sr4  1  0.30770700  0.17319200  0.38443400  1
  Sr  Sr5  1  0.30744000  0.42177000  0.38305300  1
  Sr  Sr6  1  0.30579000  0.67382600  0.38457600  1
  Sr  Sr7  1  0.30937700  0.92298900  0.38340300  1
  Sr  Sr8  1  0.67724400  0.32662600  0.63463100  1
  Sr  Sr9  1  0.68362400  0.57430800  0.63328700  1
  Sr  Sr10  1  0.68734500  0.83392100  0.63406800  1
  Sr  Sr11  1  0.68414600  0.08339100  0.63400500  1
  Ta  Ta12  1  0.90230100  0.27426200  0.19529000  1
  Ta  Ta13  1  0.90004600  0.52491100  0.19842000  1
  Ta  Ta14  1  0.90250100  0.77429600  0.19566000  1
  Ta  Ta15  1  0.90240900  0.02466100  0.19764200  1
  Co  Co16  1  0.12404600  0.72103400  0.78250700  1
  Co  Co17  1  0.11084100  0.97459000  0.78398600  1
  Co  Co18  1  0.10442200  0.22371000  0.79123600  1
  Co  Co19  1  0.10668600  0.47240700  0.78397600  1
  O  O20  1  0.20142700  0.19857500  0.60167300  1
  O  O21  1  0.19773600  0.45188800  0.60071500  1
  O  O22  1  0.17807800  0.70125300  0.60758000  1
  O  O23  1  0.20084800  0.94812200  0.60075400  1
  O  O24  1  0.80448900  0.29884900  0.38887400  1
  O  O25  1  0.80210800  0.54951700  0.39227100  1
  O  O26  1  0.80341400  0.79821200  0.39063700  1
  O  O27  1  0.80526900  0.04865400  0.39015700  1
  O  O28  1  0.99073900  0.25189400  0.01746600  1
  O  O29  1  0.98810400  0.50494600  0.02147500  1
  O  O30  1  0.98875500  0.75073300  0.01825800  1
  O  O31  1  0.99082500  0.00214000  0.02033700  1
  O  O32  1  0.59770000  0.22611400  0.80662800  1
  O  O33  1  0.59618400  0.47637900  0.80554200  1
  O  O34  1  0.58878100  0.72672800  0.80891400  1
  O  O35  1  0.60130600  0.97515300  0.80321200  1
  O  O36  1  0.09511700  0.35626500  0.80654900  1
  O  O37  1  0.09762700  0.59706900  0.80358900  1
  O  O38  1  0.10058200  0.85576500  0.80456200  1
  O  O39  1  0.09903300  0.09454700  0.80804200  1
  O  O40  1  0.39702800  0.27588500  0.20519000  1
  O  O41  1  0.39444600  0.52653800  0.20947700  1
  O  O42  1  0.39620800  0.77556500  0.20677400  1
  O  O43  1  0.39689800  0.02579800  0.20738500  1
  O  O44  1  0.89576300  0.15100200  0.20731100  1
  O  O45  1  0.89617800  0.40102300  0.20722600  1
  O  O46  1  0.89466700  0.65142900  0.21025800  1
  O  O47  1  0.89566100  0.90056600  0.20768100  1
