# generated using pymatgen
data_Sr3Cr2Cu2S2O5
_symmetry_space_group_name_H-M   'P 1'
_cell_length_a   3.97293604
_cell_length_b   3.97292504
_cell_length_c   13.34001002
_cell_angle_alpha   81.45286051
_cell_angle_beta   81.45204867
_cell_angle_gamma   89.99887394
_symmetry_Int_Tables_number   1
_chemical_formula_structural   Sr3Cr2Cu2S2O5
_chemical_formula_sum   'Sr3 Cr2 Cu2 S2 O5'
_cell_volume   205.85714569
_cell_formula_units_Z   1
loop_
 _symmetry_equiv_pos_site_id
 _symmetry_equiv_pos_as_xyz
  1  'x, y, z'
loop_
 _atom_site_type_symbol
 _atom_site_label
 _atom_site_symmetry_multiplicity
 _atom_site_fract_x
 _atom_site_fract_y
 _atom_site_fract_z
 _atom_site_occupancy
  Sr  Sr0  1  0.50000100  0.49999000  0.99999400  1
  Sr  Sr1  1  0.35854500  0.35857500  0.28305500  1
  Sr  Sr2  1  0.64145700  0.64145200  0.71693900  1
  Cr  Cr3  1  0.07270800  0.07272000  0.85425800  1
  Cr  Cr4  1  0.92727100  0.92722600  0.14581200  1
  Cu  Cu5  1  0.24981500  0.75017900  0.50000100  1
  Cu  Cu6  1  0.75018200  0.24981200  0.50001200  1
  S  S7  1  0.80271600  0.80272200  0.39335600  1
  S  S8  1  0.19726600  0.19726400  0.60667400  1
  O  O9  1  0.00005000  0.00005300  0.99990200  1
  O  O10  1  0.91804300  0.41810800  0.16396300  1
  O  O11  1  0.41811800  0.91805300  0.16396400  1
  O  O12  1  0.08194900  0.58188800  0.83603400  1
  O  O13  1  0.58187900  0.08195700  0.83603700  1
