# generated using pymatgen
data_Sr4CaCr2(SO3)2
_symmetry_space_group_name_H-M   'P 1'
_cell_length_a   3.96920800
_cell_length_b   17.02114780
_cell_length_c   7.94173201
_cell_angle_alpha   76.51456860
_cell_angle_beta   90.00017319
_cell_angle_gamma   90.00000953
_symmetry_Int_Tables_number   1
_chemical_formula_structural   Sr4CaCr2(SO3)2
_chemical_formula_sum   'Sr8 Ca2 Cr4 S4 O12'
_cell_volume   521.75418493
_cell_formula_units_Z   2
loop_
 _symmetry_equiv_pos_site_id
 _symmetry_equiv_pos_as_xyz
  1  'x, y, z'
loop_
 _atom_site_type_symbol
 _atom_site_label
 _atom_site_symmetry_multiplicity
 _atom_site_fract_x
 _atom_site_fract_y
 _atom_site_fract_z
 _atom_site_occupancy
  Sr  Sr0  1  0.74999900  0.20467400  0.02267100  1
  Sr  Sr1  1  0.75000600  0.20467300  0.52265100  1
  Sr  Sr2  1  0.24999900  0.79532200  0.97732000  1
  Sr  Sr3  1  0.24999600  0.79532400  0.47735700  1
  Sr  Sr4  1  0.75000400  0.41810200  0.91594200  1
  Sr  Sr5  1  0.74999500  0.41810400  0.41594300  1
  Sr  Sr6  1  0.24999400  0.58189600  0.08406600  1
  Sr  Sr7  1  0.25000200  0.58189500  0.58403600  1
  Ca  Ca8  1  0.25000700  0.99999400  0.12501400  1
  Ca  Ca9  1  0.24999500  0.99999200  0.62500900  1
  Cr  Cr10  1  0.25000300  0.31798100  0.21604500  1
  Cr  Cr11  1  0.75000800  0.68207200  0.78395400  1
  Cr  Cr12  1  0.24999100  0.31798700  0.71605400  1
  Cr  Cr13  1  0.75000400  0.68201800  0.28394700  1
  S  S14  1  0.25000000  0.11287500  0.31857900  1
  S  S15  1  0.25000100  0.11287800  0.81858000  1
  S  S16  1  0.74999900  0.88713000  0.68140800  1
  S  S17  1  0.75000000  0.88712300  0.18141300  1
  O  O18  1  0.74999800  0.30074800  0.22464500  1
  O  O19  1  0.75000300  0.30074400  0.72464400  1
  O  O20  1  0.74999900  0.69721400  0.02633600  1
  O  O21  1  0.74999700  0.69721200  0.52634800  1
  O  O22  1  0.24999900  0.30251400  0.97379600  1
  O  O23  1  0.24999900  0.30251300  0.47379400  1
  O  O24  1  0.25000400  0.69949600  0.77523800  1
  O  O25  1  0.25000400  0.69951700  0.27522900  1
  O  O26  1  0.24999900  0.43410400  0.15798700  1
  O  O27  1  0.25000200  0.43408900  0.65799100  1
  O  O28  1  0.74999500  0.56588100  0.84201300  1
  O  O29  1  0.74999700  0.56592800  0.34199100  1
