# generated using pymatgen
data_SrYCoO4
_symmetry_space_group_name_H-M   'P 1'
_cell_length_a   5.31436885
_cell_length_b   6.78861041
_cell_length_c   10.90515114
_cell_angle_alpha   89.95244643
_cell_angle_beta   89.91998544
_cell_angle_gamma   66.88946736
_symmetry_Int_Tables_number   1
_chemical_formula_structural   SrYCoO4
_chemical_formula_sum   'Sr4 Y4 Co4 O16'
_cell_volume   361.85395042
_cell_formula_units_Z   4
loop_
 _symmetry_equiv_pos_site_id
 _symmetry_equiv_pos_as_xyz
  1  'x, y, z'
loop_
 _atom_site_type_symbol
 _atom_site_label
 _atom_site_symmetry_multiplicity
 _atom_site_fract_x
 _atom_site_fract_y
 _atom_site_fract_z
 _atom_site_occupancy
  Sr  Sr0  1  0.85601800  0.29179700  0.25489700  1
  Sr  Sr1  1  0.36083900  0.29137200  0.49582500  1
  Sr  Sr2  1  0.85174600  0.29406100  0.75040400  1
  Sr  Sr3  1  0.34609500  0.29408300  0.99921700  1
  Y  Y4  1  0.65767200  0.71861800  0.51272800  1
  Y  Y5  1  0.15411800  0.71771700  0.73715100  1
  Y  Y6  1  0.62025600  0.71613100  0.01188700  1
  Y  Y7  1  0.12497600  0.71659300  0.23864500  1
  Co  Co8  1  0.99396600  0.00098300  0.00091700  1
  Co  Co9  1  0.50262500  0.99683900  0.25158200  1
  Co  Co10  1  0.00677300  0.99552600  0.49843300  1
  Co  Co11  1  0.49609700  0.00402800  0.75049200  1
  O  O12  1  0.71067200  0.66366600  0.21202000  1
  O  O13  1  0.14438100  0.66387500  0.53620000  1
  O  O14  1  0.62824700  0.67290600  0.72000300  1
  O  O15  1  0.19420300  0.67292500  0.03044000  1
  O  O16  1  0.81823600  0.37027500  0.48386700  1
  O  O17  1  0.31906000  0.35858900  0.76544300  1
  O  O18  1  0.81475900  0.36165100  0.98337600  1
  O  O19  1  0.32059400  0.36868300  0.26671500  1
  O  O20  1  0.28981600  0.92517900  0.37626200  1
  O  O21  1  0.75678700  0.00957900  0.62434200  1
  O  O22  1  0.24865400  0.96818900  0.87659000  1
  O  O23  1  0.74275900  0.01552000  0.12194800  1
  O  O24  1  0.77474200  0.95369800  0.37342700  1
  O  O25  1  0.24784900  0.01370400  0.62344200  1
  O  O26  1  0.76473500  0.93558300  0.87309600  1
  O  O27  1  0.25332000  0.00823000  0.13064900  1
