# generated using pymatgen
data_BaLa2(CoO3)3
_symmetry_space_group_name_H-M   'P 1'
_cell_length_a   5.55246328
_cell_length_b   5.55398060
_cell_length_c   13.47942647
_cell_angle_alpha   90.04629861
_cell_angle_beta   90.21740292
_cell_angle_gamma   60.10765843
_symmetry_Int_Tables_number   1
_chemical_formula_structural   BaLa2(CoO3)3
_chemical_formula_sum   'Ba2 La4 Co6 O18'
_cell_volume   360.37839899
_cell_formula_units_Z   2
loop_
 _symmetry_equiv_pos_site_id
 _symmetry_equiv_pos_as_xyz
  1  'x, y, z'
loop_
 _atom_site_type_symbol
 _atom_site_label
 _atom_site_symmetry_multiplicity
 _atom_site_fract_x
 _atom_site_fract_y
 _atom_site_fract_z
 _atom_site_occupancy
  Ba  Ba0  1  0.99878900  0.00114300  0.00091600  1
  Ba  Ba1  1  0.00092400  0.99854000  0.49977900  1
  La  La2  1  0.33002200  0.33355100  0.16864400  1
  La  La3  1  0.32910000  0.34494700  0.67259200  1
  La  La4  1  0.66765900  0.66581800  0.32800200  1
  La  La5  1  0.66710800  0.67732100  0.83178800  1
  Co  Co6  1  0.33386300  0.33251300  0.41642500  1
  Co  Co7  1  0.33340200  0.33814000  0.91844500  1
  Co  Co8  1  0.66595200  0.66624300  0.08357200  1
  Co  Co9  1  0.66433100  0.67148000  0.58358900  1
  Co  Co10  1  0.99881100  0.00421200  0.75047500  1
  Co  Co11  1  0.00061200  0.99818600  0.24895300  1
  O  O12  1  0.49577100  0.49676400  0.00080300  1
  O  O13  1  0.49563800  0.49045600  0.49763100  1
  O  O14  1  0.50334000  0.98990000  0.00142700  1
  O  O15  1  0.51166000  0.97654700  0.49826600  1
  O  O16  1  0.99456600  0.50172600  0.00313200  1
  O  O17  1  0.01608300  0.48959900  0.49678400  1
  O  O18  1  0.82717200  0.82324100  0.17302800  1
  O  O19  1  0.82971700  0.82706300  0.67306300  1
  O  O20  1  0.17729100  0.17186900  0.32712400  1
  O  O21  1  0.17484500  0.18096000  0.82917500  1
  O  O22  1  0.16940000  0.65946400  0.32476400  1
  O  O23  1  0.16944100  0.65848200  0.82768700  1
  O  O24  1  0.82807400  0.34396500  0.17416100  1
  O  O25  1  0.82257600  0.35667000  0.66969300  1
  O  O26  1  0.64998800  0.17192900  0.32767800  1
  O  O27  1  0.65351700  0.17448000  0.82570000  1
  O  O28  1  0.34827800  0.82367400  0.17201200  1
  O  O29  1  0.34206900  0.83111900  0.67469600  1
