# generated using pymatgen
data_Na(CoO2)3
_symmetry_space_group_name_H-M   'P 1'
_cell_length_a   4.93931706
_cell_length_b   7.17011301
_cell_length_c   7.17070279
_cell_angle_alpha   73.02305625
_cell_angle_beta   96.34285248
_cell_angle_gamma   96.26392545
_symmetry_Int_Tables_number   1
_chemical_formula_structural   Na(CoO2)3
_chemical_formula_sum   'Na2 Co6 O12'
_cell_volume   240.61001290
_cell_formula_units_Z   2
loop_
 _symmetry_equiv_pos_site_id
 _symmetry_equiv_pos_as_xyz
  1  'x, y, z'
loop_
 _atom_site_type_symbol
 _atom_site_label
 _atom_site_symmetry_multiplicity
 _atom_site_fract_x
 _atom_site_fract_y
 _atom_site_fract_z
 _atom_site_occupancy
  Na  Na0  1  0.24780300  0.08226400  0.41529300  1
  Na  Na1  1  0.75208200  0.58483000  0.91762800  1
  Co  Co2  1  0.00005700  0.33178300  0.66820700  1
  Co  Co3  1  0.49943600  0.83848600  0.16163700  1
  Co  Co4  1  0.99979900  0.66563400  0.33435800  1
  Co  Co5  1  0.50030500  0.16676800  0.83310000  1
  Co  Co6  1  0.49981500  0.49880700  0.50130000  1
  Co  Co7  1  0.00023200  0.00069000  0.99918300  1
  O  O8  1  0.88571400  0.91900100  0.25846300  1
  O  O9  1  0.36017100  0.41763200  0.75095900  1
  O  O10  1  0.63990100  0.24911400  0.58228500  1
  O  O11  1  0.11425800  0.74088200  0.08130700  1
  O  O12  1  0.35840300  0.09601400  0.07826500  1
  O  O13  1  0.85793300  0.58034200  0.58984800  1
  O  O14  1  0.35172600  0.74495600  0.42601700  1
  O  O15  1  0.85856500  0.25641800  0.91356800  1
  O  O16  1  0.14189500  0.08638400  0.74357300  1
  O  O17  1  0.64742900  0.57452700  0.25486000  1
  O  O18  1  0.14178300  0.41009700  0.41968900  1
  O  O19  1  0.64269300  0.92203500  0.90379100  1
