# generated using pymatgen
data_Mg13Al14
_symmetry_space_group_name_H-M   'P 1'
_cell_length_a   8.83113990
_cell_length_b   8.83113990
_cell_length_c   8.83113990
_cell_angle_alpha   109.47122063
_cell_angle_beta   109.47122063
_cell_angle_gamma   109.47122063
_symmetry_Int_Tables_number   1
_chemical_formula_structural   Mg13Al14
_chemical_formula_sum   'Mg13 Al14'
_cell_volume   530.18618104
_cell_formula_units_Z   1
loop_
 _symmetry_equiv_pos_site_id
 _symmetry_equiv_pos_as_xyz
  1  'x, y, z'
loop_
 _atom_site_type_symbol
 _atom_site_label
 _atom_site_symmetry_multiplicity
 _atom_site_fract_x
 _atom_site_fract_y
 _atom_site_fract_z
 _atom_site_occupancy
  Mg  Mg0  1  0.00000000  0.00000000  0.00000000  1
  Mg  Mg1  1  0.31261200  0.65630600  0.65630600  1
  Mg  Mg2  1  0.34369400  0.00000000  0.65630600  1
  Mg  Mg3  1  0.00000000  0.34369400  0.65630600  1
  Mg  Mg4  1  0.65630600  0.31261200  0.65630600  1
  Mg  Mg5  1  0.65630600  0.34369400  0.00000000  1
  Mg  Mg6  1  0.34369400  0.65630600  0.00000000  1
  Mg  Mg7  1  0.65630600  0.00000000  0.34369400  1
  Mg  Mg8  1  0.34369400  0.68738800  0.34369400  1
  Mg  Mg9  1  0.68738800  0.34369400  0.34369400  1
  Mg  Mg10  1  0.00000000  0.65630600  0.34369400  1
  Mg  Mg11  1  0.34369400  0.34369400  0.68738800  1
  Mg  Mg12  1  0.65630600  0.65630600  0.31261200  1
  Al  Al13  1  0.00000000  0.65830900  0.00000000  1
  Al  Al14  1  0.65830900  0.65830900  0.65830900  1
  Al  Al15  1  0.65830900  0.00000000  0.00000000  1
  Al  Al16  1  0.00000000  0.34169100  0.00000000  1
  Al  Al17  1  0.34169100  0.00000000  0.00000000  1
  Al  Al18  1  0.00000000  0.00000000  0.34169100  1
  Al  Al19  1  0.34169100  0.34169100  0.34169100  1
  Al  Al20  1  0.69995300  0.69995300  0.00000000  1
  Al  Al21  1  0.30004700  0.00000000  0.30004700  1
  Al  Al22  1  0.69995300  0.00000000  0.69995300  1
  Al  Al23  1  0.00000000  0.69995300  0.69995300  1
  Al  Al24  1  0.00000000  0.30004700  0.30004700  1
  Al  Al25  1  0.30004700  0.30004700  0.00000000  1
  Al  Al26  1  0.00000000  0.00000000  0.65830900  1
