# generated using pymatgen
data_NaV2O4
_symmetry_space_group_name_H-M   'P 1'
_cell_length_a   5.08483132
_cell_length_b   6.07680469
_cell_length_c   6.66091390
_cell_angle_alpha   117.10232620
_cell_angle_beta   102.26080571
_cell_angle_gamma   89.63871637
_symmetry_Int_Tables_number   1
_chemical_formula_structural   NaV2O4
_chemical_formula_sum   'Na2 V4 O8'
_cell_volume   178.06963137
_cell_formula_units_Z   2
loop_
 _symmetry_equiv_pos_site_id
 _symmetry_equiv_pos_as_xyz
  1  'x, y, z'
loop_
 _atom_site_type_symbol
 _atom_site_label
 _atom_site_symmetry_multiplicity
 _atom_site_fract_x
 _atom_site_fract_y
 _atom_site_fract_z
 _atom_site_occupancy
  Na  Na0  1  0.74736000  0.69756200  0.00054900  1
  Na  Na1  1  0.25238300  0.30129500  0.99907200  1
  V  V2  1  0.25302000  0.86407700  0.49509600  1
  V  V3  1  0.75249400  0.62520000  0.49950300  1
  V  V4  1  0.24723200  0.37541500  0.50144700  1
  V  V5  1  0.74788200  0.13576500  0.50421000  1
  O  O6  1  0.03793900  0.53840700  0.31127100  1
  O  O7  1  0.48151800  0.20839100  0.68261400  1
  O  O8  1  0.96249800  0.46098600  0.68999900  1
  O  O9  1  0.51748600  0.79158300  0.31642500  1
  O  O10  1  0.46358900  0.71663100  0.67940500  1
  O  O11  1  0.01538700  0.03306000  0.32561200  1
  O  O12  1  0.53740700  0.28512400  0.32157500  1
  O  O13  1  0.98380500  0.96650300  0.67322100  1
