# generated using pymatgen
data_YSi2
_symmetry_space_group_name_H-M   'P 1'
_cell_length_a   7.81931771
_cell_length_b   7.81931771
_cell_length_c   7.81931771
_cell_angle_alpha   150.39638542
_cell_angle_beta   150.39638542
_cell_angle_gamma   42.35986215
_symmetry_Int_Tables_number   1
_chemical_formula_structural   YSi2
_chemical_formula_sum   'Y2 Si4'
_cell_volume   116.38403072
_cell_formula_units_Z   2
loop_
 _symmetry_equiv_pos_site_id
 _symmetry_equiv_pos_as_xyz
  1  'x, y, z'
loop_
 _atom_site_type_symbol
 _atom_site_label
 _atom_site_symmetry_multiplicity
 _atom_site_fract_x
 _atom_site_fract_y
 _atom_site_fract_z
 _atom_site_occupancy
  Y  Y0  1  0.75000000  0.25000000  0.50000000  1
  Y  Y1  1  0.00000000  0.00000000  0.00000000  1
  Si  Si2  1  0.33243300  0.83243300  0.50000000  1
  Si  Si3  1  0.41756700  0.41756700  0.00000000  1
  Si  Si4  1  0.16756700  0.66756700  0.50000000  1
  Si  Si5  1  0.58243300  0.58243300  0.00000000  1
