# generated using pymatgen
data_Na3FeO4
_symmetry_space_group_name_H-M   'P 1'
_cell_length_a   5.52930205
_cell_length_b   14.62248772
_cell_length_c   6.07053093
_cell_angle_alpha   92.88758989
_cell_angle_beta   90.00443748
_cell_angle_gamma   89.98580309
_symmetry_Int_Tables_number   1
_chemical_formula_structural   Na3FeO4
_chemical_formula_sum   'Na12 Fe4 O16'
_cell_volume   490.19227655
_cell_formula_units_Z   4
loop_
 _symmetry_equiv_pos_site_id
 _symmetry_equiv_pos_as_xyz
  1  'x, y, z'
loop_
 _atom_site_type_symbol
 _atom_site_label
 _atom_site_symmetry_multiplicity
 _atom_site_fract_x
 _atom_site_fract_y
 _atom_site_fract_z
 _atom_site_occupancy
  Na  Na0  1  0.48174000  0.99797000  0.14817100  1
  Na  Na1  1  0.48165600  0.49794800  0.14829700  1
  Na  Na2  1  0.98166300  0.25208900  0.85179800  1
  Na  Na3  1  0.98172200  0.75205500  0.85164000  1
  Na  Na4  1  0.99487500  0.12031600  0.32206900  1
  Na  Na5  1  0.99484600  0.62032000  0.32204600  1
  Na  Na6  1  0.49494700  0.12973000  0.67793200  1
  Na  Na7  1  0.49490400  0.62960800  0.67794900  1
  Na  Na8  1  0.48022900  0.37246900  0.67656500  1
  Na  Na9  1  0.48034500  0.87250300  0.67657600  1
  Na  Na10  1  0.98013600  0.37751600  0.32347800  1
  Na  Na11  1  0.98024300  0.87751900  0.32330100  1
  Fe  Fe12  1  0.99821100  0.50037000  0.81976800  1
  Fe  Fe13  1  0.49824600  0.74953800  0.18043700  1
  Fe  Fe14  1  0.99828000  0.00046800  0.81954000  1
  Fe  Fe15  1  0.49824100  0.24960700  0.18036900  1
  O  O16  1  0.90385700  0.99366500  0.09273100  1
  O  O17  1  0.90376100  0.49360300  0.09303100  1
  O  O18  1  0.40386100  0.25635500  0.90711500  1
  O  O19  1  0.40385800  0.75636800  0.90717600  1
  O  O20  1  0.31033100  0.00637800  0.80247000  1
  O  O21  1  0.31014300  0.50631700  0.80257900  1
  O  O22  1  0.81023400  0.24367400  0.19746200  1
  O  O23  1  0.81026200  0.74365300  0.19745300  1
  O  O24  1  0.91715800  0.10081100  0.69043600  1
  O  O25  1  0.91690800  0.60073700  0.69066900  1
  O  O26  1  0.41725000  0.14922700  0.30949800  1
  O  O27  1  0.41701300  0.64920000  0.30963700  1
  O  O28  1  0.39846000  0.35461900  0.29904000  1
  O  O29  1  0.39853400  0.85453000  0.29899700  1
  O  O30  1  0.89846000  0.39542400  0.70098800  1
  O  O31  1  0.89855600  0.89540800  0.70078300  1
