# generated using pymatgen
data_Mn5O3F5
_symmetry_space_group_name_H-M   'P 1'
_cell_length_a   6.40394936
_cell_length_b   11.10796370
_cell_length_c   6.40389504
_cell_angle_alpha   75.33424138
_cell_angle_beta   59.63870784
_cell_angle_gamma   91.83004139
_symmetry_Int_Tables_number   1
_chemical_formula_structural   Mn5O3F5
_chemical_formula_sum   'Mn10 O6 F10'
_cell_volume   373.21660316
_cell_formula_units_Z   2
loop_
 _symmetry_equiv_pos_site_id
 _symmetry_equiv_pos_as_xyz
  1  'x, y, z'
loop_
 _atom_site_type_symbol
 _atom_site_label
 _atom_site_symmetry_multiplicity
 _atom_site_fract_x
 _atom_site_fract_y
 _atom_site_fract_z
 _atom_site_occupancy
  Mn  Mn0  1  0.55617900  0.19222000  0.36391000  1
  Mn  Mn1  1  0.05506500  0.69014700  0.36498200  1
  Mn  Mn2  1  0.46813600  0.48172400  0.98647400  1
  Mn  Mn3  1  0.96779900  0.98202500  0.98581300  1
  Mn  Mn4  1  0.32911400  0.94200500  0.38713600  1
  Mn  Mn5  1  0.82962300  0.44141100  0.38823900  1
  Mn  Mn6  1  0.07673100  0.18498300  0.38105300  1
  Mn  Mn7  1  0.57701200  0.68621000  0.38073100  1
  Mn  Mn8  1  0.56609700  0.18498700  0.89169000  1
  Mn  Mn9  1  0.06693400  0.68620200  0.89083900  1
  O  O10  1  0.63987400  0.05412900  0.14835100  1
  O  O11  1  0.13802800  0.55459600  0.14848300  1
  O  O12  1  0.43000800  0.29299700  0.13699100  1
  O  O13  1  0.93114100  0.79348000  0.13773100  1
  O  O14  1  0.20248800  0.05412100  0.58576800  1
  O  O15  1  0.70301300  0.55458800  0.58348300  1
  F  F16  1  0.17942400  0.06578300  0.11365200  1
  F  F17  1  0.68154600  0.56524400  0.11624000  1
  F  F18  1  0.92524200  0.30541000  0.61968000  1
  F  F19  1  0.42451300  0.80615600  0.61836300  1
  F  F20  1  0.91908200  0.32075800  0.18777000  1
  F  F21  1  0.41809100  0.82045700  0.18776000  1
  F  F22  1  0.69478800  0.09832400  0.59633100  1
  F  F23  1  0.19537700  0.59829000  0.59703200  1
  F  F24  1  0.50854600  0.32070800  0.59844000  1
  F  F25  1  0.00816500  0.82039200  0.59773500  1
