# generated using pymatgen
data_CaMn3V4O12
_symmetry_space_group_name_H-M   'P 1'
_cell_length_a   7.51546071
_cell_length_b   7.55078475
_cell_length_c   7.55473240
_cell_angle_alpha   89.84007394
_cell_angle_beta   90.07987907
_cell_angle_gamma   89.92241920
_symmetry_Int_Tables_number   1
_chemical_formula_structural   CaMn3V4O12
_chemical_formula_sum   'Ca2 Mn6 V8 O24'
_cell_volume   428.71064727
_cell_formula_units_Z   2
loop_
 _symmetry_equiv_pos_site_id
 _symmetry_equiv_pos_as_xyz
  1  'x, y, z'
loop_
 _atom_site_type_symbol
 _atom_site_label
 _atom_site_symmetry_multiplicity
 _atom_site_fract_x
 _atom_site_fract_y
 _atom_site_fract_z
 _atom_site_occupancy
  Ca  Ca0  1  0.00175900  0.00101100  0.99916800  1
  Ca  Ca1  1  0.49809000  0.49911000  0.50062000  1
  Mn  Mn2  1  0.49268200  0.99957400  0.49973500  1
  Mn  Mn3  1  0.99959700  0.99859700  0.50030300  1
  Mn  Mn4  1  0.50078200  0.49922000  0.99944000  1
  Mn  Mn5  1  0.50021200  0.00010300  0.99894300  1
  Mn  Mn6  1  0.99961100  0.49985300  0.50215400  1
  Mn  Mn7  1  0.00101100  0.50057800  0.00036800  1
  V  V8  1  0.24920100  0.25056400  0.24969700  1
  V  V9  1  0.75019100  0.75023900  0.75026700  1
  V  V10  1  0.25062900  0.74995000  0.75030000  1
  V  V11  1  0.74900100  0.24937000  0.25020800  1
  V  V12  1  0.74977900  0.24986400  0.74978200  1
  V  V13  1  0.25014000  0.74951000  0.24979000  1
  V  V14  1  0.25002900  0.25013300  0.75009400  1
  V  V15  1  0.74989500  0.74994600  0.25006500  1
  O  O16  1  0.20395100  0.30636200  0.50846700  1
  O  O17  1  0.70377000  0.80530800  0.00883200  1
  O  O18  1  0.70295600  0.19000100  0.99864400  1
  O  O19  1  0.20203200  0.68883700  0.50036700  1
  O  O20  1  0.79688300  0.31030100  0.50132000  1
  O  O21  1  0.29765100  0.81144800  0.99956800  1
  O  O22  1  0.29585200  0.19395300  0.99152900  1
  O  O23  1  0.79726500  0.69538400  0.49105500  1
  O  O24  1  0.50262200  0.20574400  0.68806200  1
  O  O25  1  0.00507100  0.70655500  0.18798900  1
  O  O26  1  0.99197900  0.70619200  0.80680600  1
  O  O27  1  0.49293100  0.20696300  0.30545300  1
  O  O28  1  0.50763600  0.79262100  0.69379200  1
  O  O29  1  0.00843500  0.29424900  0.19340500  1
  O  O30  1  0.99716100  0.29596000  0.81298600  1
  O  O31  1  0.49590100  0.79189800  0.31059700  1
  O  O32  1  0.30172100  0.50776400  0.79486400  1
  O  O33  1  0.80336900  0.00838300  0.29274100  1
  O  O34  1  0.19116300  0.00028700  0.29911300  1
  O  O35  1  0.69008200  0.50049600  0.79665300  1
  O  O36  1  0.31073800  0.49949500  0.20156800  1
  O  O37  1  0.81080400  0.99994600  0.70413300  1
  O  O38  1  0.19773300  0.99228300  0.70591300  1
  O  O39  1  0.69968700  0.49194800  0.20521200  1
