# generated using pymatgen
data_NaNiO2
_symmetry_space_group_name_H-M   'P 1'
_cell_length_a   3.04396581
_cell_length_b   8.48151177
_cell_length_c   6.36433919
_cell_angle_alpha   85.08521429
_cell_angle_beta   89.99643493
_cell_angle_gamma   90.01821891
_symmetry_Int_Tables_number   1
_chemical_formula_structural   NaNiO2
_chemical_formula_sum   'Na4 Ni4 O8'
_cell_volume   163.70674922
_cell_formula_units_Z   4
loop_
 _symmetry_equiv_pos_site_id
 _symmetry_equiv_pos_as_xyz
  1  'x, y, z'
loop_
 _atom_site_type_symbol
 _atom_site_label
 _atom_site_symmetry_multiplicity
 _atom_site_fract_x
 _atom_site_fract_y
 _atom_site_fract_z
 _atom_site_occupancy
  Na  Na0  1  0.99971300  0.49954600  0.00028600  1
  Na  Na1  1  0.49964800  0.75041700  0.74968100  1
  Na  Na2  1  0.99959500  0.99948800  0.50026900  1
  Na  Na3  1  0.49959200  0.25042800  0.24978500  1
  Ni  Ni4  1  0.00079300  0.49996900  0.50089700  1
  Ni  Ni5  1  0.50069000  0.75003400  0.24907100  1
  Ni  Ni6  1  0.00084500  0.99989600  0.00097900  1
  Ni  Ni7  1  0.50071300  0.25010900  0.74908600  1
  O  O8  1  0.04360600  0.27138900  0.53250300  1
  O  O9  1  0.45537500  0.52196900  0.28384000  1
  O  O10  1  0.04372900  0.77133100  0.03246500  1
  O  O11  1  0.45547600  0.02199900  0.78391300  1
  O  O12  1  0.95579400  0.72823800  0.46625100  1
  O  O13  1  0.54409100  0.97842900  0.21738900  1
  O  O14  1  0.95597400  0.22823100  0.96633400  1
  O  O15  1  0.54436700  0.47852900  0.71725200  1
