# generated using pymatgen
data_Ni(HO)2
_symmetry_space_group_name_H-M   'P 1'
_cell_length_a   3.14699725
_cell_length_b   5.44784697
_cell_length_c   6.72049809
_cell_angle_alpha   92.40588359
_cell_angle_beta   93.77163149
_cell_angle_gamma   90.06927764
_symmetry_Int_Tables_number   1
_chemical_formula_structural   Ni(HO)2
_chemical_formula_sum   'Ni2 H4 O4'
_cell_volume   114.86683611
_cell_formula_units_Z   2
loop_
 _symmetry_equiv_pos_site_id
 _symmetry_equiv_pos_as_xyz
  1  'x, y, z'
loop_
 _atom_site_type_symbol
 _atom_site_label
 _atom_site_symmetry_multiplicity
 _atom_site_fract_x
 _atom_site_fract_y
 _atom_site_fract_z
 _atom_site_occupancy
  Ni  Ni0  1  0.44422800  0.55604300  0.00000600  1
  Ni  Ni1  1  0.94419500  0.05604300  0.99999800  1
  H  H2  1  0.40319800  0.87870500  0.70303700  1
  H  H3  1  0.90319700  0.37869200  0.70302800  1
  H  H4  1  0.98186000  0.73586200  0.29700100  1
  H  H5  1  0.48185600  0.23585000  0.29700300  1
  O  O6  1  0.42363300  0.88132300  0.84740000  1
  O  O7  1  0.92361900  0.38132800  0.84739600  1
  O  O8  1  0.96535100  0.72983700  0.15257100  1
  O  O9  1  0.46534200  0.22984000  0.15256100  1
