# generated using pymatgen
data_Sr2NbCoO6
_symmetry_space_group_name_H-M   'P 1'
_cell_length_a   5.67841959
_cell_length_b   9.81968830
_cell_length_c   9.78421449
_cell_angle_alpha   80.08247484
_cell_angle_beta   90.00223510
_cell_angle_gamma   73.19420528
_symmetry_Int_Tables_number   1
_chemical_formula_structural   Sr2NbCoO6
_chemical_formula_sum   'Sr8 Nb4 Co4 O24'
_cell_volume   513.74625775
_cell_formula_units_Z   4
loop_
 _symmetry_equiv_pos_site_id
 _symmetry_equiv_pos_as_xyz
  1  'x, y, z'
loop_
 _atom_site_type_symbol
 _atom_site_label
 _atom_site_symmetry_multiplicity
 _atom_site_fract_x
 _atom_site_fract_y
 _atom_site_fract_z
 _atom_site_occupancy
  Sr  Sr0  1  0.49951400  0.99814800  0.49681900  1
  Sr  Sr1  1  0.25199400  0.50022700  0.74957600  1
  Sr  Sr2  1  0.00131900  0.99923900  0.00357400  1
  Sr  Sr3  1  0.74956300  0.50207400  0.24976600  1
  Sr  Sr4  1  0.87711900  0.24984900  0.62537900  1
  Sr  Sr5  1  0.62263900  0.75193900  0.87814800  1
  Sr  Sr6  1  0.37674500  0.24792300  0.12535100  1
  Sr  Sr7  1  0.12554400  0.75075900  0.37133300  1
  Nb  Nb8  1  0.31407400  0.37338700  0.43814400  1
  Nb  Nb9  1  0.06273100  0.87504000  0.68751600  1
  Nb  Nb10  1  0.81241100  0.37665300  0.93675300  1
  Nb  Nb11  1  0.56366800  0.87496900  0.18754200  1
  Co  Co12  1  0.68797500  0.62443800  0.56083100  1
  Co  Co13  1  0.43733100  0.12562800  0.81417900  1
  Co  Co14  1  0.18873800  0.62427300  0.06417300  1
  Co  Co15  1  0.93807900  0.12573100  0.31076200  1
  O  O16  1  0.48725900  0.50407500  0.49886700  1
  O  O17  1  0.26242800  0.99957700  0.74988500  1
  O  O18  1  0.99736600  0.49698900  0.99940200  1
  O  O19  1  0.75036000  0.99945300  0.25106900  1
  O  O20  1  0.11906400  0.25612900  0.37355400  1
  O  O21  1  0.88636000  0.75007800  0.62581200  1
  O  O22  1  0.61735000  0.24530000  0.87482800  1
  O  O23  1  0.37713400  0.75015400  0.12397200  1
  O  O24  1  0.00502500  0.00401900  0.49812400  1
  O  O25  1  0.74467600  0.49692100  0.75064600  1
  O  O26  1  0.50084500  0.99917800  0.00054100  1
  O  O27  1  0.24438100  0.50398700  0.24551600  1
  O  O28  1  0.36671300  0.25304900  0.62414400  1
  O  O29  1  0.13389600  0.74613300  0.87714200  1
  O  O30  1  0.87305000  0.24581700  0.12923000  1
  O  O31  1  0.62552600  0.75084000  0.37466600  1
  O  O32  1  0.61971000  0.25322400  0.37551400  1
  O  O33  1  0.38727600  0.75052800  0.62546000  1
  O  O34  1  0.11628400  0.24616000  0.87600900  1
  O  O35  1  0.87476100  0.75045400  0.12410200  1
  O  O36  1  0.98768900  0.50466400  0.49976800  1
  O  O37  1  0.76119800  0.99961700  0.74936500  1
  O  O38  1  0.49981300  0.49378200  0.00107900  1
  O  O39  1  0.25239200  0.99959300  0.25145800  1
