# generated using pymatgen
data_Sr2FeSnO6
_symmetry_space_group_name_H-M   'P 1'
_cell_length_a   4.02989400
_cell_length_b   8.97761435
_cell_length_c   8.11272024
_cell_angle_alpha   63.11098352
_cell_angle_beta   90.00048898
_cell_angle_gamma   90.00088574
_symmetry_Int_Tables_number   1
_chemical_formula_structural   Sr2FeSnO6
_chemical_formula_sum   'Sr4 Fe2 Sn2 O12'
_cell_volume   261.77583906
_cell_formula_units_Z   2
loop_
 _symmetry_equiv_pos_site_id
 _symmetry_equiv_pos_as_xyz
  1  'x, y, z'
loop_
 _atom_site_type_symbol
 _atom_site_label
 _atom_site_symmetry_multiplicity
 _atom_site_fract_x
 _atom_site_fract_y
 _atom_site_fract_z
 _atom_site_occupancy
  Sr  Sr0  1  0.00001600  0.98421900  0.00694800  1
  Sr  Sr1  1  0.00003500  0.98422700  0.50889200  1
  Sr  Sr2  1  0.00001600  0.51577700  0.24116100  1
  Sr  Sr3  1  0.00003500  0.51580100  0.74304100  1
  Fe  Fe4  1  0.50001700  0.75011500  0.87491700  1
  Fe  Fe5  1  0.49959400  0.74983400  0.37487900  1
  Sn  Sn6  1  0.50002300  0.24964600  0.12518800  1
  Sn  Sn7  1  0.50002900  0.25034300  0.62484000  1
  O  O8  1  0.50002300  0.99083200  0.75468000  1
  O  O9  1  0.50002600  0.99081900  0.25454000  1
  O  O10  1  0.50001400  0.50911200  0.99537200  1
  O  O11  1  0.50000300  0.50921500  0.49545900  1
  O  O12  1  0.50001700  0.25000900  0.37499600  1
  O  O13  1  0.50001900  0.25001100  0.87501000  1
  O  O14  1  0.00001500  0.25064000  0.12469900  1
  O  O15  1  0.00001700  0.24938200  0.62531100  1
  O  O16  1  0.50004500  0.74987100  0.11873200  1
  O  O17  1  0.49999700  0.75014200  0.63131000  1
  O  O18  1  0.00002700  0.74999800  0.87501600  1
  O  O19  1  0.00003100  0.75001000  0.37500800  1
