# generated using pymatgen
data_TiFeO4
_symmetry_space_group_name_H-M   'P 1'
_cell_length_a   5.38988000
_cell_length_b   5.50099149
_cell_length_c   5.38223096
_cell_angle_alpha   60.71119460
_cell_angle_beta   90.00003431
_cell_angle_gamma   90.00002396
_symmetry_Int_Tables_number   1
_chemical_formula_structural   TiFeO4
_chemical_formula_sum   'Ti2 Fe2 O8'
_cell_volume   139.18133261
_cell_formula_units_Z   2
loop_
 _symmetry_equiv_pos_site_id
 _symmetry_equiv_pos_as_xyz
  1  'x, y, z'
loop_
 _atom_site_type_symbol
 _atom_site_label
 _atom_site_symmetry_multiplicity
 _atom_site_fract_x
 _atom_site_fract_y
 _atom_site_fract_z
 _atom_site_occupancy
  Ti  Ti0  1  0.24470900  0.50000000  0.50000000  1
  Ti  Ti1  1  0.75528500  0.50000000  0.00000000  1
  Fe  Fe2  1  0.50000300  0.99999900  0.49999800  1
  Fe  Fe3  1  0.00000400  0.00000100  0.00000100  1
  O  O4  1  0.25962800  0.08493500  0.70077200  1
  O  O5  1  0.74035700  0.08493300  0.21428700  1
  O  O6  1  0.25962700  0.91506500  0.29922800  1
  O  O7  1  0.74035700  0.91506700  0.78571300  1
  O  O8  1  0.50000500  0.40292900  0.29853500  1
  O  O9  1  0.00001000  0.41503000  0.79250100  1
  O  O10  1  0.00001000  0.58497000  0.20749900  1
  O  O11  1  0.50000500  0.59707100  0.70146600  1
