# generated using pymatgen
data_Ba2MnNbO6
_symmetry_space_group_name_H-M   'P 1'
_cell_length_a   5.90922518
_cell_length_b   11.77140805
_cell_length_c   8.08142000
_cell_angle_alpha   90.00002964
_cell_angle_beta   90.00000501
_cell_angle_gamma   90.03672155
_symmetry_Int_Tables_number   1
_chemical_formula_structural   Ba2MnNbO6
_chemical_formula_sum   'Ba8 Mn4 Nb4 O24'
_cell_volume   562.14265907
_cell_formula_units_Z   4
loop_
 _symmetry_equiv_pos_site_id
 _symmetry_equiv_pos_as_xyz
  1  'x, y, z'
loop_
 _atom_site_type_symbol
 _atom_site_label
 _atom_site_symmetry_multiplicity
 _atom_site_fract_x
 _atom_site_fract_y
 _atom_site_fract_z
 _atom_site_occupancy
  Ba  Ba0  1  0.01031400  0.49962600  0.00036800  1
  Ba  Ba1  1  0.48949000  0.75038700  0.50037200  1
  Ba  Ba2  1  0.98959100  0.99966200  0.00040700  1
  Ba  Ba3  1  0.51061800  0.25036300  0.50041800  1
  Ba  Ba4  1  0.01031400  0.49962500  0.49963400  1
  Ba  Ba5  1  0.48949000  0.75038800  0.99963000  1
  Ba  Ba6  1  0.98959400  0.99966300  0.49959300  1
  Ba  Ba7  1  0.51061700  0.25036300  0.99958400  1
  Mn  Mn8  1  0.51018700  0.49921700  0.75001200  1
  Mn  Mn9  1  0.98928300  0.75095800  0.24999300  1
  Mn  Mn10  1  0.48972500  0.99904900  0.75000600  1
  Mn  Mn11  1  0.01085400  0.25102900  0.24997500  1
  Nb  Nb12  1  0.51333900  0.50028100  0.25000300  1
  Nb  Nb13  1  0.98656500  0.74972500  0.74999400  1
  Nb  Nb14  1  0.48653000  0.00027400  0.25000000  1
  Nb  Nb15  1  0.01358500  0.24974700  0.74999200  1
  O  O16  1  0.29071600  0.37829400  0.25000100  1
  O  O17  1  0.73094800  0.62628400  0.75000600  1
  O  O18  1  0.22240900  0.87449300  0.24999800  1
  O  O19  1  0.78259600  0.13170800  0.75000100  1
  O  O20  1  0.76876900  0.62376100  0.24999800  1
  O  O21  1  0.20935700  0.87164800  0.75000200  1
  O  O22  1  0.71755800  0.11820900  0.25000100  1
  O  O23  1  0.27744400  0.37547400  0.75000600  1
  O  O24  1  0.51824000  0.49946700  0.50254100  1
  O  O25  1  0.98162500  0.75051400  0.00253400  1
  O  O26  1  0.48165600  0.99940900  0.50253400  1
  O  O27  1  0.01848300  0.25055600  0.00250800  1
  O  O28  1  0.51823800  0.49946800  0.99747200  1
  O  O29  1  0.98162500  0.75051400  0.49746500  1
  O  O30  1  0.48165900  0.99941000  0.99747100  1
  O  O31  1  0.01848500  0.25055700  0.49748000  1
  O  O32  1  0.77762100  0.37464800  0.24999500  1
  O  O33  1  0.21747500  0.63199000  0.75000100  1
  O  O34  1  0.70915700  0.87853600  0.25000100  1
  O  O35  1  0.26918800  0.12639300  0.75000100  1
  O  O36  1  0.28233000  0.61792600  0.25000200  1
  O  O37  1  0.72250400  0.87533200  0.75000200  1
  O  O38  1  0.23104700  0.12364000  0.24999500  1
  O  O39  1  0.79077400  0.37141200  0.75000200  1
