# generated using pymatgen
data_Ba2FeMoO6
_symmetry_space_group_name_H-M   'P 1'
_cell_length_a   5.80002902
_cell_length_b   8.18456460
_cell_length_c   5.79968030
_cell_angle_alpha   89.99713573
_cell_angle_beta   89.98531459
_cell_angle_gamma   90.00546234
_symmetry_Int_Tables_number   1
_chemical_formula_structural   Ba2FeMoO6
_chemical_formula_sum   'Ba4 Fe2 Mo2 O12'
_cell_volume   275.31494367
_cell_formula_units_Z   2
loop_
 _symmetry_equiv_pos_site_id
 _symmetry_equiv_pos_as_xyz
  1  'x, y, z'
loop_
 _atom_site_type_symbol
 _atom_site_label
 _atom_site_symmetry_multiplicity
 _atom_site_fract_x
 _atom_site_fract_y
 _atom_site_fract_z
 _atom_site_occupancy
  Ba  Ba0  1  0.00028200  0.24996300  0.49943600  1
  Ba  Ba1  1  0.49966500  0.75000200  0.00052700  1
  Ba  Ba2  1  0.50035300  0.25000000  0.99946100  1
  Ba  Ba3  1  0.99973300  0.75003900  0.50056800  1
  Fe  Fe4  1  0.50003100  0.50000800  0.49997100  1
  Fe  Fe5  1  0.99989500  0.99998300  0.00006900  1
  Mo  Mo6  1  0.00000100  0.50000000  0.99999900  1
  Mo  Mo7  1  0.50003400  0.00000300  0.50001400  1
  O  O8  1  0.50038700  0.25035500  0.49904000  1
  O  O9  1  0.99972000  0.75040000  0.00067500  1
  O  O10  1  0.00028400  0.24959900  0.99932900  1
  O  O11  1  0.49961600  0.74964700  0.50095000  1
  O  O12  1  0.73755500  0.00003600  0.73772600  1
  O  O13  1  0.25130800  0.50017100  0.25164200  1
  O  O14  1  0.75141400  0.00011300  0.24846600  1
  O  O15  1  0.23774200  0.49950500  0.76242300  1
  O  O16  1  0.26243700  0.99996000  0.26225900  1
  O  O17  1  0.74869700  0.49983100  0.74834700  1
  O  O18  1  0.24859000  0.99988800  0.75153000  1
  O  O19  1  0.76225700  0.50049600  0.23756600  1
