# generated using pymatgen
data_Na4FeO5
_symmetry_space_group_name_H-M   'P 1'
_cell_length_a   5.67801886
_cell_length_b   5.72605597
_cell_length_c   16.16354023
_cell_angle_alpha   95.17650994
_cell_angle_beta   95.35075835
_cell_angle_gamma   79.45123845
_symmetry_Int_Tables_number   1
_chemical_formula_structural   Na4FeO5
_chemical_formula_sum   'Na16 Fe4 O20'
_cell_volume   512.94822111
_cell_formula_units_Z   4
loop_
 _symmetry_equiv_pos_site_id
 _symmetry_equiv_pos_as_xyz
  1  'x, y, z'
loop_
 _atom_site_type_symbol
 _atom_site_label
 _atom_site_symmetry_multiplicity
 _atom_site_fract_x
 _atom_site_fract_y
 _atom_site_fract_z
 _atom_site_occupancy
  Na  Na0  1  0.70531000  0.50305400  0.69259100  1
  Na  Na1  1  0.95721400  0.74640600  0.44754600  1
  Na  Na2  1  0.44176800  0.24622200  0.94582400  1
  Na  Na3  1  0.18074200  0.98721500  0.20224700  1
  Na  Na4  1  0.59564100  0.01600500  0.59678800  1
  Na  Na5  1  0.83703300  0.24581100  0.34851000  1
  Na  Na6  1  0.34234400  0.76050800  0.84716500  1
  Na  Na7  1  0.09082000  0.50285600  0.10568100  1
  Na  Na8  1  0.90200100  0.48990500  0.89586300  1
  Na  Na9  1  0.15561900  0.74770700  0.64304400  1
  Na  Na10  1  0.64679300  0.22954000  0.15312200  1
  Na  Na11  1  0.40203200  0.99851000  0.39826200  1
  Na  Na12  1  0.80982600  0.00901800  0.79905800  1
  Na  Na13  1  0.06879700  0.26084600  0.54929700  1
  Na  Na14  1  0.55355700  0.74427000  0.05666000  1
  Na  Na15  1  0.29665600  0.49650300  0.30096000  1
  Fe  Fe16  1  0.27231400  0.28681900  0.73836100  1
  Fe  Fe17  1  0.52766600  0.53495200  0.48226200  1
  Fe  Fe18  1  0.99762100  0.99535500  0.00056600  1
  Fe  Fe19  1  0.72741400  0.72308100  0.26582800  1
  O  O20  1  0.36176200  0.36531800  0.64728400  1
  O  O21  1  0.62513000  0.62605800  0.37492500  1
  O  O22  1  0.09273500  0.09409400  0.90630300  1
  O  O23  1  0.90114000  0.89970700  0.09500500  1
  O  O24  1  0.51163600  0.36027800  0.81174400  1
  O  O25  1  0.77000300  0.62153300  0.55782700  1
  O  O26  1  0.25677300  0.10498800  0.06258300  1
  O  O27  1  0.99435700  0.85131600  0.31086000  1
  O  O28  1  0.42228500  0.96786700  0.73322600  1
  O  O29  1  0.68727700  0.21892800  0.48224100  1
  O  O30  1  0.18877600  0.69585100  0.98138700  1
  O  O31  1  0.92924700  0.44193000  0.23336100  1
  O  O32  1  0.06014900  0.54884100  0.76782800  1
  O  O33  1  0.32001500  0.80609900  0.51659500  1
  O  O34  1  0.80684700  0.29603400  0.01956700  1
  O  O35  1  0.55332600  0.03227600  0.26759100  1
  O  O36  1  0.01658800  0.13777500  0.69379700  1
  O  O37  1  0.26506900  0.39103200  0.44001200  1
  O  O38  1  0.73961700  0.88681200  0.93763400  1
  O  O39  1  0.48609900  0.62868100  0.19059300  1
