# generated using pymatgen
data_Ba2LaMn2O7
_symmetry_space_group_name_H-M   'P 1'
_cell_length_a   4.06511500
_cell_length_b   10.85329457
_cell_length_c   7.87580200
_cell_angle_alpha   79.54698101
_cell_angle_beta   90.00364511
_cell_angle_gamma   100.79479065
_symmetry_Int_Tables_number   1
_chemical_formula_structural   Ba2LaMn2O7
_chemical_formula_sum   'Ba4 La2 Mn4 O14'
_cell_volume   335.45894508
_cell_formula_units_Z   2
loop_
 _symmetry_equiv_pos_site_id
 _symmetry_equiv_pos_as_xyz
  1  'x, y, z'
loop_
 _atom_site_type_symbol
 _atom_site_label
 _atom_site_symmetry_multiplicity
 _atom_site_fract_x
 _atom_site_fract_y
 _atom_site_fract_z
 _atom_site_occupancy
  Ba  Ba0  1  0.68153400  0.36307400  0.15920500  1
  Ba  Ba1  1  0.68151800  0.36305800  0.65925300  1
  Ba  Ba2  1  0.31846600  0.63692500  0.84079500  1
  Ba  Ba3  1  0.31848100  0.63694100  0.34074900  1
  La  La4  1  0.49999600  0.00000200  0.24998600  1
  La  La5  1  0.49999800  0.99999800  0.75001500  1
  Mn  Mn6  1  0.90693800  0.81386700  0.04652200  1
  Mn  Mn7  1  0.09306200  0.18612800  0.95347800  1
  Mn  Mn8  1  0.90690900  0.81381000  0.54654500  1
  Mn  Mn9  1  0.09309700  0.18620000  0.45345200  1
  O  O10  1  0.00000100  0.00000100  0.50000100  1
  O  O11  1  0.00000000  0.99999900  0.00000000  1
  O  O12  1  0.81380400  0.62758600  0.09308500  1
  O  O13  1  0.81380200  0.62757900  0.59309700  1
  O  O14  1  0.18619700  0.37241300  0.90691600  1
  O  O15  1  0.18619900  0.37242100  0.40690300  1
  O  O16  1  0.41355800  0.82710500  0.04319800  1
  O  O17  1  0.41355500  0.82709900  0.54320400  1
  O  O18  1  0.91390200  0.82780800  0.79319400  1
  O  O19  1  0.91390400  0.82781000  0.29290700  1
  O  O20  1  0.58644200  0.17289400  0.95680200  1
  O  O21  1  0.58644600  0.17290200  0.45679500  1
  O  O22  1  0.08609700  0.17219000  0.20678700  1
  O  O23  1  0.08609500  0.17218900  0.70711200  1
