# generated using pymatgen
data_CrO2
_symmetry_space_group_name_H-M   'P 1'
_cell_length_a   4.47134300
_cell_length_b   4.47134300
_cell_length_c   5.99035200
_cell_angle_alpha   89.99991374
_cell_angle_beta   89.99983703
_cell_angle_gamma   90.00189647
_symmetry_Int_Tables_number   1
_chemical_formula_structural   CrO2
_chemical_formula_sum   'Cr4 O8'
_cell_volume   119.76455773
_cell_formula_units_Z   4
loop_
 _symmetry_equiv_pos_site_id
 _symmetry_equiv_pos_as_xyz
  1  'x, y, z'
loop_
 _atom_site_type_symbol
 _atom_site_label
 _atom_site_symmetry_multiplicity
 _atom_site_fract_x
 _atom_site_fract_y
 _atom_site_fract_z
 _atom_site_occupancy
  Cr  Cr0  1  0.50000000  0.50000000  0.74423500  1
  Cr  Cr1  1  0.00000200  0.00000200  0.50576400  1
  Cr  Cr2  1  0.50000000  0.50000000  0.24421400  1
  Cr  Cr3  1  0.99999900  0.99999900  0.00578400  1
  O  O4  1  0.20170600  0.79829400  0.25181700  1
  O  O5  1  0.20170800  0.79829100  0.75180500  1
  O  O6  1  0.79829400  0.20170600  0.25181700  1
  O  O7  1  0.79829100  0.20170900  0.75180500  1
  O  O8  1  0.29829800  0.29829800  0.99818400  1
  O  O9  1  0.29829700  0.29829700  0.49819400  1
  O  O10  1  0.70170200  0.70170200  0.99818600  1
  O  O11  1  0.70170300  0.70170300  0.49819600  1
