# generated using pymatgen
data_SrMn2BiO6
_symmetry_space_group_name_H-M   'P 1'
_cell_length_a   5.68941247
_cell_length_b   9.59788268
_cell_length_c   5.55730016
_cell_angle_alpha   89.35656843
_cell_angle_beta   121.04427915
_cell_angle_gamma   74.06699192
_symmetry_Int_Tables_number   1
_chemical_formula_structural   SrMn2BiO6
_chemical_formula_sum   'Sr2 Mn4 Bi2 O12'
_cell_volume   245.67254120
_cell_formula_units_Z   2
loop_
 _symmetry_equiv_pos_site_id
 _symmetry_equiv_pos_as_xyz
  1  'x, y, z'
loop_
 _atom_site_type_symbol
 _atom_site_label
 _atom_site_symmetry_multiplicity
 _atom_site_fract_x
 _atom_site_fract_y
 _atom_site_fract_z
 _atom_site_occupancy
  Sr  Sr0  1  0.01653100  0.98878100  0.04152300  1
  Sr  Sr1  1  0.04081400  0.48428300  0.54776800  1
  Mn  Mn2  1  0.77542600  0.85668200  0.42536800  1
  Mn  Mn3  1  0.30458800  0.60978800  0.18662000  1
  Mn  Mn4  1  0.78246200  0.35518000  0.92995800  1
  Mn  Mn5  1  0.28037400  0.10791800  0.68294700  1
  Bi  Bi6  1  0.45657500  0.76916400  0.75048400  1
  Bi  Bi7  1  0.45859200  0.27057000  0.24870500  1
  O  O8  1  0.48479300  0.95734000  0.03136400  1
  O  O9  1  0.51562400  0.45784300  0.54174300  1
  O  O10  1  0.10188500  0.74316400  0.82975500  1
  O  O11  1  0.08871000  0.24283600  0.32347400  1
  O  O12  1  0.51024800  0.97005000  0.57421600  1
  O  O13  1  0.55634600  0.46598700  0.07662600  1
  O  O14  1  0.08380900  0.73018000  0.31754900  1
  O  O15  1  0.05928500  0.23228500  0.82679700  1
  O  O16  1  0.59555400  0.70663400  0.37520500  1
  O  O17  1  0.55133800  0.20933200  0.85668300  1
  O  O18  1  0.01466100  0.98293100  0.51882200  1
  O  O19  1  0.07124100  0.48462000  0.03768100  1
