# generated using pymatgen
data_FeBO3
_symmetry_space_group_name_H-M   'P 1'
_cell_length_a   4.99805430
_cell_length_b   7.38751429
_cell_length_c   7.38774594
_cell_angle_alpha   108.32990118
_cell_angle_beta   70.59003088
_cell_angle_gamma   109.41150467
_symmetry_Int_Tables_number   1
_chemical_formula_structural   FeBO3
_chemical_formula_sum   'Fe4 B4 O12'
_cell_volume   236.18171737
_cell_formula_units_Z   4
loop_
 _symmetry_equiv_pos_site_id
 _symmetry_equiv_pos_as_xyz
  1  'x, y, z'
loop_
 _atom_site_type_symbol
 _atom_site_label
 _atom_site_symmetry_multiplicity
 _atom_site_fract_x
 _atom_site_fract_y
 _atom_site_fract_z
 _atom_site_occupancy
  Fe  Fe0  1  0.75013000  0.75024400  0.24967400  1
  Fe  Fe1  1  0.49985700  0.49968500  0.50026900  1
  Fe  Fe2  1  0.25012800  0.25024200  0.74968200  1
  Fe  Fe3  1  0.99986300  0.99967900  0.00027500  1
  B  B4  1  0.87499900  0.20825600  0.45827100  1
  B  B5  1  0.37500200  0.70824800  0.95826400  1
  B  B6  1  0.62500800  0.29173000  0.04170400  1
  B  B7  1  0.12500800  0.79173800  0.54170300  1
  O  O8  1  0.87508800  0.04859000  0.29861900  1
  O  O9  1  0.37509600  0.54859600  0.79859700  1
  O  O10  1  0.62491100  0.45144200  0.20141000  1
  O  O11  1  0.12489700  0.95142100  0.70141900  1
  O  O12  1  0.63484100  0.28706400  0.53850200  1
  O  O13  1  0.13484000  0.78704900  0.03850600  1
  O  O14  1  0.61505100  0.78859400  0.03717200  1
  O  O15  1  0.11506000  0.28860500  0.53716900  1
  O  O16  1  0.38470400  0.21135200  0.96294100  1
  O  O17  1  0.88471100  0.71135700  0.46292300  1
  O  O18  1  0.36540900  0.71305800  0.46144000  1
  O  O19  1  0.86539900  0.21305200  0.96146000  1
