# generated using pymatgen
data_KCoO2
_symmetry_space_group_name_H-M   'P 1'
_cell_length_a   6.49864075
_cell_length_b   6.48901959
_cell_length_c   6.93274640
_cell_angle_alpha   73.23963257
_cell_angle_beta   76.34527683
_cell_angle_gamma   104.63457160
_symmetry_Int_Tables_number   1
_chemical_formula_structural   KCoO2
_chemical_formula_sum   'K4 Co4 O8'
_cell_volume   255.34971720
_cell_formula_units_Z   4
loop_
 _symmetry_equiv_pos_site_id
 _symmetry_equiv_pos_as_xyz
  1  'x, y, z'
loop_
 _atom_site_type_symbol
 _atom_site_label
 _atom_site_symmetry_multiplicity
 _atom_site_fract_x
 _atom_site_fract_y
 _atom_site_fract_z
 _atom_site_occupancy
  K  K0  1  0.72915500  0.65347100  0.73468000  1
  K  K1  1  0.22913900  0.65352000  0.73477700  1
  K  K2  1  0.27086900  0.34648200  0.26522100  1
  K  K3  1  0.77083600  0.34653800  0.26532000  1
  Co  Co4  1  0.91951400  0.89022700  0.21125400  1
  Co  Co5  1  0.08044600  0.10977700  0.78882800  1
  Co  Co6  1  0.41953800  0.89018900  0.21121400  1
  Co  Co7  1  0.58050200  0.10979900  0.78870300  1
  O  O8  1  0.04557600  0.20652500  0.02565000  1
  O  O9  1  0.54560700  0.20647600  0.02560800  1
  O  O10  1  0.95438800  0.79351100  0.97439900  1
  O  O11  1  0.45442900  0.79348100  0.97434200  1
  O  O12  1  0.88401200  0.18147600  0.64701500  1
  O  O13  1  0.38399500  0.18150400  0.64703200  1
  O  O14  1  0.11601700  0.81850200  0.35296700  1
  O  O15  1  0.61597600  0.81852100  0.35298800  1
