# generated using pymatgen
data_AlV2O4
_symmetry_space_group_name_H-M   'P 1'
_cell_length_a   5.89281210
_cell_length_b   5.98038153
_cell_length_c   10.41105493
_cell_angle_alpha   71.95306971
_cell_angle_beta   90.00546046
_cell_angle_gamma   119.49213004
_symmetry_Int_Tables_number   1
_chemical_formula_structural   AlV2O4
_chemical_formula_sum   'Al4 V8 O16'
_cell_volume   298.45184942
_cell_formula_units_Z   4
loop_
 _symmetry_equiv_pos_site_id
 _symmetry_equiv_pos_as_xyz
  1  'x, y, z'
loop_
 _atom_site_type_symbol
 _atom_site_label
 _atom_site_symmetry_multiplicity
 _atom_site_fract_x
 _atom_site_fract_y
 _atom_site_fract_z
 _atom_site_occupancy
  Al  Al0  1  0.68934000  0.37876600  0.93606800  1
  Al  Al1  1  0.18265800  0.36542300  0.44299200  1
  Al  Al2  1  0.81734800  0.63463200  0.55734400  1
  Al  Al3  1  0.31134700  0.62257500  0.06414000  1
  V  V4  1  0.75425000  0.50861400  0.24861700  1
  V  V5  1  0.24468200  0.48953800  0.75245600  1
  V  V6  1  0.73983200  0.00167200  0.25047600  1
  V  V7  1  0.26068400  0.99791200  0.74936700  1
  V  V8  1  0.26184600  0.00178200  0.25049100  1
  V  V9  1  0.73751200  0.99793000  0.74939200  1
  V  V10  1  0.50023200  0.00059000  0.49959500  1
  V  V11  1  0.00065700  0.00140600  0.99941900  1
  O  O12  1  0.88032800  0.76055000  0.37222200  1
  O  O13  1  0.36867500  0.73716400  0.87846900  1
  O  O14  1  0.63105600  0.26234600  0.12156200  1
  O  O15  1  0.11951100  0.23904000  0.62819000  1
  O  O16  1  0.86451400  0.24227000  0.87616200  1
  O  O17  1  0.37168300  0.24369000  0.38017600  1
  O  O18  1  0.12842800  0.75484400  0.62027100  1
  O  O19  1  0.62374600  0.75865000  0.12327500  1
  O  O20  1  0.63057700  0.26094900  0.61678600  1
  O  O21  1  0.12396200  0.24788400  0.12701600  1
  O  O22  1  0.37777300  0.24227800  0.87615800  1
  O  O23  1  0.87195200  0.24363600  0.38023500  1
  O  O24  1  0.62642600  0.75486600  0.62028800  1
  O  O25  1  0.13500000  0.75870500  0.12327300  1
  O  O26  1  0.87664100  0.75328000  0.87267900  1
  O  O27  1  0.36933700  0.73900700  0.38288300  1
