# generated using pymatgen
data_Cd(FeO2)2
_symmetry_space_group_name_H-M   'P 1'
_cell_length_a   6.15467213
_cell_length_b   6.15396728
_cell_length_c   6.06556774
_cell_angle_alpha   59.91400070
_cell_angle_beta   59.92401299
_cell_angle_gamma   59.24028449
_symmetry_Int_Tables_number   1
_chemical_formula_structural   Cd(FeO2)2
_chemical_formula_sum   'Cd2 Fe4 O8'
_cell_volume   161.29990955
_cell_formula_units_Z   2
loop_
 _symmetry_equiv_pos_site_id
 _symmetry_equiv_pos_as_xyz
  1  'x, y, z'
loop_
 _atom_site_type_symbol
 _atom_site_label
 _atom_site_symmetry_multiplicity
 _atom_site_fract_x
 _atom_site_fract_y
 _atom_site_fract_z
 _atom_site_occupancy
  Cd  Cd0  1  0.12416100  0.12418100  0.12882600  1
  Cd  Cd1  1  0.87584600  0.87581800  0.87116200  1
  Fe  Fe2  1  0.50001400  0.00000300  0.49999100  1
  Fe  Fe3  1  0.99998800  0.50000800  0.49997800  1
  Fe  Fe4  1  0.50001700  0.49998100  0.00003600  1
  Fe  Fe5  1  0.49999800  0.50000200  0.50001100  1
  O  O6  1  0.72601600  0.72557900  0.73936500  1
  O  O7  1  0.25809600  0.25777500  0.69524400  1
  O  O8  1  0.26719200  0.69023600  0.27329000  1
  O  O9  1  0.69047100  0.26684300  0.27370600  1
  O  O10  1  0.73279000  0.30977200  0.72672100  1
  O  O11  1  0.30954600  0.73313800  0.72632600  1
  O  O12  1  0.27398700  0.27441000  0.26063500  1
  O  O13  1  0.74187700  0.74225400  0.30470800  1
