# generated using pymatgen
data_SrYCoO4
_symmetry_space_group_name_H-M   'P 1'
_cell_length_a   5.42303537
_cell_length_b   6.70948485
_cell_length_c   10.16962522
_cell_angle_alpha   76.61061277
_cell_angle_beta   89.40385179
_cell_angle_gamma   90.25804194
_symmetry_Int_Tables_number   1
_chemical_formula_structural   SrYCoO4
_chemical_formula_sum   'Sr4 Y4 Co4 O16'
_cell_volume   359.94325130
_cell_formula_units_Z   4
loop_
 _symmetry_equiv_pos_site_id
 _symmetry_equiv_pos_as_xyz
  1  'x, y, z'
loop_
 _atom_site_type_symbol
 _atom_site_label
 _atom_site_symmetry_multiplicity
 _atom_site_fract_x
 _atom_site_fract_y
 _atom_site_fract_z
 _atom_site_occupancy
  Sr  Sr0  1  0.00670900  0.46999200  0.82320700  1
  Sr  Sr1  1  0.00225000  0.96158900  0.32327700  1
  Sr  Sr2  1  0.49346500  0.71911200  0.57191200  1
  Sr  Sr3  1  0.49711800  0.21809300  0.07120000  1
  Y  Y4  1  0.52419100  0.78126300  0.94521800  1
  Y  Y5  1  0.52258600  0.27832100  0.43889700  1
  Y  Y6  1  0.97736700  0.05828600  0.66337300  1
  Y  Y7  1  0.97726500  0.54934700  0.17268000  1
  Co  Co8  1  0.50065200  0.25208700  0.74943800  1
  Co  Co9  1  0.00077300  0.50364600  0.49919100  1
  Co  Co10  1  0.49564600  0.75155500  0.25296500  1
  Co  Co11  1  0.00237200  0.99819600  0.99916500  1
  O  O12  1  0.95861700  0.73242300  0.94602100  1
  O  O13  1  0.93865100  0.22587900  0.43570100  1
  O  O14  1  0.54883600  0.03081600  0.64075500  1
  O  O15  1  0.54682900  0.52526400  0.15144600  1
  O  O16  1  0.48561100  0.52182400  0.84388000  1
  O  O17  1  0.47428100  0.01215100  0.33839700  1
  O  O18  1  0.02449700  0.77644200  0.59334900  1
  O  O19  1  0.01688000  0.26729300  0.08574000  1
  O  O20  1  0.76141000  0.10129000  0.86942300  1
  O  O21  1  0.75461100  0.60937500  0.37435000  1
  O  O22  1  0.24367300  0.35906900  0.61383900  1
  O  O23  1  0.24352400  0.85655600  0.11636600  1
  O  O24  1  0.74194900  0.88527700  0.13211900  1
  O  O25  1  0.75034200  0.39330500  0.63139400  1
  O  O26  1  0.26376100  0.08742600  0.85936100  1
  O  O27  1  0.24613200  0.57412000  0.35733600  1
