# generated using pymatgen
data_MgV2O4
_symmetry_space_group_name_H-M   'P 1'
_cell_length_a   6.04518388
_cell_length_b   10.49632387
_cell_length_c   6.05778819
_cell_angle_alpha   73.13344257
_cell_angle_beta   60.04156555
_cell_angle_gamma   90.05496694
_symmetry_Int_Tables_number   1
_chemical_formula_structural   MgV2O4
_chemical_formula_sum   'Mg4 V8 O16'
_cell_volume   313.72705059
_cell_formula_units_Z   4
loop_
 _symmetry_equiv_pos_site_id
 _symmetry_equiv_pos_as_xyz
  1  'x, y, z'
loop_
 _atom_site_type_symbol
 _atom_site_label
 _atom_site_symmetry_multiplicity
 _atom_site_fract_x
 _atom_site_fract_y
 _atom_site_fract_z
 _atom_site_occupancy
  Mg  Mg0  1  0.00319400  0.00084300  0.99366000  1
  Mg  Mg1  1  0.50334600  0.50078400  0.99340100  1
  Mg  Mg2  1  0.93989900  0.31320000  0.11964400  1
  Mg  Mg3  1  0.43993300  0.81305200  0.12014400  1
  V  V4  1  0.93220500  0.81277900  0.62805900  1
  V  V5  1  0.68557100  0.06040700  0.62951900  1
  V  V6  1  0.43964200  0.81259300  0.62811100  1
  V  V7  1  0.37045500  0.12287700  0.25910000  1
  V  V8  1  0.87004000  0.62314800  0.25972200  1
  V  V9  1  0.43262800  0.31264800  0.62773400  1
  V  V10  1  0.18511300  0.56028700  0.62871200  1
  V  V11  1  0.94003600  0.31271800  0.62714200  1
  O  O12  1  0.57220700  0.19244000  0.86030100  1
  O  O13  1  0.06969400  0.69287800  0.86025700  1
  O  O14  1  0.29752500  0.43125300  0.40022200  1
  O  O15  1  0.79966300  0.93095700  0.40073200  1
  O  O16  1  0.56886200  0.19024900  0.39076700  1
  O  O17  1  0.06953900  0.68893400  0.38985300  1
  O  O18  1  0.80650400  0.42630700  0.38673800  1
  O  O19  1  0.30717700  0.92574200  0.38609600  1
  O  O20  1  0.04094300  0.18937700  0.38812800  1
  O  O21  1  0.54133900  0.68937200  0.38886300  1
  O  O22  1  0.84170400  0.43603400  0.85464900  1
  O  O23  1  0.34196600  0.93616700  0.85357000  1
  O  O24  1  0.07083300  0.20155900  0.85944800  1
  O  O25  1  0.56980100  0.70157300  0.85992200  1
  O  O26  1  0.30584300  0.43565100  0.85191100  1
  O  O27  1  0.80432400  0.93616400  0.85359600  1
