# generated using pymatgen
data_Sr2Mn2O5
_symmetry_space_group_name_H-M   'P 1'
_cell_length_a   6.82367356
_cell_length_b   6.82368609
_cell_length_c   6.82367408
_cell_angle_alpha   75.82882520
_cell_angle_beta   65.78636434
_cell_angle_gamma   110.18449407
_symmetry_Int_Tables_number   1
_chemical_formula_structural   Sr2Mn2O5
_chemical_formula_sum   'Sr4 Mn4 O10'
_cell_volume   242.70366508
_cell_formula_units_Z   2
loop_
 _symmetry_equiv_pos_site_id
 _symmetry_equiv_pos_as_xyz
  1  'x, y, z'
loop_
 _atom_site_type_symbol
 _atom_site_label
 _atom_site_symmetry_multiplicity
 _atom_site_fract_x
 _atom_site_fract_y
 _atom_site_fract_z
 _atom_site_occupancy
  Sr  Sr0  1  0.99998500  0.00000100  0.99999800  1
  Sr  Sr1  1  0.50000800  0.00000700  0.50000700  1
  Sr  Sr2  1  0.49998700  0.50000400  0.00001400  1
  Sr  Sr3  1  0.99998700  0.49996900  0.50000900  1
  Mn  Mn4  1  0.99999000  0.49998300  0.00001900  1
  Mn  Mn5  1  0.00001400  0.00001000  0.50000000  1
  Mn  Mn6  1  0.49995100  0.49995900  0.50000600  1
  Mn  Mn7  1  0.50008500  0.00003000  0.99992600  1
  O  O8  1  0.24998900  0.99997900  0.25000100  1
  O  O9  1  0.74999000  0.99998000  0.75000600  1
  O  O10  1  0.74345000  0.74343700  0.49999700  1
  O  O11  1  0.24343100  0.74344500  0.00001200  1
  O  O12  1  0.75658200  0.25659100  0.00001200  1
  O  O13  1  0.25659900  0.25658700  0.49999400  1
  O  O14  1  0.99999700  0.72697600  0.77302600  1
  O  O15  1  0.49997900  0.72694900  0.27305800  1
  O  O16  1  0.49998000  0.27303600  0.72697300  1
  O  O17  1  0.99999600  0.27305700  0.22694300  1
