# generated using pymatgen
data_SrLaCoO4
_symmetry_space_group_name_H-M   'P 1'
_cell_length_a   5.44911835
_cell_length_b   5.43894944
_cell_length_c   7.01524399
_cell_angle_alpha   89.99733647
_cell_angle_beta   112.84969693
_cell_angle_gamma   90.01551616
_symmetry_Int_Tables_number   1
_chemical_formula_structural   SrLaCoO4
_chemical_formula_sum   'Sr2 La2 Co2 O8'
_cell_volume   191.59842795
_cell_formula_units_Z   2
loop_
 _symmetry_equiv_pos_site_id
 _symmetry_equiv_pos_as_xyz
  1  'x, y, z'
loop_
 _atom_site_type_symbol
 _atom_site_label
 _atom_site_symmetry_multiplicity
 _atom_site_fract_x
 _atom_site_fract_y
 _atom_site_fract_z
 _atom_site_occupancy
  Sr  Sr0  1  0.14439100  0.50005500  0.28874100  1
  Sr  Sr1  1  0.35554700  0.99999600  0.71114300  1
  La  La2  1  0.64209200  0.00118100  0.28154600  1
  La  La3  1  0.85861600  0.50082400  0.71859200  1
  Co  Co4  1  0.00670000  0.00016100  0.01318400  1
  Co  Co5  1  0.49314900  0.50020700  0.98647300  1
  O  O6  1  0.82070900  0.99774200  0.64134400  1
  O  O7  1  0.67969700  0.49728300  0.35904000  1
  O  O8  1  0.33673000  0.50080600  0.67130500  1
  O  O9  1  0.16205600  0.00079300  0.32863100  1
  O  O10  1  0.23627600  0.24319900  0.99319400  1
  O  O11  1  0.75721300  0.75718200  0.99410200  1
  O  O12  1  0.26411600  0.74316300  0.00722900  1
  O  O13  1  0.74270800  0.25740800  0.00547600  1
