# generated using pymatgen
data_SrLaTiMnO6
_symmetry_space_group_name_H-M   'P 1'
_cell_length_a   5.68391505
_cell_length_b   9.66826267
_cell_length_c   5.59026491
_cell_angle_alpha   72.16516837
_cell_angle_beta   59.74165405
_cell_angle_gamma   72.94995658
_symmetry_Int_Tables_number   1
_chemical_formula_structural   SrLaTiMnO6
_chemical_formula_sum   'Sr2 La2 Ti2 Mn2 O12'
_cell_volume   248.97129423
_cell_formula_units_Z   2
loop_
 _symmetry_equiv_pos_site_id
 _symmetry_equiv_pos_as_xyz
  1  'x, y, z'
loop_
 _atom_site_type_symbol
 _atom_site_label
 _atom_site_symmetry_multiplicity
 _atom_site_fract_x
 _atom_site_fract_y
 _atom_site_fract_z
 _atom_site_occupancy
  Sr  Sr0  1  0.86789900  0.37397900  0.87611500  1
  Sr  Sr1  1  0.38643800  0.87498800  0.37452300  1
  La  La2  1  0.63368800  0.12109300  0.62578100  1
  La  La3  1  0.11350200  0.61919400  0.12768700  1
  Ti  Ti4  1  0.48809800  0.49798000  0.50660700  1
  Ti  Ti5  1  0.01291600  0.99763100  0.99580000  1
  Mn  Mn6  1  0.25055000  0.24954300  0.25090600  1
  Mn  Mn7  1  0.75007100  0.75021300  0.74950000  1
  O  O8  1  0.96168800  0.87079200  0.83891300  1
  O  O9  1  0.40058100  0.38453000  0.31452200  1
  O  O10  1  0.40425400  0.88667900  0.91254100  1
  O  O11  1  0.83427200  0.37782400  0.43542600  1
  O  O12  1  0.83975200  0.87820600  0.37678200  1
  O  O13  1  0.31069700  0.37245900  0.87507900  1
  O  O14  1  0.09744900  0.61916500  0.56908000  1
  O  O15  1  0.66798400  0.12368900  0.04102200  1
  O  O16  1  0.67246500  0.62710100  0.12660100  1
  O  O17  1  0.20606300  0.12750200  0.62191400  1
  O  O18  1  0.52274100  0.62628000  0.68375100  1
  O  O19  1  0.07888700  0.12115000  0.19744600  1
