# generated using pymatgen
data_LiCoAsO4
_symmetry_space_group_name_H-M   'P 1'
_cell_length_a   4.94429066
_cell_length_b   6.06249634
_cell_length_c   10.38571756
_cell_angle_alpha   90.31333375
_cell_angle_beta   90.64319614
_cell_angle_gamma   89.98191674
_symmetry_Int_Tables_number   1
_chemical_formula_structural   LiCoAsO4
_chemical_formula_sum   'Li4 Co4 As4 O16'
_cell_volume   311.28494493
_cell_formula_units_Z   4
loop_
 _symmetry_equiv_pos_site_id
 _symmetry_equiv_pos_as_xyz
  1  'x, y, z'
loop_
 _atom_site_type_symbol
 _atom_site_label
 _atom_site_symmetry_multiplicity
 _atom_site_fract_x
 _atom_site_fract_y
 _atom_site_fract_z
 _atom_site_occupancy
  Li  Li0  1  0.99968900  0.99767500  0.99766900  1
  Li  Li1  1  0.49569000  0.99942200  0.50251600  1
  Li  Li2  1  0.99965200  0.50074800  0.99813600  1
  Li  Li3  1  0.49563900  0.50213700  0.50201300  1
  Co  Co4  1  0.01321100  0.75075200  0.72530200  1
  Co  Co5  1  0.98526500  0.24960000  0.27524600  1
  Co  Co6  1  0.48819900  0.75057600  0.22555900  1
  Co  Co7  1  0.51315600  0.24933900  0.77315300  1
  As  As8  1  0.05869100  0.25348100  0.59429700  1
  As  As9  1  0.44104300  0.24966100  0.09422500  1
  As  As10  1  0.93584000  0.75028000  0.40986300  1
  As  As11  1  0.56597700  0.74661200  0.90206500  1
  O  O12  1  0.77406300  0.53044400  0.33199300  1
  O  O13  1  0.22083800  0.47698700  0.66700600  1
  O  O14  1  0.72362200  0.52149800  0.82966500  1
  O  O15  1  0.77411500  0.96829300  0.33165900  1
  O  O16  1  0.28237700  0.03018600  0.17045900  1
  O  O17  1  0.78868100  0.24961000  0.09925100  1
  O  O18  1  0.28256600  0.47087700  0.17019900  1
  O  O19  1  0.22467200  0.03649300  0.67063100  1
  O  O20  1  0.21824000  0.74901500  0.89944600  1
  O  O21  1  0.71167200  0.25106300  0.59761600  1
  O  O22  1  0.79371700  0.75199200  0.56171100  1
  O  O23  1  0.28033900  0.75043900  0.40908900  1
  O  O24  1  0.70862800  0.75089100  0.05412000  1
  O  O25  1  0.30275500  0.24812900  0.94040400  1
  O  O26  1  0.19456500  0.24913400  0.44096400  1
  O  O27  1  0.72709500  0.96466800  0.82574200  1
