# generated using pymatgen
data_AgO
_symmetry_space_group_name_H-M   'P 1'
_cell_length_a   6.80213732
_cell_length_b   6.80213732
_cell_length_c   6.80213732
_cell_angle_alpha   118.52261557
_cell_angle_beta   118.52261557
_cell_angle_gamma   92.57853795
_symmetry_Int_Tables_number   1
_chemical_formula_structural   AgO
_chemical_formula_sum   'Ag8 O8'
_cell_volume   227.26735308
_cell_formula_units_Z   8
loop_
 _symmetry_equiv_pos_site_id
 _symmetry_equiv_pos_as_xyz
  1  'x, y, z'
loop_
 _atom_site_type_symbol
 _atom_site_label
 _atom_site_symmetry_multiplicity
 _atom_site_fract_x
 _atom_site_fract_y
 _atom_site_fract_z
 _atom_site_occupancy
  Ag  Ag0  1  0.37500000  0.62500000  0.75000000  1
  Ag  Ag1  1  0.37500000  0.12500000  0.75000000  1
  Ag  Ag2  1  0.37500000  0.62500000  0.25000000  1
  Ag  Ag3  1  0.87500000  0.62500000  0.25000000  1
  Ag  Ag4  1  0.87500000  0.12500000  0.75000000  1
  Ag  Ag5  1  0.87500000  0.62500000  0.75000000  1
  Ag  Ag6  1  0.87500000  0.12500000  0.25000000  1
  Ag  Ag7  1  0.37500000  0.12500000  0.25000000  1
  O  O8  1  0.67022300  0.99839900  0.84170500  1
  O  O9  1  0.74839900  0.40669400  0.82817600  1
  O  O10  1  0.57851800  0.92022300  0.17182400  1
  O  O11  1  0.15669400  0.82851800  0.15829500  1
  O  O12  1  0.07977700  0.25160100  0.65829500  1
  O  O13  1  0.00160100  0.84330600  0.67182400  1
  O  O14  1  0.17148200  0.32977700  0.32817600  1
  O  O15  1  0.59330600  0.42148200  0.34170500  1
