# generated using pymatgen
data_NaCoO2
_symmetry_space_group_name_H-M   'P 1'
_cell_length_a   2.96504172
_cell_length_b   7.93069361
_cell_length_c   7.90715599
_cell_angle_alpha   110.85990956
_cell_angle_beta   87.46435752
_cell_angle_gamma   92.13106952
_symmetry_Int_Tables_number   1
_chemical_formula_structural   NaCoO2
_chemical_formula_sum   'Na4 Co4 O8'
_cell_volume   173.53226654
_cell_formula_units_Z   4
loop_
 _symmetry_equiv_pos_site_id
 _symmetry_equiv_pos_as_xyz
  1  'x, y, z'
loop_
 _atom_site_type_symbol
 _atom_site_label
 _atom_site_symmetry_multiplicity
 _atom_site_fract_x
 _atom_site_fract_y
 _atom_site_fract_z
 _atom_site_occupancy
  Na  Na0  1  0.23475600  0.18644400  0.06354700  1
  Na  Na1  1  0.23413300  0.68469600  0.56529500  1
  Na  Na2  1  0.76492000  0.81706000  0.93603100  1
  Na  Na3  1  0.76679700  0.31437900  0.43838500  1
  Co  Co4  1  0.25713600  0.94081700  0.31759600  1
  Co  Co5  1  0.74231700  0.06219900  0.68337400  1
  Co  Co6  1  0.25484600  0.44520500  0.82353600  1
  Co  Co7  1  0.74110400  0.56506800  0.18868500  1
  O  O8  1  0.23543300  0.66639600  0.07831600  1
  O  O9  1  0.23438400  0.16164400  0.57350700  1
  O  O10  1  0.76777100  0.32913000  0.91637000  1
  O  O11  1  0.76627000  0.82582100  0.41412100  1
  O  O12  1  0.29612600  0.46136000  0.28882200  1
  O  O13  1  0.29679900  0.96157400  0.78686200  1
  O  O14  1  0.70211400  0.53973700  0.71401000  1
  O  O15  1  0.70509500  0.03847000  0.21154400  1
