# generated using pymatgen
data_Ba2MnNbO6
_symmetry_space_group_name_H-M   'P 1'
_cell_length_a   5.91409572
_cell_length_b   5.91407447
_cell_length_c   8.03613900
_cell_angle_alpha   90.00029642
_cell_angle_beta   90.00054833
_cell_angle_gamma   85.60837969
_symmetry_Int_Tables_number   1
_chemical_formula_structural   Ba2MnNbO6
_chemical_formula_sum   'Ba4 Mn2 Nb2 O12'
_cell_volume   280.24998458
_cell_formula_units_Z   2
loop_
 _symmetry_equiv_pos_site_id
 _symmetry_equiv_pos_as_xyz
  1  'x, y, z'
loop_
 _atom_site_type_symbol
 _atom_site_label
 _atom_site_symmetry_multiplicity
 _atom_site_fract_x
 _atom_site_fract_y
 _atom_site_fract_z
 _atom_site_occupancy
  Ba  Ba0  1  0.00009600  0.00008100  0.99995900  1
  Ba  Ba1  1  0.49995800  0.50010600  0.49995900  1
  Ba  Ba2  1  0.00009500  0.00008000  0.49995900  1
  Ba  Ba3  1  0.49995400  0.50010000  0.99996000  1
  Mn  Mn4  1  0.00017300  0.50021100  0.24992200  1
  Mn  Mn5  1  0.50002600  0.99998700  0.75013500  1
  Nb  Nb6  1  0.49984000  0.00000200  0.25018600  1
  Nb  Nb7  1  0.00015700  0.49997300  0.74984700  1
  O  O8  1  0.26945900  0.76922800  0.24994000  1
  O  O9  1  0.76921900  0.26927800  0.75008600  1
  O  O10  1  0.73079500  0.23057700  0.24994300  1
  O  O11  1  0.23055600  0.73059200  0.75009800  1
  O  O12  1  0.49999000  0.00002300  0.50417900  1
  O  O13  1  0.99988900  0.49994000  0.00405900  1
  O  O14  1  0.49998500  0.00003400  0.99596600  1
  O  O15  1  0.99989400  0.49995600  0.49583800  1
  O  O16  1  0.75416400  0.74572500  0.24995400  1
  O  O17  1  0.25425300  0.24572300  0.75002200  1
  O  O18  1  0.24570200  0.25417700  0.24995900  1
  O  O19  1  0.74579500  0.75420600  0.75003000  1
