# generated using pymatgen
data_V3Zn2O8
_symmetry_space_group_name_H-M   'P 1'
_cell_length_a   4.99611142
_cell_length_b   5.83702189
_cell_length_c   5.83701836
_cell_angle_alpha   61.26083255
_cell_angle_beta   100.70906202
_cell_angle_gamma   100.70911095
_symmetry_Int_Tables_number   1
_chemical_formula_structural   V3Zn2O8
_chemical_formula_sum   'V3 Zn2 O8'
_cell_volume   145.73139486
_cell_formula_units_Z   1
loop_
 _symmetry_equiv_pos_site_id
 _symmetry_equiv_pos_as_xyz
  1  'x, y, z'
loop_
 _atom_site_type_symbol
 _atom_site_label
 _atom_site_symmetry_multiplicity
 _atom_site_fract_x
 _atom_site_fract_y
 _atom_site_fract_z
 _atom_site_occupancy
  V  V0  1  0.00000500  0.26256900  0.73742900  1
  V  V1  1  0.49999700  0.00017500  0.99982600  1
  V  V2  1  0.99999900  0.73727200  0.26272900  1
  Zn  Zn3  1  0.59645100  0.70986900  0.70961900  1
  Zn  Zn4  1  0.40354800  0.29038100  0.29013000  1
  O  O5  1  0.11348400  0.39589500  0.39615300  1
  O  O6  1  0.88651500  0.60384700  0.60410500  1
  O  O7  1  0.14237500  0.90025400  0.90058000  1
  O  O8  1  0.85762500  0.09941800  0.09974800  1
  O  O9  1  0.35800200  0.34621500  0.89210800  1
  O  O10  1  0.35789100  0.89200500  0.34580500  1
  O  O11  1  0.64199400  0.10789800  0.65378200  1
  O  O12  1  0.64211100  0.65419800  0.10798900  1
