# generated using pymatgen
data_NaV2O4
_symmetry_space_group_name_H-M   'P 1'
_cell_length_a   5.19210069
_cell_length_b   5.94416701
_cell_length_c   6.62917315
_cell_angle_alpha   116.63727697
_cell_angle_beta   103.43049897
_cell_angle_gamma   89.99560242
_symmetry_Int_Tables_number   1
_chemical_formula_structural   NaV2O4
_chemical_formula_sum   'Na2 V4 O8'
_cell_volume   176.59925515
_cell_formula_units_Z   2
loop_
 _symmetry_equiv_pos_site_id
 _symmetry_equiv_pos_as_xyz
  1  'x, y, z'
loop_
 _atom_site_type_symbol
 _atom_site_label
 _atom_site_symmetry_multiplicity
 _atom_site_fract_x
 _atom_site_fract_y
 _atom_site_fract_z
 _atom_site_occupancy
  Na  Na0  1  0.74998300  0.69284200  0.00351200  1
  Na  Na1  1  0.25006900  0.31040600  0.00351900  1
  V  V2  1  0.75335300  0.61982400  0.49288900  1
  V  V3  1  0.74830300  0.12771800  0.50594700  1
  V  V4  1  0.24825700  0.37830200  0.50598400  1
  V  V5  1  0.25342200  0.87309500  0.49273500  1
  O  O6  1  0.03404600  0.52863900  0.31107000  1
  O  O7  1  0.47373700  0.22529100  0.68917000  1
  O  O8  1  0.97368000  0.46381600  0.68907500  1
  O  O9  1  0.53411200  0.78243200  0.31095300  1
  O  O10  1  0.46001000  0.69689000  0.67451100  1
  O  O11  1  0.03051100  0.05377000  0.32301700  1
  O  O12  1  0.53043300  0.26931300  0.32309900  1
  O  O13  1  0.96008500  0.97766100  0.67451800  1
