# generated using pymatgen
data_V2Si2O7
_symmetry_space_group_name_H-M   'P 1'
_cell_length_a   6.35301695
_cell_length_b   6.62144918
_cell_length_c   6.61735102
_cell_angle_alpha   79.01932232
_cell_angle_beta   109.57915868
_cell_angle_gamma   109.59905834
_symmetry_Int_Tables_number   1
_chemical_formula_structural   V2Si2O7
_chemical_formula_sum   'V4 Si4 O14'
_cell_volume   246.11851371
_cell_formula_units_Z   2
loop_
 _symmetry_equiv_pos_site_id
 _symmetry_equiv_pos_as_xyz
  1  'x, y, z'
loop_
 _atom_site_type_symbol
 _atom_site_label
 _atom_site_symmetry_multiplicity
 _atom_site_fract_x
 _atom_site_fract_y
 _atom_site_fract_z
 _atom_site_occupancy
  V  V0  1  0.50015900  0.81218400  0.18812200  1
  V  V1  1  0.99964800  0.68782900  0.31192000  1
  V  V2  1  0.99992000  0.31655900  0.68349100  1
  V  V3  1  0.50000600  0.18341300  0.81648700  1
  Si  Si4  1  0.47342200  0.70033400  0.70525100  1
  Si  Si5  1  0.97346300  0.20523300  0.20051200  1
  Si  Si6  1  0.02667700  0.79963700  0.79479500  1
  Si  Si7  1  0.52662700  0.29481000  0.29945000  1
  O  O8  1  0.25007500  0.25008200  0.24996700  1
  O  O9  1  0.75007200  0.74997100  0.75006400  1
  O  O10  1  0.46592400  0.86100500  0.86433600  1
  O  O11  1  0.96589100  0.36427400  0.36115100  1
  O  O12  1  0.03397700  0.63888600  0.63564100  1
  O  O13  1  0.53400800  0.13570100  0.13874100  1
  O  O14  1  0.36457600  0.75990900  0.44513400  1
  O  O15  1  0.86654200  0.27508800  0.94210000  1
  O  O16  1  0.36633400  0.44197300  0.77489400  1
  O  O17  1  0.86453500  0.94518100  0.26015400  1
  O  O18  1  0.13364200  0.05800600  0.72511500  1
  O  O19  1  0.63556100  0.55489800  0.23985100  1
  O  O20  1  0.13551300  0.74009200  0.05494700  1
  O  O21  1  0.63343000  0.22493500  0.55787500  1
