# generated using pymatgen
data_Mn2FeReO6
_symmetry_space_group_name_H-M   'P 1'
_cell_length_a   5.31688743
_cell_length_b   5.40627502
_cell_length_c   7.86000816
_cell_angle_alpha   90.00438617
_cell_angle_beta   89.96361949
_cell_angle_gamma   89.99129929
_symmetry_Int_Tables_number   1
_chemical_formula_structural   Mn2FeReO6
_chemical_formula_sum   'Mn4 Fe2 Re2 O12'
_cell_volume   225.93239326
_cell_formula_units_Z   2
loop_
 _symmetry_equiv_pos_site_id
 _symmetry_equiv_pos_as_xyz
  1  'x, y, z'
loop_
 _atom_site_type_symbol
 _atom_site_label
 _atom_site_symmetry_multiplicity
 _atom_site_fract_x
 _atom_site_fract_y
 _atom_site_fract_z
 _atom_site_occupancy
  Mn  Mn0  1  0.00011400  0.04496300  0.75765500  1
  Mn  Mn1  1  0.49977600  0.54525200  0.74206800  1
  Mn  Mn2  1  0.50817300  0.44998700  0.25848400  1
  Mn  Mn3  1  0.99204600  0.94962800  0.24164100  1
  Fe  Fe4  1  0.49933700  0.99864000  0.50106000  1
  Fe  Fe5  1  0.00060600  0.49920300  0.99873400  1
  Re  Re6  1  0.00318500  0.49935300  0.49956800  1
  Re  Re7  1  0.49674600  0.99976000  0.00049400  1
  O  O8  1  0.16041500  0.79787900  0.57561200  1
  O  O9  1  0.65949000  0.70463400  0.07382700  1
  O  O10  1  0.84032600  0.20423400  0.42608700  1
  O  O11  1  0.33976200  0.29807600  0.92454500  1
  O  O12  1  0.18160300  0.82575100  0.94712900  1
  O  O13  1  0.69417900  0.68332000  0.44181500  1
  O  O14  1  0.80557400  0.18338400  0.05825700  1
  O  O15  1  0.31870500  0.32534100  0.55292000  1
  O  O16  1  0.61878000  0.92691600  0.76793000  1
  O  O17  1  0.12361200  0.56849100  0.26797100  1
  O  O18  1  0.37656000  0.06833800  0.23195300  1
  O  O19  1  0.88101100  0.42685000  0.73225100  1
