# generated using pymatgen
data_Sr2NbCoO6
_symmetry_space_group_name_H-M   'P 1'
_cell_length_a   5.68535208
_cell_length_b   11.36238008
_cell_length_c   7.97028101
_cell_angle_alpha   90.00139129
_cell_angle_beta   90.00564031
_cell_angle_gamma   90.00441269
_symmetry_Int_Tables_number   1
_chemical_formula_structural   Sr2NbCoO6
_chemical_formula_sum   'Sr8 Nb4 Co4 O24'
_cell_volume   514.87322462
_cell_formula_units_Z   4
loop_
 _symmetry_equiv_pos_site_id
 _symmetry_equiv_pos_as_xyz
  1  'x, y, z'
loop_
 _atom_site_type_symbol
 _atom_site_label
 _atom_site_symmetry_multiplicity
 _atom_site_fract_x
 _atom_site_fract_y
 _atom_site_fract_z
 _atom_site_occupancy
  Sr  Sr0  1  0.99982200  0.49852300  0.00066900  1
  Sr  Sr1  1  0.49980100  0.75143100  0.50052400  1
  Sr  Sr2  1  0.00326400  0.00197500  0.99956300  1
  Sr  Sr3  1  0.50347500  0.24799500  0.49956900  1
  Sr  Sr4  1  0.99977000  0.49851600  0.49924900  1
  Sr  Sr5  1  0.49977700  0.75141700  0.99936500  1
  Sr  Sr6  1  0.00327600  0.00198300  0.50037100  1
  Sr  Sr7  1  0.50347000  0.24800600  0.00038500  1
  Nb  Nb8  1  0.50136200  0.50032100  0.24993900  1
  Nb  Nb9  1  0.00174200  0.74957400  0.74992800  1
  Nb  Nb10  1  0.50204300  0.99856000  0.25000200  1
  Nb  Nb11  1  0.00159400  0.25145000  0.75000900  1
  Co  Co12  1  0.50165900  0.49921900  0.74993400  1
  Co  Co13  1  0.00185100  0.75075400  0.24991600  1
  Co  Co14  1  0.50189300  0.00168800  0.75000300  1
  Co  Co15  1  0.00195600  0.24818600  0.25001100  1
  O  O16  1  0.50335500  0.50064100  0.50535200  1
  O  O17  1  0.00394800  0.74953700  0.00535600  1
  O  O18  1  0.49209600  0.00005300  0.49895000  1
  O  O19  1  0.99128500  0.24997600  0.99898300  1
  O  O20  1  0.50388000  0.50052700  0.99468000  1
  O  O21  1  0.00436200  0.74936300  0.49469000  1
  O  O22  1  0.49187100  0.99995300  0.00107800  1
  O  O23  1  0.99113500  0.24991500  0.50105000  1
  O  O24  1  0.75573900  0.37432200  0.25006500  1
  O  O25  1  0.25384200  0.62789800  0.75022700  1
  O  O26  1  0.74663400  0.87544200  0.25010000  1
  O  O27  1  0.23968900  0.12352100  0.74998700  1
  O  O28  1  0.25678100  0.62404700  0.24985300  1
  O  O29  1  0.75760700  0.87438500  0.74995300  1
  O  O30  1  0.24069200  0.12903100  0.25002600  1
  O  O31  1  0.74492300  0.37200800  0.74995300  1
  O  O32  1  0.25654600  0.37575200  0.25008200  1
  O  O33  1  0.75777100  0.62567500  0.75000300  1
  O  O34  1  0.24584400  0.87784500  0.25011200  1
  O  O35  1  0.73967400  0.12125500  0.75017400  1
  O  O36  1  0.75288200  0.62236600  0.25006900  1
  O  O37  1  0.25682700  0.87554800  0.74993900  1
  O  O38  1  0.74032600  0.12649100  0.24989500  1
  O  O39  1  0.24553800  0.37484800  0.74998500  1
