# generated using pymatgen
data_Mn(SbO3)2
_symmetry_space_group_name_H-M   'P 1'
_cell_length_a   7.10479625
_cell_length_b   7.10480243
_cell_length_c   10.31004421
_cell_angle_alpha   72.05568750
_cell_angle_beta   74.72607903
_cell_angle_gamma   99.82462131
_symmetry_Int_Tables_number   1
_chemical_formula_structural   Mn(SbO3)2
_chemical_formula_sum   'Mn4 Sb8 O24'
_cell_volume   459.29966109
_cell_formula_units_Z   4
loop_
 _symmetry_equiv_pos_site_id
 _symmetry_equiv_pos_as_xyz
  1  'x, y, z'
loop_
 _atom_site_type_symbol
 _atom_site_label
 _atom_site_symmetry_multiplicity
 _atom_site_fract_x
 _atom_site_fract_y
 _atom_site_fract_z
 _atom_site_occupancy
  Mn  Mn0  1  0.00000000  0.50000300  0.49999600  1
  Mn  Mn1  1  0.50000000  0.75000300  0.74999600  1
  Mn  Mn2  1  0.00000000  0.00000300  0.99999600  1
  Mn  Mn3  1  0.50000000  0.25000300  0.24999600  1
  Sb  Sb4  1  0.41666700  0.79166500  0.12500100  1
  Sb  Sb5  1  0.91666700  0.04166500  0.37500100  1
  Sb  Sb6  1  0.41666700  0.29166500  0.62500100  1
  Sb  Sb7  1  0.91666700  0.54166500  0.87500100  1
  Sb  Sb8  1  0.58333300  0.70833300  0.37500000  1
  Sb  Sb9  1  0.08333300  0.95833300  0.62500000  1
  Sb  Sb10  1  0.58333300  0.20833300  0.87500000  1
  Sb  Sb11  1  0.08333300  0.45833300  0.12500000  1
  O  O12  1  0.31401600  0.70088400  0.34299400  1
  O  O13  1  0.81401600  0.95088400  0.59299400  1
  O  O14  1  0.31401600  0.20088400  0.84299400  1
  O  O15  1  0.81401600  0.45088400  0.09299400  1
  O  O16  1  0.13506700  0.75352000  0.11141300  1
  O  O17  1  0.63506700  0.00352000  0.36141300  1
  O  O18  1  0.13506700  0.25352000  0.61141300  1
  O  O19  1  0.63506700  0.50352000  0.86141300  1
  O  O20  1  0.45612200  0.09299200  0.09299300  1
  O  O21  1  0.95612200  0.34299200  0.34299300  1
  O  O22  1  0.45612200  0.59299200  0.59299300  1
  O  O23  1  0.95612200  0.84299200  0.84299300  1
  O  O24  1  0.68598500  0.79911700  0.15700600  1
  O  O25  1  0.18598500  0.04911700  0.40700600  1
  O  O26  1  0.68598500  0.29911700  0.65700600  1
  O  O27  1  0.18598500  0.54911700  0.90700600  1
  O  O28  1  0.36493200  0.49648000  0.13858800  1
  O  O29  1  0.86493200  0.74648000  0.38858800  1
  O  O30  1  0.36493200  0.99648000  0.63858800  1
  O  O31  1  0.86493200  0.24648000  0.88858800  1
  O  O32  1  0.54387800  0.40700700  0.40700800  1
  O  O33  1  0.04387800  0.65700700  0.65700800  1
  O  O34  1  0.54387800  0.90700700  0.90700800  1
  O  O35  1  0.04387800  0.15700700  0.15700800  1
