# generated using pymatgen
data_Sr2FeWO6
_symmetry_space_group_name_H-M   'P 1'
_cell_length_a   5.67717081
_cell_length_b   5.69436254
_cell_length_c   9.90868180
_cell_angle_alpha   72.63355111
_cell_angle_beta   90.28396719
_cell_angle_gamma   119.51118049
_symmetry_Int_Tables_number   1
_chemical_formula_structural   Sr2FeWO6
_chemical_formula_sum   'Sr4 Fe2 W2 O12'
_cell_volume   262.13853852
_cell_formula_units_Z   2
loop_
 _symmetry_equiv_pos_site_id
 _symmetry_equiv_pos_as_xyz
  1  'x, y, z'
loop_
 _atom_site_type_symbol
 _atom_site_label
 _atom_site_symmetry_multiplicity
 _atom_site_fract_x
 _atom_site_fract_y
 _atom_site_fract_z
 _atom_site_occupancy
  Sr  Sr0  1  0.62308900  0.25160900  0.11734100  1
  Sr  Sr1  1  0.12156300  0.23997100  0.63390100  1
  Sr  Sr2  1  0.37954700  0.74676600  0.87767800  1
  Sr  Sr3  1  0.87586700  0.75799300  0.37157600  1
  Fe  Fe4  1  0.74904100  0.49737800  0.75119500  1
  Fe  Fe5  1  0.25173400  0.50234700  0.24668400  1
  W  W6  1  0.50128700  0.00473300  0.49763200  1
  W  W7  1  0.99936400  0.99500800  0.00158000  1
  O  O8  1  0.12524300  0.23905700  0.13452800  1
  O  O9  1  0.62841500  0.23615800  0.62167100  1
  O  O10  1  0.86942700  0.75406600  0.87392300  1
  O  O11  1  0.38137700  0.77771200  0.36867000  1
  O  O12  1  0.59906400  0.78610300  0.10864700  1
  O  O13  1  0.12694500  0.81179800  0.59274800  1
  O  O14  1  0.38364000  0.18485400  0.90045300  1
  O  O15  1  0.88823400  0.21399400  0.39844000  1
  O  O16  1  0.94608900  0.28144800  0.86715500  1
  O  O17  1  0.44202800  0.29795500  0.36186800  1
  O  O18  1  0.05264300  0.70426700  0.14515100  1
  O  O19  1  0.55540200  0.71678100  0.62915900  1
