# generated using pymatgen
data_Sr3Co2(ClO2)2
_symmetry_space_group_name_H-M   'P 1'
_cell_length_a   4.17224134
_cell_length_b   11.62398863
_cell_length_c   7.96711616
_cell_angle_alpha   99.84828020
_cell_angle_beta   90.22777226
_cell_angle_gamma   79.65169936
_symmetry_Int_Tables_number   1
_chemical_formula_structural   Sr3Co2(ClO2)2
_chemical_formula_sum   'Sr6 Co4 Cl4 O8'
_cell_volume   374.36102532
_cell_formula_units_Z   2
loop_
 _symmetry_equiv_pos_site_id
 _symmetry_equiv_pos_as_xyz
  1  'x, y, z'
loop_
 _atom_site_type_symbol
 _atom_site_label
 _atom_site_symmetry_multiplicity
 _atom_site_fract_x
 _atom_site_fract_y
 _atom_site_fract_z
 _atom_site_occupancy
  Sr  Sr0  1  0.00314200  0.00081800  0.49397800  1
  Sr  Sr1  1  0.99519000  0.99912700  0.00645500  1
  Sr  Sr2  1  0.15093300  0.70448800  0.42949800  1
  Sr  Sr3  1  0.14622300  0.70140400  0.92221400  1
  Sr  Sr4  1  0.85095800  0.29873000  0.57824700  1
  Sr  Sr5  1  0.85236800  0.29496700  0.06919200  1
  Co  Co6  1  0.41390200  0.17175000  0.29271100  1
  Co  Co7  1  0.58507200  0.82838400  0.20721800  1
  Co  Co8  1  0.42476800  0.15021100  0.78617000  1
  Co  Co9  1  0.57423800  0.84928400  0.71299300  1
  Cl  Cl10  1  0.30304600  0.39525000  0.34653700  1
  Cl  Cl11  1  0.29637700  0.40792500  0.85594400  1
  Cl  Cl12  1  0.70478700  0.59352900  0.64417800  1
  Cl  Cl13  1  0.69868300  0.60428700  0.15389300  1
  O  O14  1  0.07762000  0.84526400  0.71182100  1
  O  O15  1  0.07891300  0.84333500  0.21055400  1
  O  O16  1  0.57872000  0.84764500  0.46282200  1
  O  O17  1  0.57429100  0.84637500  0.96060800  1
  O  O18  1  0.92180900  0.15640400  0.28978700  1
  O  O19  1  0.92251400  0.15454300  0.78792200  1
  O  O20  1  0.42341600  0.15380600  0.54006200  1
  O  O21  1  0.42302900  0.15247200  0.03719500  1
