# generated using pymatgen
data_CrBiO4
_symmetry_space_group_name_H-M   'P 1'
_cell_length_a   6.10851795
_cell_length_b   6.17169085
_cell_length_c   9.81063121
_cell_angle_alpha   83.55374575
_cell_angle_beta   84.20867549
_cell_angle_gamma   73.95602922
_symmetry_Int_Tables_number   1
_chemical_formula_structural   CrBiO4
_chemical_formula_sum   'Cr4 Bi4 O16'
_cell_volume   352.25945607
_cell_formula_units_Z   4
loop_
 _symmetry_equiv_pos_site_id
 _symmetry_equiv_pos_as_xyz
  1  'x, y, z'
loop_
 _atom_site_type_symbol
 _atom_site_label
 _atom_site_symmetry_multiplicity
 _atom_site_fract_x
 _atom_site_fract_y
 _atom_site_fract_z
 _atom_site_occupancy
  Cr  Cr0  1  0.18733200  0.18756900  0.56229900  1
  Cr  Cr1  1  0.31250800  0.31282200  0.93733300  1
  Cr  Cr2  1  0.68765800  0.68742400  0.06250300  1
  Cr  Cr3  1  0.81258700  0.81271100  0.43730400  1
  Bi  Bi4  1  0.56304100  0.56302700  0.68713200  1
  Bi  Bi5  1  0.06306500  0.06287100  0.18705700  1
  Bi  Bi6  1  0.43763000  0.43750200  0.31252600  1
  Bi  Bi7  1  0.93760900  0.93751000  0.81244800  1
  O  O8  1  0.41805000  0.77616200  0.14492400  1
  O  O9  1  0.91781000  0.27633100  0.64475400  1
  O  O10  1  0.67614800  0.69219200  0.88668000  1
  O  O11  1  0.17603300  0.19230600  0.38638500  1
  O  O12  1  0.78456600  0.42591200  0.15306000  1
  O  O13  1  0.28428100  0.92614000  0.65276000  1
  O  O14  1  0.87167700  0.85513200  0.06582100  1
  O  O15  1  0.37139100  0.35517200  0.56566800  1
  O  O16  1  0.12845900  0.14462200  0.93453600  1
  O  O17  1  0.62834300  0.64449900  0.43450900  1
  O  O18  1  0.21519300  0.57409900  0.84723500  1
  O  O19  1  0.71525200  0.07394100  0.34724600  1
  O  O20  1  0.32366100  0.30759300  0.11347600  1
  O  O21  1  0.82359800  0.80750000  0.61348000  1
  O  O22  1  0.58203100  0.22350300  0.85539400  1
  O  O23  1  0.08207800  0.72346200  0.35547000  1
