# generated using pymatgen
data_SrYCoO4
_symmetry_space_group_name_H-M   'P 1'
_cell_length_a   5.38683077
_cell_length_b   5.38807740
_cell_length_c   12.85107838
_cell_angle_alpha   77.89214407
_cell_angle_beta   102.10462817
_cell_angle_gamma   90.02181585
_symmetry_Int_Tables_number   1
_chemical_formula_structural   SrYCoO4
_chemical_formula_sum   'Sr4 Y4 Co4 O16'
_cell_volume   356.22091749
_cell_formula_units_Z   4
loop_
 _symmetry_equiv_pos_site_id
 _symmetry_equiv_pos_as_xyz
  1  'x, y, z'
loop_
 _atom_site_type_symbol
 _atom_site_label
 _atom_site_symmetry_multiplicity
 _atom_site_fract_x
 _atom_site_fract_y
 _atom_site_fract_z
 _atom_site_occupancy
  Sr  Sr0  1  0.82174700  0.17820700  0.64389000  1
  Sr  Sr1  1  0.32240900  0.67760400  0.64527300  1
  Sr  Sr2  1  0.57245000  0.92754900  0.14550200  1
  Sr  Sr3  1  0.07183500  0.42817200  0.14395000  1
  Y  Y4  1  0.93071400  0.56932700  0.86060000  1
  Y  Y5  1  0.43120000  0.06874500  0.86217000  1
  Y  Y6  1  0.68078700  0.31937400  0.36066900  1
  Y  Y7  1  0.18128700  0.81869200  0.36215400  1
  Co  Co8  1  0.74973500  0.75022500  0.49948900  1
  Co  Co9  1  0.49977800  0.50022700  0.99953000  1
  Co  Co10  1  0.25197400  0.24808000  0.50388600  1
  Co  Co11  1  0.00188000  0.99803000  0.00384800  1
  O  O12  1  0.91711600  0.08305800  0.83389700  1
  O  O13  1  0.41959100  0.58018000  0.83932800  1
  O  O14  1  0.66974800  0.83029000  0.33947400  1
  O  O15  1  0.16667600  0.33316400  0.33382200  1
  O  O16  1  0.83783800  0.66207900  0.67600400  1
  O  O17  1  0.34071900  0.15940800  0.68139600  1
  O  O18  1  0.58789300  0.41205700  0.17630100  1
  O  O19  1  0.09061300  0.90940000  0.18141200  1
  O  O20  1  0.73549400  0.74800900  0.98744500  1
  O  O21  1  0.25207700  0.26442400  0.98752300  1
  O  O22  1  0.48730800  0.49880200  0.48924100  1
  O  O23  1  0.00204000  0.01186500  0.48930600  1
  O  O24  1  0.23757100  0.76200700  0.98923600  1
  O  O25  1  0.75181000  0.24874400  0.98931600  1
  O  O26  1  0.98476700  0.51368900  0.48767800  1
  O  O27  1  0.50294400  0.99858900  0.48766600  1
