# generated using pymatgen
data_La2TiCrO6
_symmetry_space_group_name_H-M   'P 1'
_cell_length_a   5.71383780
_cell_length_b   5.70222860
_cell_length_c   9.57434813
_cell_angle_alpha   106.53715933
_cell_angle_beta   90.46655963
_cell_angle_gamma   120.75168476
_symmetry_Int_Tables_number   1
_chemical_formula_structural   La2TiCrO6
_chemical_formula_sum   'La4 Ti2 Cr2 O12'
_cell_volume   252.48472759
_cell_formula_units_Z   2
loop_
 _symmetry_equiv_pos_site_id
 _symmetry_equiv_pos_as_xyz
  1  'x, y, z'
loop_
 _atom_site_type_symbol
 _atom_site_label
 _atom_site_symmetry_multiplicity
 _atom_site_fract_x
 _atom_site_fract_y
 _atom_site_fract_z
 _atom_site_occupancy
  La  La0  1  0.12193900  0.24165300  0.37529000  1
  La  La1  1  0.61674200  0.24862200  0.87467000  1
  La  La2  1  0.37839700  0.75859100  0.12518200  1
  La  La3  1  0.88310600  0.75121000  0.62536900  1
  Ti  Ti4  1  0.99544100  0.00452200  0.00144400  1
  Ti  Ti5  1  0.50455400  0.99543400  0.49854100  1
  Cr  Cr6  1  0.74999100  0.49987500  0.24989200  1
  Cr  Cr7  1  0.25000100  0.50017400  0.75014700  1
  O  O8  1  0.19329600  0.24310200  0.87637400  1
  O  O9  1  0.69380700  0.23050900  0.36393800  1
  O  O10  1  0.01939800  0.68441900  0.88148600  1
  O  O11  1  0.55238600  0.66699400  0.37661600  1
  O  O12  1  0.61924200  0.83800900  0.88738300  1
  O  O13  1  0.12508900  0.81759500  0.37647400  1
  O  O14  1  0.48027700  0.31583700  0.61812300  1
  O  O15  1  0.94774600  0.33296600  0.12326200  1
  O  O16  1  0.88048600  0.16194800  0.61284000  1
  O  O17  1  0.37503000  0.18208800  0.12328300  1
  O  O18  1  0.30659000  0.75706900  0.62374100  1
  O  O19  1  0.80648300  0.76938300  0.13594500  1
