# generated using pymatgen
data_NaMgF3
_symmetry_space_group_name_H-M   'P 1'
_cell_length_a   5.28494163
_cell_length_b   5.28494163
_cell_length_c   7.46034000
_cell_angle_alpha   90.00000000
_cell_angle_beta   90.00000000
_cell_angle_gamma   146.55038849
_symmetry_Int_Tables_number   1
_chemical_formula_structural   NaMgF3
_chemical_formula_sum   'Na2 Mg2 F6'
_cell_volume   114.85526558
_cell_formula_units_Z   2
loop_
 _symmetry_equiv_pos_site_id
 _symmetry_equiv_pos_as_xyz
  1  'x, y, z'
loop_
 _atom_site_type_symbol
 _atom_site_label
 _atom_site_symmetry_multiplicity
 _atom_site_fract_x
 _atom_site_fract_y
 _atom_site_fract_z
 _atom_site_occupancy
  Na  Na0  1  0.74294300  0.25705600  0.75000000  1
  Na  Na1  1  0.25705600  0.74294300  0.25000000  1
  Mg  Mg2  1  0.00000000  0.00000000  0.50000000  1
  Mg  Mg3  1  0.00000000  0.00000000  0.00000000  1
  F  F4  1  0.62645100  0.37354900  0.44307100  1
  F  F5  1  0.37354900  0.62645100  0.94307100  1
  F  F6  1  0.62645100  0.37354900  0.05692900  1
  F  F7  1  0.37354900  0.62645100  0.55692900  1
  F  F8  1  0.07119700  0.92880300  0.75000000  1
  F  F9  1  0.92880300  0.07119700  0.25000000  1
