# generated using pymatgen
data_KMnIO6
_symmetry_space_group_name_H-M   'P 1'
_cell_length_a   5.12591982
_cell_length_b   5.13186773
_cell_length_c   24.44415542
_cell_angle_alpha   90.16878303
_cell_angle_beta   90.07957410
_cell_angle_gamma   120.32271383
_symmetry_Int_Tables_number   1
_chemical_formula_structural   KMnIO6
_chemical_formula_sum   'K4 Mn4 I4 O24'
_cell_volume   555.04367522
_cell_formula_units_Z   4
loop_
 _symmetry_equiv_pos_site_id
 _symmetry_equiv_pos_as_xyz
  1  'x, y, z'
loop_
 _atom_site_type_symbol
 _atom_site_label
 _atom_site_symmetry_multiplicity
 _atom_site_fract_x
 _atom_site_fract_y
 _atom_site_fract_z
 _atom_site_occupancy
  K  K0  1  0.66672300  0.33324300  0.12499500  1
  K  K1  1  0.66720000  0.33469700  0.37514900  1
  K  K2  1  0.66536600  0.33212400  0.62493900  1
  K  K3  1  0.66694100  0.33325900  0.87489900  1
  Mn  Mn4  1  0.32418700  0.67130100  0.50004600  1
  Mn  Mn5  1  0.33352400  0.66617400  0.74998700  1
  Mn  Mn6  1  0.33303300  0.66689400  0.99996400  1
  Mn  Mn7  1  0.33289900  0.66692500  0.25001200  1
  I  I8  1  0.00040000  0.99984500  0.99998400  1
  I  I9  1  0.00044400  0.99985900  0.25001700  1
  I  I10  1  0.99955200  0.00017400  0.50001300  1
  I  I11  1  0.00052800  0.99975000  0.74998700  1
  O  O12  1  0.04457100  0.32729900  0.20583600  1
  O  O13  1  0.07227300  0.34221000  0.45515800  1
  O  O14  1  0.04643500  0.32893400  0.70593300  1
  O  O15  1  0.04441500  0.32733200  0.95579400  1
  O  O16  1  0.28348700  0.95423200  0.20589500  1
  O  O17  1  0.27899800  0.94520100  0.45538800  1
  O  O18  1  0.28216600  0.95077800  0.70589900  1
  O  O19  1  0.28343000  0.95428700  0.95586500  1
  O  O20  1  0.28509000  0.33079200  0.04411500  1
  O  O21  1  0.28531800  0.33081300  0.29415900  1
  O  O22  1  0.26875400  0.32573400  0.54562500  1
  O  O23  1  0.28431900  0.33443300  0.79418700  1
  O  O24  1  0.66952000  0.71485300  0.20586100  1
  O  O25  1  0.67294500  0.73111800  0.45450600  1
  O  O26  1  0.66585400  0.71585700  0.70575800  1
  O  O27  1  0.66936600  0.71479600  0.95583000  1
  O  O28  1  0.67221800  0.95561600  0.04415900  1
  O  O29  1  0.67233900  0.95579500  0.29418100  1
  O  O30  1  0.65971900  0.92956400  0.54468300  1
  O  O31  1  0.67064800  0.95307200  0.79410500  1
  O  O32  1  0.04536800  0.71707100  0.04410800  1
  O  O33  1  0.04538900  0.71692800  0.29412900  1
  O  O34  1  0.05737300  0.72069700  0.54475700  1
  O  O35  1  0.04920700  0.71834600  0.79407800  1
