# generated using pymatgen
data_Sr2Co(ClO)2
_symmetry_space_group_name_H-M   'P 1'
_cell_length_a   5.79487157
_cell_length_b   10.04278181
_cell_length_c   10.04220573
_cell_angle_alpha   79.65979463
_cell_angle_beta   106.15401365
_cell_angle_gamma   73.84119015
_symmetry_Int_Tables_number   1
_chemical_formula_structural   Sr2Co(ClO)2
_chemical_formula_sum   'Sr8 Co4 Cl8 O8'
_cell_volume   517.84216837
_cell_formula_units_Z   4
loop_
 _symmetry_equiv_pos_site_id
 _symmetry_equiv_pos_as_xyz
  1  'x, y, z'
loop_
 _atom_site_type_symbol
 _atom_site_label
 _atom_site_symmetry_multiplicity
 _atom_site_fract_x
 _atom_site_fract_y
 _atom_site_fract_z
 _atom_site_occupancy
  Sr  Sr0  1  0.00429700  0.39231400  0.39463400  1
  Sr  Sr1  1  0.24960000  0.64421900  0.14332300  1
  Sr  Sr2  1  0.49655500  0.89359200  0.89315100  1
  Sr  Sr3  1  0.74928100  0.14390600  0.64283500  1
  Sr  Sr4  1  0.74930300  0.35715300  0.85610600  1
  Sr  Sr5  1  0.00437500  0.60534000  0.60774100  1
  Sr  Sr6  1  0.24975600  0.85665800  0.35579800  1
  Sr  Sr7  1  0.49659100  0.10680300  0.10642100  1
  Co  Co8  1  0.25079200  0.24908800  0.75091000  1
  Co  Co9  1  0.50193900  0.50082300  0.49917400  1
  Co  Co10  1  0.75061500  0.74975400  0.25026600  1
  Co  Co11  1  0.99684900  0.00033900  0.99966300  1
  Cl  Cl12  1  0.75005200  0.57238700  0.07260900  1
  Cl  Cl13  1  0.99862200  0.82093400  0.82059300  1
  Cl  Cl14  1  0.25008700  0.07010500  0.57049400  1
  Cl  Cl15  1  0.50110200  0.32066500  0.32042200  1
  Cl  Cl16  1  0.99866500  0.17938800  0.17907900  1
  Cl  Cl17  1  0.25012200  0.42948800  0.92991200  1
  Cl  Cl18  1  0.50113300  0.67956500  0.67935400  1
  Cl  Cl19  1  0.75002600  0.92740700  0.42759300  1
  O  O20  1  0.37750800  0.37352800  0.62648200  1
  O  O21  1  0.62974600  0.62685900  0.37315000  1
  O  O22  1  0.87026900  0.87345700  0.12653100  1
  O  O23  1  0.12252800  0.12627200  0.87373300  1
  O  O24  1  0.62490000  0.12426200  0.87571800  1
  O  O25  1  0.87526700  0.37548900  0.62452300  1
  O  O26  1  0.13623500  0.62186100  0.37812700  1
  O  O27  1  0.36378900  0.87834000  0.12165900  1
