# generated using pymatgen
data_MgFe2O3
_symmetry_space_group_name_H-M   'P 1'
_cell_length_a   4.21674900
_cell_length_b   6.97333829
_cell_length_c   4.42991200
_cell_angle_alpha   90.00106631
_cell_angle_beta   90.00189596
_cell_angle_gamma   72.40069334
_symmetry_Int_Tables_number   1
_chemical_formula_structural   MgFe2O3
_chemical_formula_sum   'Mg2 Fe4 O6'
_cell_volume   124.16381063
_cell_formula_units_Z   2
loop_
 _symmetry_equiv_pos_site_id
 _symmetry_equiv_pos_as_xyz
  1  'x, y, z'
loop_
 _atom_site_type_symbol
 _atom_site_label
 _atom_site_symmetry_multiplicity
 _atom_site_fract_x
 _atom_site_fract_y
 _atom_site_fract_z
 _atom_site_occupancy
  Mg  Mg0  1  0.99998700  0.00000200  0.00000000  1
  Mg  Mg1  1  0.50001200  0.99999800  0.50000000  1
  Fe  Fe2  1  0.83421600  0.33156300  0.50000300  1
  Fe  Fe3  1  0.66578300  0.66843700  0.99999800  1
  Fe  Fe4  1  0.33424000  0.33156100  0.00000500  1
  Fe  Fe5  1  0.16576100  0.66843900  0.49999600  1
  O  O6  1  0.49999200  0.99999300  0.00000000  1
  O  O7  1  0.00000800  0.00000700  0.50000000  1
  O  O8  1  0.83712100  0.32574900  0.00000000  1
  O  O9  1  0.33710400  0.32574200  0.50000000  1
  O  O10  1  0.16289700  0.67425800  0.99999900  1
  O  O11  1  0.66287800  0.67425100  0.50000000  1
