# generated using pymatgen
data_Sr2FeSnO6
_symmetry_space_group_name_H-M   'P 1'
_cell_length_a   8.05954401
_cell_length_b   8.14803055
_cell_length_c   9.03065490
_cell_angle_alpha   63.22536689
_cell_angle_beta   90.00147768
_cell_angle_gamma   90.00530295
_symmetry_Int_Tables_number   1
_chemical_formula_structural   Sr2FeSnO6
_chemical_formula_sum   'Sr8 Fe4 Sn4 O24'
_cell_volume   529.45544556
_cell_formula_units_Z   4
loop_
 _symmetry_equiv_pos_site_id
 _symmetry_equiv_pos_as_xyz
  1  'x, y, z'
loop_
 _atom_site_type_symbol
 _atom_site_label
 _atom_site_symmetry_multiplicity
 _atom_site_fract_x
 _atom_site_fract_y
 _atom_site_fract_z
 _atom_site_occupancy
  Sr  Sr0  1  0.49961100  0.75094500  0.49970100  1
  Sr  Sr1  1  0.00040900  0.49979900  0.00036500  1
  Sr  Sr2  1  0.49955500  0.24942200  0.49957900  1
  Sr  Sr3  1  0.00040300  0.99982000  0.00036100  1
  Sr  Sr4  1  0.00038700  0.75094200  0.49969400  1
  Sr  Sr5  1  0.49959400  0.49979800  0.00036400  1
  Sr  Sr6  1  0.00045500  0.24942700  0.49958200  1
  Sr  Sr7  1  0.49959700  0.99982600  0.00036300  1
  Fe  Fe8  1  0.24999900  0.12495000  0.25007500  1
  Fe  Fe9  1  0.74995300  0.87511400  0.74979100  1
  Fe  Fe10  1  0.75008000  0.37500300  0.74979500  1
  Fe  Fe11  1  0.25005700  0.62510800  0.25013000  1
  Sn  Sn12  1  0.75000400  0.62500300  0.24984300  1
  Sn  Sn13  1  0.25001500  0.37497400  0.75017400  1
  Sn  Sn14  1  0.74998700  0.12516700  0.24978100  1
  Sn  Sn15  1  0.25000300  0.87485600  0.75020000  1
  O  O16  1  0.74999300  0.87507900  0.25016300  1
  O  O17  1  0.24999700  0.62528200  0.74976000  1
  O  O18  1  0.74999800  0.37472700  0.25027900  1
  O  O19  1  0.24999900  0.12488100  0.74985200  1
  O  O20  1  0.74999200  0.63185000  0.74989200  1
  O  O21  1  0.24999300  0.36820700  0.25016100  1
  O  O22  1  0.75001200  0.11852300  0.74952000  1
  O  O23  1  0.25000300  0.88140200  0.25046400  1
  O  O24  1  0.99577700  0.37510400  0.74995500  1
  O  O25  1  0.49456500  0.12448400  0.25111600  1
  O  O26  1  0.99435900  0.87549100  0.74891300  1
  O  O27  1  0.49584000  0.62492200  0.25001100  1
  O  O28  1  0.00415500  0.62490800  0.25004500  1
  O  O29  1  0.50420800  0.37508100  0.74998500  1
  O  O30  1  0.00544100  0.12447400  0.25111000  1
  O  O31  1  0.50563800  0.87548800  0.74892400  1
  O  O32  1  0.74999100  0.49784400  0.50473400  1
  O  O33  1  0.24998200  0.24705900  0.00536500  1
  O  O34  1  0.74998400  0.99726100  0.50467100  1
  O  O35  1  0.24998100  0.74837800  0.00357000  1
  O  O36  1  0.24998400  0.50211800  0.49535300  1
  O  O37  1  0.74998600  0.25167500  0.99632200  1
  O  O38  1  0.25000400  0.00255500  0.49560000  1
  O  O39  1  0.75000900  0.75305500  0.99443600  1
