# generated using pymatgen
data_Sr2TiFeO6
_symmetry_space_group_name_H-M   'P 1'
_cell_length_a   3.92234100
_cell_length_b   11.15809379
_cell_length_c   11.15809732
_cell_angle_alpha   89.78972925
_cell_angle_beta   89.99997934
_cell_angle_gamma   89.99994332
_symmetry_Int_Tables_number   1
_chemical_formula_structural   Sr2TiFeO6
_chemical_formula_sum   'Sr8 Ti4 Fe4 O24'
_cell_volume   488.34031124
_cell_formula_units_Z   4
loop_
 _symmetry_equiv_pos_site_id
 _symmetry_equiv_pos_as_xyz
  1  'x, y, z'
loop_
 _atom_site_type_symbol
 _atom_site_label
 _atom_site_symmetry_multiplicity
 _atom_site_fract_x
 _atom_site_fract_y
 _atom_site_fract_z
 _atom_site_occupancy
  Sr  Sr0  1  0.50000000  0.50298400  0.75326500  1
  Sr  Sr1  1  0.50000000  0.25447900  0.00129900  1
  Sr  Sr2  1  0.50000100  0.75134900  0.50440900  1
  Sr  Sr3  1  0.50000000  0.00303600  0.25290600  1
  Sr  Sr4  1  0.50000100  0.74673600  0.99701600  1
  Sr  Sr5  1  0.49999800  0.49870000  0.24552300  1
  Sr  Sr6  1  0.50000000  0.99559000  0.74865200  1
  Sr  Sr7  1  0.50000000  0.24709500  0.49696300  1
  Ti  Ti8  1  0.99999800  0.24842800  0.74832300  1
  Ti  Ti9  1  0.00000000  0.00145800  0.00163300  1
  Ti  Ti10  1  0.00000100  0.49836300  0.49854100  1
  Ti  Ti11  1  0.00000200  0.75167700  0.25157100  1
  Fe  Fe12  1  0.99999700  0.74993500  0.75007100  1
  Fe  Fe13  1  0.00000000  0.00086700  0.49913400  1
  Fe  Fe14  1  0.00000000  0.50002400  0.99997800  1
  Fe  Fe15  1  0.00000000  0.24913400  0.25086500  1
  O  O16  1  0.99999900  0.37725200  0.88334800  1
  O  O17  1  0.00000000  0.11707100  0.12302900  1
  O  O18  1  0.99999700  0.63338700  0.62725600  1
  O  O19  1  0.00000300  0.87302600  0.36701500  1
  O  O20  1  0.00000100  0.61665500  0.12274600  1
  O  O21  1  0.00000100  0.37697100  0.38293000  1
  O  O22  1  0.99999900  0.87274400  0.86661300  1
  O  O23  1  0.99999900  0.13298800  0.62697400  1
  O  O24  1  0.99999800  0.38163200  0.63163900  1
  O  O25  1  0.99999900  0.12498000  0.87495200  1
  O  O26  1  0.99999900  0.62504800  0.37502200  1
  O  O27  1  0.00000000  0.86835800  0.11836600  1
  O  O28  1  0.50000200  0.25533100  0.75541800  1
  O  O29  1  0.49999800  0.99461800  0.99455000  1
  O  O30  1  0.49999900  0.50545000  0.50538000  1
  O  O31  1  0.50000400  0.74458200  0.24466800  1
  O  O32  1  0.99999500  0.62494600  0.87505300  1
  O  O33  1  0.00000000  0.37182300  0.12817800  1
  O  O34  1  0.00000100  0.87826000  0.62173700  1
  O  O35  1  0.00000100  0.12498100  0.37501800  1
  O  O36  1  0.50000200  0.49811200  0.00188700  1
  O  O37  1  0.49999900  0.24941800  0.25058100  1
  O  O38  1  0.50000200  0.75191100  0.74808900  1
  O  O39  1  0.50000300  0.00059700  0.49940100  1
