# generated using pymatgen
data_Co3BPO7
_symmetry_space_group_name_H-M   'P 1'
_cell_length_a   4.93946070
_cell_length_b   8.08720505
_cell_length_c   8.08305267
_cell_angle_alpha   104.36876116
_cell_angle_beta   107.46563141
_cell_angle_gamma   107.91327944
_symmetry_Int_Tables_number   1
_chemical_formula_structural   Co3BPO7
_chemical_formula_sum   'Co6 B2 P2 O14'
_cell_volume   271.67124479
_cell_formula_units_Z   2
loop_
 _symmetry_equiv_pos_site_id
 _symmetry_equiv_pos_as_xyz
  1  'x, y, z'
loop_
 _atom_site_type_symbol
 _atom_site_label
 _atom_site_symmetry_multiplicity
 _atom_site_fract_x
 _atom_site_fract_y
 _atom_site_fract_z
 _atom_site_occupancy
  Co  Co0  1  0.20540600  0.84548000  0.35518300  1
  Co  Co1  1  0.56602400  0.78165000  0.06662800  1
  Co  Co2  1  0.56432300  0.06862300  0.78063500  1
  Co  Co3  1  0.19929500  0.33924300  0.85222800  1
  Co  Co4  1  0.51521700  0.30091300  0.52077500  1
  Co  Co5  1  0.50994500  0.51899100  0.29871400  1
  B  B6  1  0.86840400  0.05057300  0.48211000  1
  B  B7  1  0.87280700  0.48769200  0.04811000  1
  P  P8  1  0.22790300  0.05943300  0.06130200  1
  P  P9  1  0.20756900  0.59866900  0.60196200  1
  O  O10  1  0.44012000  0.24111800  0.23754600  1
  O  O11  1  0.42779700  0.97919300  0.97824700  1
  O  O12  1  0.25481500  0.45698400  0.45515100  1
  O  O13  1  0.85513200  0.54762800  0.54876900  1
  O  O14  1  0.01957700  0.10740900  0.91038200  1
  O  O15  1  0.02453200  0.91159000  0.11357700  1
  O  O16  1  0.36121900  0.79653100  0.59770400  1
  O  O17  1  0.36131800  0.59255300  0.79625000  1
  O  O18  1  0.81435200  0.18106000  0.60267700  1
  O  O19  1  0.81471500  0.60482800  0.17877000  1
  O  O20  1  0.62161800  0.89595100  0.33714500  1
  O  O21  1  0.62794800  0.34174300  0.89217600  1
  O  O22  1  0.17931400  0.52231800  0.07215700  1
  O  O23  1  0.17474900  0.07472400  0.51670100  1
