# generated using pymatgen
data_Na3V5O10
_symmetry_space_group_name_H-M   'P 1'
_cell_length_a   5.20035222
_cell_length_b   6.57768741
_cell_length_c   13.37802646
_cell_angle_alpha   88.10291978
_cell_angle_beta   82.23335801
_cell_angle_gamma   104.57176316
_symmetry_Int_Tables_number   1
_chemical_formula_structural   Na3V5O10
_chemical_formula_sum   'Na6 V10 O20'
_cell_volume   437.75425353
_cell_formula_units_Z   2
loop_
 _symmetry_equiv_pos_site_id
 _symmetry_equiv_pos_as_xyz
  1  'x, y, z'
loop_
 _atom_site_type_symbol
 _atom_site_label
 _atom_site_symmetry_multiplicity
 _atom_site_fract_x
 _atom_site_fract_y
 _atom_site_fract_z
 _atom_site_occupancy
  Na  Na0  1  0.50001200  0.60005000  0.10001400  1
  Na  Na1  1  0.00001700  0.10003300  0.60004500  1
  Na  Na2  1  0.49717500  0.79972800  0.30065000  1
  Na  Na3  1  0.00374700  0.30408200  0.80063200  1
  Na  Na4  1  0.99621900  0.89595500  0.39934700  1
  Na  Na5  1  0.50283500  0.40020300  0.89930100  1
  V  V6  1  0.00005000  0.60003900  0.60001300  1
  V  V7  1  0.00237200  0.80043200  0.80307200  1
  V  V8  1  0.99763200  0.39956500  0.39693400  1
  V  V9  1  0.00331400  0.20719300  0.19978500  1
  V  V10  1  0.99663700  0.99280300  0.00018800  1
  V  V11  1  0.49992300  0.10002500  0.09998000  1
  V  V12  1  0.49943800  0.29954100  0.30352100  1
  V  V13  1  0.50063500  0.90039700  0.89643600  1
  V  V14  1  0.49976900  0.70901900  0.70023800  1
  V  V15  1  0.50027400  0.49095800  0.49980700  1
  O  O16  1  0.75319400  0.95459400  0.13770400  1
  O  O17  1  0.25186800  0.45138300  0.63651100  1
  O  O18  1  0.24683500  0.24551800  0.06226000  1
  O  O19  1  0.74816400  0.74859800  0.56353700  1
  O  O20  1  0.22411400  0.64700100  0.46086600  1
  O  O21  1  0.72151000  0.15155200  0.96103300  1
  O  O22  1  0.27849100  0.04839300  0.23894100  1
  O  O23  1  0.77595100  0.55302800  0.73917900  1
  O  O24  1  0.27565200  0.23433800  0.43045500  1
  O  O25  1  0.76037200  0.74649800  0.93994900  1
  O  O26  1  0.23952500  0.45342700  0.26004500  1
  O  O27  1  0.72430800  0.96569300  0.76952900  1
  O  O28  1  0.70325400  0.34519600  0.16736200  1
  O  O29  1  0.21705800  0.84427500  0.66308800  1
  O  O30  1  0.29664900  0.85484000  0.03262300  1
  O  O31  1  0.78303600  0.35575900  0.53695800  1
  O  O32  1  0.77086800  0.14618800  0.33592100  1
  O  O33  1  0.28397500  0.64705900  0.84039400  1
  O  O34  1  0.71603600  0.55287100  0.35965100  1
  O  O35  1  0.22909200  0.05376300  0.86403100  1
