# generated using pymatgen
data_Sr2VMoO6
_symmetry_space_group_name_H-M   'P 1'
_cell_length_a   4.03279793
_cell_length_b   7.91393315
_cell_length_c   8.05112595
_cell_angle_alpha   90.02568402
_cell_angle_beta   90.11080330
_cell_angle_gamma   89.99543092
_symmetry_Int_Tables_number   1
_chemical_formula_structural   Sr2VMoO6
_chemical_formula_sum   'Sr4 V2 Mo2 O12'
_cell_volume   256.95353840
_cell_formula_units_Z   2
loop_
 _symmetry_equiv_pos_site_id
 _symmetry_equiv_pos_as_xyz
  1  'x, y, z'
loop_
 _atom_site_type_symbol
 _atom_site_label
 _atom_site_symmetry_multiplicity
 _atom_site_fract_x
 _atom_site_fract_y
 _atom_site_fract_z
 _atom_site_occupancy
  Sr  Sr0  1  0.49990500  0.24622700  0.75339400  1
  Sr  Sr1  1  0.50009100  0.75375700  0.24658000  1
  Sr  Sr2  1  0.50003800  0.24631100  0.24669000  1
  Sr  Sr3  1  0.49995800  0.75364700  0.75332800  1
  V  V4  1  0.99999900  0.50005100  0.50002900  1
  V  V5  1  0.00002900  0.99996900  0.99997700  1
  Mo  Mo6  1  0.99999500  0.50008700  0.99997200  1
  Mo  Mo7  1  0.99999700  0.99992600  0.49997600  1
  O  O8  1  0.50000000  0.00003100  0.99999600  1
  O  O9  1  0.50000600  0.49993900  0.49998900  1
  O  O10  1  0.49999600  0.49994500  0.00000800  1
  O  O11  1  0.49999600  0.00001600  0.49999800  1
  O  O12  1  0.99954400  0.23616000  0.00026200  1
  O  O13  1  0.99989100  0.75250200  0.50006900  1
  O  O14  1  0.00044600  0.76393400  0.99975300  1
  O  O15  1  0.00011200  0.24756700  0.49993200  1
  O  O16  1  0.00280200  0.50014400  0.24922800  1
  O  O17  1  0.00024800  0.00013600  0.75087000  1
  O  O18  1  0.99720800  0.49974200  0.75083200  1
  O  O19  1  0.99973700  0.99990600  0.24911900  1
