# generated using pymatgen
data_Ca2MnGaO5
_symmetry_space_group_name_H-M   'P 1'
_cell_length_a   5.37513370
_cell_length_b   5.61743900
_cell_length_c   8.44171964
_cell_angle_alpha   109.41055999
_cell_angle_beta   108.54649186
_cell_angle_gamma   90.29094591
_symmetry_Int_Tables_number   1
_chemical_formula_structural   Ca2MnGaO5
_chemical_formula_sum   'Ca4 Mn2 Ga2 O10'
_cell_volume   226.16427569
_cell_formula_units_Z   2
loop_
 _symmetry_equiv_pos_site_id
 _symmetry_equiv_pos_as_xyz
  1  'x, y, z'
loop_
 _atom_site_type_symbol
 _atom_site_label
 _atom_site_symmetry_multiplicity
 _atom_site_fract_x
 _atom_site_fract_y
 _atom_site_fract_z
 _atom_site_occupancy
  Ca  Ca0  1  0.61030100  0.13848200  0.21866400  1
  Ca  Ca1  1  0.39248300  0.86143900  0.78074800  1
  Ca  Ca2  1  0.10671200  0.58235300  0.21778800  1
  Ca  Ca3  1  0.88821800  0.41810700  0.78257900  1
  Mn  Mn4  1  0.98669500  0.00055600  0.99981400  1
  Mn  Mn5  1  0.48476400  0.49979400  0.99993500  1
  Ga  Ga6  1  0.28099200  0.18512200  0.50466400  1
  Ga  Ga7  1  0.77597700  0.81547200  0.49519100  1
  O  O8  1  0.63143900  0.12731100  0.49929400  1
  O  O9  1  0.13213100  0.87270200  0.50050500  1
  O  O10  1  0.31642800  0.42914100  0.72401700  1
  O  O11  1  0.59154500  0.57066200  0.27674600  1
  O  O12  1  0.79560400  0.76961600  0.70275600  1
  O  O13  1  0.08816400  0.22963200  0.29748700  1
  O  O14  1  0.25104400  0.77514700  0.03309700  1
  O  O15  1  0.22788700  0.23668900  0.97310600  1
  O  O16  1  0.72392700  0.23255900  0.96604000  1
  O  O17  1  0.74769000  0.75522000  0.02757400  1
