# generated using pymatgen
data_FeHO2
_symmetry_space_group_name_H-M   'P 1'
_cell_length_a   3.07818100
_cell_length_b   7.72335474
_cell_length_c   7.63874768
_cell_angle_alpha   92.99281848
_cell_angle_beta   101.62537995
_cell_angle_gamma   78.50457629
_symmetry_Int_Tables_number   1
_chemical_formula_structural   FeHO2
_chemical_formula_sum   'Fe4 H4 O8'
_cell_volume   174.29546895
_cell_formula_units_Z   4
loop_
 _symmetry_equiv_pos_site_id
 _symmetry_equiv_pos_as_xyz
  1  'x, y, z'
loop_
 _atom_site_type_symbol
 _atom_site_label
 _atom_site_symmetry_multiplicity
 _atom_site_fract_x
 _atom_site_fract_y
 _atom_site_fract_z
 _atom_site_occupancy
  Fe  Fe0  1  0.35532700  0.49536500  0.20611900  1
  Fe  Fe1  1  0.14854500  0.20475000  0.50187300  1
  Fe  Fe2  1  0.64463800  0.50468400  0.79386700  1
  Fe  Fe3  1  0.85148600  0.79521800  0.49813300  1
  H  H4  1  0.90855800  0.24391800  0.06094500  1
  H  H5  1  0.09141400  0.75608600  0.93902000  1
  H  H6  1  0.84624100  0.06643200  0.75894000  1
  H  H7  1  0.15372800  0.93355600  0.24100300  1
  O  O8  1  0.83746600  0.37106200  0.04631500  1
  O  O9  1  0.16250000  0.62893600  0.95362800  1
  O  O10  1  0.78855300  0.05276800  0.62995200  1
  O  O11  1  0.21149800  0.94721100  0.37012500  1
  O  O12  1  0.46360600  0.71045600  0.63756900  1
  O  O13  1  0.53644800  0.28951000  0.36247700  1
  O  O14  1  0.83607800  0.62829900  0.30044000  1
  O  O15  1  0.16391400  0.37175000  0.69959500  1
