# generated using pymatgen
data_Mg2CoWO6
_symmetry_space_group_name_H-M   'P 1'
_cell_length_a   5.18106195
_cell_length_b   5.32837743
_cell_length_c   7.78690572
_cell_angle_alpha   89.98886117
_cell_angle_beta   90.27091629
_cell_angle_gamma   90.03301255
_symmetry_Int_Tables_number   1
_chemical_formula_structural   Mg2CoWO6
_chemical_formula_sum   'Mg4 Co2 W2 O12'
_cell_volume   214.96796569
_cell_formula_units_Z   2
loop_
 _symmetry_equiv_pos_site_id
 _symmetry_equiv_pos_as_xyz
  1  'x, y, z'
loop_
 _atom_site_type_symbol
 _atom_site_label
 _atom_site_symmetry_multiplicity
 _atom_site_fract_x
 _atom_site_fract_y
 _atom_site_fract_z
 _atom_site_occupancy
  Mg  Mg0  1  0.99433400  0.04808600  0.26938000  1
  Mg  Mg1  1  0.50617300  0.54847300  0.23053900  1
  Mg  Mg2  1  0.00567000  0.95191500  0.73062100  1
  Mg  Mg3  1  0.49382200  0.45152400  0.76946400  1
  Co  Co4  1  0.00000100  0.49999900  0.50000100  1
  Co  Co5  1  0.49999900  0.00000100  0.00000000  1
  W  W6  1  0.50000100  0.00000000  0.50000100  1
  W  W7  1  0.99999900  0.50000000  0.99999800  1
  O  O8  1  0.66702500  0.30039200  0.40846100  1
  O  O9  1  0.83328700  0.80016700  0.09170000  1
  O  O10  1  0.33298000  0.69960300  0.59154000  1
  O  O11  1  0.16671400  0.19983500  0.90829600  1
  O  O12  1  0.18322300  0.17756000  0.54942700  1
  O  O13  1  0.31690600  0.67779700  0.95060600  1
  O  O14  1  0.81678000  0.82244000  0.45057300  1
  O  O15  1  0.68308900  0.32220800  0.04939200  1
  O  O16  1  0.13153100  0.41294100  0.23042600  1
  O  O17  1  0.36859700  0.91300100  0.26934500  1
  O  O18  1  0.63140700  0.08700000  0.73065600  1
  O  O19  1  0.86846600  0.58705900  0.76957300  1
