# generated using pymatgen
data_Na3(CoO2)5
_symmetry_space_group_name_H-M   'P 1'
_cell_length_a   4.98093049
_cell_length_b   9.25998664
_cell_length_c   9.25970180
_cell_angle_alpha   75.08333009
_cell_angle_beta   85.31013871
_cell_angle_gamma   94.68848444
_symmetry_Int_Tables_number   1
_chemical_formula_structural   Na3(CoO2)5
_chemical_formula_sum   'Na6 Co10 O20'
_cell_volume   408.96507887
_cell_formula_units_Z   2
loop_
 _symmetry_equiv_pos_site_id
 _symmetry_equiv_pos_as_xyz
  1  'x, y, z'
loop_
 _atom_site_type_symbol
 _atom_site_label
 _atom_site_symmetry_multiplicity
 _atom_site_fract_x
 _atom_site_fract_y
 _atom_site_fract_z
 _atom_site_occupancy
  Na  Na0  1  0.40860300  0.64361500  0.15637400  1
  Na  Na1  1  0.90383700  0.15494200  0.64506100  1
  Na  Na2  1  0.92200900  0.34871000  0.84737300  1
  Na  Na3  1  0.42264300  0.84322900  0.35108700  1
  Na  Na4  1  0.42266200  0.44888300  0.95676400  1
  Na  Na5  1  0.92197100  0.95260900  0.45129400  1
  Co  Co6  1  0.50046800  0.90430300  0.89570100  1
  Co  Co7  1  0.00270700  0.41515300  0.38485500  1
  Co  Co8  1  0.99703600  0.99476400  0.00001100  1
  Co  Co9  1  0.49605700  0.49106100  0.51139000  1
  Co  Co10  1  0.99703600  0.79999700  0.80523800  1
  Co  Co11  1  0.49605100  0.28859500  0.30896100  1
  Co  Co12  1  0.50011200  0.09639800  0.09191300  1
  Co  Co13  1  0.00501000  0.61113300  0.59863700  1
  Co  Co14  1  0.00499800  0.20135900  0.18889000  1
  Co  Co15  1  0.50011900  0.70809900  0.70361500  1
  O  O16  1  0.69394000  0.49193800  0.30804200  1
  O  O17  1  0.18573600  0.98547800  0.81452000  1
  O  O18  1  0.80292900  0.81555200  0.98445700  1
  O  O19  1  0.28642400  0.30466800  0.49534300  1
  O  O20  1  0.19164200  0.18296200  0.00383800  1
  O  O21  1  0.68870500  0.70999000  0.52397700  1
  O  O22  1  0.68870900  0.27601700  0.08996300  1
  O  O23  1  0.19165000  0.79617400  0.61703600  1
  O  O24  1  0.70038000  0.08738200  0.90795300  1
  O  O25  1  0.21569000  0.60336900  0.40943100  1
  O  O26  1  0.21568300  0.39054000  0.19662700  1
  O  O27  1  0.70039200  0.89204400  0.71261600  1
  O  O28  1  0.30874200  0.91119000  0.08335900  1
  O  O29  1  0.81314100  0.42295400  0.59984800  1
  O  O30  1  0.30873500  0.71665700  0.88880800  1
  O  O31  1  0.81313800  0.20015100  0.37706100  1
  O  O32  1  0.79568900  0.62036700  0.80005900  1
  O  O33  1  0.30483700  0.08992300  0.27618500  1
  O  O34  1  0.30481600  0.52383600  0.71005900  1
  O  O35  1  0.79569400  0.99995900  0.17965200  1
