# generated using pymatgen
data_CoAgPO4
_symmetry_space_group_name_H-M   'P 1'
_cell_length_a   5.73548023
_cell_length_b   6.59123897
_cell_length_c   9.49490249
_cell_angle_alpha   75.68106058
_cell_angle_beta   78.99373674
_cell_angle_gamma   78.47322423
_symmetry_Int_Tables_number   1
_chemical_formula_structural   CoAgPO4
_chemical_formula_sum   'Co4 Ag4 P4 O16'
_cell_volume   336.97307941
_cell_formula_units_Z   4
loop_
 _symmetry_equiv_pos_site_id
 _symmetry_equiv_pos_as_xyz
  1  'x, y, z'
loop_
 _atom_site_type_symbol
 _atom_site_label
 _atom_site_symmetry_multiplicity
 _atom_site_fract_x
 _atom_site_fract_y
 _atom_site_fract_z
 _atom_site_occupancy
  Co  Co0  1  0.78391100  0.16509500  0.56704400  1
  Co  Co1  1  0.21351700  0.82454300  0.43540400  1
  Co  Co2  1  0.32731200  0.93613900  0.78408200  1
  Co  Co3  1  0.66945700  0.06248500  0.21796700  1
  Ag  Ag4  1  0.68094000  0.39463800  0.87619200  1
  Ag  Ag5  1  0.31749000  0.60993300  0.12567500  1
  Ag  Ag6  1  0.18042400  0.46630600  0.77102000  1
  Ag  Ag7  1  0.81858000  0.53203000  0.23082300  1
  P  P8  1  0.67712600  0.71491100  0.53026500  1
  P  P9  1  0.32299000  0.27891800  0.47043000  1
  P  P10  1  0.81131600  0.87356400  0.90130800  1
  P  P11  1  0.18818300  0.13308400  0.09739400  1
  O  O12  1  0.86095200  0.84536000  0.55329200  1
  O  O13  1  0.13788400  0.15083800  0.44824000  1
  O  O14  1  0.64046800  0.77809200  0.36259100  1
  O  O15  1  0.36092400  0.22037500  0.63708400  1
  O  O16  1  0.75919100  0.47700300  0.57870100  1
  O  O17  1  0.24488400  0.51720300  0.41844500  1
  O  O18  1  0.41820100  0.78647700  0.61159200  1
  O  O19  1  0.58340500  0.20698200  0.38991300  1
  O  O20  1  0.79709800  0.09140200  0.78778500  1
  O  O21  1  0.20399600  0.91556100  0.21016700  1
  O  O22  1  0.76172100  0.90054100  0.06058200  1
  O  O23  1  0.24106200  0.10676200  0.93737400  1
  O  O24  1  0.07311000  0.74751200  0.87197800  1
  O  O25  1  0.92561600  0.25778500  0.12550300  1
  O  O26  1  0.62398100  0.74709700  0.87678600  1
  O  O27  1  0.37626300  0.25936600  0.12236300  1
