# generated using pymatgen
data_Sr3NbCoO7
_symmetry_space_group_name_H-M   'P 1'
_cell_length_a   7.95339000
_cell_length_b   11.09965566
_cell_length_c   8.89943864
_cell_angle_alpha   85.39511379
_cell_angle_beta   116.54039297
_cell_angle_gamma   79.67994891
_symmetry_Int_Tables_number   1
_chemical_formula_structural   Sr3NbCoO7
_chemical_formula_sum   'Sr12 Nb4 Co4 O28'
_cell_volume   679.90998342
_cell_formula_units_Z   4
loop_
 _symmetry_equiv_pos_site_id
 _symmetry_equiv_pos_as_xyz
  1  'x, y, z'
loop_
 _atom_site_type_symbol
 _atom_site_label
 _atom_site_symmetry_multiplicity
 _atom_site_fract_x
 _atom_site_fract_y
 _atom_site_fract_z
 _atom_site_occupancy
  Sr  Sr0  1  0.23126300  0.38427200  0.15487100  1
  Sr  Sr1  1  0.73157500  0.38249900  0.15361300  1
  Sr  Sr2  1  0.98165600  0.38265800  0.65483300  1
  Sr  Sr3  1  0.48039700  0.38416600  0.65321000  1
  Sr  Sr4  1  0.76142200  0.63443200  0.84116400  1
  Sr  Sr5  1  0.26148200  0.63479800  0.84045900  1
  Sr  Sr6  1  0.51319900  0.63310100  0.34217400  1
  Sr  Sr7  1  0.01210200  0.63299000  0.34223100  1
  Sr  Sr8  1  0.63966800  0.96041700  0.76111800  1
  Sr  Sr9  1  0.13912700  0.96096500  0.75912300  1
  Sr  Sr10  1  0.39437600  0.96108500  0.25983200  1
  Sr  Sr11  1  0.88382300  0.96050300  0.25891000  1
  Nb  Nb12  1  0.92663000  0.19578300  0.95152600  1
  Nb  Nb13  1  0.42616100  0.19632300  0.95049200  1
  Nb  Nb14  1  0.67661300  0.19574100  0.45122200  1
  Nb  Nb15  1  0.17623700  0.19556400  0.45042500  1
  Co  Co16  1  0.08042900  0.78876400  0.05469700  1
  Co  Co17  1  0.82844200  0.78533200  0.55043900  1
  Co  Co18  1  0.58176700  0.78451100  0.05678700  1
  Co  Co19  1  0.32789800  0.78945800  0.55062500  1
  O  O20  1  0.99532400  0.01691300  0.00179900  1
  O  O21  1  0.49494800  0.01744000  0.99541000  1
  O  O22  1  0.74245300  0.01698900  0.49477900  1
  O  O23  1  0.24223300  0.01665800  0.49088200  1
  O  O24  1  0.15525900  0.60492400  0.10898600  1
  O  O25  1  0.64622200  0.60114800  0.09163200  1
  O  O26  1  0.90330700  0.60160200  0.60672300  1
  O  O27  1  0.39370800  0.60496800  0.59016700  1
  O  O28  1  0.85328000  0.39220000  0.90116100  1
  O  O29  1  0.35240900  0.39208200  0.90132500  1
  O  O30  1  0.60469200  0.39153800  0.40271100  1
  O  O31  1  0.10297300  0.39194000  0.40300600  1
  O  O32  1  0.95557300  0.80908100  0.81568600  1
  O  O33  1  0.43726300  0.80874200  0.78014700  1
  O  O34  1  0.69838100  0.80119600  0.29946000  1
  O  O35  1  0.19699000  0.80953300  0.29800700  1
  O  O36  1  0.81150900  0.80523300  0.04843900  1
  O  O37  1  0.33342100  0.80700200  0.04722100  1
  O  O38  1  0.58451200  0.80639200  0.54973100  1
  O  O39  1  0.06066400  0.80679300  0.54836100  1
  O  O40  1  0.04679400  0.20984600  0.19764400  1
  O  O41  1  0.54739900  0.20626400  0.19832900  1
  O  O42  1  0.79851100  0.20502700  0.69920500  1
  O  O43  1  0.29768300  0.20567400  0.69804800  1
  O  O44  1  0.17259300  0.20626600  0.94834200  1
  O  O45  1  0.67209000  0.20778100  0.94770700  1
  O  O46  1  0.92317600  0.20576900  0.44889300  1
  O  O47  1  0.42235900  0.20763200  0.44845000  1
