# generated using pymatgen
data_CaCr2O4
_symmetry_space_group_name_H-M   'P 1'
_cell_length_a   6.00958885
_cell_length_b   11.77489025
_cell_length_c   6.02764515
_cell_angle_alpha   104.83032443
_cell_angle_beta   120.09987964
_cell_angle_gamma   75.26290798
_symmetry_Int_Tables_number   1
_chemical_formula_structural   CaCr2O4
_chemical_formula_sum   'Ca4 Cr8 O16'
_cell_volume   352.64783821
_cell_formula_units_Z   4
loop_
 _symmetry_equiv_pos_site_id
 _symmetry_equiv_pos_as_xyz
  1  'x, y, z'
loop_
 _atom_site_type_symbol
 _atom_site_label
 _atom_site_symmetry_multiplicity
 _atom_site_fract_x
 _atom_site_fract_y
 _atom_site_fract_z
 _atom_site_occupancy
  Ca  Ca0  1  0.99202700  0.02549200  0.00874800  1
  Ca  Ca1  1  0.49184900  0.52539600  0.50861400  1
  Ca  Ca2  1  0.31742200  0.04738500  0.68239900  1
  Ca  Ca3  1  0.81730000  0.54735300  0.18231900  1
  Cr  Cr4  1  0.57501400  0.27564300  0.42533100  1
  Cr  Cr5  1  0.07499400  0.77579700  0.92539800  1
  Cr  Cr6  1  0.57013500  0.80017000  0.93999500  1
  Cr  Cr7  1  0.57013100  0.80017100  0.43031800  1
  Cr  Cr8  1  0.55943300  0.30017600  0.92980600  1
  Cr  Cr9  1  0.07058400  0.30010600  0.44039000  1
  Cr  Cr10  1  0.07057900  0.30010700  0.93030600  1
  Cr  Cr11  1  0.05879500  0.79995800  0.42937900  1
  O  O12  1  0.20263700  0.38972000  0.79618000  1
  O  O13  1  0.70203300  0.88971600  0.29587400  1
  O  O14  1  0.92833400  0.21498700  0.07165300  1
  O  O15  1  0.42850100  0.71505200  0.57176900  1
  O  O16  1  0.94474800  0.19759400  0.57118200  1
  O  O17  1  0.44555400  0.69677500  0.07117300  1
  O  O18  1  0.42871600  0.19665700  0.57004600  1
  O  O19  1  0.93018200  0.69674000  0.07136800  1
  O  O20  1  0.42871100  0.19665700  0.05533000  1
  O  O21  1  0.93017500  0.69674000  0.55555900  1
  O  O22  1  0.69995000  0.39365600  0.79357900  1
  O  O23  1  0.19959000  0.89363000  0.29343400  1
  O  O24  1  0.69996100  0.39365200  0.30002000  1
  O  O25  1  0.19960200  0.89362600  0.79977700  1
  O  O26  1  0.20682600  0.39328500  0.30005900  1
  O  O27  1  0.70621800  0.89375800  0.79998900  1
