# generated using pymatgen
data_V2ZnO4
_symmetry_space_group_name_H-M   'P 1'
_cell_length_a   6.08379416
_cell_length_b   10.53350116
_cell_length_c   6.05897381
_cell_angle_alpha   73.10812829
_cell_angle_beta   120.07440378
_cell_angle_gamma   90.01069324
_symmetry_Int_Tables_number   1
_chemical_formula_structural   V2ZnO4
_chemical_formula_sum   'V8 Zn4 O16'
_cell_volume   316.51465713
_cell_formula_units_Z   4
loop_
 _symmetry_equiv_pos_site_id
 _symmetry_equiv_pos_as_xyz
  1  'x, y, z'
loop_
 _atom_site_type_symbol
 _atom_site_label
 _atom_site_symmetry_multiplicity
 _atom_site_fract_x
 _atom_site_fract_y
 _atom_site_fract_z
 _atom_site_occupancy
  V  V0  1  0.62955800  0.12406700  0.25880500  1
  V  V1  1  0.12832600  0.62440900  0.25628600  1
  V  V2  1  0.55892500  0.81338500  0.62476400  1
  V  V3  1  0.81247100  0.55902000  0.62488100  1
  V  V4  1  0.06570700  0.81364100  0.62460700  1
  V  V5  1  0.06245500  0.31364200  0.62920300  1
  V  V6  1  0.31452400  0.05911300  0.62914300  1
  V  V7  1  0.56671300  0.31328700  0.62904800  1
  Zn  Zn8  1  0.99562200  0.00134700  0.99125200  1
  Zn  Zn9  1  0.49568000  0.50173700  0.99146000  1
  Zn  Zn10  1  0.06170000  0.31364400  0.12312800  1
  Zn  Zn11  1  0.56119100  0.81191300  0.12263800  1
  O  O12  1  0.42925500  0.19003500  0.85861800  1
  O  O13  1  0.92563800  0.68952500  0.85112800  1
  O  O14  1  0.70045900  0.43630000  0.40082700  1
  O  O15  1  0.19958000  0.93105300  0.39988200  1
  O  O16  1  0.96126100  0.18831200  0.39530400  1
  O  O17  1  0.45596500  0.68889500  0.39212100  1
  O  O18  1  0.19915100  0.42650600  0.39827900  1
  O  O19  1  0.69511900  0.92707800  0.38992700  1
  O  O20  1  0.43434400  0.18818800  0.39559400  1
  O  O21  1  0.93566400  0.68830500  0.39264200  1
  O  O22  1  0.69501400  0.43469100  0.85692500  1
  O  O23  1  0.19069300  0.93634400  0.85071000  1
  O  O24  1  0.92426300  0.20280500  0.84880800  1
  O  O25  1  0.42751400  0.70252700  0.85556100  1
  O  O26  1  0.16309100  0.43404500  0.85830100  1
  O  O27  1  0.66012100  0.93618700  0.85016300  1
