# generated using pymatgen
data_Mg(CoO2)2
_symmetry_space_group_name_H-M   'P 1'
_cell_length_a   5.80419260
_cell_length_b   5.98063148
_cell_length_c   5.80432493
_cell_angle_alpha   117.38697694
_cell_angle_beta   92.14806998
_cell_angle_gamma   118.30193133
_symmetry_Int_Tables_number   1
_chemical_formula_structural   Mg(CoO2)2
_chemical_formula_sum   'Mg2 Co4 O8'
_cell_volume   148.86109369
_cell_formula_units_Z   2
loop_
 _symmetry_equiv_pos_site_id
 _symmetry_equiv_pos_as_xyz
  1  'x, y, z'
loop_
 _atom_site_type_symbol
 _atom_site_label
 _atom_site_symmetry_multiplicity
 _atom_site_fract_x
 _atom_site_fract_y
 _atom_site_fract_z
 _atom_site_occupancy
  Mg  Mg0  1  0.63116700  0.74999700  0.38116400  1
  Mg  Mg1  1  0.36884100  0.25001400  0.61884400  1
  Co  Co2  1  0.00000400  0.50000300  0.50000100  1
  Co  Co3  1  0.00000000  0.00000200  0.00000000  1
  Co  Co4  1  0.99999700  0.49999900  0.99999800  1
  Co  Co5  1  0.49999600  0.99999800  0.99999700  1
  O  O6  1  0.78212900  0.50801800  0.74757300  1
  O  O7  1  0.23956100  0.99201400  0.77414300  1
  O  O8  1  0.22586200  0.97048800  0.21497900  1
  O  O9  1  0.21787200  0.49198000  0.25243300  1
  O  O10  1  0.75549700  0.47051300  0.24464000  1
  O  O11  1  0.76044300  0.00798600  0.22585300  1
  O  O12  1  0.24450500  0.52948300  0.75536200  1
  O  O13  1  0.77412700  0.02950500  0.78501300  1
