# generated using pymatgen
data_CaLa3Mn4O12
_symmetry_space_group_name_H-M   'P 1'
_cell_length_a   5.56186614
_cell_length_b   7.78497405
_cell_length_c   5.62722081
_cell_angle_alpha   90.06246968
_cell_angle_beta   89.45354039
_cell_angle_gamma   90.26249453
_symmetry_Int_Tables_number   1
_chemical_formula_structural   CaLa3Mn4O12
_chemical_formula_sum   'Ca1 La3 Mn4 O12'
_cell_volume   243.63916918
_cell_formula_units_Z   1
loop_
 _symmetry_equiv_pos_site_id
 _symmetry_equiv_pos_as_xyz
  1  'x, y, z'
loop_
 _atom_site_type_symbol
 _atom_site_label
 _atom_site_symmetry_multiplicity
 _atom_site_fract_x
 _atom_site_fract_y
 _atom_site_fract_z
 _atom_site_occupancy
  Ca  Ca0  1  0.48734900  0.75105700  0.45807200  1
  La  La1  1  0.00728200  0.75060800  0.96144900  1
  La  La2  1  0.50974500  0.24845200  0.53542500  1
  La  La3  1  0.99485700  0.24930800  0.03715900  1
  Mn  Mn4  1  0.50023400  0.50339300  0.00161600  1
  Mn  Mn5  1  0.00045000  0.50356600  0.50010600  1
  Mn  Mn6  1  0.50007300  0.99658000  0.00025800  1
  Mn  Mn7  1  0.00096600  0.99537400  0.49902300  1
  O  O8  1  0.57657100  0.74084400  0.02506200  1
  O  O9  1  0.90916100  0.74041000  0.51680800  1
  O  O10  1  0.42828500  0.26016300  0.98648900  1
  O  O11  1  0.08126200  0.25883800  0.49031700  1
  O  O12  1  0.22240600  0.96556100  0.20218400  1
  O  O13  1  0.20709200  0.54051600  0.21916300  1
  O  O14  1  0.27436500  0.54662200  0.70870100  1
  O  O15  1  0.27342700  0.95912600  0.70382800  1
  O  O16  1  0.78974700  0.45672800  0.77936300  1
  O  O17  1  0.77534700  0.03885800  0.79522600  1
  O  O18  1  0.73098800  0.04228400  0.29216600  1
  O  O19  1  0.73038900  0.45171300  0.28758400  1
