# generated using pymatgen
data_VZnPO5
_symmetry_space_group_name_H-M   'P 1'
_cell_length_a   5.50676139
_cell_length_b   7.20518756
_cell_length_c   10.78812080
_cell_angle_alpha   100.78047257
_cell_angle_beta   101.22159960
_cell_angle_gamma   108.26176747
_symmetry_Int_Tables_number   1
_chemical_formula_structural   VZnPO5
_chemical_formula_sum   'V4 Zn4 P4 O20'
_cell_volume   384.31881490
_cell_formula_units_Z   4
loop_
 _symmetry_equiv_pos_site_id
 _symmetry_equiv_pos_as_xyz
  1  'x, y, z'
loop_
 _atom_site_type_symbol
 _atom_site_label
 _atom_site_symmetry_multiplicity
 _atom_site_fract_x
 _atom_site_fract_y
 _atom_site_fract_z
 _atom_site_occupancy
  V  V0  1  0.74849500  0.25162300  0.74962400  1
  V  V1  1  0.74840600  0.75150800  0.74948100  1
  V  V2  1  0.24842600  0.75152300  0.24960100  1
  V  V3  1  0.24840500  0.25150400  0.24939600  1
  Zn  Zn4  1  0.27790200  0.84221900  0.59103900  1
  Zn  Zn5  1  0.77794800  0.34240100  0.09103700  1
  Zn  Zn6  1  0.22014000  0.66645700  0.90701700  1
  Zn  Zn7  1  0.72008900  0.16630400  0.40701800  1
  P  P8  1  0.28279600  0.17879300  0.92816400  1
  P  P9  1  0.78288200  0.67881900  0.42806400  1
  P  P10  1  0.21379600  0.32400100  0.57123400  1
  P  P11  1  0.71372900  0.82396600  0.07133600  1
  O  O12  1  0.87900200  0.54506200  0.79372400  1
  O  O13  1  0.37904000  0.04507300  0.29367700  1
  O  O14  1  0.61793200  0.95795300  0.70549200  1
  O  O15  1  0.11789000  0.45791400  0.20553200  1
  O  O16  1  0.13851100  0.94898700  0.86492000  1
  O  O17  1  0.63859900  0.44904400  0.36474300  1
  O  O18  1  0.11251700  0.30139400  0.88696500  1
  O  O19  1  0.61271600  0.80148300  0.38683900  1
  O  O20  1  0.35929700  0.55322400  0.63496100  1
  O  O21  1  0.85920600  0.05314400  0.13514100  1
  O  O22  1  0.38237700  0.19975200  0.61220700  1
  O  O23  1  0.88220800  0.69965700  0.11232400  1
  O  O24  1  0.93233800  0.24710600  0.59878400  1
  O  O25  1  0.43223300  0.74700800  0.09879800  1
  O  O26  1  0.61539400  0.77555500  0.91701200  1
  O  O27  1  0.11532600  0.27548500  0.41693100  1
  O  O28  1  0.56362000  0.25612000  0.89994200  1
  O  O29  1  0.06374100  0.75617500  0.39992700  1
  O  O30  1  0.88256100  0.72810800  0.58234700  1
  O  O31  1  0.38262300  0.22818000  0.08242800  1
