# generated using pymatgen
data_MgMn2O4
_symmetry_space_group_name_H-M   'P 1'
_cell_length_a   6.07118433
_cell_length_b   10.34759386
_cell_length_c   6.07130399
_cell_angle_alpha   106.03060478
_cell_angle_beta   119.79448758
_cell_angle_gamma   73.96871648
_symmetry_Int_Tables_number   1
_chemical_formula_structural   MgMn2O4
_chemical_formula_sum   'Mg4 Mn8 O16'
_cell_volume   313.67849887
_cell_formula_units_Z   4
loop_
 _symmetry_equiv_pos_site_id
 _symmetry_equiv_pos_as_xyz
  1  'x, y, z'
loop_
 _atom_site_type_symbol
 _atom_site_label
 _atom_site_symmetry_multiplicity
 _atom_site_fract_x
 _atom_site_fract_y
 _atom_site_fract_z
 _atom_site_occupancy
  Mg  Mg0  1  0.51161200  0.48783400  0.48841900  1
  Mg  Mg1  1  0.01132900  0.98782100  0.98870800  1
  Mg  Mg2  1  0.31311800  0.06131900  0.68687900  1
  Mg  Mg3  1  0.81310500  0.56188200  0.18691900  1
  Mn  Mn4  1  0.11407600  0.63654700  0.88592800  1
  Mn  Mn5  1  0.61469900  0.13798200  0.38525800  1
  Mn  Mn6  1  0.06229200  0.31332800  0.43743600  1
  Mn  Mn7  1  0.56186100  0.81285100  0.93691000  1
  Mn  Mn8  1  0.06213800  0.31222000  0.93783400  1
  Mn  Mn9  1  0.56208300  0.81196500  0.43793800  1
  Mn  Mn10  1  0.56252100  0.31334800  0.93770400  1
  Mn  Mn11  1  0.06310300  0.81285400  0.43815800  1
  O  O12  1  0.17178700  0.42946400  0.82804500  1
  O  O13  1  0.67052200  0.93211400  0.32946800  1
  O  O14  1  0.95450100  0.19101400  0.04558200  1
  O  O15  1  0.45389300  0.69066100  0.54616000  1
  O  O16  1  0.96685200  0.20173000  0.59027600  1
  O  O17  1  0.46796700  0.70373900  0.09253000  1
  O  O18  1  0.40969600  0.20779700  0.59026900  1
  O  O19  1  0.90816000  0.70918500  0.09185600  1
  O  O20  1  0.40973700  0.20175700  0.03312200  1
  O  O21  1  0.90749700  0.70374600  0.53204800  1
  O  O22  1  0.71233400  0.42363200  0.83601300  1
  O  O23  1  0.21252800  0.92267500  0.33649200  1
  O  O24  1  0.71251100  0.41836500  0.28749100  1
  O  O25  1  0.21256100  0.91784100  0.78746700  1
  O  O26  1  0.16399000  0.42365200  0.28760600  1
  O  O27  1  0.66353200  0.92268300  0.78748500  1
