# generated using pymatgen
data_Co5SbO8
_symmetry_space_group_name_H-M   'P 1'
_cell_length_a   6.02100761
_cell_length_b   6.01409916
_cell_length_c   10.75465309
_cell_angle_alpha   73.71417193
_cell_angle_beta   89.75576553
_cell_angle_gamma   59.85654750
_symmetry_Int_Tables_number   1
_chemical_formula_structural   Co5SbO8
_chemical_formula_sum   'Co10 Sb2 O16'
_cell_volume   318.85525511
_cell_formula_units_Z   2
loop_
 _symmetry_equiv_pos_site_id
 _symmetry_equiv_pos_as_xyz
  1  'x, y, z'
loop_
 _atom_site_type_symbol
 _atom_site_label
 _atom_site_symmetry_multiplicity
 _atom_site_fract_x
 _atom_site_fract_y
 _atom_site_fract_z
 _atom_site_occupancy
  Co  Co0  1  0.68639400  0.13265800  0.54725000  1
  Co  Co1  1  0.81360600  0.86734200  0.95275000  1
  Co  Co2  1  0.25000000  0.50000000  0.75000000  1
  Co  Co3  1  0.75000000  0.00000000  0.25000000  1
  Co  Co4  1  0.25000000  0.50000000  0.25000000  1
  Co  Co5  1  0.18747400  0.13348500  0.04720200  1
  Co  Co6  1  0.31252700  0.86651500  0.45279800  1
  Co  Co7  1  0.75000000  0.50000000  0.25000000  1
  Co  Co8  1  0.25000000  0.00000000  0.75000000  1
  Co  Co9  1  0.75000000  0.50000000  0.75000000  1
  Sb  Sb10  1  0.50110900  0.50052100  0.99990300  1
  Sb  Sb11  1  0.99889100  0.49947900  0.50009800  1
  O  O12  1  0.63060600  0.24556200  0.35118400  1
  O  O13  1  0.13110000  0.27729700  0.85104100  1
  O  O14  1  0.86939300  0.75443900  0.14881600  1
  O  O15  1  0.36889900  0.72270300  0.64895900  1
  O  O16  1  0.39198400  0.26095300  0.12191100  1
  O  O17  1  0.88670000  0.26556600  0.62117700  1
  O  O18  1  0.85096800  0.26120100  0.11951800  1
  O  O19  1  0.34883900  0.26655100  0.61902200  1
  O  O20  1  0.38790600  0.72596100  0.12067800  1
  O  O21  1  0.88738600  0.72552000  0.62177300  1
  O  O22  1  0.64903200  0.73879900  0.38048200  1
  O  O23  1  0.15116100  0.73344800  0.88097800  1
  O  O24  1  0.11209400  0.27403900  0.37932200  1
  O  O25  1  0.61261500  0.27448000  0.87822700  1
  O  O26  1  0.10801600  0.73904700  0.37809000  1
  O  O27  1  0.61329900  0.73443400  0.87882300  1
