# generated using pymatgen
data_Sr3TaCoO7
_symmetry_space_group_name_H-M   'P 1'
_cell_length_a   5.59441857
_cell_length_b   11.15751096
_cell_length_c   11.19226999
_cell_angle_alpha   89.99873853
_cell_angle_beta   89.99635805
_cell_angle_gamma   75.55282699
_symmetry_Int_Tables_number   1
_chemical_formula_structural   Sr3TaCoO7
_chemical_formula_sum   'Sr12 Ta4 Co4 O28'
_cell_volume   676.52742496
_cell_formula_units_Z   4
loop_
 _symmetry_equiv_pos_site_id
 _symmetry_equiv_pos_as_xyz
  1  'x, y, z'
loop_
 _atom_site_type_symbol
 _atom_site_label
 _atom_site_symmetry_multiplicity
 _atom_site_fract_x
 _atom_site_fract_y
 _atom_site_fract_z
 _atom_site_occupancy
  Sr  Sr0  1  0.51923900  0.96140600  0.49886300  1
  Sr  Sr1  1  0.01934900  0.96141600  0.75117200  1
  Sr  Sr2  1  0.51924100  0.96144400  0.99884800  1
  Sr  Sr3  1  0.01914000  0.96142900  0.25111300  1
  Sr  Sr4  1  0.80846100  0.38393200  0.25017900  1
  Sr  Sr5  1  0.30849400  0.38391500  0.49980600  1
  Sr  Sr6  1  0.80855900  0.38390800  0.75022400  1
  Sr  Sr7  1  0.30853900  0.38388500  0.99978200  1
  Sr  Sr8  1  0.68443900  0.63288700  0.49882700  1
  Sr  Sr9  1  0.18457300  0.63283100  0.75128100  1
  Sr  Sr10  1  0.68449500  0.63281500  0.99874000  1
  Sr  Sr11  1  0.18441600  0.63286600  0.25114900  1
  Ta  Ta12  1  0.90167400  0.19665800  0.50012300  1
  Ta  Ta13  1  0.40163400  0.19680600  0.74977800  1
  Ta  Ta14  1  0.90158100  0.19685800  0.00020300  1
  Ta  Ta15  1  0.40162200  0.19670900  0.24989500  1
  Co  Co16  1  0.60935900  0.78632700  0.74803000  1
  Co  Co17  1  0.10940300  0.78627800  0.00191500  1
  Co  Co18  1  0.60935100  0.78636100  0.24812900  1
  Co  Co19  1  0.10939300  0.78634700  0.50189000  1
  O  O20  1  0.69956900  0.60200100  0.24944100  1
  O  O21  1  0.19959400  0.60206500  0.50057400  1
  O  O22  1  0.69965200  0.60200800  0.74938800  1
  O  O23  1  0.19966500  0.60190700  0.00059800  1
  O  O24  1  0.80510000  0.39010400  0.49844300  1
  O  O25  1  0.30502000  0.39017000  0.75166100  1
  O  O26  1  0.80506700  0.39016600  0.99834900  1
  O  O27  1  0.30511400  0.39009600  0.25154200  1
  O  O28  1  0.98941200  0.01951300  0.50224900  1
  O  O29  1  0.48939600  0.01957900  0.74797000  1
  O  O30  1  0.98939600  0.01960900  0.00203900  1
  O  O31  1  0.48945500  0.01953500  0.24773500  1
  O  O32  1  0.33013900  0.80756900  0.38261000  1
  O  O33  1  0.85962400  0.80545000  0.61756100  1
  O  O34  1  0.33029800  0.80742100  0.88234200  1
  O  O35  1  0.85976000  0.80537200  0.11779800  1
  O  O36  1  0.83016400  0.80750600  0.36747800  1
  O  O37  1  0.35981000  0.80536600  0.63234300  1
  O  O38  1  0.83027700  0.80746400  0.86757300  1
  O  O39  1  0.35959400  0.80544600  0.13235900  1
  O  O40  1  0.14706700  0.20546000  0.37491800  1
  O  O41  1  0.64577200  0.20858300  0.62508300  1
  O  O42  1  0.14694800  0.20566500  0.87489700  1
  O  O43  1  0.64567200  0.20858400  0.12511100  1
  O  O44  1  0.64711200  0.20546000  0.37508400  1
  O  O45  1  0.14564200  0.20856200  0.62489700  1
  O  O46  1  0.64689300  0.20568100  0.87510500  1
  O  O47  1  0.14582600  0.20858700  0.12490400  1
