# generated using pymatgen
data_Sr2LaMn2O7
_symmetry_space_group_name_H-M   'P 1'
_cell_length_a   3.92595300
_cell_length_b   10.66699640
_cell_length_c   7.69392701
_cell_angle_alpha   79.61528597
_cell_angle_beta   89.99896076
_cell_angle_gamma   79.39665785
_symmetry_Int_Tables_number   1
_chemical_formula_structural   Sr2LaMn2O7
_chemical_formula_sum   'Sr4 La2 Mn4 O14'
_cell_volume   311.33449701
_cell_formula_units_Z   2
loop_
 _symmetry_equiv_pos_site_id
 _symmetry_equiv_pos_as_xyz
  1  'x, y, z'
loop_
 _atom_site_type_symbol
 _atom_site_label
 _atom_site_symmetry_multiplicity
 _atom_site_fract_x
 _atom_site_fract_y
 _atom_site_fract_z
 _atom_site_occupancy
  Sr  Sr0  1  0.68244900  0.63516600  0.83900700  1
  Sr  Sr1  1  0.68233100  0.63538400  0.34338500  1
  Sr  Sr2  1  0.50476300  0.99055400  0.75249600  1
  Sr  Sr3  1  0.50476400  0.99049200  0.25222700  1
  La  La4  1  0.31582900  0.36821700  0.15880600  1
  La  La5  1  0.31625800  0.36746600  0.65745000  1
  Mn  Mn6  1  0.09818600  0.80360900  0.04898700  1
  Mn  Mn7  1  0.90428600  0.19145200  0.95256900  1
  Mn  Mn8  1  0.09742600  0.80512000  0.54876000  1
  Mn  Mn9  1  0.90410400  0.19176200  0.45170800  1
  O  O10  1  0.20074100  0.59842700  0.09981100  1
  O  O11  1  0.20693100  0.58626000  0.60423600  1
  O  O12  1  0.80523400  0.38991100  0.90548900  1
  O  O13  1  0.80365200  0.39294100  0.39844600  1
  O  O14  1  0.99806000  0.00384200  0.99912300  1
  O  O15  1  0.99499300  0.00985300  0.49749500  1
  O  O16  1  0.59753500  0.80486500  0.04850800  1
  O  O17  1  0.59706600  0.80582200  0.54879100  1
  O  O18  1  0.09743000  0.80508900  0.80055500  1
  O  O19  1  0.09741200  0.80506300  0.29689700  1
  O  O20  1  0.39799600  0.20403400  0.95110900  1
  O  O21  1  0.39727600  0.20539000  0.44648600  1
  O  O22  1  0.89748100  0.20492500  0.19805600  1
  O  O23  1  0.89779500  0.20435900  0.69960100  1
