# generated using pymatgen
data_Sr2LaMnCoO7
_symmetry_space_group_name_H-M   'P 1'
_cell_length_a   5.45775221
_cell_length_b   10.61290788
_cell_length_c   5.45788380
_cell_angle_alpha   75.15996049
_cell_angle_beta   89.99600987
_cell_angle_gamma   89.94341721
_symmetry_Int_Tables_number   1
_chemical_formula_structural   Sr2LaMnCoO7
_chemical_formula_sum   'Sr4 La2 Mn2 Co2 O14'
_cell_volume   305.58998844
_cell_formula_units_Z   2
loop_
 _symmetry_equiv_pos_site_id
 _symmetry_equiv_pos_as_xyz
  1  'x, y, z'
loop_
 _atom_site_type_symbol
 _atom_site_label
 _atom_site_symmetry_multiplicity
 _atom_site_fract_x
 _atom_site_fract_y
 _atom_site_fract_z
 _atom_site_occupancy
  Sr  Sr0  1  0.00079300  0.00435400  0.49631300  1
  Sr  Sr1  1  0.50142600  0.00469700  0.99686900  1
  Sr  Sr2  1  0.99993500  0.36443800  0.31791200  1
  Sr  Sr3  1  0.49991600  0.36428600  0.81793700  1
  La  La4  1  0.50014900  0.63407600  0.18581400  1
  La  La5  1  0.99721000  0.63401100  0.68264900  1
  Mn  Mn6  1  0.50025900  0.19518400  0.40224800  1
  Mn  Mn7  1  0.00071300  0.19518700  0.90177600  1
  Co  Co8  1  0.99955200  0.80852000  0.09613300  1
  Co  Co9  1  0.49928800  0.80858900  0.59641800  1
  O  O10  1  0.99699600  0.60084000  0.20283900  1
  O  O11  1  0.50349700  0.60059300  0.69607900  1
  O  O12  1  0.49952300  0.39502600  0.30264400  1
  O  O13  1  0.00015800  0.39492400  0.80288700  1
  O  O14  1  0.50082100  0.01063300  0.49399300  1
  O  O15  1  0.00242000  0.01063100  0.99208700  1
  O  O16  1  0.75594000  0.79738900  0.86049500  1
  O  O17  1  0.24073800  0.79755200  0.34526700  1
  O  O18  1  0.74178000  0.79842200  0.35900100  1
  O  O19  1  0.25675200  0.79515900  0.84542900  1
  O  O20  1  0.75051200  0.19650500  0.65136500  1
  O  O21  1  0.25033500  0.19637500  0.15141800  1
  O  O22  1  0.75059100  0.19616500  0.15127900  1
  O  O23  1  0.25069700  0.19644600  0.65115000  1
