# generated using pymatgen
data_CaMnZnAs2H3O10
_symmetry_space_group_name_H-M   'P 1'
_cell_length_a   5.57859321
_cell_length_b   20.06231763
_cell_length_c   7.46565310
_cell_angle_alpha   93.26400217
_cell_angle_beta   68.65342070
_cell_angle_gamma   92.41321461
_symmetry_Int_Tables_number   1
_chemical_formula_structural   CaMnZnAs2H3O10
_chemical_formula_sum   'Ca4 Mn4 Zn4 As8 H12 O40'
_cell_volume   776.76181689
_cell_formula_units_Z   4
loop_
 _symmetry_equiv_pos_site_id
 _symmetry_equiv_pos_as_xyz
  1  'x, y, z'
loop_
 _atom_site_type_symbol
 _atom_site_label
 _atom_site_symmetry_multiplicity
 _atom_site_fract_x
 _atom_site_fract_y
 _atom_site_fract_z
 _atom_site_occupancy
  Ca  Ca0  1  0.25055500  0.25026000  0.25111800  1
  Ca  Ca1  1  0.50063600  0.50029200  0.50168400  1
  Ca  Ca2  1  0.75316200  0.74953700  0.74703000  1
  Ca  Ca3  1  0.00242300  0.99957700  0.99671200  1
  Mn  Mn4  1  0.00455600  0.50053700  0.00292100  1
  Mn  Mn5  1  0.25582500  0.74916700  0.24797800  1
  Mn  Mn6  1  0.75574500  0.25040200  0.75376300  1
  Mn  Mn7  1  0.50681500  0.99908200  0.49844100  1
  Zn  Zn8  1  0.12805600  0.12764300  0.63089400  1
  Zn  Zn9  1  0.37647400  0.37856200  0.88777300  1
  Zn  Zn10  1  0.62895700  0.62767700  0.13189100  1
  Zn  Zn11  1  0.88045500  0.87684700  0.37489900  1
  As  As12  1  0.73455300  0.14728300  0.34778400  1
  As  As13  1  0.97837600  0.39965400  0.60745700  1
  As  As14  1  0.22876400  0.64893300  0.85452900  1
  As  As15  1  0.48453700  0.89656700  0.09516800  1
  As  As16  1  0.51972900  0.10284700  0.90262800  1
  As  As17  1  0.76990800  0.35375900  0.15487600  1
  As  As18  1  0.02668300  0.60146200  0.39538300  1
  As  As19  1  0.27748000  0.85044700  0.64240900  1
  H  H20  1  0.26135100  0.04959400  0.30230700  1
  H  H21  1  0.51165800  0.30031100  0.55376500  1
  H  H22  1  0.75783200  0.54907200  0.80473000  1
  H  H23  1  0.00809100  0.79820900  0.05273900  1
  H  H24  1  0.99417000  0.20318900  0.93845000  1
  H  H25  1  0.24622700  0.45532700  0.18962900  1
  H  H26  1  0.49694700  0.70444500  0.43702500  1
  H  H27  1  0.74456100  0.95246800  0.68605200  1
  H  H28  1  0.03827100  0.00613300  0.48460600  1
  H  H29  1  0.28894700  0.25722100  0.73646300  1
  H  H30  1  0.53515900  0.50717900  0.98758300  1
  H  H31  1  0.78516200  0.75603000  0.23516600  1
  O  O32  1  0.42154900  0.17135800  0.40741800  1
  O  O33  1  0.66559400  0.42231200  0.66173200  1
  O  O34  1  0.91666900  0.67260600  0.91015900  1
  O  O35  1  0.17220200  0.92161400  0.15587200  1
  O  O36  1  0.74036500  0.05990900  0.30970800  1
  O  O37  1  0.99189000  0.31245200  0.57011100  1
  O  O38  1  0.24109600  0.56201900  0.81719100  1
  O  O39  1  0.48947300  0.80951800  0.05737100  1
  O  O40  1  0.83185500  0.07850400  0.84206700  1
  O  O41  1  0.08119300  0.32834000  0.09340200  1
  O  O42  1  0.33778600  0.57736400  0.33973800  1
  O  O43  1  0.58947400  0.82751100  0.58795000  1
  O  O44  1  0.51261200  0.19023300  0.93881000  1
  O  O45  1  0.76232900  0.44081500  0.19046200  1
  O  O46  1  0.01140000  0.68837700  0.43085600  1
  O  O47  1  0.26231000  0.93770200  0.67852000  1
  O  O48  1  0.85705000  0.17123800  0.52595500  1
  O  O49  1  0.09818500  0.42576000  0.78890100  1
  O  O50  1  0.34820300  0.67408000  0.03688000  1
  O  O51  1  0.60656900  0.91970700  0.27419500  1
  O  O52  1  0.39117100  0.07820900  0.72769000  1
  O  O53  1  0.64200000  0.32962200  0.97917000  1
  O  O54  1  0.90391600  0.57552400  0.21493800  1
  O  O55  1  0.15373200  0.82388500  0.46300100  1
  O  O56  1  0.94359800  0.18502500  0.15322000  1
  O  O57  1  0.19135700  0.43564000  0.41216700  1
  O  O58  1  0.44004000  0.68613800  0.66071500  1
  O  O59  1  0.69201400  0.93543300  0.90208300  1
  O  O60  1  0.31015300  0.06525800  0.09842800  1
  O  O61  1  0.56192500  0.31501700  0.34922100  1
  O  O62  1  0.81434200  0.56438700  0.59009700  1
  O  O63  1  0.06353600  0.81459500  0.83861900  1
  O  O64  1  0.20826200  0.03608300  0.44468100  1
  O  O65  1  0.45845700  0.28707100  0.69650200  1
  O  O66  1  0.70667800  0.53699100  0.94568600  1
  O  O67  1  0.95705600  0.78586500  0.19332500  1
  O  O68  1  0.04821100  0.21628900  0.79939400  1
  O  O69  1  0.29697200  0.46686100  0.05108100  1
  O  O70  1  0.54785800  0.71568500  0.29814200  1
  O  O71  1  0.79885200  0.96530400  0.54669100  1
