# generated using pymatgen
data_Mn2FeO4
_symmetry_space_group_name_H-M   'P 1'
_cell_length_a   5.99335400
_cell_length_b   5.99613600
_cell_length_c   6.20028875
_cell_angle_alpha   61.08258323
_cell_angle_beta   61.09817993
_cell_angle_gamma   89.99877662
_symmetry_Int_Tables_number   1
_chemical_formula_structural   Mn2FeO4
_chemical_formula_sum   'Mn4 Fe2 O8'
_cell_volume   162.61281111
_cell_formula_units_Z   2
loop_
 _symmetry_equiv_pos_site_id
 _symmetry_equiv_pos_as_xyz
  1  'x, y, z'
loop_
 _atom_site_type_symbol
 _atom_site_label
 _atom_site_symmetry_multiplicity
 _atom_site_fract_x
 _atom_site_fract_y
 _atom_site_fract_z
 _atom_site_occupancy
  Mn  Mn0  1  0.37498700  0.62509400  0.24998500  1
  Mn  Mn1  1  0.37493800  0.12495000  0.25017400  1
  Mn  Mn2  1  0.87492700  0.62496000  0.75011300  1
  Mn  Mn3  1  0.37495700  0.62487400  0.75008200  1
  Fe  Fe4  1  0.99721200  0.99719400  0.00556100  1
  Fe  Fe5  1  0.75286400  0.25281000  0.49433000  1
  O  O6  1  0.62525800  0.85376700  0.74946000  1
  O  O7  1  0.61348400  0.37284000  0.25441200  1
  O  O8  1  0.13649500  0.87727400  0.24554100  1
  O  O9  1  0.13214300  0.37283600  0.25438000  1
  O  O10  1  0.12472500  0.85325400  0.75047200  1
  O  O11  1  0.62534500  0.39671900  0.74944900  1
  O  O12  1  0.12470200  0.39618700  0.75047400  1
  O  O13  1  0.61796200  0.87724100  0.24556500  1
