# generated using pymatgen
data_CrO
_symmetry_space_group_name_H-M   'P 1'
_cell_length_a   3.09930201
_cell_length_b   6.62094796
_cell_length_c   6.37632104
_cell_angle_alpha   61.40931254
_cell_angle_beta   88.41399618
_cell_angle_gamma   113.52460888
_symmetry_Int_Tables_number   1
_chemical_formula_structural   CrO
_chemical_formula_sum   'Cr4 O4'
_cell_volume   101.37982725
_cell_formula_units_Z   4
loop_
 _symmetry_equiv_pos_site_id
 _symmetry_equiv_pos_as_xyz
  1  'x, y, z'
loop_
 _atom_site_type_symbol
 _atom_site_label
 _atom_site_symmetry_multiplicity
 _atom_site_fract_x
 _atom_site_fract_y
 _atom_site_fract_z
 _atom_site_occupancy
  Cr  Cr0  1  0.60051000  0.50052200  0.89990300  1
  Cr  Cr1  1  0.09975400  0.49977300  0.40003300  1
  Cr  Cr2  1  0.10023000  0.00019100  0.90022500  1
  Cr  Cr3  1  0.59985200  0.00006900  0.39988600  1
  O  O4  1  0.99529600  0.39292000  0.14601000  1
  O  O5  1  0.49497600  0.89260400  0.14634900  1
  O  O6  1  0.70452400  0.10685700  0.65396900  1
  O  O7  1  0.20475700  0.60716800  0.65362600  1
