# generated using pymatgen
data_Sr2LaMn2O7
_symmetry_space_group_name_H-M   'P 1'
_cell_length_a   5.58360622
_cell_length_b   5.58098835
_cell_length_c   10.40756112
_cell_angle_alpha   89.38371488
_cell_angle_beta   74.43842455
_cell_angle_gamma   87.70405572
_symmetry_Int_Tables_number   1
_chemical_formula_structural   Sr2LaMn2O7
_chemical_formula_sum   'Sr4 La2 Mn4 O14'
_cell_volume   312.18131152
_cell_formula_units_Z   2
loop_
 _symmetry_equiv_pos_site_id
 _symmetry_equiv_pos_as_xyz
  1  'x, y, z'
loop_
 _atom_site_type_symbol
 _atom_site_label
 _atom_site_symmetry_multiplicity
 _atom_site_fract_x
 _atom_site_fract_y
 _atom_site_fract_z
 _atom_site_occupancy
  Sr  Sr0  1  0.18094900  0.50002100  0.63819500  1
  Sr  Sr1  1  0.68103800  0.00004400  0.63786600  1
  Sr  Sr2  1  0.00513800  0.50000500  0.98984200  1
  Sr  Sr3  1  0.50484800  0.00003000  0.99029500  1
  La  La4  1  0.31729800  0.99999200  0.36540500  1
  La  La5  1  0.81765400  0.50000200  0.36472700  1
  Mn  Mn6  1  0.09857200  0.00005500  0.80297600  1
  Mn  Mn7  1  0.40323700  0.49998700  0.19351100  1
  Mn  Mn8  1  0.59873200  0.50003500  0.80260500  1
  Mn  Mn9  1  0.90494600  0.00000400  0.19009100  1
  O  O10  1  0.19934300  0.00002000  0.60146700  1
  O  O11  1  0.70166200  0.50001300  0.59664800  1
  O  O12  1  0.30321500  0.49994100  0.39338100  1
  O  O13  1  0.80547300  0.99996300  0.38900600  1
  O  O14  1  0.49766800  0.49995300  0.00468000  1
  O  O15  1  0.00006600  0.00004800  0.99979500  1
  O  O16  1  0.86247900  0.76533300  0.80529900  1
  O  O17  1  0.33219500  0.23467700  0.80531300  1
  O  O18  1  0.34791700  0.75027000  0.80395700  1
  O  O19  1  0.84812300  0.24971400  0.80391700  1
  O  O20  1  0.63199800  0.73706300  0.20593200  1
  O  O21  1  0.16205400  0.26288300  0.20592900  1
  O  O22  1  0.15155800  0.74679100  0.20456200  1
  O  O23  1  0.64383500  0.25315600  0.20460200  1
