# generated using pymatgen
data_Mn5O3F5
_symmetry_space_group_name_H-M   'P 1'
_cell_length_a   6.35125179
_cell_length_b   11.13754251
_cell_length_c   6.40310679
_cell_angle_alpha   73.42089912
_cell_angle_beta   60.52094837
_cell_angle_gamma   91.13652799
_symmetry_Int_Tables_number   1
_chemical_formula_structural   Mn5O3F5
_chemical_formula_sum   'Mn10 O6 F10'
_cell_volume   370.87092335
_cell_formula_units_Z   2
loop_
 _symmetry_equiv_pos_site_id
 _symmetry_equiv_pos_as_xyz
  1  'x, y, z'
loop_
 _atom_site_type_symbol
 _atom_site_label
 _atom_site_symmetry_multiplicity
 _atom_site_fract_x
 _atom_site_fract_y
 _atom_site_fract_z
 _atom_site_occupancy
  Mn  Mn0  1  0.55418300  0.18885800  0.36512600  1
  Mn  Mn1  1  0.06154800  0.68157600  0.37181900  1
  Mn  Mn2  1  0.46465300  0.48836200  0.98621200  1
  Mn  Mn3  1  0.58103600  0.69169700  0.38733600  1
  Mn  Mn4  1  0.06954900  0.68724700  0.89207800  1
  Mn  Mn5  1  0.96439100  0.98765100  0.98440500  1
  Mn  Mn6  1  0.82301800  0.44381600  0.37464700  1
  Mn  Mn7  1  0.32596100  0.94309300  0.38634100  1
  Mn  Mn8  1  0.07415700  0.19114600  0.37480000  1
  Mn  Mn9  1  0.56463000  0.19148800  0.88285200  1
  O  O10  1  0.63849400  0.05667100  0.14494200  1
  O  O11  1  0.16128300  0.56878300  0.13607300  1
  O  O12  1  0.43098200  0.29644900  0.12788900  1
  O  O13  1  0.90696800  0.78977900  0.15289700  1
  O  O14  1  0.19589000  0.05381300  0.58683400  1
  O  O15  1  0.68284800  0.57516200  0.58773600  1
  F  F16  1  0.18077000  0.05539700  0.12444400  1
  F  F17  1  0.68780800  0.56772700  0.11414200  1
  F  F18  1  0.92424200  0.30817200  0.61306300  1
  F  F19  1  0.42663500  0.80938000  0.62145900  1
  F  F20  1  0.91662800  0.30586200  0.17542600  1
  F  F21  1  0.43593400  0.80943900  0.19910000  1
  F  F22  1  0.69656600  0.09259600  0.60903500  1
  F  F23  1  0.23009500  0.59622000  0.59384400  1
  F  F24  1  0.48350300  0.30555500  0.60662000  1
  F  F25  1  0.01024000  0.81140700  0.59555600  1
