# generated using pymatgen
data_NaFeH4SO6F
_symmetry_space_group_name_H-M   'P 1'
_cell_length_a   7.43365114
_cell_length_b   10.90427970
_cell_length_c   7.50883057
_cell_angle_alpha   89.96363474
_cell_angle_beta   90.01667681
_cell_angle_gamma   76.28996987
_symmetry_Int_Tables_number   1
_chemical_formula_structural   NaFeH4SO6F
_chemical_formula_sum   'Na4 Fe4 H16 S4 O24 F4'
_cell_volume   591.31317200
_cell_formula_units_Z   4
loop_
 _symmetry_equiv_pos_site_id
 _symmetry_equiv_pos_as_xyz
  1  'x, y, z'
loop_
 _atom_site_type_symbol
 _atom_site_label
 _atom_site_symmetry_multiplicity
 _atom_site_fract_x
 _atom_site_fract_y
 _atom_site_fract_z
 _atom_site_occupancy
  Na  Na0  1  0.58134000  0.71415000  0.74985900  1
  Na  Na1  1  0.08100000  0.21277900  0.74983600  1
  Na  Na2  1  0.41868000  0.28583300  0.25017600  1
  Na  Na3  1  0.91896600  0.78726700  0.25016900  1
  Fe  Fe4  1  0.99989700  0.50007600  0.49985700  1
  Fe  Fe5  1  0.99993800  0.50008600  0.00014700  1
  Fe  Fe6  1  0.50004100  0.00007600  0.50008700  1
  Fe  Fe7  1  0.49992100  0.99991000  0.00002800  1
  H  H8  1  0.84241400  0.03394300  0.09408900  1
  H  H9  1  0.34130900  0.53551500  0.09093900  1
  H  H10  1  0.15756300  0.96588900  0.59403600  1
  H  H11  1  0.65889700  0.46444200  0.59110500  1
  H  H12  1  0.15762900  0.96605200  0.90591500  1
  H  H13  1  0.65878400  0.46445400  0.90906400  1
  H  H14  1  0.84237600  0.03410800  0.40598200  1
  H  H15  1  0.34122100  0.53552600  0.40890300  1
  H  H16  1  0.86857700  0.93774600  0.56890900  1
  H  H17  1  0.36918700  0.43714800  0.56816000  1
  H  H18  1  0.13130200  0.06211200  0.06894100  1
  H  H19  1  0.63063800  0.56288400  0.06809200  1
  H  H20  1  0.13138200  0.06224100  0.43110500  1
  H  H21  1  0.63090300  0.56285600  0.43179900  1
  H  H22  1  0.86871700  0.93787400  0.93106500  1
  H  H23  1  0.36942400  0.43710800  0.93194900  1
  S  S24  1  0.58213200  0.22923400  0.75006800  1
  S  S25  1  0.08225100  0.73062400  0.74982900  1
  S  S26  1  0.41782400  0.77077000  0.24994100  1
  S  S27  1  0.91776400  0.26935500  0.25017100  1
  O  O28  1  0.53398500  0.37302500  0.74987700  1
  O  O29  1  0.03941500  0.87457900  0.74966900  1
  O  O30  1  0.46599100  0.62698000  0.24998100  1
  O  O31  1  0.96056900  0.12540100  0.25033400  1
  O  O32  1  0.78280300  0.17972900  0.75030500  1
  O  O33  1  0.28282800  0.67788700  0.75004900  1
  O  O34  1  0.21715400  0.82030000  0.24967700  1
  O  O35  1  0.71718800  0.32210700  0.24996600  1
  O  O36  1  0.49344000  0.18854100  0.58787200  1
  O  O37  1  0.99174100  0.69181800  0.58759500  1
  O  O38  1  0.50676400  0.81144800  0.08778500  1
  O  O39  1  0.00852000  0.30812300  0.08812500  1
  O  O40  1  0.50655000  0.81138300  0.41213800  1
  O  O41  1  0.00824100  0.30816900  0.41242000  1
  O  O42  1  0.49316500  0.18860000  0.91220800  1
  O  O43  1  0.99144900  0.69188200  0.91186700  1
  O  O44  1  0.80015900  0.96191200  0.04373800  1
  O  O45  1  0.30109500  0.46162700  0.04475300  1
  O  O46  1  0.20019600  0.03781200  0.54366800  1
  O  O47  1  0.69927400  0.53824800  0.54466800  1
  O  O48  1  0.19984000  0.03810200  0.95625100  1
  O  O49  1  0.69891800  0.53837500  0.95525500  1
  O  O50  1  0.79978200  0.96216500  0.45633600  1
  O  O51  1  0.30075800  0.46175600  0.45531700  1
  F  F52  1  0.55852900  0.92111800  0.74997900  1
  F  F53  1  0.04066400  0.42602300  0.75030000  1
  F  F54  1  0.44148900  0.07886100  0.24994700  1
  F  F55  1  0.95941600  0.57397000  0.24969900  1
