# generated using pymatgen
data_Na3(CoO2)5
_symmetry_space_group_name_H-M   'P 1'
_cell_length_a   4.99797825
_cell_length_b   11.23695582
_cell_length_c   7.57914987
_cell_angle_alpha   86.95610698
_cell_angle_beta   108.79192451
_cell_angle_gamma   98.61769968
_symmetry_Int_Tables_number   1
_chemical_formula_structural   Na3(CoO2)5
_chemical_formula_sum   'Na6 Co10 O20'
_cell_volume   398.41590089
_cell_formula_units_Z   2
loop_
 _symmetry_equiv_pos_site_id
 _symmetry_equiv_pos_as_xyz
  1  'x, y, z'
loop_
 _atom_site_type_symbol
 _atom_site_label
 _atom_site_symmetry_multiplicity
 _atom_site_fract_x
 _atom_site_fract_y
 _atom_site_fract_z
 _atom_site_occupancy
  Na  Na0  1  0.82298500  0.25050000  0.79868200  1
  Na  Na1  1  0.31304600  0.74865300  0.80134000  1
  Na  Na2  1  0.99912400  0.24671700  0.19549000  1
  Na  Na3  1  0.52191400  0.74747600  0.19756800  1
  Na  Na4  1  0.60146700  0.25015700  0.39890700  1
  Na  Na5  1  0.12160700  0.74733000  0.40333700  1
  Co  Co6  1  0.90349200  0.50526800  0.80079200  1
  Co  Co7  1  0.49328800  0.49580200  0.99751900  1
  Co  Co8  1  0.99819000  0.99639800  0.00040000  1
  Co  Co9  1  0.30065700  0.49996100  0.60047100  1
  Co  Co10  1  0.80209400  0.99819800  0.60245100  1
  Co  Co11  1  0.40591300  0.00490900  0.80135600  1
  Co  Co12  1  0.59894200  0.00286300  0.20001700  1
  Co  Co13  1  0.09736500  0.50109900  0.19861900  1
  Co  Co14  1  0.20383900  0.00327300  0.40128000  1
  Co  Co15  1  0.70487100  0.50592900  0.40474100  1
  O  O16  1  0.09030700  0.08551400  0.80057900  1
  O  O17  1  0.59137300  0.58575300  0.80572600  1
  O  O18  1  0.20386700  0.41495200  0.80221500  1
  O  O19  1  0.70479400  0.91395600  0.80169800  1
  O  O20  1  0.27165300  0.09613300  0.19218700  1
  O  O21  1  0.79243100  0.58731300  0.19787600  1
  O  O22  1  0.87845700  0.09247500  0.39976900  1
  O  O23  1  0.37861100  0.59223600  0.39093400  1
  O  O24  1  0.70680000  0.09024000  0.99745300  1
  O  O25  1  0.20302900  0.58939200  0.00280100  1
  O  O26  1  0.52296700  0.09379300  0.60602200  1
  O  O27  1  0.01699400  0.59548900  0.60741200  1
  O  O28  1  0.80523200  0.41194700  0.00154300  1
  O  O29  1  0.30923700  0.91394200  0.00139100  1
  O  O30  1  0.61543000  0.41573200  0.60000900  1
  O  O31  1  0.10821800  0.91244000  0.60455100  1
  O  O32  1  0.00910300  0.40990500  0.39639200  1
  O  O33  1  0.52015600  0.90744700  0.40707800  1
  O  O34  1  0.38135200  0.40869200  0.19087300  1
  O  O35  1  0.90919400  0.90211800  0.19051900  1
