# generated using pymatgen
data_Na2FeO3
_symmetry_space_group_name_H-M   'P 1'
_cell_length_a   5.36803014
_cell_length_b   8.49229791
_cell_length_c   6.48106264
_cell_angle_alpha   75.68573401
_cell_angle_beta   74.13504616
_cell_angle_gamma   77.88789201
_symmetry_Int_Tables_number   1
_chemical_formula_structural   Na2FeO3
_chemical_formula_sum   'Na8 Fe4 O12'
_cell_volume   272.14886986
_cell_formula_units_Z   4
loop_
 _symmetry_equiv_pos_site_id
 _symmetry_equiv_pos_as_xyz
  1  'x, y, z'
loop_
 _atom_site_type_symbol
 _atom_site_label
 _atom_site_symmetry_multiplicity
 _atom_site_fract_x
 _atom_site_fract_y
 _atom_site_fract_z
 _atom_site_occupancy
  Na  Na0  1  0.50487900  0.49832400  0.99951700  1
  Na  Na1  1  0.99510000  0.00166800  0.50048300  1
  Na  Na2  1  0.99975300  0.99957500  0.00005600  1
  Na  Na3  1  0.50024900  0.50043300  0.49994500  1
  Na  Na4  1  0.98922900  0.33017600  0.17025800  1
  Na  Na5  1  0.48333900  0.83123400  0.67123500  1
  Na  Na6  1  0.01658000  0.66881100  0.82877900  1
  Na  Na7  1  0.51085000  0.16979000  0.32971000  1
  Fe  Fe8  1  0.50019700  0.83295800  0.16641900  1
  Fe  Fe9  1  0.99982500  0.66706800  0.33360200  1
  Fe  Fe10  1  0.00071500  0.33368800  0.66666100  1
  Fe  Fe11  1  0.49924400  0.16631500  0.83332600  1
  O  O12  1  0.26518400  0.74443100  0.04815600  1
  O  O13  1  0.74136500  0.24225500  0.55441500  1
  O  O14  1  0.75863400  0.25775800  0.94555200  1
  O  O15  1  0.23479300  0.75553600  0.45187000  1
  O  O16  1  0.26015200  0.37353600  0.82860300  1
  O  O17  1  0.73576500  0.87956600  0.32495300  1
  O  O18  1  0.81487500  0.55688300  0.64497500  1
  O  O19  1  0.31426600  0.07392200  0.12608600  1
  O  O20  1  0.76434300  0.62041100  0.17511700  1
  O  O21  1  0.23982700  0.12644600  0.67133200  1
  O  O22  1  0.18572100  0.42610400  0.37390800  1
  O  O23  1  0.68511600  0.94311300  0.85504000  1
