# generated using pymatgen
data_Na3(CoO2)5
_symmetry_space_group_name_H-M   'P 1'
_cell_length_a   6.46451075
_cell_length_b   8.62959560
_cell_length_c   7.62260831
_cell_angle_alpha   75.12927627
_cell_angle_beta   80.52188345
_cell_angle_gamma   99.50367863
_symmetry_Int_Tables_number   1
_chemical_formula_structural   Na3(CoO2)5
_chemical_formula_sum   'Na6 Co10 O20'
_cell_volume   395.67554460
_cell_formula_units_Z   2
loop_
 _symmetry_equiv_pos_site_id
 _symmetry_equiv_pos_as_xyz
  1  'x, y, z'
loop_
 _atom_site_type_symbol
 _atom_site_label
 _atom_site_symmetry_multiplicity
 _atom_site_fract_x
 _atom_site_fract_y
 _atom_site_fract_z
 _atom_site_occupancy
  Na  Na0  1  0.13604900  0.63159200  0.79948100  1
  Na  Na1  1  0.63693800  0.13028300  0.79980500  1
  Na  Na2  1  0.03928900  0.53244400  0.19295700  1
  Na  Na3  1  0.53641600  0.03434300  0.19960000  1
  Na  Na4  1  0.23485300  0.73266300  0.40270000  1
  Na  Na5  1  0.73545000  0.22936500  0.39904500  1
  Co  Co6  1  0.79062900  0.80188500  0.80007700  1
  Co  Co7  1  0.00073300  0.99926500  0.00158400  1
  Co  Co8  1  0.60385600  0.60047600  0.60044400  1
  Co  Co9  1  0.19727300  0.20111800  0.19751300  1
  Co  Co10  1  0.39481900  0.40304700  0.40048300  1
  Co  Co11  1  0.29597800  0.30650500  0.80289300  1
  Co  Co12  1  0.50402600  0.49838700  0.99950700  1
  Co  Co13  1  0.10892000  0.09947300  0.59313800  1
  Co  Co14  1  0.69509200  0.70111000  0.20130000  1
  Co  Co15  1  0.89489100  0.90003700  0.40024500  1
  O  O16  1  0.01473300  0.18838900  0.81281100  1
  O  O17  1  0.51871600  0.68995000  0.79769200  1
  O  O18  1  0.07237000  0.89962600  0.81256900  1
  O  O19  1  0.57838100  0.40581400  0.80056200  1
  O  O20  1  0.91239200  0.09144600  0.19605500  1
  O  O21  1  0.41300000  0.59393700  0.19915800  1
  O  O22  1  0.10401300  0.29388700  0.39411300  1
  O  O23  1  0.60975300  0.79194200  0.39741600  1
  O  O24  1  0.21652400  0.39663500  0.99818000  1
  O  O25  1  0.71074200  0.89430700  0.00355200  1
  O  O26  1  0.31322400  0.49830300  0.60534200  1
  O  O27  1  0.80369500  0.98847700  0.60206000  1
  O  O28  1  0.78709600  0.61294800  0.99986200  1
  O  O29  1  0.28606400  0.11128600  0.99781300  1
  O  O30  1  0.88635700  0.71117500  0.60314600  1
  O  O31  1  0.39589400  0.21773900  0.60515200  1
  O  O32  1  0.69029600  0.51533300  0.39163600  1
  O  O33  1  0.18737200  0.00261500  0.38852600  1
  O  O34  1  0.97764600  0.80556500  0.20212300  1
  O  O35  1  0.48452000  0.30462700  0.20145700  1
