# generated using pymatgen
data_V2CrO6
_symmetry_space_group_name_H-M   'P 1'
_cell_length_a   5.51678619
_cell_length_b   6.95520662
_cell_length_c   6.94837379
_cell_angle_alpha   97.83863884
_cell_angle_beta   74.54760203
_cell_angle_gamma   105.48857418
_symmetry_Int_Tables_number   1
_chemical_formula_structural   V2CrO6
_chemical_formula_sum   'V4 Cr2 O12'
_cell_volume   247.03054014
_cell_formula_units_Z   2
loop_
 _symmetry_equiv_pos_site_id
 _symmetry_equiv_pos_as_xyz
  1  'x, y, z'
loop_
 _atom_site_type_symbol
 _atom_site_label
 _atom_site_symmetry_multiplicity
 _atom_site_fract_x
 _atom_site_fract_y
 _atom_site_fract_z
 _atom_site_occupancy
  V  V0  1  0.68787800  0.16378000  0.60355800  1
  V  V1  1  0.21968600  0.38645900  0.80693200  1
  V  V2  1  0.81207600  0.60379500  0.16374400  1
  V  V3  1  0.28036500  0.80674900  0.38638400  1
  Cr  Cr4  1  0.24987400  0.91678200  0.91709800  1
  Cr  Cr5  1  0.74999200  0.07687200  0.07667100  1
  O  O6  1  0.63408800  0.02167500  0.82437400  1
  O  O7  1  0.13755800  0.18401100  0.96276100  1
  O  O8  1  0.86618600  0.82438500  0.02165400  1
  O  O9  1  0.36250800  0.96260700  0.18388300  1
  O  O10  1  0.78652400  0.09383700  0.35568100  1
  O  O11  1  0.71338300  0.35586400  0.09382200  1
  O  O12  1  0.19855100  0.61897200  0.94816600  1
  O  O13  1  0.30161700  0.94804100  0.61904600  1
  O  O14  1  0.53016600  0.38591100  0.66912700  1
  O  O15  1  0.01635300  0.33236600  0.64907800  1
  O  O16  1  0.96974700  0.66896000  0.38583300  1
  O  O17  1  0.48344800  0.64893300  0.33218800  1
