# generated using pymatgen
data_Sr3LaMn2O8
_symmetry_space_group_name_H-M   'P 1'
_cell_length_a   5.55811669
_cell_length_b   8.78517853
_cell_length_c   8.78474315
_cell_angle_alpha   78.08967170
_cell_angle_beta   71.56061351
_cell_angle_gamma   71.55924664
_symmetry_Int_Tables_number   1
_chemical_formula_structural   Sr3LaMn2O8
_chemical_formula_sum   'Sr6 La2 Mn4 O16'
_cell_volume   383.32879185
_cell_formula_units_Z   2
loop_
 _symmetry_equiv_pos_site_id
 _symmetry_equiv_pos_as_xyz
  1  'x, y, z'
loop_
 _atom_site_type_symbol
 _atom_site_label
 _atom_site_symmetry_multiplicity
 _atom_site_fract_x
 _atom_site_fract_y
 _atom_site_fract_z
 _atom_site_occupancy
  Sr  Sr0  1  0.35865400  0.14407600  0.14409400  1
  Sr  Sr1  1  0.35448800  0.64359800  0.64358100  1
  Sr  Sr2  1  0.63925500  0.35891900  0.35893100  1
  Sr  Sr3  1  0.64512500  0.85841200  0.85840300  1
  Sr  Sr4  1  0.14286600  0.60582500  0.10615500  1
  Sr  Sr5  1  0.14283600  0.10621600  0.60583200  1
  La  La6  1  0.86010000  0.38946500  0.88996100  1
  La  La7  1  0.86004600  0.88999300  0.38949100  1
  Mn  Mn8  1  0.49977300  0.74908300  0.24774200  1
  Mn  Mn9  1  0.49989100  0.24746600  0.74909300  1
  Mn  Mn10  1  0.00691300  0.99869100  0.99875300  1
  Mn  Mn11  1  0.99702400  0.49863100  0.49844600  1
  O  O12  1  0.15511300  0.34149600  0.34144800  1
  O  O13  1  0.16120800  0.84250100  0.84250200  1
  O  O14  1  0.66779000  0.58236800  0.08053200  1
  O  O15  1  0.66774900  0.08054500  0.58238400  1
  O  O16  1  0.33774800  0.40824000  0.91040400  1
  O  O17  1  0.33777300  0.91037500  0.40823600  1
  O  O18  1  0.84811600  0.16065400  0.16073200  1
  O  O19  1  0.83367400  0.66088000  0.66074900  1
  O  O20  1  0.74273100  0.37369000  0.63180100  1
  O  O21  1  0.76794500  0.88198300  0.12576800  1
  O  O22  1  0.24812600  0.12679900  0.87707900  1
  O  O23  1  0.23309300  0.62768200  0.37775400  1
  O  O24  1  0.76794600  0.12578500  0.88202000  1
  O  O25  1  0.74278300  0.63177100  0.37364900  1
  O  O26  1  0.23305700  0.37782700  0.62767500  1
  O  O27  1  0.24818100  0.87702500  0.12678000  1
