# generated using pymatgen
data_Ca3LaMn4O12
_symmetry_space_group_name_H-M   'P 1'
_cell_length_a   5.42631015
_cell_length_b   5.41476967
_cell_length_c   7.66967932
_cell_angle_alpha   89.97342839
_cell_angle_beta   89.66903564
_cell_angle_gamma   91.24222641
_symmetry_Int_Tables_number   1
_chemical_formula_structural   Ca3LaMn4O12
_chemical_formula_sum   'Ca3 La1 Mn4 O12'
_cell_volume   225.29544128
_cell_formula_units_Z   1
loop_
 _symmetry_equiv_pos_site_id
 _symmetry_equiv_pos_as_xyz
  1  'x, y, z'
loop_
 _atom_site_type_symbol
 _atom_site_label
 _atom_site_symmetry_multiplicity
 _atom_site_fract_x
 _atom_site_fract_y
 _atom_site_fract_z
 _atom_site_occupancy
  Ca  Ca0  1  0.46410500  0.48725600  0.74687900  1
  Ca  Ca1  1  0.96023000  0.00610200  0.74767600  1
  Ca  Ca2  1  0.53736500  0.51147900  0.25298300  1
  La  La3  1  0.02794000  0.99866800  0.25336300  1
  Mn  Mn4  1  0.49970200  0.99925600  0.50485300  1
  Mn  Mn5  1  0.00039400  0.50138500  0.99533400  1
  Mn  Mn6  1  0.49965300  0.00041300  0.99513800  1
  Mn  Mn7  1  0.00065200  0.50004600  0.50580500  1
  O  O8  1  0.02783900  0.57929000  0.75981700  1
  O  O9  1  0.51805200  0.91690200  0.75119900  1
  O  O10  1  0.97901300  0.43763000  0.24086700  1
  O  O11  1  0.49366100  0.07899200  0.24756000  1
  O  O12  1  0.21365700  0.20957300  0.96055900  1
  O  O13  1  0.22273300  0.19566400  0.53819800  1
  O  O14  1  0.71577400  0.28406200  0.54058400  1
  O  O15  1  0.71719300  0.28304300  0.95352700  1
  O  O16  1  0.77222600  0.79584100  0.46477100  1
  O  O17  1  0.78074800  0.78277900  0.03583900  1
  O  O18  1  0.28377700  0.71742100  0.04691300  1
  O  O19  1  0.28528800  0.71419800  0.45813700  1
