# generated using pymatgen
data_VO2
_symmetry_space_group_name_H-M   'P 1'
_cell_length_a   5.28256442
_cell_length_b   5.47590467
_cell_length_c   8.26156120
_cell_angle_alpha   91.01474632
_cell_angle_beta   89.33915219
_cell_angle_gamma   116.42096122
_symmetry_Int_Tables_number   1
_chemical_formula_structural   VO2
_chemical_formula_sum   'V6 O12'
_cell_volume   213.98357746
_cell_formula_units_Z   6
loop_
 _symmetry_equiv_pos_site_id
 _symmetry_equiv_pos_as_xyz
  1  'x, y, z'
loop_
 _atom_site_type_symbol
 _atom_site_label
 _atom_site_symmetry_multiplicity
 _atom_site_fract_x
 _atom_site_fract_y
 _atom_site_fract_z
 _atom_site_occupancy
  V  V0  1  0.99931200  0.99970700  0.99660100  1
  V  V1  1  0.50027800  0.50100700  0.49726400  1
  V  V2  1  0.98557400  0.50142200  0.67771800  1
  V  V3  1  0.48212800  0.00702100  0.17882800  1
  V  V4  1  0.01466700  0.49795700  0.31550500  1
  V  V5  1  0.51726500  0.99394600  0.81565100  1
  O  O6  1  0.41847500  0.18502200  0.98861700  1
  O  O7  1  0.91666200  0.68448500  0.49031800  1
  O  O8  1  0.58120800  0.81552600  0.00506800  1
  O  O9  1  0.08366600  0.31496600  0.50301100  1
  O  O10  1  0.07067700  0.80199900  0.16265000  1
  O  O11  1  0.58618900  0.29883800  0.66887600  1
  O  O12  1  0.07457900  0.77624900  0.82613900  1
  O  O13  1  0.54971400  0.27495300  0.33253500  1
  O  O14  1  0.92924600  0.19775700  0.83077300  1
  O  O15  1  0.41407800  0.70071400  0.32445700  1
  O  O16  1  0.92562800  0.22379000  0.16699800  1
  O  O17  1  0.45065300  0.72464300  0.66149200  1
