# generated using pymatgen
data_VCr2O4
_symmetry_space_group_name_H-M   'P 1'
_cell_length_a   6.01942438
_cell_length_b   6.26119323
_cell_length_c   6.01533554
_cell_angle_alpha   58.68012541
_cell_angle_beta   118.51936645
_cell_angle_gamma   121.39053891
_symmetry_Int_Tables_number   1
_chemical_formula_structural   VCr2O4
_chemical_formula_sum   'V2 Cr4 O8'
_cell_volume   158.54699906
_cell_formula_units_Z   2
loop_
 _symmetry_equiv_pos_site_id
 _symmetry_equiv_pos_as_xyz
  1  'x, y, z'
loop_
 _atom_site_type_symbol
 _atom_site_label
 _atom_site_symmetry_multiplicity
 _atom_site_fract_x
 _atom_site_fract_y
 _atom_site_fract_z
 _atom_site_occupancy
  V  V0  1  0.87367800  0.62394200  0.62627300  1
  V  V1  1  0.12649300  0.37656000  0.37354500  1
  Cr  Cr2  1  0.49978300  0.49963700  0.99997400  1
  Cr  Cr3  1  0.49990300  0.00005600  0.00002000  1
  Cr  Cr4  1  0.49992000  0.00000400  0.50010300  1
  Cr  Cr5  1  0.99991500  0.99985200  0.00018400  1
  O  O6  1  0.28011800  0.24573000  0.78760600  1
  O  O7  1  0.74611100  0.20801500  0.75453300  1
  O  O8  1  0.25434400  0.21649500  0.24605100  1
  O  O9  1  0.71238000  0.24653200  0.21978900  1
  O  O10  1  0.28778300  0.75347600  0.78002200  1
  O  O11  1  0.74551600  0.78373200  0.75414500  1
  O  O12  1  0.25417900  0.79197700  0.24563100  1
  O  O13  1  0.71987500  0.75399200  0.21212400  1
