# generated using pymatgen
data_NaMn2O4
_symmetry_space_group_name_H-M   'P 1'
_cell_length_a   6.02010216
_cell_length_b   6.24690289
_cell_length_c   5.93927210
_cell_angle_alpha   61.62427420
_cell_angle_beta   89.98147288
_cell_angle_gamma   118.77821475
_symmetry_Int_Tables_number   1
_chemical_formula_structural   NaMn2O4
_chemical_formula_sum   'Na2 Mn4 O8'
_cell_volume   164.47145226
_cell_formula_units_Z   2
loop_
 _symmetry_equiv_pos_site_id
 _symmetry_equiv_pos_as_xyz
  1  'x, y, z'
loop_
 _atom_site_type_symbol
 _atom_site_label
 _atom_site_symmetry_multiplicity
 _atom_site_fract_x
 _atom_site_fract_y
 _atom_site_fract_z
 _atom_site_occupancy
  Na  Na0  1  0.00960600  0.01967800  0.99021000  1
  Na  Na1  1  0.74048100  0.48036400  0.75977000  1
  Mn  Mn2  1  0.37506400  0.24996500  0.37507200  1
  Mn  Mn3  1  0.87496800  0.24987800  0.37496300  1
  Mn  Mn4  1  0.37487300  0.74992000  0.37484900  1
  Mn  Mn5  1  0.37480900  0.74982200  0.87527500  1
  O  O6  1  0.15981100  0.31967300  0.12514500  1
  O  O7  1  0.59032300  0.18041100  0.19471200  1
  O  O8  1  0.57850900  0.73971100  0.13006600  1
  O  O9  1  0.16143200  0.74015900  0.13002500  1
  O  O10  1  0.59025500  0.18040300  0.62486100  1
  O  O11  1  0.15971700  0.31964900  0.55522100  1
  O  O12  1  0.58859800  0.75993100  0.61996500  1
  O  O13  1  0.17155500  0.76043600  0.61986700  1
