# generated using pymatgen
data_MnB4
_symmetry_space_group_name_H-M   'P 1'
_cell_length_a   3.84282187
_cell_length_b   3.84282187
_cell_length_c   3.84282187
_cell_angle_alpha   134.78922678
_cell_angle_beta   105.85625194
_cell_angle_gamma   91.27633571
_symmetry_Int_Tables_number   1
_chemical_formula_structural   MnB4
_chemical_formula_sum   'Mn1 B4'
_cell_volume   36.77498182
_cell_formula_units_Z   1
loop_
 _symmetry_equiv_pos_site_id
 _symmetry_equiv_pos_as_xyz
  1  'x, y, z'
loop_
 _atom_site_type_symbol
 _atom_site_label
 _atom_site_symmetry_multiplicity
 _atom_site_fract_x
 _atom_site_fract_y
 _atom_site_fract_z
 _atom_site_occupancy
  Mn  Mn0  1  0.00000000  0.00000000  0.00000000  1
  B  B1  1  0.54358900  0.34064100  0.20294800  1
  B  B2  1  0.13769300  0.34064100  0.79705200  1
  B  B3  1  0.45641100  0.65935900  0.79705200  1
  B  B4  1  0.86230700  0.65935900  0.20294800  1
