# generated using pymatgen
data_Ba2YMn3O7
_symmetry_space_group_name_H-M   'P 1'
_cell_length_a   5.65283589
_cell_length_b   12.51557786
_cell_length_c   5.65271721
_cell_angle_alpha   77.50615789
_cell_angle_beta   92.40067973
_cell_angle_gamma   77.50599821
_symmetry_Int_Tables_number   1
_chemical_formula_structural   Ba2YMn3O7
_chemical_formula_sum   'Ba4 Y2 Mn6 O14'
_cell_volume   379.55083382
_cell_formula_units_Z   2
loop_
 _symmetry_equiv_pos_site_id
 _symmetry_equiv_pos_as_xyz
  1  'x, y, z'
loop_
 _atom_site_type_symbol
 _atom_site_label
 _atom_site_symmetry_multiplicity
 _atom_site_fract_x
 _atom_site_fract_y
 _atom_site_fract_z
 _atom_site_occupancy
  Ba  Ba0  1  0.58976800  0.82044600  0.08978100  1
  Ba  Ba1  1  0.08977200  0.82044900  0.58976900  1
  Ba  Ba2  1  0.91117300  0.17764300  0.41118500  1
  Ba  Ba3  1  0.41118400  0.17764400  0.91118500  1
  Y  Y4  1  0.74937000  0.50124400  0.24939700  1
  Y  Y5  1  0.24939300  0.50124700  0.74937800  1
  Mn  Mn6  1  0.00060100  0.99876300  0.00061700  1
  Mn  Mn7  1  0.49970700  0.00062900  0.49971800  1
  Mn  Mn8  1  0.83052200  0.33911400  0.83039000  1
  Mn  Mn9  1  0.17229400  0.65542600  0.17228000  1
  Mn  Mn10  1  0.67339700  0.65319400  0.67342100  1
  Mn  Mn11  1  0.32399500  0.35190500  0.32398200  1
  O  O12  1  0.76189100  0.00011100  0.23800700  1
  O  O13  1  0.23800000  0.00011100  0.76189900  1
  O  O14  1  0.94035500  0.61798600  0.94036000  1
  O  O15  1  0.44165900  0.61799100  0.44166200  1
  O  O16  1  0.55178000  0.38210600  0.55179100  1
  O  O17  1  0.06607100  0.38213200  0.06607700  1
  O  O18  1  0.93860500  0.62011300  0.44128800  1
  O  O19  1  0.44128100  0.62011100  0.93861100  1
  O  O20  1  0.54842100  0.37996900  0.07162600  1
  O  O21  1  0.07162100  0.37997000  0.54842200  1
  O  O22  1  0.08262200  0.83474000  0.08262400  1
  O  O23  1  0.58492900  0.83012200  0.58493400  1
  O  O24  1  0.91786200  0.16427900  0.91786700  1
  O  O25  1  0.41372600  0.17255100  0.41373200  1
