# generated using pymatgen
data_TiV3O8
_symmetry_space_group_name_H-M   'P 1'
_cell_length_a   3.77392548
_cell_length_b   7.79572752
_cell_length_c   10.39741222
_cell_angle_alpha   89.28478263
_cell_angle_beta   100.60471817
_cell_angle_gamma   75.82221717
_symmetry_Int_Tables_number   1
_chemical_formula_structural   TiV3O8
_chemical_formula_sum   'Ti2 V6 O16'
_cell_volume   290.98180054
_cell_formula_units_Z   2
loop_
 _symmetry_equiv_pos_site_id
 _symmetry_equiv_pos_as_xyz
  1  'x, y, z'
loop_
 _atom_site_type_symbol
 _atom_site_label
 _atom_site_symmetry_multiplicity
 _atom_site_fract_x
 _atom_site_fract_y
 _atom_site_fract_z
 _atom_site_occupancy
  Ti  Ti0  1  0.31065400  0.33388800  0.94917800  1
  Ti  Ti1  1  0.31493800  0.82627700  0.44847200  1
  V  V2  1  0.56488000  0.05240400  0.25877500  1
  V  V3  1  0.56302500  0.55340900  0.75511300  1
  V  V4  1  0.69888200  0.66685000  0.05894900  1
  V  V5  1  0.37809000  0.44644300  0.24562500  1
  V  V6  1  0.40745500  0.95314800  0.74958300  1
  V  V7  1  0.70620500  0.16575800  0.56247000  1
  O  O8  1  0.86515300  0.99641200  0.71342600  1
  O  O9  1  0.86732100  0.48556300  0.21244700  1
  O  O10  1  0.76814100  0.90625400  0.43381300  1
  O  O11  1  0.76389800  0.41230300  0.93518500  1
  O  O12  1  0.63760900  0.36635700  0.62996500  1
  O  O13  1  0.64135600  0.86117500  0.13325000  1
  O  O14  1  0.56227400  0.25443500  0.37174000  1
  O  O15  1  0.55487900  0.75997800  0.86822800  1
  O  O16  1  0.44744200  0.24110200  0.12548500  1
  O  O17  1  0.45097300  0.74101000  0.62567900  1
  O  O18  1  0.36831100  0.13894100  0.86524300  1
  O  O19  1  0.37423600  0.63165900  0.36608800  1
  O  O20  1  0.23913700  0.58951300  0.06288600  1
  O  O21  1  0.24816800  0.08484600  0.56750300  1
  O  O22  1  0.13303800  0.51667900  0.78077300  1
  O  O23  1  0.13393700  0.01559400  0.28011900  1
