# generated using pymatgen
data_ZnFe(SiO3)2
_symmetry_space_group_name_H-M   'P 1'
_cell_length_a   5.38170133
_cell_length_b   6.85015364
_cell_length_c   13.33921667
_cell_angle_alpha   93.40630736
_cell_angle_beta   97.70335317
_cell_angle_gamma   74.75448121
_symmetry_Int_Tables_number   1
_chemical_formula_structural   ZnFe(SiO3)2
_chemical_formula_sum   'Zn4 Fe4 Si8 O24'
_cell_volume   470.01869705
_cell_formula_units_Z   4
loop_
 _symmetry_equiv_pos_site_id
 _symmetry_equiv_pos_as_xyz
  1  'x, y, z'
loop_
 _atom_site_type_symbol
 _atom_site_label
 _atom_site_symmetry_multiplicity
 _atom_site_fract_x
 _atom_site_fract_y
 _atom_site_fract_z
 _atom_site_occupancy
  Zn  Zn0  1  0.13487300  0.23335300  0.38271000  1
  Zn  Zn1  1  0.62997300  0.23919300  0.88113600  1
  Zn  Zn2  1  0.37063100  0.76101800  0.11872400  1
  Zn  Zn3  1  0.86484100  0.76662000  0.61729500  1
  Fe  Fe4  1  0.19725900  0.10335300  0.94783300  1
  Fe  Fe5  1  0.80291300  0.89694800  0.05218900  1
  Fe  Fe6  1  0.69912400  0.10522800  0.44824300  1
  Fe  Fe7  1  0.30053100  0.89484000  0.55168300  1
  Si  Si8  1  0.42240800  0.21843500  0.19381100  1
  Si  Si9  1  0.91299900  0.22171000  0.69268900  1
  Si  Si10  1  0.66885600  0.61284900  0.38954400  1
  Si  Si11  1  0.16220300  0.61443800  0.89028100  1
  Si  Si12  1  0.83811900  0.38531900  0.10981500  1
  Si  Si13  1  0.33086400  0.38731200  0.61045700  1
  Si  Si14  1  0.08678900  0.77830500  0.30722400  1
  Si  Si15  1  0.57776700  0.78164900  0.80627200  1
  O  O16  1  0.65928100  0.32731900  0.18900000  1
  O  O17  1  0.14961000  0.33215500  0.68963600  1
  O  O18  1  0.37406100  0.61846500  0.33442800  1
  O  O19  1  0.86581900  0.62440000  0.83553300  1
  O  O20  1  0.84978300  0.66810900  0.31020800  1
  O  O21  1  0.34139900  0.67241000  0.81129500  1
  O  O22  1  0.13445900  0.37571600  0.16451100  1
  O  O23  1  0.62556600  0.38145600  0.66572300  1
  O  O24  1  0.43569300  0.14835600  0.30957700  1
  O  O25  1  0.92660900  0.14584900  0.80719400  1
  O  O26  1  0.80556900  0.38170000  0.42589300  1
  O  O27  1  0.30335700  0.38497500  0.92662300  1
  O  O28  1  0.07390100  0.85396700  0.19274200  1
  O  O29  1  0.56404100  0.85124500  0.69038500  1
  O  O30  1  0.69693900  0.61457200  0.07320200  1
  O  O31  1  0.19436600  0.61857600  0.57420600  1
  O  O32  1  0.86783200  0.21009500  0.01828900  1
  O  O33  1  0.36033600  0.20927600  0.52080900  1
  O  O34  1  0.05832400  0.95755100  0.39649900  1
  O  O35  1  0.54318100  0.96509700  0.89348200  1
  O  O36  1  0.45690700  0.03530300  0.10641700  1
  O  O37  1  0.94123500  0.04262100  0.60334900  1
  O  O38  1  0.63925400  0.79088500  0.47918800  1
  O  O39  1  0.13231800  0.78933400  0.98190400  1
