# generated using pymatgen
data_Ag2Te2O7
_symmetry_space_group_name_H-M   'P 1'
_cell_length_a   7.45075966
_cell_length_b   7.45075966
_cell_length_c   7.45075966
_cell_angle_alpha   120.30112337
_cell_angle_beta   117.86992364
_cell_angle_gamma   91.60389626
_symmetry_Int_Tables_number   1
_chemical_formula_structural   Ag2Te2O7
_chemical_formula_sum   'Ag4 Te4 O14'
_cell_volume   296.22939785
_cell_formula_units_Z   2
loop_
 _symmetry_equiv_pos_site_id
 _symmetry_equiv_pos_as_xyz
  1  'x, y, z'
loop_
 _atom_site_type_symbol
 _atom_site_label
 _atom_site_symmetry_multiplicity
 _atom_site_fract_x
 _atom_site_fract_y
 _atom_site_fract_z
 _atom_site_occupancy
  Ag  Ag0  1  0.00000000  0.50000000  0.50000000  1
  Ag  Ag1  1  0.50000000  0.00000000  0.50000000  1
  Ag  Ag2  1  0.00000000  0.50000000  0.00000000  1
  Ag  Ag3  1  0.00000000  0.00000000  0.50000000  1
  Te  Te4  1  0.50000000  0.50000000  0.00000000  1
  Te  Te5  1  0.00000000  0.00000000  0.00000000  1
  Te  Te6  1  0.50000000  0.50000000  0.50000000  1
  Te  Te7  1  0.50000000  0.00000000  0.00000000  1
  O  O8  1  0.54856000  0.41561300  0.72481000  1
  O  O9  1  0.45144000  0.17625000  0.86705300  1
  O  O10  1  0.80919700  0.08438700  0.13294700  1
  O  O11  1  0.19080300  0.32375000  0.27519000  1
  O  O12  1  0.45144000  0.58438700  0.27519000  1
  O  O13  1  0.54856000  0.82375000  0.13294700  1
  O  O14  1  0.19080300  0.91561300  0.86705300  1
  O  O15  1  0.80919700  0.67625000  0.72481000  1
  O  O16  1  0.59089300  0.25000000  0.34089300  1
  O  O17  1  0.40910700  0.75000000  0.65910700  1
  O  O18  1  0.19483000  0.41421700  0.78061300  1
  O  O19  1  0.80517000  0.58578300  0.21938700  1
  O  O20  1  0.86639500  0.08578300  0.78061300  1
  O  O21  1  0.13360500  0.91421700  0.21938700  1
