# generated using pymatgen
data_MgMnSiO5
_symmetry_space_group_name_H-M   'P 1'
_cell_length_a   6.40403193
_cell_length_b   6.93504856
_cell_length_c   8.31613766
_cell_angle_alpha   89.77567364
_cell_angle_beta   89.87691582
_cell_angle_gamma   65.25596349
_symmetry_Int_Tables_number   1
_chemical_formula_structural   MgMnSiO5
_chemical_formula_sum   'Mg4 Mn4 Si4 O20'
_cell_volume   335.42577089
_cell_formula_units_Z   4
loop_
 _symmetry_equiv_pos_site_id
 _symmetry_equiv_pos_as_xyz
  1  'x, y, z'
loop_
 _atom_site_type_symbol
 _atom_site_label
 _atom_site_symmetry_multiplicity
 _atom_site_fract_x
 _atom_site_fract_y
 _atom_site_fract_z
 _atom_site_occupancy
  Mg  Mg0  1  0.25076200  0.23836000  0.92089200  1
  Mg  Mg1  1  0.75080400  0.23832900  0.42089100  1
  Mg  Mg2  1  0.25174500  0.74236300  0.58057500  1
  Mg  Mg3  1  0.75176600  0.74232100  0.08057300  1
  Mn  Mn4  1  0.75015900  0.49402200  0.75073500  1
  Mn  Mn5  1  0.24972400  0.99413500  0.25037500  1
  Mn  Mn6  1  0.25017000  0.49396300  0.25074600  1
  Mn  Mn7  1  0.74967900  0.99399100  0.75037000  1
  Si  Si8  1  0.24981700  0.24350900  0.57097000  1
  Si  Si9  1  0.74982100  0.24351000  0.07097100  1
  Si  Si10  1  0.24937600  0.74418600  0.92985900  1
  Si  Si11  1  0.74938800  0.74418900  0.42986100  1
  O  O12  1  0.25029600  0.74345700  0.33882600  1
  O  O13  1  0.75028200  0.74346800  0.83881900  1
  O  O14  1  0.25008400  0.24440400  0.16265800  1
  O  O15  1  0.75006900  0.24441600  0.66265200  1
  O  O16  1  0.13383900  0.11821900  0.45989700  1
  O  O17  1  0.63382400  0.11824400  0.95989500  1
  O  O18  1  0.36899200  0.36680900  0.45951500  1
  O  O19  1  0.86896900  0.36682700  0.95951500  1
  O  O20  1  0.36383800  0.87231500  0.03964000  1
  O  O21  1  0.86382500  0.87234300  0.53963600  1
  O  O22  1  0.13106800  0.62154400  0.04242700  1
  O  O23  1  0.63104800  0.62156600  0.54242400  1
  O  O24  1  0.43183100  0.57561300  0.80353500  1
  O  O25  1  0.93187900  0.57560100  0.30357200  1
  O  O26  1  0.06953800  0.90935600  0.79980300  1
  O  O27  1  0.56956000  0.90932500  0.29977300  1
  O  O28  1  0.06876800  0.41195800  0.69811400  1
  O  O29  1  0.56881300  0.41195200  0.19815300  1
  O  O30  1  0.43025400  0.07656400  0.69988700  1
  O  O31  1  0.93027100  0.07654000  0.19986300  1
