# generated using pymatgen
data_Cr3O4
_symmetry_space_group_name_H-M   'P 1'
_cell_length_a   5.90801911
_cell_length_b   6.17551343
_cell_length_c   5.80598565
_cell_angle_alpha   118.24028064
_cell_angle_beta   91.29083160
_cell_angle_gamma   117.92498772
_symmetry_Int_Tables_number   1
_chemical_formula_structural   Cr3O4
_chemical_formula_sum   'Cr6 O8'
_cell_volume   156.56920000
_cell_formula_units_Z   2
loop_
 _symmetry_equiv_pos_site_id
 _symmetry_equiv_pos_as_xyz
  1  'x, y, z'
loop_
 _atom_site_type_symbol
 _atom_site_label
 _atom_site_symmetry_multiplicity
 _atom_site_fract_x
 _atom_site_fract_y
 _atom_site_fract_z
 _atom_site_occupancy
  Cr  Cr0  1  0.50012700  0.50008500  0.49988500  1
  Cr  Cr1  1  0.00000100  0.49996500  0.49997300  1
  Cr  Cr2  1  0.49994600  0.00000800  0.50002000  1
  Cr  Cr3  1  0.99999900  0.00002700  0.00006300  1
  Cr  Cr4  1  0.50002700  0.49999600  0.99995500  1
  Cr  Cr5  1  0.50003700  0.00003400  0.00005100  1
  O  O6  1  0.28875200  0.05096500  0.26579300  1
  O  O7  1  0.28599600  0.55174400  0.76281300  1
  O  O8  1  0.71385800  0.44818100  0.23716800  1
  O  O9  1  0.71126900  0.94904500  0.73433000  1
  O  O10  1  0.76480300  0.04983300  0.27157600  1
  O  O11  1  0.72194700  0.45032000  0.71500900  1
  O  O12  1  0.27814400  0.54970900  0.28492100  1
  O  O13  1  0.23509400  0.95008900  0.72844300  1
