# generated using pymatgen
data_SmAsO4
_symmetry_space_group_name_H-M   'P 1'
_cell_length_a   6.83651915
_cell_length_b   6.83651915
_cell_length_c   6.83651915
_cell_angle_alpha   135.93768079
_cell_angle_beta   135.93768079
_cell_angle_gamma   64.07669640
_symmetry_Int_Tables_number   1
_chemical_formula_structural   SmAsO4
_chemical_formula_sum   'Sm2 As2 O8'
_cell_volume   152.44840675
_cell_formula_units_Z   2
loop_
 _symmetry_equiv_pos_site_id
 _symmetry_equiv_pos_as_xyz
  1  'x, y, z'
loop_
 _atom_site_type_symbol
 _atom_site_label
 _atom_site_symmetry_multiplicity
 _atom_site_fract_x
 _atom_site_fract_y
 _atom_site_fract_z
 _atom_site_occupancy
  Sm  Sm0  1  0.00000000  0.00000000  0.00000000  1
  Sm  Sm1  1  0.75000000  0.25000000  0.50000000  1
  As  As2  1  0.50000000  0.50000000  0.00000000  1
  As  As3  1  0.25000000  0.75000000  0.50000000  1
  O  O4  1  0.17226300  0.56400300  0.89264700  1
  O  O5  1  0.31400300  0.92135600  0.89174000  1
  O  O6  1  0.02961700  0.42226300  0.10826000  1
  O  O7  1  0.67135600  0.27961700  0.10735300  1
  O  O8  1  0.07864400  0.97038300  0.39264700  1
  O  O9  1  0.72038300  0.82773700  0.39174000  1
  O  O10  1  0.43599700  0.32864400  0.60826000  1
  O  O11  1  0.57773700  0.68599700  0.60735300  1
