# generated using pymatgen
data_Co5SbO8
_symmetry_space_group_name_H-M   'P 1'
_cell_length_a   6.00181478
_cell_length_b   10.47136229
_cell_length_c   6.16662348
_cell_angle_alpha   73.27932199
_cell_angle_beta   60.89980078
_cell_angle_gamma   89.92950003
_symmetry_Int_Tables_number   1
_chemical_formula_structural   Co5SbO8
_chemical_formula_sum   'Co10 Sb2 O16'
_cell_volume   319.83092071
_cell_formula_units_Z   2
loop_
 _symmetry_equiv_pos_site_id
 _symmetry_equiv_pos_as_xyz
  1  'x, y, z'
loop_
 _atom_site_type_symbol
 _atom_site_label
 _atom_site_symmetry_multiplicity
 _atom_site_fract_x
 _atom_site_fract_y
 _atom_site_fract_z
 _atom_site_occupancy
  Co  Co0  1  0.70620600  0.56808100  0.09689700  1
  Co  Co1  1  0.79449700  0.93173300  0.90399200  1
  Co  Co2  1  0.75109500  0.25002100  0.49901100  1
  Co  Co3  1  0.00201400  0.49914500  0.50270400  1
  Co  Co4  1  0.24944000  0.25033700  0.50152800  1
  Co  Co5  1  0.19885100  0.06829900  0.09419900  1
  Co  Co6  1  0.30004700  0.43178700  0.90529900  1
  Co  Co7  1  0.24862600  0.75060700  0.50153800  1
  Co  Co8  1  0.49638400  0.99886900  0.50027100  1
  Co  Co9  1  0.75043000  0.75047000  0.49893300  1
  Sb  Sb10  1  0.74803100  0.24956800  0.00085600  1
  Sb  Sb11  1  0.25112600  0.74971000  0.00072800  1
  O  O12  1  0.37825700  0.13660300  0.70350300  1
  O  O13  1  0.91782300  0.63696000  0.70580300  1
  O  O14  1  0.12115100  0.36345000  0.29306100  1
  O  O15  1  0.58580600  0.86325400  0.29178400  1
  O  O16  1  0.39331900  0.13561000  0.24067500  1
  O  O17  1  0.90047400  0.63284300  0.24478700  1
  O  O18  1  0.85530400  0.13183400  0.24387100  1
  O  O19  1  0.36477600  0.63521700  0.24233400  1
  O  O20  1  0.62865200  0.36351500  0.24076200  1
  O  O21  1  0.13192000  0.86383900  0.23979700  1
  O  O22  1  0.64283500  0.36786700  0.75616500  1
  O  O23  1  0.13734200  0.86527000  0.75794500  1
  O  O24  1  0.87127900  0.13667400  0.75932500  1
  O  O25  1  0.36884400  0.63671400  0.75945300  1
  O  O26  1  0.10438700  0.36453800  0.75915200  1
  O  O27  1  0.60108600  0.86718400  0.75562500  1
