# generated using pymatgen
data_TlCu3S2
_symmetry_space_group_name_H-M   'P 1'
_cell_length_a   7.51449032
_cell_length_b   7.51449032
_cell_length_c   8.42791719
_cell_angle_alpha   69.26235307
_cell_angle_beta   69.26235307
_cell_angle_gamma   29.63853954
_symmetry_Int_Tables_number   1
_chemical_formula_structural   TlCu3S2
_chemical_formula_sum   'Tl2 Cu6 S4'
_cell_volume   218.99233365
_cell_formula_units_Z   2
loop_
 _symmetry_equiv_pos_site_id
 _symmetry_equiv_pos_as_xyz
  1  'x, y, z'
loop_
 _atom_site_type_symbol
 _atom_site_label
 _atom_site_symmetry_multiplicity
 _atom_site_fract_x
 _atom_site_fract_y
 _atom_site_fract_z
 _atom_site_occupancy
  Tl  Tl0  1  0.85986400  0.85986400  0.05177100  1
  Tl  Tl1  1  0.14013600  0.14013600  0.94822900  1
  Cu  Cu2  1  0.41041800  0.41041800  0.63868300  1
  Cu  Cu3  1  0.31294600  0.31294600  0.41837100  1
  Cu  Cu4  1  0.05888600  0.05888600  0.59702600  1
  Cu  Cu5  1  0.94111400  0.94111400  0.40297400  1
  Cu  Cu6  1  0.68705400  0.68705400  0.58162900  1
  Cu  Cu7  1  0.58958200  0.58958200  0.36131700  1
  S  S8  1  0.47675600  0.47675600  0.23106500  1
  S  S9  1  0.52324400  0.52324400  0.76893500  1
  S  S10  1  0.81347800  0.81347800  0.67164400  1
  S  S11  1  0.18652200  0.18652200  0.32835600  1
