# generated using pymatgen
data_BC2N
_symmetry_space_group_name_H-M   'P 1'
_cell_length_a   3.63584152
_cell_length_b   3.63584152
_cell_length_c   4.17412007
_cell_angle_alpha   78.48003678
_cell_angle_beta   78.48003678
_cell_angle_gamma   89.86857926
_symmetry_Int_Tables_number   1
_chemical_formula_structural   BC2N
_chemical_formula_sum   'B2 C4 N2'
_cell_volume   52.93775299
_cell_formula_units_Z   2
loop_
 _symmetry_equiv_pos_site_id
 _symmetry_equiv_pos_as_xyz
  1  'x, y, z'
loop_
 _atom_site_type_symbol
 _atom_site_label
 _atom_site_symmetry_multiplicity
 _atom_site_fract_x
 _atom_site_fract_y
 _atom_site_fract_z
 _atom_site_occupancy
  B  B0  1  0.69554300  0.69554300  0.66249300  1
  B  B1  1  0.30445700  0.30445700  0.33750700  1
  C  C2  1  0.09239900  0.60846800  0.11525700  1
  C  C3  1  0.90760100  0.39153200  0.88474300  1
  C  C4  1  0.60846800  0.09239900  0.11525700  1
  C  C5  1  0.39153200  0.90760100  0.88474300  1
  N  N6  1  0.20532800  0.20532800  0.69045500  1
  N  N7  1  0.79467200  0.79467200  0.30954500  1
