# generated using pymatgen
data_Cu3P
_symmetry_space_group_name_H-M   'P 1'
_cell_length_a   6.96700447
_cell_length_b   6.96700447
_cell_length_c   7.17908700
_cell_angle_alpha   90.00000000
_cell_angle_beta   90.00000000
_cell_angle_gamma   120.00000450
_symmetry_Int_Tables_number   1
_chemical_formula_structural   Cu3P
_chemical_formula_sum   'Cu18 P6'
_cell_volume   301.78107918
_cell_formula_units_Z   6
loop_
 _symmetry_equiv_pos_site_id
 _symmetry_equiv_pos_as_xyz
  1  'x, y, z'
loop_
 _atom_site_type_symbol
 _atom_site_label
 _atom_site_symmetry_multiplicity
 _atom_site_fract_x
 _atom_site_fract_y
 _atom_site_fract_z
 _atom_site_occupancy
  Cu  Cu0  1  0.37466600  0.06556700  0.07599900  1
  Cu  Cu1  1  0.93443300  0.30910000  0.07599900  1
  Cu  Cu2  1  0.69090000  0.62533400  0.07599900  1
  Cu  Cu3  1  0.30910000  0.93443300  0.42400100  1
  Cu  Cu4  1  0.62533400  0.69090000  0.42400100  1
  Cu  Cu5  1  0.06556700  0.37466600  0.42400100  1
  Cu  Cu6  1  0.62533400  0.93443300  0.92400100  1
  Cu  Cu7  1  0.06556700  0.69090000  0.92400100  1
  Cu  Cu8  1  0.30910000  0.37466600  0.92400100  1
  Cu  Cu9  1  0.69090000  0.06556700  0.57599900  1
  Cu  Cu10  1  0.37466600  0.30910000  0.57599900  1
  Cu  Cu11  1  0.93443300  0.62533400  0.57599900  1
  Cu  Cu12  1  0.33333300  0.66666700  0.17481800  1
  Cu  Cu13  1  0.66666700  0.33333300  0.32518200  1
  Cu  Cu14  1  0.66666700  0.33333300  0.82518200  1
  Cu  Cu15  1  0.33333300  0.66666700  0.67481800  1
  Cu  Cu16  1  0.00000000  0.00000000  0.25000000  1
  Cu  Cu17  1  0.00000000  0.00000000  0.75000000  1
  P  P18  1  0.66330900  0.00000000  0.25000000  1
  P  P19  1  0.00000000  0.66330900  0.25000000  1
  P  P20  1  0.33669100  0.33669100  0.25000000  1
  P  P21  1  0.33669100  0.00000000  0.75000000  1
  P  P22  1  0.00000000  0.33669100  0.75000000  1
  P  P23  1  0.66330900  0.66330900  0.75000000  1
