# generated using pymatgen
data_Ca3Mn2(SiO4)3
_symmetry_space_group_name_H-M   'P 1'
_cell_length_a   10.59887096
_cell_length_b   10.59887096
_cell_length_c   10.59887096
_cell_angle_alpha   109.47122063
_cell_angle_beta   109.47122063
_cell_angle_gamma   109.47122063
_symmetry_Int_Tables_number   1
_chemical_formula_structural   Ca3Mn2(SiO4)3
_chemical_formula_sum   'Ca12 Mn8 Si12 O48'
_cell_volume   916.55160649
_cell_formula_units_Z   4
loop_
 _symmetry_equiv_pos_site_id
 _symmetry_equiv_pos_as_xyz
  1  'x, y, z'
loop_
 _atom_site_type_symbol
 _atom_site_label
 _atom_site_symmetry_multiplicity
 _atom_site_fract_x
 _atom_site_fract_y
 _atom_site_fract_z
 _atom_site_occupancy
  Ca  Ca0  1  0.25000000  0.37500000  0.12500000  1
  Ca  Ca1  1  0.75000000  0.12500000  0.37500000  1
  Ca  Ca2  1  0.37500000  0.12500000  0.25000000  1
  Ca  Ca3  1  0.12500000  0.37500000  0.75000000  1
  Ca  Ca4  1  0.25000000  0.87500000  0.62500000  1
  Ca  Ca5  1  0.12500000  0.25000000  0.37500000  1
  Ca  Ca6  1  0.62500000  0.25000000  0.87500000  1
  Ca  Ca7  1  0.75000000  0.62500000  0.87500000  1
  Ca  Ca8  1  0.87500000  0.75000000  0.62500000  1
  Ca  Ca9  1  0.87500000  0.62500000  0.25000000  1
  Ca  Ca10  1  0.62500000  0.87500000  0.75000000  1
  Ca  Ca11  1  0.37500000  0.75000000  0.12500000  1
  Mn  Mn12  1  0.50000000  0.00000000  0.00000000  1
  Mn  Mn13  1  0.50000000  0.50000000  0.00000000  1
  Mn  Mn14  1  0.00000000  0.50000000  0.50000000  1
  Mn  Mn15  1  0.00000000  0.00000000  0.50000000  1
  Mn  Mn16  1  0.50000000  0.50000000  0.50000000  1
  Mn  Mn17  1  0.00000000  0.50000000  0.00000000  1
  Mn  Mn18  1  0.50000000  0.00000000  0.50000000  1
  Mn  Mn19  1  0.00000000  0.00000000  0.00000000  1
  Si  Si20  1  0.12500000  0.75000000  0.87500000  1
  Si  Si21  1  0.87500000  0.25000000  0.12500000  1
  Si  Si22  1  0.75000000  0.37500000  0.62500000  1
  Si  Si23  1  0.12500000  0.87500000  0.25000000  1
  Si  Si24  1  0.25000000  0.12500000  0.87500000  1
  Si  Si25  1  0.37500000  0.62500000  0.75000000  1
  Si  Si26  1  0.37500000  0.25000000  0.62500000  1
  Si  Si27  1  0.87500000  0.12500000  0.75000000  1
  Si  Si28  1  0.62500000  0.37500000  0.25000000  1
  Si  Si29  1  0.75000000  0.87500000  0.12500000  1
  Si  Si30  1  0.25000000  0.62500000  0.37500000  1
  Si  Si31  1  0.62500000  0.75000000  0.37500000  1
  O  O32  1  0.58800600  0.89200700  0.38234400  1
  O  O33  1  0.38234400  0.58800600  0.89200700  1
  O  O34  1  0.29433700  0.30400100  0.91199400  1
  O  O35  1  0.49033600  0.60799300  0.19599900  1
  O  O36  1  0.30400100  0.89200700  0.00966400  1
  O  O37  1  0.11765600  0.00966400  0.20566300  1
  O  O38  1  0.38234400  0.29433700  0.49033600  1
  O  O39  1  0.89200700  0.38234400  0.58800600  1
  O  O40  1  0.19599900  0.20566300  0.58800600  1
  O  O41  1  0.49033600  0.38234400  0.29433700  1
  O  O42  1  0.89200700  0.00966400  0.30400100  1
  O  O43  1  0.60799300  0.91199400  0.11765600  1
  O  O44  1  0.91199400  0.11765600  0.60799300  1
  O  O45  1  0.29433700  0.49033600  0.38234400  1
  O  O46  1  0.58800600  0.19599900  0.20566300  1
  O  O47  1  0.20566300  0.58800600  0.19599900  1
  O  O48  1  0.00966400  0.30400100  0.89200700  1
  O  O49  1  0.91199400  0.29433700  0.30400100  1
  O  O50  1  0.00966400  0.20566300  0.11765600  1
  O  O51  1  0.80400100  0.79433700  0.41199400  1
  O  O52  1  0.19599900  0.49033600  0.60799300  1
  O  O53  1  0.60799300  0.19599900  0.49033600  1
  O  O54  1  0.20566300  0.11765600  0.00966400  1
  O  O55  1  0.11765600  0.60799300  0.91199400  1
  O  O56  1  0.41199400  0.10799300  0.61765600  1
  O  O57  1  0.61765600  0.41199400  0.10799300  1
  O  O58  1  0.70566300  0.69599900  0.08800600  1
  O  O59  1  0.50966400  0.39200700  0.80400100  1
  O  O60  1  0.69599900  0.10799300  0.99033600  1
  O  O61  1  0.88234400  0.99033600  0.79433700  1
  O  O62  1  0.61765600  0.70566300  0.50966400  1
  O  O63  1  0.10799300  0.61765600  0.41199400  1
  O  O64  1  0.88234400  0.39200700  0.08800600  1
  O  O65  1  0.79433700  0.88234400  0.99033600  1
  O  O66  1  0.39200700  0.80400100  0.50966400  1
  O  O67  1  0.69599900  0.08800600  0.70566300  1
  O  O68  1  0.80400100  0.50966400  0.39200700  1
  O  O69  1  0.99033600  0.79433700  0.88234400  1
  O  O70  1  0.08800600  0.70566300  0.69599900  1
  O  O71  1  0.99033600  0.69599900  0.10799300  1
  O  O72  1  0.79433700  0.41199400  0.80400100  1
  O  O73  1  0.41199400  0.80400100  0.79433700  1
  O  O74  1  0.70566300  0.50966400  0.61765600  1
  O  O75  1  0.08800600  0.88234400  0.39200700  1
  O  O76  1  0.39200700  0.08800600  0.88234400  1
  O  O77  1  0.10799300  0.99033600  0.69599900  1
  O  O78  1  0.50966400  0.61765600  0.70566300  1
  O  O79  1  0.30400100  0.91199400  0.29433700  1
