# generated using pymatgen
data_TiZnO3
_symmetry_space_group_name_H-M   'P 1'
_cell_length_a   5.55059057
_cell_length_b   5.55059057
_cell_length_c   5.55059080
_cell_angle_alpha   55.03777136
_cell_angle_beta   55.03777136
_cell_angle_gamma   55.03776657
_symmetry_Int_Tables_number   1
_chemical_formula_structural   TiZnO3
_chemical_formula_sum   'Ti2 Zn2 O6'
_cell_volume   106.96230134
_cell_formula_units_Z   2
loop_
 _symmetry_equiv_pos_site_id
 _symmetry_equiv_pos_as_xyz
  1  'x, y, z'
loop_
 _atom_site_type_symbol
 _atom_site_label
 _atom_site_symmetry_multiplicity
 _atom_site_fract_x
 _atom_site_fract_y
 _atom_site_fract_z
 _atom_site_occupancy
  Ti  Ti0  1  0.85439800  0.85439800  0.85439800  1
  Ti  Ti1  1  0.14560200  0.14560200  0.14560200  1
  Zn  Zn2  1  0.63932400  0.63932400  0.63932400  1
  Zn  Zn3  1  0.36067600  0.36067600  0.36067600  1
  O  O4  1  0.94950000  0.22354000  0.56322800  1
  O  O5  1  0.22354000  0.56322800  0.94950000  1
  O  O6  1  0.56322800  0.94950000  0.22354000  1
  O  O7  1  0.05050000  0.77646000  0.43677200  1
  O  O8  1  0.43677200  0.05050000  0.77646000  1
  O  O9  1  0.77646000  0.43677200  0.05050000  1
