# generated using pymatgen
data_Mn3Ga
_symmetry_space_group_name_H-M   'P 1'
_cell_length_a   5.14173737
_cell_length_b   5.14173737
_cell_length_c   4.18644500
_cell_angle_alpha   90.00000000
_cell_angle_beta   90.00000000
_cell_angle_gamma   119.99999189
_symmetry_Int_Tables_number   1
_chemical_formula_structural   Mn3Ga
_chemical_formula_sum   'Mn6 Ga2'
_cell_volume   95.85082098
_cell_formula_units_Z   2
loop_
 _symmetry_equiv_pos_site_id
 _symmetry_equiv_pos_as_xyz
  1  'x, y, z'
loop_
 _atom_site_type_symbol
 _atom_site_label
 _atom_site_symmetry_multiplicity
 _atom_site_fract_x
 _atom_site_fract_y
 _atom_site_fract_z
 _atom_site_occupancy
  Mn  Mn0  1  0.84202100  0.15797900  0.25000000  1
  Mn  Mn1  1  0.84202100  0.68404100  0.25000000  1
  Mn  Mn2  1  0.31595900  0.15797900  0.25000000  1
  Mn  Mn3  1  0.15797900  0.84202100  0.75000000  1
  Mn  Mn4  1  0.15797900  0.31595900  0.75000000  1
  Mn  Mn5  1  0.68404100  0.84202100  0.75000000  1
  Ga  Ga6  1  0.33333300  0.66666700  0.25000000  1
  Ga  Ga7  1  0.66666700  0.33333300  0.75000000  1
