# generated using pymatgen
data_Ti(TlS2)2
_symmetry_space_group_name_H-M   'P 1'
_cell_length_a   6.49283900
_cell_length_b   9.58756100
_cell_length_c   23.11507300
_cell_angle_alpha   90.00000000
_cell_angle_beta   90.00000000
_cell_angle_gamma   90.00000000
_symmetry_Int_Tables_number   1
_chemical_formula_structural   Ti(TlS2)2
_chemical_formula_sum   'Ti8 Tl16 S32'
_cell_volume   1438.92462007
_cell_formula_units_Z   8
loop_
 _symmetry_equiv_pos_site_id
 _symmetry_equiv_pos_as_xyz
  1  'x, y, z'
loop_
 _atom_site_type_symbol
 _atom_site_label
 _atom_site_symmetry_multiplicity
 _atom_site_fract_x
 _atom_site_fract_y
 _atom_site_fract_z
 _atom_site_occupancy
  Ti  Ti0  1  0.46312700  0.82229100  0.12700400  1
  Ti  Ti1  1  0.96312700  0.17770900  0.37299600  1
  Ti  Ti2  1  0.03687300  0.32229100  0.87299600  1
  Ti  Ti3  1  0.53687300  0.67770900  0.62700400  1
  Ti  Ti4  1  0.53687300  0.17770900  0.87299600  1
  Ti  Ti5  1  0.03687300  0.82229100  0.62700400  1
  Ti  Ti6  1  0.96312700  0.67770900  0.12700400  1
  Ti  Ti7  1  0.46312700  0.32229100  0.37299600  1
  Tl  Tl8  1  0.17394800  0.13787400  0.03966900  1
  Tl  Tl9  1  0.67394800  0.86212600  0.46033100  1
  Tl  Tl10  1  0.32605200  0.63787400  0.96033100  1
  Tl  Tl11  1  0.82605200  0.36212600  0.53966900  1
  Tl  Tl12  1  0.82605200  0.86212600  0.96033100  1
  Tl  Tl13  1  0.32605200  0.13787400  0.53966900  1
  Tl  Tl14  1  0.67394800  0.36212600  0.03966900  1
  Tl  Tl15  1  0.17394800  0.63787400  0.46033100  1
  Tl  Tl16  1  0.89675300  0.06896500  0.20067200  1
  Tl  Tl17  1  0.39675300  0.93103500  0.29932800  1
  Tl  Tl18  1  0.60324700  0.56896500  0.79932800  1
  Tl  Tl19  1  0.10324700  0.43103500  0.70067200  1
  Tl  Tl20  1  0.10324700  0.93103500  0.79932800  1
  Tl  Tl21  1  0.60324700  0.06896500  0.70067200  1
  Tl  Tl22  1  0.39675300  0.43103500  0.20067200  1
  Tl  Tl23  1  0.89675300  0.56896500  0.29932800  1
  S  S24  1  0.60440500  0.03823100  0.08785100  1
  S  S25  1  0.10440500  0.96176900  0.41214900  1
  S  S26  1  0.89559500  0.53823100  0.91214900  1
  S  S27  1  0.39559500  0.46176900  0.58785100  1
  S  S28  1  0.39559500  0.96176900  0.91214900  1
  S  S29  1  0.89559500  0.03823100  0.58785100  1
  S  S30  1  0.10440500  0.46176900  0.08785100  1
  S  S31  1  0.60440500  0.53823100  0.41214900  1
  S  S32  1  0.16172900  0.81604100  0.06194800  1
  S  S33  1  0.66172900  0.18395900  0.43805200  1
  S  S34  1  0.33827100  0.31604100  0.93805200  1
  S  S35  1  0.83827100  0.68395900  0.56194800  1
  S  S36  1  0.83827100  0.18395900  0.93805200  1
  S  S37  1  0.33827100  0.81604100  0.56194800  1
  S  S38  1  0.66172900  0.68395900  0.06194800  1
  S  S39  1  0.16172900  0.31604100  0.43805200  1
  S  S40  1  0.22069400  0.72973600  0.19735600  1
  S  S41  1  0.72069400  0.27026400  0.30264400  1
  S  S42  1  0.27930600  0.22973600  0.80264400  1
  S  S43  1  0.77930600  0.77026400  0.69735600  1
  S  S44  1  0.77930600  0.27026400  0.80264400  1
  S  S45  1  0.27930600  0.72973600  0.69735600  1
  S  S46  1  0.72069400  0.77026400  0.19735600  1
  S  S47  1  0.22069400  0.22973600  0.30264400  1
  S  S48  1  0.42011900  0.56640400  0.33923100  1
  S  S49  1  0.92011900  0.43359600  0.16076900  1
  S  S50  1  0.07988100  0.06640400  0.66076900  1
  S  S51  1  0.57988100  0.93359600  0.83923100  1
  S  S52  1  0.57988100  0.43359600  0.66076900  1
  S  S53  1  0.07988100  0.56640400  0.83923100  1
  S  S54  1  0.92011900  0.93359600  0.33923100  1
  S  S55  1  0.42011900  0.06640400  0.16076900  1
