# generated using pymatgen
data_NaTa3O8
_symmetry_space_group_name_H-M   'P 1'
_cell_length_a   7.31989533
_cell_length_b   7.31989533
_cell_length_c   7.31989533
_cell_angle_alpha   122.10676985
_cell_angle_beta   120.06990195
_cell_angle_gamma   88.13441408
_symmetry_Int_Tables_number   1
_chemical_formula_structural   NaTa3O8
_chemical_formula_sum   'Na2 Ta6 O16'
_cell_volume   272.50056697
_cell_formula_units_Z   2
loop_
 _symmetry_equiv_pos_site_id
 _symmetry_equiv_pos_as_xyz
  1  'x, y, z'
loop_
 _atom_site_type_symbol
 _atom_site_label
 _atom_site_symmetry_multiplicity
 _atom_site_fract_x
 _atom_site_fract_y
 _atom_site_fract_z
 _atom_site_occupancy
  Na  Na0  1  0.00000000  0.25000000  0.25000000  1
  Na  Na1  1  0.00000000  0.75000000  0.75000000  1
  Ta  Ta2  1  0.50179700  0.76283700  0.73895900  1
  Ta  Ta3  1  0.49820300  0.23716300  0.26104100  1
  Ta  Ta4  1  0.97612200  0.73716300  0.23895900  1
  Ta  Ta5  1  0.02387800  0.26283700  0.76104100  1
  Ta  Ta6  1  0.50000000  0.25000000  0.75000000  1
  Ta  Ta7  1  0.50000000  0.75000000  0.25000000  1
  O  O8  1  0.44809100  0.84605200  0.00946500  1
  O  O9  1  0.55190900  0.56137300  0.39796100  1
  O  O10  1  0.16341200  0.65394800  0.10203900  1
  O  O11  1  0.83658800  0.93862700  0.49053500  1
  O  O12  1  0.55190900  0.15394800  0.99053500  1
  O  O13  1  0.44809100  0.43862700  0.60203900  1
  O  O14  1  0.83658800  0.34605200  0.89796100  1
  O  O15  1  0.16341200  0.06137300  0.50946500  1
  O  O16  1  0.18453600  0.17368400  0.01085200  1
  O  O17  1  0.81546400  0.82631600  0.98914800  1
  O  O18  1  0.83716900  0.32631600  0.51085200  1
  O  O19  1  0.16283100  0.67368400  0.48914800  1
  O  O20  1  0.31459800  0.43052000  0.88407800  1
  O  O21  1  0.68540200  0.56948000  0.11592200  1
  O  O22  1  0.45355800  0.06948000  0.38407800  1
  O  O23  1  0.54644200  0.93052000  0.61592200  1
