# generated using pymatgen
data_ZrIn3
_symmetry_space_group_name_H-M   'P 1'
_cell_length_a   10.08715689
_cell_length_b   10.08715689
_cell_length_c   10.08715689
_cell_angle_alpha   154.92400391
_cell_angle_beta   154.92400391
_cell_angle_gamma   35.75795332
_symmetry_Int_Tables_number   1
_chemical_formula_structural   ZrIn3
_chemical_formula_sum   'Zr2 In6'
_cell_volume   184.13545398
_cell_formula_units_Z   2
loop_
 _symmetry_equiv_pos_site_id
 _symmetry_equiv_pos_as_xyz
  1  'x, y, z'
loop_
 _atom_site_type_symbol
 _atom_site_label
 _atom_site_symmetry_multiplicity
 _atom_site_fract_x
 _atom_site_fract_y
 _atom_site_fract_z
 _atom_site_occupancy
  Zr  Zr0  1  0.88114900  0.88114900  0.00000000  1
  Zr  Zr1  1  0.11885100  0.11885100  0.00000000  1
  In  In2  1  0.00000000  0.50000000  0.50000000  1
  In  In3  1  0.50000000  0.00000000  0.50000000  1
  In  In4  1  0.75000000  0.25000000  0.50000000  1
  In  In5  1  0.25000000  0.75000000  0.50000000  1
  In  In6  1  0.62478200  0.62478200  0.00000000  1
  In  In7  1  0.37521800  0.37521800  0.00000000  1
