# generated using pymatgen
data_Ba4Zr3S10
_symmetry_space_group_name_H-M   'P 1'
_cell_length_a   18.31442651
_cell_length_b   18.31442651
_cell_length_c   18.31442651
_cell_angle_alpha   164.15441026
_cell_angle_beta   164.15441026
_cell_angle_gamma   22.48164556
_symmetry_Int_Tables_number   1
_chemical_formula_structural   Ba4Zr3S10
_chemical_formula_sum   'Ba4 Zr3 S10'
_cell_volume   457.89876390
_cell_formula_units_Z   1
loop_
 _symmetry_equiv_pos_site_id
 _symmetry_equiv_pos_as_xyz
  1  'x, y, z'
loop_
 _atom_site_type_symbol
 _atom_site_label
 _atom_site_symmetry_multiplicity
 _atom_site_fract_x
 _atom_site_fract_y
 _atom_site_fract_z
 _atom_site_occupancy
  Ba  Ba0  1  0.43263600  0.43263600  0.00000000  1
  Ba  Ba1  1  0.56736400  0.56736400  0.00000000  1
  Ba  Ba2  1  0.30028100  0.30028100  0.00000000  1
  Ba  Ba3  1  0.69971900  0.69971900  0.00000000  1
  Zr  Zr4  1  0.00000000  0.00000000  0.00000000  1
  Zr  Zr5  1  0.85682900  0.85682900  0.00000000  1
  Zr  Zr6  1  0.14317100  0.14317100  0.00000000  1
  S  S7  1  0.36059600  0.86059600  0.50000000  1
  S  S8  1  0.13940400  0.63940400  0.50000000  1
  S  S9  1  0.63940400  0.13940400  0.50000000  1
  S  S10  1  0.86059600  0.36059600  0.50000000  1
  S  S11  1  0.50000000  0.00000000  0.50000000  1
  S  S12  1  0.00000000  0.50000000  0.50000000  1
  S  S13  1  0.21310900  0.21310900  0.00000000  1
  S  S14  1  0.92950300  0.92950300  0.00000000  1
  S  S15  1  0.07049700  0.07049700  0.00000000  1
  S  S16  1  0.78689100  0.78689100  0.00000000  1
