# generated using pymatgen
data_KCeHf4O12
_symmetry_space_group_name_H-M   'P 1'
_cell_length_a   5.74940332
_cell_length_b   5.74940332
_cell_length_c   8.17043951
_cell_angle_alpha   90.00000000
_cell_angle_beta   90.00000000
_cell_angle_gamma   90.74751948
_symmetry_Int_Tables_number   1
_chemical_formula_structural   KCeHf4O12
_chemical_formula_sum   'K1 Ce1 Hf4 O12'
_cell_volume   270.05610954
_cell_formula_units_Z   1
loop_
 _symmetry_equiv_pos_site_id
 _symmetry_equiv_pos_as_xyz
  1  'x, y, z'
loop_
 _atom_site_type_symbol
 _atom_site_label
 _atom_site_symmetry_multiplicity
 _atom_site_fract_x
 _atom_site_fract_y
 _atom_site_fract_z
 _atom_site_occupancy
  K  K0  1  0.00264924  0.99735076  0.50000000  1
  Ce  Ce1  1  0.49348302  0.50651698  0.00000000  1
  Hf  Hf2  1  0.49990689  0.00448578  0.25332272  1
  Hf  Hf3  1  0.49990689  0.00448578  0.74667728  1
  Hf  Hf4  1  0.99551422  0.50009311  0.74667728  1
  Hf  Hf5  1  0.99551422  0.50009311  0.25332272  1
  O  O6  1  0.28673714  0.29124772  0.21054893  1
  O  O7  1  0.70875228  0.71326286  0.21054893  1
  O  O8  1  0.70875228  0.71326286  0.78945107  1
  O  O9  1  0.28673714  0.29124772  0.78945107  1
  O  O10  1  0.25279783  0.74720217  0.18594849  1
  O  O11  1  0.78660919  0.21339081  0.26952923  1
  O  O12  1  0.78660919  0.21339081  0.73047077  1
  O  O13  1  0.25279783  0.74720217  0.81405151  1
  O  O14  1  0.54498353  0.09369301  0.00000000  1
  O  O15  1  0.47047162  0.99042950  0.50000000  1
  O  O16  1  0.90630699  0.45501647  0.00000000  1
  O  O17  1  0.00957050  0.52952838  0.50000000  1
