# generated using pymatgen
data_BaCaEuNbO6
_symmetry_space_group_name_H-M   'P 1'
_cell_length_a   8.51315023
_cell_length_b   8.47068210
_cell_length_c   8.48319306
_cell_angle_alpha   90.00000000
_cell_angle_beta   90.00000000
_cell_angle_gamma   90.00000000
_symmetry_Int_Tables_number   1
_chemical_formula_structural   BaCaEuNbO6
_chemical_formula_sum   'Ba4 Ca4 Eu4 Nb4 O24'
_cell_volume   611.74162354
_cell_formula_units_Z   4
loop_
 _symmetry_equiv_pos_site_id
 _symmetry_equiv_pos_as_xyz
  1  'x, y, z'
loop_
 _atom_site_type_symbol
 _atom_site_label
 _atom_site_symmetry_multiplicity
 _atom_site_fract_x
 _atom_site_fract_y
 _atom_site_fract_z
 _atom_site_occupancy
  Ba  Ba0  1  -0.00000000  0.00000000  0.00000000  1
  Ba  Ba1  1  0.50000000  0.50000000  0.50000000  1
  Ba  Ba2  1  0.50000000  0.00000000  0.50000000  1
  Ba  Ba3  1  -0.00000000  0.50000000  0.00000000  1
  Ca  Ca4  1  0.75000000  0.75000000  0.75000000  1
  Ca  Ca5  1  0.25000000  0.25000000  0.75000000  1
  Ca  Ca6  1  0.25000000  0.75000000  0.25000000  1
  Ca  Ca7  1  0.75000000  0.25000000  0.25000000  1
  Eu  Eu8  1  -0.00000000  0.50000000  0.50000000  1
  Eu  Eu9  1  0.50000000  0.50000000  0.00000000  1
  Eu  Eu10  1  0.50000000  0.00000000  0.00000000  1
  Eu  Eu11  1  -0.00000000  0.00000000  0.50000000  1
  Nb  Nb12  1  0.25000000  0.25000000  0.25000000  1
  Nb  Nb13  1  0.75000000  0.75000000  0.25000000  1
  Nb  Nb14  1  0.75000000  0.25000000  0.75000000  1
  Nb  Nb15  1  0.25000000  0.75000000  0.75000000  1
  O  O16  1  0.01733603  0.18899717  0.28695634  1
  O  O17  1  0.98266397  0.81100283  0.28695634  1
  O  O18  1  0.98266397  0.18899717  0.71304366  1
  O  O19  1  0.01733603  0.81100283  0.71304366  1
  O  O20  1  0.30633452  0.01771700  0.20259880  1
  O  O21  1  0.30633452  0.98228300  0.79740120  1
  O  O22  1  0.69366548  0.98228300  0.20259880  1
  O  O23  1  0.69366548  0.01771700  0.79740120  1
  O  O24  1  0.21959184  0.28318449  0.01597175  1
  O  O25  1  0.78040816  0.28318449  0.98402825  1
  O  O26  1  0.21959184  0.71681551  0.98402825  1
  O  O27  1  0.78040816  0.71681551  0.01597175  1
  O  O28  1  0.48266397  0.31100283  0.21304366  1
  O  O29  1  0.51733603  0.68899717  0.21304366  1
  O  O30  1  0.51733603  0.31100283  0.78695634  1
  O  O31  1  0.48266397  0.68899717  0.78695634  1
  O  O32  1  0.19366548  0.48228300  0.29740120  1
  O  O33  1  0.19366548  0.51771700  0.70259880  1
  O  O34  1  0.80633452  0.51771700  0.29740120  1
  O  O35  1  0.80633452  0.48228300  0.70259880  1
  O  O36  1  0.28040816  0.21681551  0.48402825  1
  O  O37  1  0.71959184  0.21681551  0.51597175  1
  O  O38  1  0.28040816  0.78318449  0.51597175  1
  O  O39  1  0.71959184  0.78318449  0.48402825  1
