# generated using pymatgen
data_PrEu2NbO6
_symmetry_space_group_name_H-M   'P 1'
_cell_length_a   8.51498510
_cell_length_b   8.51498510
_cell_length_c   8.51498510
_cell_angle_alpha   90.00000000
_cell_angle_beta   90.00000000
_cell_angle_gamma   90.00000000
_symmetry_Int_Tables_number   1
_chemical_formula_structural   PrEu2NbO6
_chemical_formula_sum   'Pr4 Eu8 Nb4 O24'
_cell_volume   617.37874990
_cell_formula_units_Z   4
loop_
 _symmetry_equiv_pos_site_id
 _symmetry_equiv_pos_as_xyz
  1  'x, y, z'
loop_
 _atom_site_type_symbol
 _atom_site_label
 _atom_site_symmetry_multiplicity
 _atom_site_fract_x
 _atom_site_fract_y
 _atom_site_fract_z
 _atom_site_occupancy
  Pr  Pr0  1  0.25000000  0.25000000  0.25000000  1
  Pr  Pr1  1  0.25000000  0.75000000  0.75000000  1
  Pr  Pr2  1  0.75000000  0.25000000  0.75000000  1
  Pr  Pr3  1  0.75000000  0.75000000  0.25000000  1
  Eu  Eu4  1  0.50000000  0.50000000  0.50000000  1
  Eu  Eu5  1  0.00000000  -0.00000000  0.00000000  1
  Eu  Eu6  1  0.00000000  -0.00000000  0.50000000  1
  Eu  Eu7  1  0.00000000  0.50000000  0.00000000  1
  Eu  Eu8  1  0.50000000  -0.00000000  0.00000000  1
  Eu  Eu9  1  0.50000000  0.50000000  0.00000000  1
  Eu  Eu10  1  0.50000000  -0.00000000  0.50000000  1
  Eu  Eu11  1  0.00000000  0.50000000  0.50000000  1
  Nb  Nb12  1  0.75000000  0.75000000  0.75000000  1
  Nb  Nb13  1  0.75000000  0.25000000  0.25000000  1
  Nb  Nb14  1  0.25000000  0.75000000  0.25000000  1
  Nb  Nb15  1  0.25000000  0.25000000  0.75000000  1
  O  O16  1  0.20880757  0.30059395  0.51984819  1
  O  O17  1  0.20880757  0.69940605  0.48015181  1
  O  O18  1  0.79119243  0.30059395  0.48015181  1
  O  O19  1  0.79119243  0.69940605  0.51984819  1
  O  O20  1  0.30059395  0.51984819  0.20880757  1
  O  O21  1  0.69940605  0.48015181  0.20880757  1
  O  O22  1  0.30059395  0.48015181  0.79119243  1
  O  O23  1  0.69940605  0.51984819  0.79119243  1
  O  O24  1  0.51984819  0.20880757  0.30059395  1
  O  O25  1  0.48015181  0.20880757  0.69940605  1
  O  O26  1  0.48015181  0.79119243  0.30059395  1
  O  O27  1  0.51984819  0.79119243  0.69940605  1
  O  O28  1  0.29119243  0.19940605  0.98015181  1
  O  O29  1  0.29119243  0.80059395  0.01984819  1
  O  O30  1  0.70880757  0.19940605  0.01984819  1
  O  O31  1  0.70880757  0.80059395  0.98015181  1
  O  O32  1  0.19940605  0.98015181  0.29119243  1
  O  O33  1  0.80059395  0.01984819  0.29119243  1
  O  O34  1  0.19940605  0.01984819  0.70880757  1
  O  O35  1  0.80059395  0.98015181  0.70880757  1
  O  O36  1  0.98015181  0.29119243  0.19940605  1
  O  O37  1  0.01984819  0.29119243  0.80059395  1
  O  O38  1  0.01984819  0.70880757  0.19940605  1
  O  O39  1  0.98015181  0.70880757  0.80059395  1
