# generated using pymatgen
data_BaCaEuBiO6
_symmetry_space_group_name_H-M   'P 1'
_cell_length_a   8.59444607
_cell_length_b   8.61956166
_cell_length_c   8.59914686
_cell_angle_alpha   90.00000000
_cell_angle_beta   90.00000000
_cell_angle_gamma   90.00000000
_symmetry_Int_Tables_number   1
_chemical_formula_structural   BaCaEuBiO6
_chemical_formula_sum   'Ba4 Ca4 Eu4 Bi4 O24'
_cell_volume   637.02787646
_cell_formula_units_Z   4
loop_
 _symmetry_equiv_pos_site_id
 _symmetry_equiv_pos_as_xyz
  1  'x, y, z'
loop_
 _atom_site_type_symbol
 _atom_site_label
 _atom_site_symmetry_multiplicity
 _atom_site_fract_x
 _atom_site_fract_y
 _atom_site_fract_z
 _atom_site_occupancy
  Ba  Ba0  1  0.00000000  -0.00000000  0.00000000  1
  Ba  Ba1  1  0.50000000  0.50000000  0.50000000  1
  Ba  Ba2  1  0.00000000  0.50000000  0.00000000  1
  Ba  Ba3  1  0.00000000  -0.00000000  0.50000000  1
  Ca  Ca4  1  0.00000000  0.50000000  0.50000000  1
  Ca  Ca5  1  0.50000000  -0.00000000  0.50000000  1
  Ca  Ca6  1  0.50000000  0.50000000  0.00000000  1
  Ca  Ca7  1  0.50000000  -0.00000000  0.00000000  1
  Eu  Eu8  1  0.25541836  0.25079162  0.25115955  1
  Eu  Eu9  1  0.74458164  0.74920838  0.25115955  1
  Eu  Eu10  1  0.74458164  0.25079162  0.74884045  1
  Eu  Eu11  1  0.25541836  0.74920838  0.74884045  1
  Bi  Bi12  1  0.74361964  0.74907086  0.75064347  1
  Bi  Bi13  1  0.25638036  0.25092914  0.75064347  1
  Bi  Bi14  1  0.25638036  0.74907086  0.24935653  1
  Bi  Bi15  1  0.74361964  0.25092914  0.24935653  1
  O  O16  1  0.98967854  0.21381604  0.27546487  1
  O  O17  1  0.01032146  0.78618396  0.27546487  1
  O  O18  1  0.01032146  0.21381604  0.72453513  1
  O  O19  1  0.98967854  0.78618396  0.72453513  1
  O  O20  1  0.30189881  0.99040919  0.20082415  1
  O  O21  1  0.30189881  0.00959081  0.79917585  1
  O  O22  1  0.69810119  0.00959081  0.20082415  1
  O  O23  1  0.69810119  0.99040919  0.79917585  1
  O  O24  1  0.21983622  0.28241349  0.99288650  1
  O  O25  1  0.78016378  0.28241349  0.00711350  1
  O  O26  1  0.21983622  0.71758651  0.00711350  1
  O  O27  1  0.78016378  0.71758651  0.99288650  1
  O  O28  1  0.50842580  0.31317338  0.20469146  1
  O  O29  1  0.49157420  0.68682662  0.20469146  1
  O  O30  1  0.49157420  0.31317338  0.79530854  1
  O  O31  1  0.50842580  0.68682662  0.79530854  1
  O  O32  1  0.20543363  0.51074115  0.30823110  1
  O  O33  1  0.20543363  0.48925885  0.69176890  1
  O  O34  1  0.79456637  0.48925885  0.30823110  1
  O  O35  1  0.79456637  0.51074115  0.69176890  1
  O  O36  1  0.30636328  0.19895439  0.51119558  1
  O  O37  1  0.69363672  0.19895439  0.48880442  1
  O  O38  1  0.30636328  0.80104561  0.48880442  1
  O  O39  1  0.69363672  0.80104561  0.51119558  1
