# generated using pymatgen
data_NaSrLaWO6
_symmetry_space_group_name_H-M   'P 1'
_cell_length_a   8.47058692
_cell_length_b   8.51322307
_cell_length_c   8.47548242
_cell_angle_alpha   90.00000000
_cell_angle_beta   90.00000000
_cell_angle_gamma   90.00000000
_symmetry_Int_Tables_number   1
_chemical_formula_structural   NaSrLaWO6
_chemical_formula_sum   'Na4 Sr4 La4 W4 O24'
_cell_volume   611.18395423
_cell_formula_units_Z   4
loop_
 _symmetry_equiv_pos_site_id
 _symmetry_equiv_pos_as_xyz
  1  'x, y, z'
loop_
 _atom_site_type_symbol
 _atom_site_label
 _atom_site_symmetry_multiplicity
 _atom_site_fract_x
 _atom_site_fract_y
 _atom_site_fract_z
 _atom_site_occupancy
  Na  Na0  1  -0.00000000  0.00000000  -0.00000000  1
  Na  Na1  1  0.50000000  0.50000000  0.50000000  1
  Na  Na2  1  -0.00000000  0.50000000  0.50000000  1
  Na  Na3  1  0.50000000  0.00000000  -0.00000000  1
  Sr  Sr4  1  0.50000000  0.00000000  0.50000000  1
  Sr  Sr5  1  0.50000000  0.50000000  -0.00000000  1
  Sr  Sr6  1  -0.00000000  0.50000000  -0.00000000  1
  Sr  Sr7  1  0.00000000  0.00000000  0.50000000  1
  La  La8  1  0.75000000  0.75000000  0.75000000  1
  La  La9  1  0.25000000  0.25000000  0.75000000  1
  La  La10  1  0.25000000  0.75000000  0.25000000  1
  La  La11  1  0.75000000  0.25000000  0.25000000  1
  W  W12  1  0.25000000  0.25000000  0.25000000  1
  W  W13  1  0.75000000  0.75000000  0.25000000  1
  W  W14  1  0.75000000  0.25000000  0.75000000  1
  W  W15  1  0.25000000  0.75000000  0.75000000  1
  O  O16  1  0.02535697  0.20253536  0.28153654  1
  O  O17  1  0.97464303  0.79746464  0.28153654  1
  O  O18  1  0.97464303  0.20253536  0.71846346  1
  O  O19  1  0.02535697  0.79746464  0.71846346  1
  O  O20  1  0.29312864  0.02714718  0.21268416  1
  O  O21  1  0.29312864  0.97285282  0.78731584  1
  O  O22  1  0.70687136  0.97285282  0.21268416  1
  O  O23  1  0.70687136  0.02714718  0.78731584  1
  O  O24  1  0.21266422  0.29249419  0.02384580  1
  O  O25  1  0.78733578  0.29249419  0.97615420  1
  O  O26  1  0.21266422  0.70750581  0.97615420  1
  O  O27  1  0.78733578  0.70750581  0.02384580  1
  O  O28  1  0.47464303  0.29746464  0.21846346  1
  O  O29  1  0.52535697  0.70253536  0.21846346  1
  O  O30  1  0.52535697  0.29746464  0.78153654  1
  O  O31  1  0.47464303  0.70253536  0.78153654  1
  O  O32  1  0.20687136  0.47285282  0.28731584  1
  O  O33  1  0.20687136  0.52714718  0.71268416  1
  O  O34  1  0.79312864  0.52714718  0.28731584  1
  O  O35  1  0.79312864  0.47285282  0.71268416  1
  O  O36  1  0.28733578  0.20750581  0.47615420  1
  O  O37  1  0.71266422  0.20750581  0.52384580  1
  O  O38  1  0.28733578  0.79249419  0.52384580  1
  O  O39  1  0.71266422  0.79249419  0.47615420  1
