# generated using pymatgen
data_KNa(WO3)4
_symmetry_space_group_name_H-M   'P 1'
_cell_length_a   5.54554841
_cell_length_b   5.54554841
_cell_length_c   7.84858578
_cell_angle_alpha   90.00000000
_cell_angle_beta   90.00000000
_cell_angle_gamma   90.00000000
_symmetry_Int_Tables_number   1
_chemical_formula_structural   KNa(WO3)4
_chemical_formula_sum   'K1 Na1 W4 O12'
_cell_volume   241.36839961
_cell_formula_units_Z   1
loop_
 _symmetry_equiv_pos_site_id
 _symmetry_equiv_pos_as_xyz
  1  'x, y, z'
loop_
 _atom_site_type_symbol
 _atom_site_label
 _atom_site_symmetry_multiplicity
 _atom_site_fract_x
 _atom_site_fract_y
 _atom_site_fract_z
 _atom_site_occupancy
  K  K0  1  0.00000000  0.00000000  0.50000000  1
  Na  Na1  1  0.50000000  0.50000000  0.00000000  1
  W  W2  1  0.00000000  0.50000000  0.75103991  1
  W  W3  1  0.00000000  0.50000000  0.24896009  1
  W  W4  1  0.50000000  0.00000000  0.75103991  1
  W  W5  1  0.50000000  0.00000000  0.24896009  1
  O  O6  1  0.25213929  0.25213929  0.75233559  1
  O  O7  1  0.25213929  0.25213929  0.24766441  1
  O  O8  1  0.74786071  0.74786071  0.24766441  1
  O  O9  1  0.74786071  0.74786071  0.75233559  1
  O  O10  1  0.74786071  0.25213929  0.24766441  1
  O  O11  1  0.74786071  0.25213929  0.75233559  1
  O  O12  1  0.25213929  0.74786071  0.24766441  1
  O  O13  1  0.25213929  0.74786071  0.75233559  1
  O  O14  1  0.00000000  0.50000000  0.50000000  1
  O  O15  1  0.00000000  0.50000000  0.00000000  1
  O  O16  1  0.50000000  0.00000000  0.50000000  1
  O  O17  1  0.50000000  0.00000000  0.00000000  1
