# generated using pymatgen
data_NaCaCeBiO6
_symmetry_space_group_name_H-M   'P 1'
_cell_length_a   5.89613057
_cell_length_b   5.89613057
_cell_length_c   8.64216308
_cell_angle_alpha   90.00000000
_cell_angle_beta   90.00000000
_cell_angle_gamma   90.00000000
_symmetry_Int_Tables_number   1
_chemical_formula_structural   NaCaCeBiO6
_chemical_formula_sum   'Na2 Ca2 Ce2 Bi2 O12'
_cell_volume   300.43923132
_cell_formula_units_Z   2
loop_
 _symmetry_equiv_pos_site_id
 _symmetry_equiv_pos_as_xyz
  1  'x, y, z'
loop_
 _atom_site_type_symbol
 _atom_site_label
 _atom_site_symmetry_multiplicity
 _atom_site_fract_x
 _atom_site_fract_y
 _atom_site_fract_z
 _atom_site_occupancy
  Na  Na0  1  0.50000000  -0.00000000  0.25000000  1
  Na  Na1  1  0.00000000  0.50000000  0.75000000  1
  Ca  Ca2  1  0.00000000  0.50000000  0.25000000  1
  Ca  Ca3  1  0.50000000  -0.00000000  0.75000000  1
  Ce  Ce4  1  0.00000000  -0.00000000  0.50000000  1
  Ce  Ce5  1  0.50000000  0.50000000  -0.00000000  1
  Bi  Bi6  1  0.00000000  -0.00000000  0.00000000  1
  Bi  Bi7  1  0.50000000  0.50000000  0.50000000  1
  O  O8  1  0.00000000  -0.00000000  0.24533043  1
  O  O9  1  0.50000000  0.50000000  0.25466957  1
  O  O10  1  0.00000000  -0.00000000  0.75466957  1
  O  O11  1  0.50000000  0.50000000  0.74533043  1
  O  O12  1  0.32130989  0.16640043  0.98348840  1
  O  O13  1  0.67869011  0.83359957  0.98348840  1
  O  O14  1  0.83359957  0.32130989  0.01651160  1
  O  O15  1  0.16640043  0.67869011  0.01651160  1
  O  O16  1  0.82130989  0.33359957  0.48348840  1
  O  O17  1  0.17869011  0.66640043  0.48348840  1
  O  O18  1  0.33359957  0.17869011  0.51651160  1
  O  O19  1  0.66640043  0.82130989  0.51651160  1
