# generated using pymatgen
data_BaLiCeSbO6
_symmetry_space_group_name_H-M   'P 1'
_cell_length_a   8.42943003
_cell_length_b   8.39078213
_cell_length_c   8.40379101
_cell_angle_alpha   90.00000000
_cell_angle_beta   90.00000000
_cell_angle_gamma   90.00000000
_symmetry_Int_Tables_number   1
_chemical_formula_structural   BaLiCeSbO6
_chemical_formula_sum   'Ba4 Li4 Ce4 Sb4 O24'
_cell_volume   594.39602752
_cell_formula_units_Z   4
loop_
 _symmetry_equiv_pos_site_id
 _symmetry_equiv_pos_as_xyz
  1  'x, y, z'
loop_
 _atom_site_type_symbol
 _atom_site_label
 _atom_site_symmetry_multiplicity
 _atom_site_fract_x
 _atom_site_fract_y
 _atom_site_fract_z
 _atom_site_occupancy
  Ba  Ba0  1  0.00000000  0.00000000  0.00000000  1
  Ba  Ba1  1  0.50000000  0.50000000  0.50000000  1
  Ba  Ba2  1  0.00000000  0.50000000  0.50000000  1
  Ba  Ba3  1  0.50000000  0.00000000  0.00000000  1
  Li  Li4  1  0.50000000  -0.00000000  0.50000000  1
  Li  Li5  1  0.50000000  0.50000000  0.00000000  1
  Li  Li6  1  0.00000000  0.50000000  0.00000000  1
  Li  Li7  1  0.00000000  -0.00000000  0.50000000  1
  Ce  Ce8  1  0.75000000  0.75000000  0.75000000  1
  Ce  Ce9  1  0.25000000  0.25000000  0.75000000  1
  Ce  Ce10  1  0.25000000  0.75000000  0.25000000  1
  Ce  Ce11  1  0.75000000  0.25000000  0.25000000  1
  Sb  Sb12  1  0.25000000  0.25000000  0.25000000  1
  Sb  Sb13  1  0.75000000  0.75000000  0.25000000  1
  Sb  Sb14  1  0.75000000  0.25000000  0.75000000  1
  Sb  Sb15  1  0.25000000  0.75000000  0.75000000  1
  O  O16  1  0.01428700  0.21767027  0.29365937  1
  O  O17  1  0.98571300  0.78232973  0.29365937  1
  O  O18  1  0.98571300  0.21767027  0.70634063  1
  O  O19  1  0.01428700  0.78232973  0.70634063  1
  O  O20  1  0.27120128  0.01245789  0.22328593  1
  O  O21  1  0.27120128  0.98754211  0.77671407  1
  O  O22  1  0.72879872  0.98754211  0.22328593  1
  O  O23  1  0.72879872  0.01245789  0.77671407  1
  O  O24  1  0.20533541  0.26736359  0.01345884  1
  O  O25  1  0.79466459  0.26736359  0.98654116  1
  O  O26  1  0.20533541  0.73263641  0.98654116  1
  O  O27  1  0.79466459  0.73263641  0.01345884  1
  O  O28  1  0.48571300  0.28232973  0.20634063  1
  O  O29  1  0.51428700  0.71767027  0.20634063  1
  O  O30  1  0.51428700  0.28232973  0.79365937  1
  O  O31  1  0.48571300  0.71767027  0.79365937  1
  O  O32  1  0.22879872  0.48754211  0.27671407  1
  O  O33  1  0.22879872  0.51245789  0.72328593  1
  O  O34  1  0.77120128  0.51245789  0.27671407  1
  O  O35  1  0.77120128  0.48754211  0.72328593  1
  O  O36  1  0.29466459  0.23263641  0.48654116  1
  O  O37  1  0.70533541  0.23263641  0.51345884  1
  O  O38  1  0.29466459  0.76736359  0.51345884  1
  O  O39  1  0.70533541  0.76736359  0.48654116  1
