# generated using pymatgen
data_NaCaCeBiO6
_symmetry_space_group_name_H-M   'P 1'
_cell_length_a   8.42739457
_cell_length_b   8.41212466
_cell_length_c   8.40947240
_cell_angle_alpha   90.00000000
_cell_angle_beta   90.00000000
_cell_angle_gamma   90.00000000
_symmetry_Int_Tables_number   1
_chemical_formula_structural   NaCaCeBiO6
_chemical_formula_sum   'Na4 Ca4 Ce4 Bi4 O24'
_cell_volume   596.16678709
_cell_formula_units_Z   4
loop_
 _symmetry_equiv_pos_site_id
 _symmetry_equiv_pos_as_xyz
  1  'x, y, z'
loop_
 _atom_site_type_symbol
 _atom_site_label
 _atom_site_symmetry_multiplicity
 _atom_site_fract_x
 _atom_site_fract_y
 _atom_site_fract_z
 _atom_site_occupancy
  Na  Na0  1  0.00000000  0.50000000  0.50000000  1
  Na  Na1  1  0.50000000  0.50000000  0.00000000  1
  Na  Na2  1  0.50000000  -0.00000000  -0.00000000  1
  Na  Na3  1  0.00000000  -0.00000000  0.50000000  1
  Ca  Ca4  1  0.50000000  -0.00000000  0.50000000  1
  Ca  Ca5  1  -0.00000000  0.50000000  -0.00000000  1
  Ca  Ca6  1  -0.00000000  -0.00000000  -0.00000000  1
  Ca  Ca7  1  0.50000000  0.50000000  0.50000000  1
  Ce  Ce8  1  0.25000000  0.25000000  0.25000000  1
  Ce  Ce9  1  0.75000000  0.75000000  0.25000000  1
  Ce  Ce10  1  0.75000000  0.25000000  0.75000000  1
  Ce  Ce11  1  0.25000000  0.75000000  0.75000000  1
  Bi  Bi12  1  0.75000000  0.75000000  0.75000000  1
  Bi  Bi13  1  0.25000000  0.25000000  0.75000000  1
  Bi  Bi14  1  0.25000000  0.75000000  0.25000000  1
  Bi  Bi15  1  0.75000000  0.25000000  0.25000000  1
  O  O16  1  0.99407907  0.19094001  0.28341188  1
  O  O17  1  0.00592093  0.80905999  0.28341188  1
  O  O18  1  0.00592093  0.19094001  0.71658812  1
  O  O19  1  0.99407907  0.80905999  0.71658812  1
  O  O20  1  0.29255031  0.99443649  0.19630564  1
  O  O21  1  0.29255031  0.00556351  0.80369436  1
  O  O22  1  0.70744969  0.00556351  0.19630564  1
  O  O23  1  0.70744969  0.99443649  0.80369436  1
  O  O24  1  0.18594834  0.29002472  0.99315625  1
  O  O25  1  0.81405166  0.29002472  0.00684375  1
  O  O26  1  0.18594834  0.70997528  0.00684375  1
  O  O27  1  0.81405166  0.70997528  0.99315625  1
  O  O28  1  0.50592093  0.30905999  0.21658812  1
  O  O29  1  0.49407907  0.69094001  0.21658812  1
  O  O30  1  0.49407907  0.30905999  0.78341188  1
  O  O31  1  0.50592093  0.69094001  0.78341188  1
  O  O32  1  0.20744969  0.50556351  0.30369436  1
  O  O33  1  0.20744969  0.49443649  0.69630564  1
  O  O34  1  0.79255031  0.49443649  0.30369436  1
  O  O35  1  0.79255031  0.50556351  0.69630564  1
  O  O36  1  0.31405166  0.20997528  0.50684375  1
  O  O37  1  0.68594834  0.20997528  0.49315625  1
  O  O38  1  0.31405166  0.79002472  0.49315625  1
  O  O39  1  0.68594834  0.79002472  0.50684375  1
