# generated using pymatgen
data_BaSrInBiO6
_symmetry_space_group_name_H-M   'P 1'
_cell_length_a   8.50364396
_cell_length_b   8.52975735
_cell_length_c   8.49486268
_cell_angle_alpha   90.00000000
_cell_angle_beta   90.00000000
_cell_angle_gamma   90.00000000
_symmetry_Int_Tables_number   1
_chemical_formula_structural   BaSrInBiO6
_chemical_formula_sum   'Ba4 Sr4 In4 Bi4 O24'
_cell_volume   616.16653587
_cell_formula_units_Z   4
loop_
 _symmetry_equiv_pos_site_id
 _symmetry_equiv_pos_as_xyz
  1  'x, y, z'
loop_
 _atom_site_type_symbol
 _atom_site_label
 _atom_site_symmetry_multiplicity
 _atom_site_fract_x
 _atom_site_fract_y
 _atom_site_fract_z
 _atom_site_occupancy
  Ba  Ba0  1  -0.00000000  0.00000000  -0.00000000  1
  Ba  Ba1  1  0.50000000  0.50000000  0.50000000  1
  Ba  Ba2  1  0.50000000  0.50000000  -0.00000000  1
  Ba  Ba3  1  -0.00000000  0.00000000  0.50000000  1
  Sr  Sr4  1  -0.00000000  0.50000000  0.50000000  1
  Sr  Sr5  1  0.50000000  0.00000000  0.50000000  1
  Sr  Sr6  1  0.50000000  -0.00000000  -0.00000000  1
  Sr  Sr7  1  -0.00000000  0.50000000  -0.00000000  1
  In  In8  1  0.25000000  0.25000000  0.25000000  1
  In  In9  1  0.75000000  0.75000000  0.25000000  1
  In  In10  1  0.75000000  0.25000000  0.75000000  1
  In  In11  1  0.25000000  0.75000000  0.75000000  1
  Bi  Bi12  1  0.75000000  0.75000000  0.75000000  1
  Bi  Bi13  1  0.25000000  0.25000000  0.75000000  1
  Bi  Bi14  1  0.25000000  0.75000000  0.25000000  1
  Bi  Bi15  1  0.75000000  0.25000000  0.25000000  1
  O  O16  1  0.99781253  0.22312599  0.27766334  1
  O  O17  1  0.00218747  0.77687401  0.27766334  1
  O  O18  1  0.00218747  0.22312599  0.72233666  1
  O  O19  1  0.99781253  0.77687401  0.72233666  1
  O  O20  1  0.28250861  0.99729211  0.21261660  1
  O  O21  1  0.28250861  0.00270789  0.78738340  1
  O  O22  1  0.71749139  0.00270789  0.21261660  1
  O  O23  1  0.71749139  0.99729211  0.78738340  1
  O  O24  1  0.21362958  0.28514862  0.99764781  1
  O  O25  1  0.78637042  0.28514862  0.00235219  1
  O  O26  1  0.21362958  0.71485138  0.00235219  1
  O  O27  1  0.78637042  0.71485138  0.99764781  1
  O  O28  1  0.50218747  0.27687401  0.22233666  1
  O  O29  1  0.49781253  0.72312599  0.22233666  1
  O  O30  1  0.49781253  0.27687401  0.77766334  1
  O  O31  1  0.50218747  0.72312599  0.77766334  1
  O  O32  1  0.21749139  0.50270789  0.28738340  1
  O  O33  1  0.21749139  0.49729211  0.71261660  1
  O  O34  1  0.78250861  0.49729211  0.28738340  1
  O  O35  1  0.78250861  0.50270789  0.71261660  1
  O  O36  1  0.28637042  0.21485138  0.50235219  1
  O  O37  1  0.71362958  0.21485138  0.49764781  1
  O  O38  1  0.28637042  0.78514862  0.49764781  1
  O  O39  1  0.71362958  0.78514862  0.50235219  1
