# generated using pymatgen
data_SrEuZr4O12
_symmetry_space_group_name_H-M   'P 1'
_cell_length_a   5.84257308
_cell_length_b   5.84257308
_cell_length_c   8.34962838
_cell_angle_alpha   90.00000000
_cell_angle_beta   90.00000000
_cell_angle_gamma   89.80353346
_symmetry_Int_Tables_number   1
_chemical_formula_structural   SrEuZr4O12
_chemical_formula_sum   'Sr1 Eu1 Zr4 O12'
_cell_volume   285.01840186
_cell_formula_units_Z   1
loop_
 _symmetry_equiv_pos_site_id
 _symmetry_equiv_pos_as_xyz
  1  'x, y, z'
loop_
 _atom_site_type_symbol
 _atom_site_label
 _atom_site_symmetry_multiplicity
 _atom_site_fract_x
 _atom_site_fract_y
 _atom_site_fract_z
 _atom_site_occupancy
  Sr  Sr0  1  0.01866993  0.98133007  0.50000000  1
  Eu  Eu1  1  0.49064614  0.50935386  0.00000000  1
  Zr  Zr2  1  0.50948151  0.01171754  0.25309426  1
  Zr  Zr3  1  0.50948151  0.01171754  0.74690574  1
  Zr  Zr4  1  -0.01171754  0.49051849  0.74690574  1
  Zr  Zr5  1  -0.01171754  0.49051849  0.25309426  1
  O  O6  1  0.29803597  0.30384863  0.22103662  1
  O  O7  1  0.69615137  0.70196403  0.22103662  1
  O  O8  1  0.69615137  0.70196403  0.77896338  1
  O  O9  1  0.29803597  0.30384863  0.77896338  1
  O  O10  1  0.23274700  0.76725300  0.21065658  1
  O  O11  1  0.79691221  0.20308779  0.29299845  1
  O  O12  1  0.79691221  0.20308779  0.70700155  1
  O  O13  1  0.23274700  0.76725300  0.78934342  1
  O  O14  1  0.53157625  0.05374718  0.00000000  1
  O  O15  1  0.44175545  0.97782163  0.50000000  1
  O  O16  1  0.94625282  0.46842375  0.00000000  1
  O  O17  1  0.02217837  0.55824455  0.50000000  1
