# generated using pymatgen
data_NdDy(CoO3)4
_symmetry_space_group_name_H-M   'P 1'
_cell_length_a   5.27076670
_cell_length_b   5.27076670
_cell_length_c   7.48319060
_cell_angle_alpha   90.00000000
_cell_angle_beta   90.00000000
_cell_angle_gamma   89.50877022
_symmetry_Int_Tables_number   1
_chemical_formula_structural   NdDy(CoO3)4
_chemical_formula_sum   'Nd1 Dy1 Co4 O12'
_cell_volume   207.88273973
_cell_formula_units_Z   1
loop_
 _symmetry_equiv_pos_site_id
 _symmetry_equiv_pos_as_xyz
  1  'x, y, z'
loop_
 _atom_site_type_symbol
 _atom_site_label
 _atom_site_symmetry_multiplicity
 _atom_site_fract_x
 _atom_site_fract_y
 _atom_site_fract_z
 _atom_site_occupancy
  Nd  Nd0  1  0.02532597  0.02532597  -0.00000000  1
  Dy  Dy1  1  0.47361037  0.47361037  0.50000000  1
  Co  Co2  1  0.50453557  0.99309991  0.74835015  1
  Co  Co3  1  0.50453557  0.99309991  0.25164985  1
  Co  Co4  1  0.99309991  0.50453557  0.25164985  1
  Co  Co5  1  0.99309991  0.50453557  0.74835015  1
  O  O6  1  0.77931090  0.22142979  0.74952081  1
  O  O7  1  0.22142979  0.77931090  0.74952081  1
  O  O8  1  0.22142979  0.77931090  0.25047919  1
  O  O9  1  0.77931090  0.22142979  0.25047919  1
  O  O10  1  0.70715631  0.70715631  0.70120669  1
  O  O11  1  0.27775115  0.27775115  0.78017508  1
  O  O12  1  0.27775115  0.27775115  0.21982492  1
  O  O13  1  0.70715631  0.70715631  0.29879331  1
  O  O14  1  0.55128771  0.96659902  -0.00000000  1
  O  O15  1  0.46988785  0.04862180  0.50000000  1
  O  O16  1  0.96659902  0.55128771  -0.00000000  1
  O  O17  1  0.04862180  0.46988785  0.50000000  1
