# generated using pymatgen
data_CaEuGdSbO6
_symmetry_space_group_name_H-M   'P 1'
_cell_length_a   5.98248229
_cell_length_b   6.24278851
_cell_length_c   8.67228370
_cell_angle_alpha   89.45076394
_cell_angle_beta   90.17268691
_cell_angle_gamma   89.59467348
_symmetry_Int_Tables_number   1
_chemical_formula_structural   CaEuGdSbO6
_chemical_formula_sum   'Ca2 Eu2 Gd2 Sb2 O12'
_cell_volume   323.86247960
_cell_formula_units_Z   2
loop_
 _symmetry_equiv_pos_site_id
 _symmetry_equiv_pos_as_xyz
  1  'x, y, z'
loop_
 _atom_site_type_symbol
 _atom_site_label
 _atom_site_symmetry_multiplicity
 _atom_site_fract_x
 _atom_site_fract_y
 _atom_site_fract_z
 _atom_site_occupancy
  Ca  Ca0  1  0.52148521  0.56749204  0.24783757  1
  Ca  Ca1  1  0.47851479  0.43250796  0.75216243  1
  Eu  Eu2  1  0.97732943  0.06827358  0.25188908  1
  Eu  Eu3  1  0.02267057  0.93172642  0.74811092  1
  Gd  Gd4  1  0.00000000  0.50000000  0.00000000  1
  Gd  Gd5  1  0.50000000  0.00000000  0.50000000  1
  Sb  Sb6  1  0.50000000  0.00000000  0.00000000  1
  Sb  Sb7  1  0.00000000  0.50000000  0.50000000  1
  O  O8  1  0.21519365  0.18369621  0.94481868  1
  O  O9  1  0.28394138  0.68269731  0.55653849  1
  O  O10  1  0.78480635  0.81630379  0.05518132  1
  O  O11  1  0.71605862  0.31730269  0.44346151  1
  O  O12  1  0.32189551  0.71581350  0.94445972  1
  O  O13  1  0.17755338  0.21556405  0.55489161  1
  O  O14  1  0.67810449  0.28418650  0.05554028  1
  O  O15  1  0.82244662  0.78443595  0.44510839  1
  O  O16  1  0.39318805  0.97591694  0.23154506  1
  O  O17  1  0.10866351  0.47703315  0.26691400  1
  O  O18  1  0.60681195  0.02408306  0.76845494  1
  O  O19  1  0.89133649  0.52296685  0.73308600  1
