# generated using pymatgen
data_NdEuMnCrO6
_symmetry_space_group_name_H-M   'P 1'
_cell_length_a   8.88394595
_cell_length_b   8.69237060
_cell_length_c   8.92320143
_cell_angle_alpha   90.00000000
_cell_angle_beta   90.00000000
_cell_angle_gamma   90.00000000
_symmetry_Int_Tables_number   1
_chemical_formula_structural   NdEuMnCrO6
_chemical_formula_sum   'Nd4 Eu4 Mn4 Cr4 O24'
_cell_volume   689.07237383
_cell_formula_units_Z   4
loop_
 _symmetry_equiv_pos_site_id
 _symmetry_equiv_pos_as_xyz
  1  'x, y, z'
loop_
 _atom_site_type_symbol
 _atom_site_label
 _atom_site_symmetry_multiplicity
 _atom_site_fract_x
 _atom_site_fract_y
 _atom_site_fract_z
 _atom_site_occupancy
  Nd  Nd0  1  0.00000000  0.50000000  0.50000000  1
  Nd  Nd1  1  0.50000000  0.00000000  0.00000000  1
  Nd  Nd2  1  0.00000000  0.50000000  0.00000000  1
  Nd  Nd3  1  0.00000000  0.00000000  0.50000000  1
  Eu  Eu4  1  0.50000000  0.00000000  0.50000000  1
  Eu  Eu5  1  0.50000000  0.50000000  0.00000000  1
  Eu  Eu6  1  0.00000000  0.00000000  0.00000000  1
  Eu  Eu7  1  0.50000000  0.50000000  0.50000000  1
  Mn  Mn8  1  0.25148561  0.25053604  0.25228291  1
  Mn  Mn9  1  0.74851439  0.74946396  0.25228291  1
  Mn  Mn10  1  0.74851439  0.25053604  0.74771709  1
  Mn  Mn11  1  0.25148561  0.74946396  0.74771709  1
  Cr  Cr12  1  0.74806085  0.74872896  0.74827600  1
  Cr  Cr13  1  0.25193915  0.25127104  0.74827600  1
  Cr  Cr14  1  0.25193915  0.74872896  0.25172400  1
  Cr  Cr15  1  0.74806085  0.25127104  0.25172400  1
  O  O16  1  0.01010006  0.22160724  0.27862899  1
  O  O17  1  0.98989994  0.77839276  0.27862899  1
  O  O18  1  0.98989994  0.22160724  0.72137101  1
  O  O19  1  0.01010006  0.77839276  0.72137101  1
  O  O20  1  0.27394481  0.01496461  0.21499250  1
  O  O21  1  0.27394481  0.98503539  0.78500750  1
  O  O22  1  0.72605519  0.98503539  0.21499250  1
  O  O23  1  0.72605519  0.01496461  0.78500750  1
  O  O24  1  0.21518644  0.27479355  0.01200097  1
  O  O25  1  0.78481356  0.27479355  0.98799903  1
  O  O26  1  0.21518644  0.72520645  0.98799903  1
  O  O27  1  0.78481356  0.72520645  0.01200097  1
  O  O28  1  0.48809817  0.27663535  0.21666597  1
  O  O29  1  0.51190183  0.72336465  0.21666597  1
  O  O30  1  0.51190183  0.27663535  0.78333403  1
  O  O31  1  0.48809817  0.72336465  0.78333403  1
  O  O32  1  0.21440729  0.48526953  0.27671678  1
  O  O33  1  0.21440729  0.51473047  0.72328322  1
  O  O34  1  0.78559271  0.51473047  0.27671678  1
  O  O35  1  0.78559271  0.48526953  0.72328322  1
  O  O36  1  0.27103656  0.22093835  0.48748190  1
  O  O37  1  0.72896344  0.22093835  0.51251810  1
  O  O38  1  0.27103656  0.77906165  0.51251810  1
  O  O39  1  0.72896344  0.77906165  0.48748190  1
