# generated using pymatgen
data_KZr4BiO12
_symmetry_space_group_name_H-M   'P 1'
_cell_length_a   5.73955933
_cell_length_b   5.73955933
_cell_length_c   8.42234811
_cell_angle_alpha   90.00000000
_cell_angle_beta   90.00000000
_cell_angle_gamma   89.25821372
_symmetry_Int_Tables_number   1
_chemical_formula_structural   KZr4BiO12
_chemical_formula_sum   'K1 Zr4 Bi1 O12'
_cell_volume   277.43029802
_cell_formula_units_Z   1
loop_
 _symmetry_equiv_pos_site_id
 _symmetry_equiv_pos_as_xyz
  1  'x, y, z'
loop_
 _atom_site_type_symbol
 _atom_site_label
 _atom_site_symmetry_multiplicity
 _atom_site_fract_x
 _atom_site_fract_y
 _atom_site_fract_z
 _atom_site_occupancy
  K  K0  1  0.02602167  0.97397833  0.50000000  1
  Zr  Zr1  1  0.50692436  0.01303814  0.25486770  1
  Zr  Zr2  1  0.50692436  0.01303814  0.74513230  1
  Zr  Zr3  1  0.98696186  0.49307564  0.74513230  1
  Zr  Zr4  1  0.98696186  0.49307564  0.25486770  1
  Bi  Bi5  1  0.44945419  0.55054581  -0.00000000  1
  O  O6  1  0.19465637  0.19504173  0.25712870  1
  O  O7  1  0.80495827  0.80534363  0.25712870  1
  O  O8  1  0.80495827  0.80534363  0.74287130  1
  O  O9  1  0.19465637  0.19504173  0.74287130  1
  O  O10  1  0.30761430  0.69238570  0.23557143  1
  O  O11  1  0.66652001  0.33347999  0.16926276  1
  O  O12  1  0.66652001  0.33347999  0.83073724  1
  O  O13  1  0.30761430  0.69238570  0.76442857  1
  O  O14  1  0.52218073  0.91278137  -0.00000000  1
  O  O15  1  0.52599816  0.03164373  0.50000000  1
  O  O16  1  0.08721863  0.47781927  -0.00000000  1
  O  O17  1  0.96835627  0.47400184  0.50000000  1
