# generated using pymatgen
data_BaSrInWO6
_symmetry_space_group_name_H-M   'P 1'
_cell_length_a   5.87254997
_cell_length_b   5.86818809
_cell_length_c   8.38155218
_cell_angle_alpha   89.87799527
_cell_angle_beta   89.98765875
_cell_angle_gamma   90.06483289
_symmetry_Int_Tables_number   1
_chemical_formula_structural   BaSrInWO6
_chemical_formula_sum   'Ba2 Sr2 In2 W2 O12'
_cell_volume   288.83773215
_cell_formula_units_Z   2
loop_
 _symmetry_equiv_pos_site_id
 _symmetry_equiv_pos_as_xyz
  1  'x, y, z'
loop_
 _atom_site_type_symbol
 _atom_site_label
 _atom_site_symmetry_multiplicity
 _atom_site_fract_x
 _atom_site_fract_y
 _atom_site_fract_z
 _atom_site_occupancy
  Ba  Ba0  1  0.50122505  0.50511034  0.24986495  1
  Ba  Ba1  1  0.49877495  0.49488966  0.75013505  1
  Sr  Sr2  1  0.00307927  0.00699711  0.25011188  1
  Sr  Sr3  1  0.99692073  0.99300289  0.74988812  1
  In  In4  1  0.00000000  0.50000000  -0.00000000  1
  In  In5  1  0.50000000  -0.00000000  0.50000000  1
  W  W6  1  0.50000000  -0.00000000  -0.00000000  1
  W  W7  1  0.00000000  0.50000000  0.50000000  1
  O  O8  1  0.24202475  0.21856199  0.98414249  1
  O  O9  1  0.24668583  0.73012302  0.51664300  1
  O  O10  1  0.75797525  0.78143801  0.01585751  1
  O  O11  1  0.75331417  0.26987698  0.48335700  1
  O  O12  1  0.26877986  0.75033756  0.98024003  1
  O  O13  1  0.22033443  0.23906780  0.51916569  1
  O  O14  1  0.73122014  0.24966244  0.01975997  1
  O  O15  1  0.77966557  0.76093220  0.48083431  1
  O  O16  1  0.45851187  0.00157631  0.24286141  1
  O  O17  1  0.02919018  0.49712271  0.25692509  1
  O  O18  1  0.54148813  0.99842369  0.75713859  1
  O  O19  1  0.97080982  0.50287729  0.74307491  1
