# generated using pymatgen
data_GeH4
_symmetry_space_group_name_H-M   'P 1'
_cell_length_a   5.00871181
_cell_length_b   5.00871181
_cell_length_c   4.73549389
_cell_angle_alpha   87.82795256
_cell_angle_beta   87.82795256
_cell_angle_gamma   98.77099497
_symmetry_Int_Tables_number   1
_chemical_formula_structural   GeH4
_chemical_formula_sum   'Ge2 H8'
_cell_volume   117.21180234
_cell_formula_units_Z   2
loop_
 _symmetry_equiv_pos_site_id
 _symmetry_equiv_pos_as_xyz
  1  'x, y, z'
loop_
 _atom_site_type_symbol
 _atom_site_label
 _atom_site_symmetry_multiplicity
 _atom_site_fract_x
 _atom_site_fract_y
 _atom_site_fract_z
 _atom_site_occupancy
  Ge  Ge0  1  0.38565100  0.61434900  0.25000000  1
  Ge  Ge1  1  0.61434900  0.38565100  0.75000000  1
  H  H2  1  0.05441800  0.86920300  0.69420700  1
  H  H3  1  0.13079700  0.94558200  0.80579300  1
  H  H4  1  0.94558200  0.13079700  0.30579300  1
  H  H5  1  0.86920300  0.05441800  0.19420700  1
  H  H6  1  0.59699100  0.68905700  0.59566900  1
  H  H7  1  0.31094300  0.40300900  0.90433100  1
  H  H8  1  0.40300900  0.31094300  0.40433100  1
  H  H9  1  0.68905700  0.59699100  0.09566900  1
