# generated using pymatgen
data_SrEuBiSbO6
_symmetry_space_group_name_H-M   'P 1'
_cell_length_a   5.92204332
_cell_length_b   6.11626807
_cell_length_c   8.49412596
_cell_angle_alpha   90.02462963
_cell_angle_beta   90.26284355
_cell_angle_gamma   90.08631279
_symmetry_Int_Tables_number   1
_chemical_formula_structural   SrEuBiSbO6
_chemical_formula_sum   'Sr2 Eu2 Bi2 Sb2 O12'
_cell_volume   307.66045956
_cell_formula_units_Z   2
loop_
 _symmetry_equiv_pos_site_id
 _symmetry_equiv_pos_as_xyz
  1  'x, y, z'
loop_
 _atom_site_type_symbol
 _atom_site_label
 _atom_site_symmetry_multiplicity
 _atom_site_fract_x
 _atom_site_fract_y
 _atom_site_fract_z
 _atom_site_occupancy
  Sr  Sr0  1  0.51381663  0.55330478  0.24912099  1
  Sr  Sr1  1  0.48618337  0.44669522  0.75087901  1
  Eu  Eu2  1  0.98342161  0.05483058  0.25111469  1
  Eu  Eu3  1  0.01657839  0.94516942  0.74888531  1
  Bi  Bi4  1  -0.00000000  0.50000000  0.00000000  1
  Bi  Bi5  1  0.50000000  -0.00000000  0.50000000  1
  Sb  Sb6  1  0.50000000  -0.00000000  0.00000000  1
  Sb  Sb7  1  -0.00000000  0.50000000  0.50000000  1
  O  O8  1  0.21879685  0.18339327  0.94398810  1
  O  O9  1  0.27908295  0.68509664  0.55182311  1
  O  O10  1  0.78120315  0.81660673  0.05601190  1
  O  O11  1  0.72091705  0.31490336  0.44817689  1
  O  O12  1  0.32256656  0.72191299  0.94299843  1
  O  O13  1  0.17476880  0.21728718  0.55752062  1
  O  O14  1  0.67743344  0.27808701  0.05700157  1
  O  O15  1  0.82523120  0.78271282  0.44247938  1
  O  O16  1  0.39050903  0.96639611  0.22932087  1
  O  O17  1  0.10079130  0.45934390  0.27040096  1
  O  O18  1  0.60949097  0.03360389  0.77067913  1
  O  O19  1  0.89920870  0.54065610  0.72959904  1
