# generated using pymatgen
data_KSrSmWO6
_symmetry_space_group_name_H-M   'P 1'
_cell_length_a   8.44244663
_cell_length_b   8.44240820
_cell_length_c   8.46230973
_cell_angle_alpha   90.00000000
_cell_angle_beta   90.00000000
_cell_angle_gamma   90.00000000
_symmetry_Int_Tables_number   1
_chemical_formula_structural   KSrSmWO6
_chemical_formula_sum   'K4 Sr4 Sm4 W4 O24'
_cell_volume   603.14757740
_cell_formula_units_Z   4
loop_
 _symmetry_equiv_pos_site_id
 _symmetry_equiv_pos_as_xyz
  1  'x, y, z'
loop_
 _atom_site_type_symbol
 _atom_site_label
 _atom_site_symmetry_multiplicity
 _atom_site_fract_x
 _atom_site_fract_y
 _atom_site_fract_z
 _atom_site_occupancy
  K  K0  1  0.00000000  0.50000000  0.50000000  1
  K  K1  1  0.50000000  0.50000000  0.00000000  1
  K  K2  1  0.50000000  0.00000000  0.00000000  1
  K  K3  1  0.00000000  0.00000000  0.50000000  1
  Sr  Sr4  1  0.50000000  -0.00000000  0.50000000  1
  Sr  Sr5  1  0.00000000  0.50000000  0.00000000  1
  Sr  Sr6  1  0.00000000  -0.00000000  0.00000000  1
  Sr  Sr7  1  0.50000000  0.50000000  0.50000000  1
  Sm  Sm8  1  0.75000000  0.75000000  0.75000000  1
  Sm  Sm9  1  0.25000000  0.25000000  0.75000000  1
  Sm  Sm10  1  0.25000000  0.75000000  0.25000000  1
  Sm  Sm11  1  0.75000000  0.25000000  0.25000000  1
  W  W12  1  0.25000000  0.25000000  0.25000000  1
  W  W13  1  0.75000000  0.75000000  0.25000000  1
  W  W14  1  0.75000000  0.25000000  0.75000000  1
  W  W15  1  0.25000000  0.75000000  0.75000000  1
  O  O16  1  0.02147066  0.22291119  0.26649985  1
  O  O17  1  0.97852934  0.77708881  0.26649985  1
  O  O18  1  0.97852934  0.22291119  0.73350015  1
  O  O19  1  0.02147066  0.77708881  0.73350015  1
  O  O20  1  0.27188052  0.02130359  0.22439745  1
  O  O21  1  0.27188052  0.97869641  0.77560255  1
  O  O22  1  0.72811948  0.97869641  0.22439745  1
  O  O23  1  0.72811948  0.02130359  0.77560255  1
  O  O24  1  0.21387165  0.27378656  0.02039734  1
  O  O25  1  0.78612835  0.27378656  0.97960266  1
  O  O26  1  0.21387165  0.72621344  0.97960266  1
  O  O27  1  0.78612835  0.72621344  0.02039734  1
  O  O28  1  0.47852934  0.27708881  0.23350015  1
  O  O29  1  0.52147066  0.72291119  0.23350015  1
  O  O30  1  0.52147066  0.27708881  0.76649985  1
  O  O31  1  0.47852934  0.72291119  0.76649985  1
  O  O32  1  0.22811948  0.47869641  0.27560255  1
  O  O33  1  0.22811948  0.52130359  0.72439745  1
  O  O34  1  0.77188052  0.52130359  0.27560255  1
  O  O35  1  0.77188052  0.47869641  0.72439745  1
  O  O36  1  0.28612835  0.22621344  0.47960266  1
  O  O37  1  0.71387165  0.22621344  0.52039734  1
  O  O38  1  0.28612835  0.77378656  0.52039734  1
  O  O39  1  0.71387165  0.77378656  0.47960266  1
