# generated using pymatgen
data_CaSm(FeO3)4
_symmetry_space_group_name_H-M   'P 1'
_cell_length_a   5.36689681
_cell_length_b   5.36689681
_cell_length_c   7.63686832
_cell_angle_alpha   90.00000000
_cell_angle_beta   90.00000000
_cell_angle_gamma   89.92391481
_symmetry_Int_Tables_number   1
_chemical_formula_structural   CaSm(FeO3)4
_chemical_formula_sum   'Ca1 Sm1 Fe4 O12'
_cell_volume   219.96896391
_cell_formula_units_Z   1
loop_
 _symmetry_equiv_pos_site_id
 _symmetry_equiv_pos_as_xyz
  1  'x, y, z'
loop_
 _atom_site_type_symbol
 _atom_site_label
 _atom_site_symmetry_multiplicity
 _atom_site_fract_x
 _atom_site_fract_y
 _atom_site_fract_z
 _atom_site_occupancy
  Ca  Ca0  1  0.50000000  0.50000000  0.00000000  1
  Sm  Sm1  1  0.00000000  -0.00000000  0.50000000  1
  Fe  Fe2  1  0.00000000  0.50000000  0.24762800  1
  Fe  Fe3  1  0.00000000  0.50000000  0.75237200  1
  Fe  Fe4  1  0.50000000  -0.00000000  0.24762800  1
  Fe  Fe5  1  0.50000000  -0.00000000  0.75237200  1
  O  O6  1  0.24053647  0.24053647  0.25751653  1
  O  O7  1  0.24053647  0.24053647  0.74248347  1
  O  O8  1  0.75946353  0.75946353  0.74248347  1
  O  O9  1  0.75946353  0.75946353  0.25751653  1
  O  O10  1  0.75153267  0.24846733  0.25602911  1
  O  O11  1  0.75153267  0.24846733  0.74397089  1
  O  O12  1  0.24846733  0.75153267  0.74397089  1
  O  O13  1  0.24846733  0.75153267  0.25602911  1
  O  O14  1  0.00000000  0.50000000  0.00000000  1
  O  O15  1  0.00000000  0.50000000  0.50000000  1
  O  O16  1  0.50000000  -0.00000000  0.00000000  1
  O  O17  1  0.50000000  -0.00000000  0.50000000  1
