# generated using pymatgen
data_BaCaPrSbO6
_symmetry_space_group_name_H-M   'P 1'
_cell_length_a   8.53251535
_cell_length_b   8.52225214
_cell_length_c   8.55403518
_cell_angle_alpha   90.00000000
_cell_angle_beta   90.00000000
_cell_angle_gamma   90.00000000
_symmetry_Int_Tables_number   1
_chemical_formula_structural   BaCaPrSbO6
_chemical_formula_sum   'Ba4 Ca4 Pr4 Sb4 O24'
_cell_volume   622.01733672
_cell_formula_units_Z   4
loop_
 _symmetry_equiv_pos_site_id
 _symmetry_equiv_pos_as_xyz
  1  'x, y, z'
loop_
 _atom_site_type_symbol
 _atom_site_label
 _atom_site_symmetry_multiplicity
 _atom_site_fract_x
 _atom_site_fract_y
 _atom_site_fract_z
 _atom_site_occupancy
  Ba  Ba0  1  0.00000000  0.00000000  0.00000000  1
  Ba  Ba1  1  0.50000000  0.50000000  0.50000000  1
  Ba  Ba2  1  0.50000000  0.00000000  0.00000000  1
  Ba  Ba3  1  0.00000000  0.00000000  0.50000000  1
  Ca  Ca4  1  0.00000000  0.50000000  0.50000000  1
  Ca  Ca5  1  0.50000000  -0.00000000  0.50000000  1
  Ca  Ca6  1  0.50000000  0.50000000  0.00000000  1
  Ca  Ca7  1  0.00000000  0.50000000  0.00000000  1
  Pr  Pr8  1  0.74777797  0.74498834  0.74918047  1
  Pr  Pr9  1  0.25222203  0.25501166  0.74918047  1
  Pr  Pr10  1  0.25222203  0.74498834  0.25081953  1
  Pr  Pr11  1  0.74777797  0.25501166  0.25081953  1
  Sb  Sb12  1  0.24863290  0.25677078  0.25151928  1
  Sb  Sb13  1  0.75136710  0.74322922  0.25151928  1
  Sb  Sb14  1  0.75136710  0.25677078  0.74848072  1
  Sb  Sb15  1  0.24863290  0.74322922  0.74848072  1
  O  O16  1  0.01727838  0.22350947  0.28320064  1
  O  O17  1  0.98272162  0.77649053  0.28320064  1
  O  O18  1  0.98272162  0.22350947  0.71679936  1
  O  O19  1  0.01727838  0.77649053  0.71679936  1
  O  O20  1  0.27419557  0.02236838  0.21451750  1
  O  O21  1  0.27419557  0.97763162  0.78548250  1
  O  O22  1  0.72580443  0.97763162  0.21451750  1
  O  O23  1  0.72580443  0.02236838  0.78548250  1
  O  O24  1  0.20490868  0.30015148  0.02058208  1
  O  O25  1  0.79509132  0.30015148  0.97941792  1
  O  O26  1  0.20490868  0.69984852  0.97941792  1
  O  O27  1  0.79509132  0.69984852  0.02058208  1
  O  O28  1  0.47717582  0.30270828  0.20230466  1
  O  O29  1  0.52282418  0.69729172  0.20230466  1
  O  O30  1  0.52282418  0.30270828  0.79769534  1
  O  O31  1  0.47717582  0.69729172  0.79769534  1
  O  O32  1  0.20937368  0.48182355  0.31044331  1
  O  O33  1  0.20937368  0.51817645  0.68955669  1
  O  O34  1  0.79062632  0.51817645  0.31044331  1
  O  O35  1  0.79062632  0.48182355  0.68955669  1
  O  O36  1  0.30545810  0.20919971  0.47880332  1
  O  O37  1  0.69454190  0.20919971  0.52119668  1
  O  O38  1  0.30545810  0.79080029  0.52119668  1
  O  O39  1  0.69454190  0.79080029  0.47880332  1
