# generated using pymatgen
data_SrCaPrSbO6
_symmetry_space_group_name_H-M   'P 1'
_cell_length_a   5.92354355
_cell_length_b   5.92354355
_cell_length_c   8.60661742
_cell_angle_alpha   90.00000000
_cell_angle_beta   90.00000000
_cell_angle_gamma   90.00000000
_symmetry_Int_Tables_number   1
_chemical_formula_structural   SrCaPrSbO6
_chemical_formula_sum   'Sr2 Ca2 Pr2 Sb2 O12'
_cell_volume   301.99216089
_cell_formula_units_Z   2
loop_
 _symmetry_equiv_pos_site_id
 _symmetry_equiv_pos_as_xyz
  1  'x, y, z'
loop_
 _atom_site_type_symbol
 _atom_site_label
 _atom_site_symmetry_multiplicity
 _atom_site_fract_x
 _atom_site_fract_y
 _atom_site_fract_z
 _atom_site_occupancy
  Sr  Sr0  1  0.50000000  0.50000000  0.50000000  1
  Sr  Sr1  1  0.00000000  -0.00000000  0.50000000  1
  Ca  Ca2  1  0.50000000  0.50000000  0.00000000  1
  Ca  Ca3  1  -0.00000000  0.00000000  0.00000000  1
  Pr  Pr4  1  0.50000000  0.00000000  0.75240174  1
  Pr  Pr5  1  0.00000000  0.50000000  0.24759826  1
  Sb  Sb6  1  0.50000000  -0.00000000  0.24524310  1
  Sb  Sb7  1  0.00000000  0.50000000  0.75475690  1
  O  O8  1  0.50000000  0.00000000  0.01480634  1
  O  O9  1  -0.00000000  0.50000000  0.98519366  1
  O  O10  1  0.50000000  -0.00000000  0.48036934  1
  O  O11  1  -0.00000000  0.50000000  0.51963066  1
  O  O12  1  0.69520964  0.65160776  0.75728558  1
  O  O13  1  0.30479036  0.34839224  0.75728558  1
  O  O14  1  0.84839224  0.19520964  0.75728558  1
  O  O15  1  0.15160776  0.80479036  0.75728558  1
  O  O16  1  0.80479036  0.15160776  0.24271442  1
  O  O17  1  0.19520964  0.84839224  0.24271442  1
  O  O18  1  0.65160776  0.69520964  0.24271442  1
  O  O19  1  0.34839224  0.30479036  0.24271442  1
