# generated using pymatgen
data_BaSrPrTiO6
_symmetry_space_group_name_H-M   'P 1'
_cell_length_a   8.53363844
_cell_length_b   8.53835541
_cell_length_c   8.56143470
_cell_angle_alpha   90.00000000
_cell_angle_beta   90.00000000
_cell_angle_gamma   90.00000000
_symmetry_Int_Tables_number   1
_chemical_formula_structural   BaSrPrTiO6
_chemical_formula_sum   'Ba4 Sr4 Pr4 Ti4 O24'
_cell_volume   623.81385366
_cell_formula_units_Z   4
loop_
 _symmetry_equiv_pos_site_id
 _symmetry_equiv_pos_as_xyz
  1  'x, y, z'
loop_
 _atom_site_type_symbol
 _atom_site_label
 _atom_site_symmetry_multiplicity
 _atom_site_fract_x
 _atom_site_fract_y
 _atom_site_fract_z
 _atom_site_occupancy
  Ba  Ba0  1  0.00000000  -0.00000000  -0.00000000  1
  Ba  Ba1  1  0.50000000  0.50000000  0.50000000  1
  Ba  Ba2  1  -0.00000000  0.50000000  -0.00000000  1
  Ba  Ba3  1  -0.00000000  -0.00000000  0.50000000  1
  Sr  Sr4  1  0.00000000  0.50000000  0.50000000  1
  Sr  Sr5  1  0.50000000  -0.00000000  0.50000000  1
  Sr  Sr6  1  0.50000000  0.50000000  0.00000000  1
  Sr  Sr7  1  0.50000000  -0.00000000  0.00000000  1
  Pr  Pr8  1  0.74687188  0.74948808  0.74794978  1
  Pr  Pr9  1  0.25312812  0.25051192  0.74794978  1
  Pr  Pr10  1  0.25312812  0.74948808  0.25205022  1
  Pr  Pr11  1  0.74687188  0.25051192  0.25205022  1
  Ti  Ti12  1  0.25629911  0.24904715  0.25401821  1
  Ti  Ti13  1  0.74370089  0.75095285  0.25401821  1
  Ti  Ti14  1  0.74370089  0.24904715  0.74598179  1
  Ti  Ti15  1  0.25629911  0.75095285  0.74598179  1
  O  O16  1  0.02221019  0.22658464  0.27443116  1
  O  O17  1  0.97778981  0.77341536  0.27443116  1
  O  O18  1  0.97778981  0.22658464  0.72556884  1
  O  O19  1  0.02221019  0.77341536  0.72556884  1
  O  O20  1  0.28381014  0.02176870  0.21423526  1
  O  O21  1  0.28381014  0.97823130  0.78576474  1
  O  O22  1  0.71618986  0.97823130  0.21423526  1
  O  O23  1  0.71618986  0.02176870  0.78576474  1
  O  O24  1  0.22601079  0.27665891  0.02168203  1
  O  O25  1  0.77398921  0.27665891  0.97831797  1
  O  O26  1  0.22601079  0.72334109  0.97831797  1
  O  O27  1  0.77398921  0.72334109  0.02168203  1
  O  O28  1  0.47793942  0.29455959  0.21418615  1
  O  O29  1  0.52206058  0.70544041  0.21418615  1
  O  O30  1  0.52206058  0.29455959  0.78581385  1
  O  O31  1  0.47793942  0.70544041  0.78581385  1
  O  O32  1  0.21810529  0.47743157  0.29117419  1
  O  O33  1  0.21810529  0.52256843  0.70882581  1
  O  O34  1  0.78189471  0.52256843  0.29117419  1
  O  O35  1  0.78189471  0.47743157  0.70882581  1
  O  O36  1  0.29251165  0.21266553  0.47666706  1
  O  O37  1  0.70748835  0.21266553  0.52333294  1
  O  O38  1  0.29251165  0.78733447  0.52333294  1
  O  O39  1  0.70748835  0.78733447  0.47666706  1
