# generated using pymatgen
data_NaSrTbBiO6
_symmetry_space_group_name_H-M   'P 1'
_cell_length_a   8.53032239
_cell_length_b   8.47908728
_cell_length_c   8.50103111
_cell_angle_alpha   90.00000000
_cell_angle_beta   90.00000000
_cell_angle_gamma   90.00000000
_symmetry_Int_Tables_number   1
_chemical_formula_structural   NaSrTbBiO6
_chemical_formula_sum   'Na4 Sr4 Tb4 Bi4 O24'
_cell_volume   614.87403812
_cell_formula_units_Z   4
loop_
 _symmetry_equiv_pos_site_id
 _symmetry_equiv_pos_as_xyz
  1  'x, y, z'
loop_
 _atom_site_type_symbol
 _atom_site_label
 _atom_site_symmetry_multiplicity
 _atom_site_fract_x
 _atom_site_fract_y
 _atom_site_fract_z
 _atom_site_occupancy
  Na  Na0  1  -0.00000000  -0.00000000  0.00000000  1
  Na  Na1  1  0.50000000  0.50000000  0.50000000  1
  Na  Na2  1  0.50000000  -0.00000000  0.50000000  1
  Na  Na3  1  -0.00000000  0.50000000  0.00000000  1
  Sr  Sr4  1  -0.00000000  0.50000000  0.50000000  1
  Sr  Sr5  1  0.50000000  0.50000000  -0.00000000  1
  Sr  Sr6  1  0.50000000  -0.00000000  -0.00000000  1
  Sr  Sr7  1  -0.00000000  -0.00000000  0.50000000  1
  Tb  Tb8  1  0.25000000  0.25000000  0.25000000  1
  Tb  Tb9  1  0.75000000  0.75000000  0.25000000  1
  Tb  Tb10  1  0.75000000  0.25000000  0.75000000  1
  Tb  Tb11  1  0.25000000  0.75000000  0.75000000  1
  Bi  Bi12  1  0.75000000  0.75000000  0.75000000  1
  Bi  Bi13  1  0.25000000  0.25000000  0.75000000  1
  Bi  Bi14  1  0.25000000  0.75000000  0.25000000  1
  Bi  Bi15  1  0.75000000  0.25000000  0.25000000  1
  O  O16  1  0.99325053  0.23812781  0.30378956  1
  O  O17  1  0.00674947  0.76187219  0.30378956  1
  O  O18  1  0.00674947  0.23812781  0.69621044  1
  O  O19  1  0.99325053  0.76187219  0.69621044  1
  O  O20  1  0.25346971  0.99238106  0.18689690  1
  O  O21  1  0.25346971  0.00761894  0.81310310  1
  O  O22  1  0.74653029  0.00761894  0.18689690  1
  O  O23  1  0.74653029  0.99238106  0.81310310  1
  O  O24  1  0.21679747  0.31207776  0.99089154  1
  O  O25  1  0.78320253  0.31207776  0.00910846  1
  O  O26  1  0.21679747  0.68792224  0.00910846  1
  O  O27  1  0.78320253  0.68792224  0.99089154  1
  O  O28  1  0.50674947  0.26187219  0.19621044  1
  O  O29  1  0.49325053  0.73812781  0.19621044  1
  O  O30  1  0.49325053  0.26187219  0.80378956  1
  O  O31  1  0.50674947  0.73812781  0.80378956  1
  O  O32  1  0.24653029  0.50761894  0.31310310  1
  O  O33  1  0.24653029  0.49238106  0.68689690  1
  O  O34  1  0.75346971  0.49238106  0.31310310  1
  O  O35  1  0.75346971  0.50761894  0.68689690  1
  O  O36  1  0.28320253  0.18792224  0.50910846  1
  O  O37  1  0.71679747  0.18792224  0.49089154  1
  O  O38  1  0.28320253  0.81207776  0.49089154  1
  O  O39  1  0.71679747  0.81207776  0.50910846  1
