# generated using pymatgen
data_SrCaPrSbO6
_symmetry_space_group_name_H-M   'P 1'
_cell_length_a   5.86512391
_cell_length_b   6.01672046
_cell_length_c   8.41530104
_cell_angle_alpha   90.20186312
_cell_angle_beta   90.56058329
_cell_angle_gamma   90.02361684
_symmetry_Int_Tables_number   1
_chemical_formula_structural   SrCaPrSbO6
_chemical_formula_sum   'Sr2 Ca2 Pr2 Sb2 O12'
_cell_volume   296.94988197
_cell_formula_units_Z   2
loop_
 _symmetry_equiv_pos_site_id
 _symmetry_equiv_pos_as_xyz
  1  'x, y, z'
loop_
 _atom_site_type_symbol
 _atom_site_label
 _atom_site_symmetry_multiplicity
 _atom_site_fract_x
 _atom_site_fract_y
 _atom_site_fract_z
 _atom_site_occupancy
  Sr  Sr0  1  0.51104486  0.54737236  0.24963627  1
  Sr  Sr1  1  0.48895514  0.45262764  0.75036373  1
  Ca  Ca2  1  0.98612075  0.04682854  0.25358539  1
  Ca  Ca3  1  0.01387925  0.95317146  0.74641461  1
  Pr  Pr4  1  0.00000000  0.50000000  0.00000000  1
  Pr  Pr5  1  0.50000000  0.00000000  0.50000000  1
  Sb  Sb6  1  0.50000000  0.00000000  0.00000000  1
  Sb  Sb7  1  0.00000000  0.50000000  0.50000000  1
  O  O8  1  0.22175238  0.18043694  0.93688286  1
  O  O9  1  0.27932093  0.68369636  0.54698961  1
  O  O10  1  0.77824762  0.81956306  0.06311714  1
  O  O11  1  0.72067907  0.31630364  0.45301039  1
  O  O12  1  0.32465737  0.72070608  0.94428228  1
  O  O13  1  0.17182235  0.21778087  0.56235959  1
  O  O14  1  0.67534263  0.27929392  0.05571772  1
  O  O15  1  0.82817765  0.78221913  0.43764041  1
  O  O16  1  0.38211377  0.96858345  0.22685653  1
  O  O17  1  0.09572473  0.44402731  0.27212207  1
  O  O18  1  0.61788623  0.03141655  0.77314347  1
  O  O19  1  0.90427527  0.55597269  0.72787793  1
