# generated using pymatgen
data_BaCaCeZrO6
_symmetry_space_group_name_H-M   'P 1'
_cell_length_a   5.97360279
_cell_length_b   6.04685982
_cell_length_c   8.54402929
_cell_angle_alpha   90.27072354
_cell_angle_beta   90.24683875
_cell_angle_gamma   89.99958210
_symmetry_Int_Tables_number   1
_chemical_formula_structural   BaCaCeZrO6
_chemical_formula_sum   'Ba2 Ca2 Ce2 Zr2 O12'
_cell_volume   308.61717523
_cell_formula_units_Z   2
loop_
 _symmetry_equiv_pos_site_id
 _symmetry_equiv_pos_as_xyz
  1  'x, y, z'
loop_
 _atom_site_type_symbol
 _atom_site_label
 _atom_site_symmetry_multiplicity
 _atom_site_fract_x
 _atom_site_fract_y
 _atom_site_fract_z
 _atom_site_occupancy
  Ba  Ba0  1  0.50652728  0.53185457  0.25019269  1
  Ba  Ba1  1  0.49347272  0.46814543  0.74980731  1
  Ca  Ca2  1  0.99275864  0.03689098  0.25220993  1
  Ca  Ca3  1  0.00724136  0.96310902  0.74779007  1
  Ce  Ce4  1  0.00000000  0.50000000  0.00000000  1
  Ce  Ce5  1  0.50000000  -0.00000000  0.50000000  1
  Zr  Zr6  1  0.50000000  -0.00000000  0.00000000  1
  Zr  Zr7  1  0.00000000  0.50000000  0.50000000  1
  O  O8  1  0.21170584  0.19464193  0.93788322  1
  O  O9  1  0.28499800  0.70279371  0.52917065  1
  O  O10  1  0.78829416  0.80535807  0.06211678  1
  O  O11  1  0.71500200  0.29720629  0.47082935  1
  O  O12  1  0.29775102  0.71683294  0.96642114  1
  O  O13  1  0.19111162  0.20764297  0.55948922  1
  O  O14  1  0.70224898  0.28316706  0.03357886  1
  O  O15  1  0.80888838  0.79235703  0.44051078  1
  O  O16  1  0.39305806  0.00047928  0.24156476  1
  O  O17  1  0.06474159  0.43513653  0.25851571  1
  O  O18  1  0.60694194  -0.00047928  0.75843524  1
  O  O19  1  0.93525841  0.56486347  0.74148429  1
