# generated using pymatgen
data_NaZn4As3
_symmetry_space_group_name_H-M   'P 1'
_cell_length_a   11.22703854
_cell_length_b   11.22703854
_cell_length_c   11.22703913
_cell_angle_alpha   21.55675764
_cell_angle_beta   21.55675764
_cell_angle_gamma   21.55675255
_symmetry_Int_Tables_number   1
_chemical_formula_structural   NaZn4As3
_chemical_formula_sum   'Na1 Zn4 As3'
_cell_volume   167.39765858
_cell_formula_units_Z   1
loop_
 _symmetry_equiv_pos_site_id
 _symmetry_equiv_pos_as_xyz
  1  'x, y, z'
loop_
 _atom_site_type_symbol
 _atom_site_label
 _atom_site_symmetry_multiplicity
 _atom_site_fract_x
 _atom_site_fract_y
 _atom_site_fract_z
 _atom_site_occupancy
  Na  Na0  1  0.50000000  0.50000000  0.50000000  1
  Zn  Zn1  1  0.90820300  0.90820300  0.90820300  1
  Zn  Zn2  1  0.09179700  0.09179700  0.09179700  1
  Zn  Zn3  1  0.69929000  0.69929000  0.69929000  1
  Zn  Zn4  1  0.30071000  0.30071000  0.30071000  1
  As  As5  1  0.77465800  0.77465800  0.77465800  1
  As  As6  1  0.22534200  0.22534200  0.22534200  1
  As  As7  1  0.00000000  0.00000000  0.00000000  1
