# generated using pymatgen
data_BaNaNdMnO6
_symmetry_space_group_name_H-M   'P 1'
_cell_length_a   8.46160165
_cell_length_b   8.48256523
_cell_length_c   8.44060861
_cell_angle_alpha   90.00000000
_cell_angle_beta   90.00000000
_cell_angle_gamma   90.00000000
_symmetry_Int_Tables_number   1
_chemical_formula_structural   BaNaNdMnO6
_chemical_formula_sum   'Ba4 Na4 Nd4 Mn4 O24'
_cell_volume   605.83386591
_cell_formula_units_Z   4
loop_
 _symmetry_equiv_pos_site_id
 _symmetry_equiv_pos_as_xyz
  1  'x, y, z'
loop_
 _atom_site_type_symbol
 _atom_site_label
 _atom_site_symmetry_multiplicity
 _atom_site_fract_x
 _atom_site_fract_y
 _atom_site_fract_z
 _atom_site_occupancy
  Ba  Ba0  1  0.00000000  0.00000000  -0.00000000  1
  Ba  Ba1  1  0.50000000  0.50000000  0.50000000  1
  Ba  Ba2  1  0.50000000  0.00000000  0.50000000  1
  Ba  Ba3  1  0.00000000  0.50000000  0.00000000  1
  Na  Na4  1  0.00000000  0.50000000  0.50000000  1
  Na  Na5  1  0.50000000  0.50000000  0.00000000  1
  Na  Na6  1  0.50000000  0.00000000  0.00000000  1
  Na  Na7  1  0.00000000  0.00000000  0.50000000  1
  Nd  Nd8  1  0.25000000  0.25000000  0.25000000  1
  Nd  Nd9  1  0.75000000  0.75000000  0.25000000  1
  Nd  Nd10  1  0.75000000  0.25000000  0.75000000  1
  Nd  Nd11  1  0.25000000  0.75000000  0.75000000  1
  Mn  Mn12  1  0.75000000  0.75000000  0.75000000  1
  Mn  Mn13  1  0.25000000  0.25000000  0.75000000  1
  Mn  Mn14  1  0.25000000  0.75000000  0.25000000  1
  Mn  Mn15  1  0.75000000  0.25000000  0.25000000  1
  O  O16  1  0.97591854  0.23497172  0.25845286  1
  O  O17  1  0.02408146  0.76502828  0.25845286  1
  O  O18  1  0.02408146  0.23497172  0.74154714  1
  O  O19  1  0.97591854  0.76502828  0.74154714  1
  O  O20  1  0.26458668  0.97565856  0.23518977  1
  O  O21  1  0.26458668  0.02434144  0.76481023  1
  O  O22  1  0.73541332  0.02434144  0.23518977  1
  O  O23  1  0.73541332  0.97565856  0.76481023  1
  O  O24  1  0.23005779  0.26232813  0.97590487  1
  O  O25  1  0.76994221  0.26232813  0.02409513  1
  O  O26  1  0.23005779  0.73767187  0.02409513  1
  O  O27  1  0.76994221  0.73767187  0.97590487  1
  O  O28  1  0.52408146  0.26502828  0.24154714  1
  O  O29  1  0.47591854  0.73497172  0.24154714  1
  O  O30  1  0.47591854  0.26502828  0.75845286  1
  O  O31  1  0.52408146  0.73497172  0.75845286  1
  O  O32  1  0.23541332  0.52434144  0.26481023  1
  O  O33  1  0.23541332  0.47565856  0.73518977  1
  O  O34  1  0.76458668  0.47565856  0.26481023  1
  O  O35  1  0.76458668  0.52434144  0.73518977  1
  O  O36  1  0.26994221  0.23767187  0.52409513  1
  O  O37  1  0.73005779  0.23767187  0.47590487  1
  O  O38  1  0.26994221  0.76232813  0.47590487  1
  O  O39  1  0.73005779  0.76232813  0.52409513  1
