# generated using pymatgen
data_KEuMn4O12
_symmetry_space_group_name_H-M   'P 1'
_cell_length_a   5.22360787
_cell_length_b   5.22360787
_cell_length_c   7.35465398
_cell_angle_alpha   90.00000000
_cell_angle_beta   90.00000000
_cell_angle_gamma   89.99817579
_symmetry_Int_Tables_number   1
_chemical_formula_structural   KEuMn4O12
_chemical_formula_sum   'K1 Eu1 Mn4 O12'
_cell_volume   200.67967110
_cell_formula_units_Z   1
loop_
 _symmetry_equiv_pos_site_id
 _symmetry_equiv_pos_as_xyz
  1  'x, y, z'
loop_
 _atom_site_type_symbol
 _atom_site_label
 _atom_site_symmetry_multiplicity
 _atom_site_fract_x
 _atom_site_fract_y
 _atom_site_fract_z
 _atom_site_occupancy
  K  K0  1  0.00631270  0.00631270  0.00000000  1
  Eu  Eu1  1  0.49522167  0.49522167  0.50000000  1
  Mn  Mn2  1  0.49974802  -0.00084018  0.75460552  1
  Mn  Mn3  1  0.49974802  -0.00084018  0.24539448  1
  Mn  Mn4  1  -0.00084018  0.49974802  0.24539448  1
  Mn  Mn5  1  -0.00084018  0.49974802  0.75460552  1
  O  O6  1  0.77179242  0.22793671  0.74582280  1
  O  O7  1  0.22793671  0.77179242  0.74582280  1
  O  O8  1  0.22793671  0.77179242  0.25417720  1
  O  O9  1  0.77179242  0.22793671  0.25417720  1
  O  O10  1  0.72224964  0.72224964  0.72238342  1
  O  O11  1  0.28076377  0.28076377  0.77299164  1
  O  O12  1  0.28076377  0.28076377  0.22700836  1
  O  O13  1  0.72224964  0.72224964  0.27761658  1
  O  O14  1  0.52365937  0.97189670  0.00000000  1
  O  O15  1  0.47351755  0.02729127  0.50000000  1
  O  O16  1  0.97189670  0.52365937  0.00000000  1
  O  O17  1  0.02729127  0.47351755  0.50000000  1
