# generated using pymatgen
data_KSrSbWO6
_symmetry_space_group_name_H-M   'P 1'
_cell_length_a   8.40596290
_cell_length_b   8.43193057
_cell_length_c   8.41048163
_cell_angle_alpha   90.00000000
_cell_angle_beta   90.00000000
_cell_angle_gamma   90.00000000
_symmetry_Int_Tables_number   1
_chemical_formula_structural   KSrSbWO6
_chemical_formula_sum   'K4 Sr4 Sb4 W4 O24'
_cell_volume   596.12228476
_cell_formula_units_Z   4
loop_
 _symmetry_equiv_pos_site_id
 _symmetry_equiv_pos_as_xyz
  1  'x, y, z'
loop_
 _atom_site_type_symbol
 _atom_site_label
 _atom_site_symmetry_multiplicity
 _atom_site_fract_x
 _atom_site_fract_y
 _atom_site_fract_z
 _atom_site_occupancy
  K  K0  1  0.50000000  0.00000000  0.50000000  1
  K  K1  1  0.50000000  0.50000000  -0.00000000  1
  K  K2  1  -0.00000000  0.50000000  0.00000000  1
  K  K3  1  -0.00000000  0.00000000  0.50000000  1
  Sr  Sr4  1  0.00000000  0.50000000  0.50000000  1
  Sr  Sr5  1  0.50000000  0.00000000  0.00000000  1
  Sr  Sr6  1  0.00000000  0.00000000  -0.00000000  1
  Sr  Sr7  1  0.50000000  0.50000000  0.50000000  1
  Sb  Sb8  1  0.75000000  0.75000000  0.75000000  1
  Sb  Sb9  1  0.25000000  0.25000000  0.75000000  1
  Sb  Sb10  1  0.25000000  0.75000000  0.25000000  1
  Sb  Sb11  1  0.75000000  0.25000000  0.25000000  1
  W  W12  1  0.25000000  0.25000000  0.25000000  1
  W  W13  1  0.75000000  0.75000000  0.25000000  1
  W  W14  1  0.75000000  0.25000000  0.75000000  1
  W  W15  1  0.25000000  0.75000000  0.75000000  1
  O  O16  1  0.01908252  0.23508876  0.26368208  1
  O  O17  1  0.98091748  0.76491124  0.26368208  1
  O  O18  1  0.98091748  0.23508876  0.73631792  1
  O  O19  1  0.01908252  0.76491124  0.73631792  1
  O  O20  1  0.26487990  0.01842629  0.22394702  1
  O  O21  1  0.26487990  0.98157371  0.77605298  1
  O  O22  1  0.73512010  0.98157371  0.22394702  1
  O  O23  1  0.73512010  0.01842629  0.77605298  1
  O  O24  1  0.23388935  0.25640054  0.01877956  1
  O  O25  1  0.76611065  0.25640054  0.98122044  1
  O  O26  1  0.23388935  0.74359946  0.98122044  1
  O  O27  1  0.76611065  0.74359946  0.01877956  1
  O  O28  1  0.48091748  0.26491124  0.23631792  1
  O  O29  1  0.51908252  0.73508876  0.23631792  1
  O  O30  1  0.51908252  0.26491124  0.76368208  1
  O  O31  1  0.48091748  0.73508876  0.76368208  1
  O  O32  1  0.23512010  0.48157371  0.27605298  1
  O  O33  1  0.23512010  0.51842629  0.72394702  1
  O  O34  1  0.76487990  0.51842629  0.27605298  1
  O  O35  1  0.76487990  0.48157371  0.72394702  1
  O  O36  1  0.26611065  0.24359946  0.48122044  1
  O  O37  1  0.73388935  0.24359946  0.51877956  1
  O  O38  1  0.26611065  0.75640054  0.51877956  1
  O  O39  1  0.73388935  0.75640054  0.48122044  1
