# generated using pymatgen
data_Ba2CoCu2(SO)2
_symmetry_space_group_name_H-M   'P 1'
_cell_length_a   10.28101209
_cell_length_b   10.28101209
_cell_length_c   10.28101209
_cell_angle_alpha   157.52839823
_cell_angle_beta   157.52839823
_cell_angle_gamma   31.99025796
_symmetry_Int_Tables_number   1
_chemical_formula_structural   Ba2CoCu2(SO)2
_chemical_formula_sum   'Ba2 Co1 Cu2 S2 O2'
_cell_volume   158.63843390
_cell_formula_units_Z   1
loop_
 _symmetry_equiv_pos_site_id
 _symmetry_equiv_pos_as_xyz
  1  'x, y, z'
loop_
 _atom_site_type_symbol
 _atom_site_label
 _atom_site_symmetry_multiplicity
 _atom_site_fract_x
 _atom_site_fract_y
 _atom_site_fract_z
 _atom_site_occupancy
  Ba  Ba0  1  0.59714200  0.59714200  0.00000000  1
  Ba  Ba1  1  0.40285800  0.40285800  0.00000000  1
  Co  Co2  1  0.00000000  0.00000000  0.00000000  1
  Cu  Cu3  1  0.25000000  0.75000000  0.50000000  1
  Cu  Cu4  1  0.75000000  0.25000000  0.50000000  1
  S  S5  1  0.81879400  0.81879400  0.00000000  1
  S  S6  1  0.18120600  0.18120600  0.00000000  1
  O  O7  1  0.50000000  0.00000000  0.50000000  1
  O  O8  1  0.00000000  0.50000000  0.50000000  1
