# generated using pymatgen
data_KSmMn4O12
_symmetry_space_group_name_H-M   'P 1'
_cell_length_a   5.35433966
_cell_length_b   5.35433966
_cell_length_c   7.60399900
_cell_angle_alpha   90.00000000
_cell_angle_beta   90.00000000
_cell_angle_gamma   89.62162642
_symmetry_Int_Tables_number   1
_chemical_formula_structural   KSmMn4O12
_chemical_formula_sum   'K1 Sm1 Mn4 O12'
_cell_volume   217.99393752
_cell_formula_units_Z   1
loop_
 _symmetry_equiv_pos_site_id
 _symmetry_equiv_pos_as_xyz
  1  'x, y, z'
loop_
 _atom_site_type_symbol
 _atom_site_label
 _atom_site_symmetry_multiplicity
 _atom_site_fract_x
 _atom_site_fract_y
 _atom_site_fract_z
 _atom_site_occupancy
  K  K0  1  0.99370771  0.99370771  0.50000000  1
  Sm  Sm1  1  0.51105232  0.51105232  -0.00000000  1
  Mn  Mn2  1  0.50320270  0.00602382  0.74273694  1
  Mn  Mn3  1  0.50320270  0.00602382  0.25726306  1
  Mn  Mn4  1  0.00602382  0.50320270  0.25726306  1
  Mn  Mn5  1  0.00602382  0.50320270  0.74273694  1
  O  O6  1  0.75543220  0.24369723  0.77749937  1
  O  O7  1  0.24369723  0.75543220  0.77749937  1
  O  O8  1  0.24369723  0.75543220  0.22250063  1
  O  O9  1  0.75543220  0.24369723  0.22250063  1
  O  O10  1  0.71563799  0.71563799  0.74149145  1
  O  O11  1  0.27011594  0.27011594  0.79047376  1
  O  O12  1  0.27011594  0.27011594  0.20952624  1
  O  O13  1  0.71563799  0.71563799  0.25850855  1
  O  O14  1  0.52100983  0.96657441  -0.00000000  1
  O  O15  1  0.47783148  0.04060449  0.50000000  1
  O  O16  1  0.96657441  0.52100983  -0.00000000  1
  O  O17  1  0.04060449  0.47783148  0.50000000  1
