# generated using pymatgen
data_BaSrLaSbO6
_symmetry_space_group_name_H-M   'P 1'
_cell_length_a   8.64208565
_cell_length_b   8.64608923
_cell_length_c   8.65676734
_cell_angle_alpha   90.00000000
_cell_angle_beta   90.00000000
_cell_angle_gamma   90.00000000
_symmetry_Int_Tables_number   1
_chemical_formula_structural   BaSrLaSbO6
_chemical_formula_sum   'Ba4 Sr4 La4 Sb4 O24'
_cell_volume   646.83576498
_cell_formula_units_Z   4
loop_
 _symmetry_equiv_pos_site_id
 _symmetry_equiv_pos_as_xyz
  1  'x, y, z'
loop_
 _atom_site_type_symbol
 _atom_site_label
 _atom_site_symmetry_multiplicity
 _atom_site_fract_x
 _atom_site_fract_y
 _atom_site_fract_z
 _atom_site_occupancy
  Ba  Ba0  1  -0.00000000  -0.00000000  -0.00000000  1
  Ba  Ba1  1  0.50000000  0.50000000  0.50000000  1
  Ba  Ba2  1  0.50000000  -0.00000000  -0.00000000  1
  Ba  Ba3  1  -0.00000000  0.00000000  0.50000000  1
  Sr  Sr4  1  -0.00000000  0.50000000  0.50000000  1
  Sr  Sr5  1  0.50000000  -0.00000000  0.50000000  1
  Sr  Sr6  1  0.50000000  0.50000000  -0.00000000  1
  Sr  Sr7  1  -0.00000000  0.50000000  -0.00000000  1
  La  La8  1  0.74924248  0.74796435  0.74951978  1
  La  La9  1  0.25075752  0.25203565  0.74951978  1
  La  La10  1  0.25075752  0.74796435  0.25048022  1
  La  La11  1  0.74924248  0.25203565  0.25048022  1
  Sb  Sb12  1  0.24965297  0.25323557  0.25054679  1
  Sb  Sb13  1  0.75034703  0.74676443  0.25054679  1
  Sb  Sb14  1  0.75034703  0.25323557  0.74945321  1
  Sb  Sb15  1  0.24965297  0.74676443  0.74945321  1
  O  O16  1  0.01884631  0.22499047  0.27729017  1
  O  O17  1  0.98115369  0.77500953  0.27729017  1
  O  O18  1  0.98115369  0.22499047  0.72270983  1
  O  O19  1  0.01884631  0.77500953  0.72270983  1
  O  O20  1  0.27357343  0.02181941  0.22120221  1
  O  O21  1  0.27357343  0.97818059  0.77879779  1
  O  O22  1  0.72642657  0.97818059  0.22120221  1
  O  O23  1  0.72642657  0.02181941  0.77879779  1
  O  O24  1  0.21516740  0.28606876  0.02023688  1
  O  O25  1  0.78483260  0.28606876  0.97976312  1
  O  O26  1  0.21516740  0.71393124  0.97976312  1
  O  O27  1  0.78483260  0.71393124  0.02023688  1
  O  O28  1  0.47854659  0.28997746  0.21440522  1
  O  O29  1  0.52145341  0.71002254  0.21440522  1
  O  O30  1  0.52145341  0.28997746  0.78559478  1
  O  O31  1  0.47854659  0.71002254  0.78559478  1
  O  O32  1  0.21644791  0.48140923  0.29184252  1
  O  O33  1  0.21644791  0.51859077  0.70815748  1
  O  O34  1  0.78355209  0.51859077  0.29184252  1
  O  O35  1  0.78355209  0.48140923  0.70815748  1
  O  O36  1  0.29037118  0.21858736  0.47929632  1
  O  O37  1  0.70962882  0.21858736  0.52070368  1
  O  O38  1  0.29037118  0.78141264  0.52070368  1
  O  O39  1  0.70962882  0.78141264  0.47929632  1
