# generated using pymatgen
data_TcCl3
_symmetry_space_group_name_H-M   'P 1'
_cell_length_a   5.73997878
_cell_length_b   5.73997878
_cell_length_c   6.67862570
_cell_angle_alpha   80.68170978
_cell_angle_beta   80.68170978
_cell_angle_gamma   114.96419073
_symmetry_Int_Tables_number   1
_chemical_formula_structural   TcCl3
_chemical_formula_sum   'Tc2 Cl6'
_cell_volume   190.22037780
_cell_formula_units_Z   2
loop_
 _symmetry_equiv_pos_site_id
 _symmetry_equiv_pos_as_xyz
  1  'x, y, z'
loop_
 _atom_site_type_symbol
 _atom_site_label
 _atom_site_symmetry_multiplicity
 _atom_site_fract_x
 _atom_site_fract_y
 _atom_site_fract_z
 _atom_site_occupancy
  Tc  Tc0  1  0.85830300  0.14169700  0.00000000  1
  Tc  Tc1  1  0.14169700  0.85830300  0.00000000  1
  Cl  Cl2  1  0.24083800  0.24083800  0.74726100  1
  Cl  Cl3  1  0.75916200  0.75916200  0.25273900  1
  Cl  Cl4  1  0.56409300  0.90474800  0.79755900  1
  Cl  Cl5  1  0.90474800  0.56409300  0.79755900  1
  Cl  Cl6  1  0.43590700  0.09525200  0.20244100  1
  Cl  Cl7  1  0.09525200  0.43590700  0.20244100  1
