# generated using pymatgen
data_BaSrPrWO6
_symmetry_space_group_name_H-M   'P 1'
_cell_length_a   8.60662029
_cell_length_b   8.58877847
_cell_length_c   8.61680836
_cell_angle_alpha   90.00000000
_cell_angle_beta   90.00000000
_cell_angle_gamma   90.00000000
_symmetry_Int_Tables_number   1
_chemical_formula_structural   BaSrPrWO6
_chemical_formula_sum   'Ba4 Sr4 Pr4 W4 O24'
_cell_volume   636.95753334
_cell_formula_units_Z   4
loop_
 _symmetry_equiv_pos_site_id
 _symmetry_equiv_pos_as_xyz
  1  'x, y, z'
loop_
 _atom_site_type_symbol
 _atom_site_label
 _atom_site_symmetry_multiplicity
 _atom_site_fract_x
 _atom_site_fract_y
 _atom_site_fract_z
 _atom_site_occupancy
  Ba  Ba0  1  0.00000000  -0.00000000  -0.00000000  1
  Ba  Ba1  1  0.50000000  0.50000000  0.50000000  1
  Ba  Ba2  1  0.00000000  0.50000000  0.00000000  1
  Ba  Ba3  1  -0.00000000  -0.00000000  0.50000000  1
  Sr  Sr4  1  0.00000000  0.50000000  0.50000000  1
  Sr  Sr5  1  0.50000000  -0.00000000  0.50000000  1
  Sr  Sr6  1  0.50000000  0.50000000  0.00000000  1
  Sr  Sr7  1  0.50000000  -0.00000000  -0.00000000  1
  Pr  Pr8  1  0.74758818  0.74959627  0.74964235  1
  Pr  Pr9  1  0.25241182  0.25040373  0.74964235  1
  Pr  Pr10  1  0.25241182  0.74959627  0.25035765  1
  Pr  Pr11  1  0.74758818  0.25040373  0.25035765  1
  W  W12  1  0.25292300  0.25039845  0.24971649  1
  W  W13  1  0.74707700  0.74960155  0.24971649  1
  W  W14  1  0.74707700  0.25039845  0.75028351  1
  W  W15  1  0.25292300  0.74960155  0.75028351  1
  O  O16  1  0.02168367  0.22110358  0.27871843  1
  O  O17  1  0.97831633  0.77889642  0.27871843  1
  O  O18  1  0.97831633  0.22110358  0.72128157  1
  O  O19  1  0.02168367  0.77889642  0.72128157  1
  O  O20  1  0.28959008  0.02124762  0.21347955  1
  O  O21  1  0.28959008  0.97875238  0.78652045  1
  O  O22  1  0.71040992  0.97875238  0.21347955  1
  O  O23  1  0.71040992  0.02124762  0.78652045  1
  O  O24  1  0.22215438  0.28063488  0.01868020  1
  O  O25  1  0.77784562  0.28063488  0.98131980  1
  O  O26  1  0.22215438  0.71936512  0.98131980  1
  O  O27  1  0.77784562  0.71936512  0.01868020  1
  O  O28  1  0.48018522  0.29111583  0.21174067  1
  O  O29  1  0.51981478  0.70888417  0.21174067  1
  O  O30  1  0.51981478  0.29111583  0.78825933  1
  O  O31  1  0.48018522  0.70888417  0.78825933  1
  O  O32  1  0.21300174  0.47822853  0.29064416  1
  O  O33  1  0.21300174  0.52177147  0.70935584  1
  O  O34  1  0.78699826  0.52177147  0.29064416  1
  O  O35  1  0.78699826  0.47822853  0.70935584  1
  O  O36  1  0.29119742  0.21076397  0.47999011  1
  O  O37  1  0.70880258  0.21076397  0.52000989  1
  O  O38  1  0.29119742  0.78923603  0.52000989  1
  O  O39  1  0.70880258  0.78923603  0.47999011  1
