# generated using pymatgen
data_BaSrGdBiO6
_symmetry_space_group_name_H-M   'P 1'
_cell_length_a   8.66827890
_cell_length_b   8.67581421
_cell_length_c   8.68453024
_cell_angle_alpha   90.00000000
_cell_angle_beta   90.00000000
_cell_angle_gamma   90.00000000
_symmetry_Int_Tables_number   1
_chemical_formula_structural   BaSrGdBiO6
_chemical_formula_sum   'Ba4 Sr4 Gd4 Bi4 O24'
_cell_volume   653.11468847
_cell_formula_units_Z   4
loop_
 _symmetry_equiv_pos_site_id
 _symmetry_equiv_pos_as_xyz
  1  'x, y, z'
loop_
 _atom_site_type_symbol
 _atom_site_label
 _atom_site_symmetry_multiplicity
 _atom_site_fract_x
 _atom_site_fract_y
 _atom_site_fract_z
 _atom_site_occupancy
  Ba  Ba0  1  0.00000000  0.00000000  -0.00000000  1
  Ba  Ba1  1  0.50000000  0.50000000  0.50000000  1
  Ba  Ba2  1  0.00000000  0.50000000  0.50000000  1
  Ba  Ba3  1  0.50000000  -0.00000000  -0.00000000  1
  Sr  Sr4  1  0.50000000  -0.00000000  0.50000000  1
  Sr  Sr5  1  0.50000000  0.50000000  -0.00000000  1
  Sr  Sr6  1  0.00000000  0.50000000  -0.00000000  1
  Sr  Sr7  1  0.00000000  0.00000000  0.50000000  1
  Gd  Gd8  1  0.25000000  0.25000000  0.25000000  1
  Gd  Gd9  1  0.75000000  0.75000000  0.25000000  1
  Gd  Gd10  1  0.75000000  0.25000000  0.75000000  1
  Gd  Gd11  1  0.25000000  0.75000000  0.75000000  1
  Bi  Bi12  1  0.75000000  0.75000000  0.75000000  1
  Bi  Bi13  1  0.25000000  0.25000000  0.75000000  1
  Bi  Bi14  1  0.25000000  0.75000000  0.25000000  1
  Bi  Bi15  1  0.75000000  0.25000000  0.25000000  1
  O  O16  1  0.99169134  0.21425901  0.28872320  1
  O  O17  1  0.00830866  0.78574099  0.28872320  1
  O  O18  1  0.00830866  0.21425901  0.71127680  1
  O  O19  1  0.99169134  0.78574099  0.71127680  1
  O  O20  1  0.27738239  0.99262752  0.22031642  1
  O  O21  1  0.27738239  0.00737248  0.77968358  1
  O  O22  1  0.72261761  0.00737248  0.22031642  1
  O  O23  1  0.72261761  0.99262752  0.77968358  1
  O  O24  1  0.20797511  0.28135124  0.99170143  1
  O  O25  1  0.79202489  0.28135124  0.00829857  1
  O  O26  1  0.20797511  0.71864876  0.00829857  1
  O  O27  1  0.79202489  0.71864876  0.99170143  1
  O  O28  1  0.50830866  0.28574099  0.21127680  1
  O  O29  1  0.49169134  0.71425901  0.21127680  1
  O  O30  1  0.49169134  0.28574099  0.78872320  1
  O  O31  1  0.50830866  0.71425901  0.78872320  1
  O  O32  1  0.22261761  0.50737248  0.27968358  1
  O  O33  1  0.22261761  0.49262752  0.72031642  1
  O  O34  1  0.77738239  0.49262752  0.27968358  1
  O  O35  1  0.77738239  0.50737248  0.72031642  1
  O  O36  1  0.29202489  0.21864876  0.50829857  1
  O  O37  1  0.70797511  0.21864876  0.49170143  1
  O  O38  1  0.29202489  0.78135124  0.49170143  1
  O  O39  1  0.70797511  0.78135124  0.50829857  1
