# generated using pymatgen
data_BaNaEuWO6
_symmetry_space_group_name_H-M   'P 1'
_cell_length_a   8.47710104
_cell_length_b   8.42809095
_cell_length_c   8.46339245
_cell_angle_alpha   90.00000000
_cell_angle_beta   90.00000000
_cell_angle_gamma   90.00000000
_symmetry_Int_Tables_number   1
_chemical_formula_structural   BaNaEuWO6
_chemical_formula_sum   'Ba4 Na4 Eu4 W4 O24'
_cell_volume   604.67366283
_cell_formula_units_Z   4
loop_
 _symmetry_equiv_pos_site_id
 _symmetry_equiv_pos_as_xyz
  1  'x, y, z'
loop_
 _atom_site_type_symbol
 _atom_site_label
 _atom_site_symmetry_multiplicity
 _atom_site_fract_x
 _atom_site_fract_y
 _atom_site_fract_z
 _atom_site_occupancy
  Ba  Ba0  1  0.00000000  -0.00000000  -0.00000000  1
  Ba  Ba1  1  0.50000000  0.50000000  0.50000000  1
  Ba  Ba2  1  0.50000000  0.50000000  -0.00000000  1
  Ba  Ba3  1  0.00000000  -0.00000000  0.50000000  1
  Na  Na4  1  0.00000000  0.50000000  0.50000000  1
  Na  Na5  1  0.50000000  -0.00000000  0.50000000  1
  Na  Na6  1  0.50000000  -0.00000000  0.00000000  1
  Na  Na7  1  0.00000000  0.50000000  -0.00000000  1
  Eu  Eu8  1  0.75000000  0.75000000  0.75000000  1
  Eu  Eu9  1  0.25000000  0.25000000  0.75000000  1
  Eu  Eu10  1  0.25000000  0.75000000  0.25000000  1
  Eu  Eu11  1  0.75000000  0.25000000  0.25000000  1
  W  W12  1  0.25000000  0.25000000  0.25000000  1
  W  W13  1  0.75000000  0.75000000  0.25000000  1
  W  W14  1  0.75000000  0.25000000  0.75000000  1
  W  W15  1  0.25000000  0.75000000  0.75000000  1
  O  O16  1  0.02153595  0.21989165  0.26649553  1
  O  O17  1  0.97846405  0.78010835  0.26649553  1
  O  O18  1  0.97846405  0.21989165  0.73350447  1
  O  O19  1  0.02153595  0.78010835  0.73350447  1
  O  O20  1  0.26901774  0.02240512  0.20818982  1
  O  O21  1  0.26901774  0.97759488  0.79181018  1
  O  O22  1  0.73098226  0.97759488  0.20818982  1
  O  O23  1  0.73098226  0.02240512  0.79181018  1
  O  O24  1  0.22600472  0.28907615  0.02256016  1
  O  O25  1  0.77399528  0.28907615  0.97743984  1
  O  O26  1  0.22600472  0.71092385  0.97743984  1
  O  O27  1  0.77399528  0.71092385  0.02256016  1
  O  O28  1  0.47846405  0.28010835  0.23350447  1
  O  O29  1  0.52153595  0.71989165  0.23350447  1
  O  O30  1  0.52153595  0.28010835  0.76649553  1
  O  O31  1  0.47846405  0.71989165  0.76649553  1
  O  O32  1  0.23098226  0.47759488  0.29181018  1
  O  O33  1  0.23098226  0.52240512  0.70818982  1
  O  O34  1  0.76901774  0.52240512  0.29181018  1
  O  O35  1  0.76901774  0.47759488  0.70818982  1
  O  O36  1  0.27399528  0.21092385  0.47743984  1
  O  O37  1  0.72600472  0.21092385  0.52256016  1
  O  O38  1  0.27399528  0.78907615  0.52256016  1
  O  O39  1  0.72600472  0.78907615  0.47743984  1
