# generated using pymatgen
data_Sr2LaSbO6
_symmetry_space_group_name_H-M   'P 1'
_cell_length_a   8.53992447
_cell_length_b   8.53992447
_cell_length_c   8.53992447
_cell_angle_alpha   90.00000000
_cell_angle_beta   90.00000000
_cell_angle_gamma   90.00000000
_symmetry_Int_Tables_number   1
_chemical_formula_structural   Sr2LaSbO6
_chemical_formula_sum   'Sr8 La4 Sb4 O24'
_cell_volume   622.81933857
_cell_formula_units_Z   4
loop_
 _symmetry_equiv_pos_site_id
 _symmetry_equiv_pos_as_xyz
  1  'x, y, z'
loop_
 _atom_site_type_symbol
 _atom_site_label
 _atom_site_symmetry_multiplicity
 _atom_site_fract_x
 _atom_site_fract_y
 _atom_site_fract_z
 _atom_site_occupancy
  Sr  Sr0  1  0.50000000  0.50000000  0.50000000  1
  Sr  Sr1  1  0.00000000  0.00000000  0.00000000  1
  Sr  Sr2  1  0.00000000  0.00000000  0.50000000  1
  Sr  Sr3  1  0.00000000  0.50000000  0.00000000  1
  Sr  Sr4  1  0.50000000  0.00000000  0.00000000  1
  Sr  Sr5  1  0.50000000  0.50000000  0.00000000  1
  Sr  Sr6  1  0.50000000  0.00000000  0.50000000  1
  Sr  Sr7  1  0.00000000  0.50000000  0.50000000  1
  La  La8  1  0.75000000  0.75000000  0.75000000  1
  La  La9  1  0.75000000  0.25000000  0.25000000  1
  La  La10  1  0.25000000  0.75000000  0.25000000  1
  La  La11  1  0.25000000  0.25000000  0.75000000  1
  Sb  Sb12  1  0.25000000  0.25000000  0.25000000  1
  Sb  Sb13  1  0.25000000  0.75000000  0.75000000  1
  Sb  Sb14  1  0.75000000  0.25000000  0.75000000  1
  Sb  Sb15  1  0.75000000  0.75000000  0.25000000  1
  O  O16  1  0.21440490  0.29296893  0.47978632  1
  O  O17  1  0.21440490  0.70703107  0.52021368  1
  O  O18  1  0.78559510  0.29296893  0.52021368  1
  O  O19  1  0.78559510  0.70703107  0.47978632  1
  O  O20  1  0.29296893  0.47978632  0.21440490  1
  O  O21  1  0.70703107  0.52021368  0.21440490  1
  O  O22  1  0.29296893  0.52021368  0.78559510  1
  O  O23  1  0.70703107  0.47978632  0.78559510  1
  O  O24  1  0.47978632  0.21440490  0.29296893  1
  O  O25  1  0.52021368  0.21440490  0.70703107  1
  O  O26  1  0.52021368  0.78559510  0.29296893  1
  O  O27  1  0.47978632  0.78559510  0.70703107  1
  O  O28  1  0.28559510  0.20703107  0.02021368  1
  O  O29  1  0.28559510  0.79296893  0.97978632  1
  O  O30  1  0.71440490  0.20703107  0.97978632  1
  O  O31  1  0.71440490  0.79296893  0.02021368  1
  O  O32  1  0.20703107  0.02021368  0.28559510  1
  O  O33  1  0.79296893  0.97978632  0.28559510  1
  O  O34  1  0.20703107  0.97978632  0.71440490  1
  O  O35  1  0.79296893  0.02021368  0.71440490  1
  O  O36  1  0.02021368  0.28559510  0.20703107  1
  O  O37  1  0.97978632  0.28559510  0.79296893  1
  O  O38  1  0.97978632  0.71440490  0.20703107  1
  O  O39  1  0.02021368  0.71440490  0.79296893  1
