# generated using pymatgen
data_BaCaSmSbO6
_symmetry_space_group_name_H-M   'P 1'
_cell_length_a   5.94718645
_cell_length_b   5.99923615
_cell_length_c   8.46735795
_cell_angle_alpha   90.42670641
_cell_angle_beta   89.48784602
_cell_angle_gamma   89.90836807
_symmetry_Int_Tables_number   1
_chemical_formula_structural   BaCaSmSbO6
_chemical_formula_sum   'Ba2 Ca2 Sm2 Sb2 O12'
_cell_volume   302.08240756
_cell_formula_units_Z   2
loop_
 _symmetry_equiv_pos_site_id
 _symmetry_equiv_pos_as_xyz
  1  'x, y, z'
loop_
 _atom_site_type_symbol
 _atom_site_label
 _atom_site_symmetry_multiplicity
 _atom_site_fract_x
 _atom_site_fract_y
 _atom_site_fract_z
 _atom_site_occupancy
  Ba  Ba0  1  0.99494987  0.02703955  0.25033834  1
  Ba  Ba1  1  0.00505013  0.97296045  0.74966166  1
  Ca  Ca2  1  0.50712399  0.53923098  0.25403641  1
  Ca  Ca3  1  0.49287601  0.46076902  0.74596359  1
  Sm  Sm4  1  0.50000000  0.00000000  0.00000000  1
  Sm  Sm5  1  0.00000000  0.50000000  0.50000000  1
  Sb  Sb6  1  0.00000000  0.50000000  0.00000000  1
  Sb  Sb7  1  0.50000000  0.00000000  0.50000000  1
  O  O8  1  0.19929930  0.23377255  0.96387136  1
  O  O9  1  0.31544758  0.72140324  0.55197843  1
  O  O10  1  0.80070070  0.76622745  0.03612864  1
  O  O11  1  0.68455242  0.27859676  0.44802157  1
  O  O12  1  0.27091274  0.69180766  0.94103024  1
  O  O13  1  0.23052503  0.19891526  0.52495295  1
  O  O14  1  0.72908726  0.30819234  0.05896976  1
  O  O15  1  0.76947497  0.80108474  0.47504705  1
  O  O16  1  0.44167160  0.94283777  0.26777314  1
  O  O17  1  0.10265725  0.50416839  0.23088278  1
  O  O18  1  0.55832840  0.05716223  0.73222686  1
  O  O19  1  0.89734275  0.49583161  0.76911722  1
