# generated using pymatgen
data_SrMoO3
_symmetry_space_group_name_H-M   'P 1'
_cell_length_a   5.77399566
_cell_length_b   5.77399566
_cell_length_c   5.77399566
_cell_angle_alpha   121.27370561
_cell_angle_beta   119.92282174
_cell_angle_gamma   88.97091685
_symmetry_Int_Tables_number   1
_chemical_formula_structural   SrMoO3
_chemical_formula_sum   'Sr2 Mo2 O6'
_cell_volume   134.83919838
_cell_formula_units_Z   2
loop_
 _symmetry_equiv_pos_site_id
 _symmetry_equiv_pos_as_xyz
  1  'x, y, z'
loop_
 _atom_site_type_symbol
 _atom_site_label
 _atom_site_symmetry_multiplicity
 _atom_site_fract_x
 _atom_site_fract_y
 _atom_site_fract_z
 _atom_site_occupancy
  Sr  Sr0  1  0.24521400  0.75000000  0.49521400  1
  Sr  Sr1  1  0.75478600  0.25000000  0.50478600  1
  Mo  Mo2  1  0.50000000  0.50000000  0.00000000  1
  Mo  Mo3  1  0.00000000  0.00000000  0.00000000  1
  O  O4  1  0.67729100  0.75000000  0.92729100  1
  O  O5  1  0.32270900  0.25000000  0.07270900  1
  O  O6  1  0.20696800  0.20696800  0.50000000  1
  O  O7  1  0.79303200  0.29303200  0.00000000  1
  O  O8  1  0.20696800  0.70696800  0.00000000  1
  O  O9  1  0.79303200  0.79303200  0.50000000  1
