# generated using pymatgen
data_BaNaNdWO6
_symmetry_space_group_name_H-M   'P 1'
_cell_length_a   8.52421793
_cell_length_b   8.50802834
_cell_length_c   8.49412241
_cell_angle_alpha   90.00000000
_cell_angle_beta   90.00000000
_cell_angle_gamma   90.00000000
_symmetry_Int_Tables_number   1
_chemical_formula_structural   BaNaNdWO6
_chemical_formula_sum   'Ba4 Na4 Nd4 W4 O24'
_cell_volume   616.03017763
_cell_formula_units_Z   4
loop_
 _symmetry_equiv_pos_site_id
 _symmetry_equiv_pos_as_xyz
  1  'x, y, z'
loop_
 _atom_site_type_symbol
 _atom_site_label
 _atom_site_symmetry_multiplicity
 _atom_site_fract_x
 _atom_site_fract_y
 _atom_site_fract_z
 _atom_site_occupancy
  Ba  Ba0  1  -0.00000000  -0.00000000  -0.00000000  1
  Ba  Ba1  1  0.50000000  0.50000000  0.50000000  1
  Ba  Ba2  1  -0.00000000  0.50000000  0.50000000  1
  Ba  Ba3  1  0.50000000  -0.00000000  -0.00000000  1
  Na  Na4  1  0.50000000  -0.00000000  0.50000000  1
  Na  Na5  1  0.50000000  0.50000000  -0.00000000  1
  Na  Na6  1  -0.00000000  0.50000000  -0.00000000  1
  Na  Na7  1  -0.00000000  -0.00000000  0.50000000  1
  Nd  Nd8  1  0.75000000  0.75000000  0.75000000  1
  Nd  Nd9  1  0.25000000  0.25000000  0.75000000  1
  Nd  Nd10  1  0.25000000  0.75000000  0.25000000  1
  Nd  Nd11  1  0.75000000  0.25000000  0.25000000  1
  W  W12  1  0.25000000  0.25000000  0.25000000  1
  W  W13  1  0.75000000  0.75000000  0.25000000  1
  W  W14  1  0.75000000  0.25000000  0.75000000  1
  W  W15  1  0.25000000  0.75000000  0.75000000  1
  O  O16  1  0.02372235  0.22332459  0.28807422  1
  O  O17  1  0.97627765  0.77667541  0.28807422  1
  O  O18  1  0.97627765  0.22332459  0.71192578  1
  O  O19  1  0.02372235  0.77667541  0.71192578  1
  O  O20  1  0.26944284  0.02283516  0.21817202  1
  O  O21  1  0.26944284  0.97716484  0.78182798  1
  O  O22  1  0.73055716  0.97716484  0.21817202  1
  O  O23  1  0.73055716  0.02283516  0.78182798  1
  O  O24  1  0.20873639  0.27048812  0.02396691  1
  O  O25  1  0.79126361  0.27048812  0.97603309  1
  O  O26  1  0.20873639  0.72951188  0.97603309  1
  O  O27  1  0.79126361  0.72951188  0.02396691  1
  O  O28  1  0.47627765  0.27667541  0.21192578  1
  O  O29  1  0.52372235  0.72332459  0.21192578  1
  O  O30  1  0.52372235  0.27667541  0.78807422  1
  O  O31  1  0.47627765  0.72332459  0.78807422  1
  O  O32  1  0.23055716  0.47716484  0.28182798  1
  O  O33  1  0.23055716  0.52283516  0.71817202  1
  O  O34  1  0.76944284  0.52283516  0.28182798  1
  O  O35  1  0.76944284  0.47716484  0.71817202  1
  O  O36  1  0.29126361  0.22951188  0.47603309  1
  O  O37  1  0.70873639  0.22951188  0.52396691  1
  O  O38  1  0.29126361  0.77048812  0.52396691  1
  O  O39  1  0.70873639  0.77048812  0.47603309  1
