# generated using pymatgen
data_BaSrTbBiO6
_symmetry_space_group_name_H-M   'P 1'
_cell_length_a   8.64227744
_cell_length_b   8.65249143
_cell_length_c   8.62797701
_cell_angle_alpha   90.00000000
_cell_angle_beta   90.00000000
_cell_angle_gamma   90.00000000
_symmetry_Int_Tables_number   1
_chemical_formula_structural   BaSrTbBiO6
_chemical_formula_sum   'Ba4 Sr4 Tb4 Bi4 O24'
_cell_volume   645.17623413
_cell_formula_units_Z   4
loop_
 _symmetry_equiv_pos_site_id
 _symmetry_equiv_pos_as_xyz
  1  'x, y, z'
loop_
 _atom_site_type_symbol
 _atom_site_label
 _atom_site_symmetry_multiplicity
 _atom_site_fract_x
 _atom_site_fract_y
 _atom_site_fract_z
 _atom_site_occupancy
  Ba  Ba0  1  0.00000000  0.00000000  0.00000000  1
  Ba  Ba1  1  0.50000000  0.50000000  0.50000000  1
  Ba  Ba2  1  0.50000000  0.50000000  -0.00000000  1
  Ba  Ba3  1  0.00000000  -0.00000000  0.50000000  1
  Sr  Sr4  1  0.00000000  0.50000000  0.50000000  1
  Sr  Sr5  1  0.50000000  0.00000000  0.50000000  1
  Sr  Sr6  1  0.50000000  0.00000000  0.00000000  1
  Sr  Sr7  1  0.00000000  0.50000000  0.00000000  1
  Tb  Tb8  1  0.25000000  0.25000000  0.25000000  1
  Tb  Tb9  1  0.75000000  0.75000000  0.25000000  1
  Tb  Tb10  1  0.75000000  0.25000000  0.75000000  1
  Tb  Tb11  1  0.25000000  0.75000000  0.75000000  1
  Bi  Bi12  1  0.75000000  0.75000000  0.75000000  1
  Bi  Bi13  1  0.25000000  0.25000000  0.75000000  1
  Bi  Bi14  1  0.25000000  0.75000000  0.25000000  1
  Bi  Bi15  1  0.75000000  0.25000000  0.25000000  1
  O  O16  1  0.99346269  0.22237618  0.27676047  1
  O  O17  1  0.00653731  0.77762382  0.27676047  1
  O  O18  1  0.00653731  0.22237618  0.72323953  1
  O  O19  1  0.99346269  0.77762382  0.72323953  1
  O  O20  1  0.27954475  0.99247486  0.20926968  1
  O  O21  1  0.27954475  0.00752514  0.79073032  1
  O  O22  1  0.72045525  0.00752514  0.20926968  1
  O  O23  1  0.72045525  0.99247486  0.79073032  1
  O  O24  1  0.21612682  0.28799153  0.99242461  1
  O  O25  1  0.78387318  0.28799153  0.00757539  1
  O  O26  1  0.21612682  0.71200847  0.00757539  1
  O  O27  1  0.78387318  0.71200847  0.99242461  1
  O  O28  1  0.50653731  0.27762382  0.22323953  1
  O  O29  1  0.49346269  0.72237618  0.22323953  1
  O  O30  1  0.49346269  0.27762382  0.77676047  1
  O  O31  1  0.50653731  0.72237618  0.77676047  1
  O  O32  1  0.22045525  0.50752514  0.29073032  1
  O  O33  1  0.22045525  0.49247486  0.70926968  1
  O  O34  1  0.77954475  0.49247486  0.29073032  1
  O  O35  1  0.77954475  0.50752514  0.70926968  1
  O  O36  1  0.28387318  0.21200847  0.50757539  1
  O  O37  1  0.71612682  0.21200847  0.49242461  1
  O  O38  1  0.28387318  0.78799153  0.49242461  1
  O  O39  1  0.71612682  0.78799153  0.50757539  1
