# generated using pymatgen
data_Tb2InNi2
_symmetry_space_group_name_H-M   'P 1'
_cell_length_a   7.43218400
_cell_length_b   7.43218400
_cell_length_c   3.65033400
_cell_angle_alpha   90.00000000
_cell_angle_beta   90.00000000
_cell_angle_gamma   90.00000000
_symmetry_Int_Tables_number   1
_chemical_formula_structural   Tb2InNi2
_chemical_formula_sum   'Tb4 In2 Ni4'
_cell_volume   201.63480966
_cell_formula_units_Z   2
loop_
 _symmetry_equiv_pos_site_id
 _symmetry_equiv_pos_as_xyz
  1  'x, y, z'
loop_
 _atom_site_type_symbol
 _atom_site_label
 _atom_site_symmetry_multiplicity
 _atom_site_fract_x
 _atom_site_fract_y
 _atom_site_fract_z
 _atom_site_occupancy
  Tb  Tb0  1  0.67538700  0.17538700  0.50000000  1
  Tb  Tb1  1  0.32461300  0.82461300  0.50000000  1
  Tb  Tb2  1  0.17538700  0.32461300  0.50000000  1
  Tb  Tb3  1  0.82461300  0.67538700  0.50000000  1
  In  In4  1  0.50000000  0.50000000  0.00000000  1
  In  In5  1  0.00000000  0.00000000  0.00000000  1
  Ni  Ni6  1  0.11744500  0.61744500  0.00000000  1
  Ni  Ni7  1  0.88255500  0.38255500  0.00000000  1
  Ni  Ni8  1  0.61744500  0.88255500  0.00000000  1
  Ni  Ni9  1  0.38255500  0.11744500  0.00000000  1
