# generated using pymatgen
data_BaSrDyNbO6
_symmetry_space_group_name_H-M   'P 1'
_cell_length_a   8.44854850
_cell_length_b   8.45465736
_cell_length_c   8.46222769
_cell_angle_alpha   90.00000000
_cell_angle_beta   90.00000000
_cell_angle_gamma   90.00000000
_symmetry_Int_Tables_number   1
_chemical_formula_structural   BaSrDyNbO6
_chemical_formula_sum   'Ba4 Sr4 Dy4 Nb4 O24'
_cell_volume   604.45339309
_cell_formula_units_Z   4
loop_
 _symmetry_equiv_pos_site_id
 _symmetry_equiv_pos_as_xyz
  1  'x, y, z'
loop_
 _atom_site_type_symbol
 _atom_site_label
 _atom_site_symmetry_multiplicity
 _atom_site_fract_x
 _atom_site_fract_y
 _atom_site_fract_z
 _atom_site_occupancy
  Ba  Ba0  1  0.00000000  0.00000000  -0.00000000  1
  Ba  Ba1  1  0.50000000  0.50000000  0.50000000  1
  Ba  Ba2  1  0.50000000  0.00000000  -0.00000000  1
  Ba  Ba3  1  0.00000000  0.00000000  0.50000000  1
  Sr  Sr4  1  0.00000000  0.50000000  0.50000000  1
  Sr  Sr5  1  0.50000000  0.00000000  0.50000000  1
  Sr  Sr6  1  0.50000000  0.50000000  -0.00000000  1
  Sr  Sr7  1  0.00000000  0.50000000  -0.00000000  1
  Dy  Dy8  1  0.74917627  0.74768217  0.74975295  1
  Dy  Dy9  1  0.25082373  0.25231783  0.74975295  1
  Dy  Dy10  1  0.25082373  0.74768217  0.25024705  1
  Dy  Dy11  1  0.74917627  0.25231783  0.25024705  1
  Nb  Nb12  1  0.24953673  0.25362513  0.25090675  1
  Nb  Nb13  1  0.75046327  0.74637487  0.25090675  1
  Nb  Nb14  1  0.75046327  0.25362513  0.74909325  1
  Nb  Nb15  1  0.24953673  0.74637487  0.74909325  1
  O  O16  1  0.01307025  0.23000929  0.27284167  1
  O  O17  1  0.98692975  0.76999071  0.27284167  1
  O  O18  1  0.98692975  0.23000929  0.72715833  1
  O  O19  1  0.01307025  0.76999071  0.72715833  1
  O  O20  1  0.27019099  0.01465633  0.22795236  1
  O  O21  1  0.27019099  0.98534367  0.77204764  1
  O  O22  1  0.72980901  0.98534367  0.22795236  1
  O  O23  1  0.72980901  0.01465633  0.77204764  1
  O  O24  1  0.22071803  0.28136090  0.01342729  1
  O  O25  1  0.77928197  0.28136090  0.98657271  1
  O  O26  1  0.22071803  0.71863910  0.98657271  1
  O  O27  1  0.77928197  0.71863910  0.01342729  1
  O  O28  1  0.48548234  0.28569850  0.21748370  1
  O  O29  1  0.51451766  0.71430150  0.21748370  1
  O  O30  1  0.51451766  0.28569850  0.78251630  1
  O  O31  1  0.48548234  0.71430150  0.78251630  1
  O  O32  1  0.21853980  0.48716517  0.28666003  1
  O  O33  1  0.21853980  0.51283483  0.71333997  1
  O  O34  1  0.78146020  0.51283483  0.28666003  1
  O  O35  1  0.78146020  0.48716517  0.71333997  1
  O  O36  1  0.28548399  0.22213121  0.48600627  1
  O  O37  1  0.71451601  0.22213121  0.51399373  1
  O  O38  1  0.28548399  0.77786879  0.51399373  1
  O  O39  1  0.71451601  0.77786879  0.48600627  1
