# generated using pymatgen
data_SrCaNdSbO6
_symmetry_space_group_name_H-M   'P 1'
_cell_length_a   8.44032992
_cell_length_b   8.43700111
_cell_length_c   8.42867098
_cell_angle_alpha   90.00000000
_cell_angle_beta   90.00000000
_cell_angle_gamma   90.00000000
_symmetry_Int_Tables_number   1
_chemical_formula_structural   SrCaNdSbO6
_chemical_formula_sum   'Sr4 Ca4 Nd4 Sb4 O24'
_cell_volume   600.21470364
_cell_formula_units_Z   4
loop_
 _symmetry_equiv_pos_site_id
 _symmetry_equiv_pos_as_xyz
  1  'x, y, z'
loop_
 _atom_site_type_symbol
 _atom_site_label
 _atom_site_symmetry_multiplicity
 _atom_site_fract_x
 _atom_site_fract_y
 _atom_site_fract_z
 _atom_site_occupancy
  Sr  Sr0  1  0.00000000  0.50000000  0.50000000  1
  Sr  Sr1  1  0.50000000  -0.00000000  0.50000000  1
  Sr  Sr2  1  0.50000000  0.50000000  0.00000000  1
  Sr  Sr3  1  0.00000000  0.50000000  0.00000000  1
  Ca  Ca4  1  0.50000000  -0.00000000  0.00000000  1
  Ca  Ca5  1  0.00000000  -0.00000000  0.50000000  1
  Ca  Ca6  1  0.00000000  0.00000000  0.00000000  1
  Ca  Ca7  1  0.50000000  0.50000000  0.50000000  1
  Nd  Nd8  1  0.75038596  0.75223954  0.75039725  1
  Nd  Nd9  1  0.24961404  0.24776046  0.75039725  1
  Nd  Nd10  1  0.24961404  0.75223954  0.24960275  1
  Nd  Nd11  1  0.75038596  0.24776046  0.24960275  1
  Sb  Sb12  1  0.25071251  0.24753810  0.24963648  1
  Sb  Sb13  1  0.74928749  0.75246190  0.24963648  1
  Sb  Sb14  1  0.74928749  0.24753810  0.75036352  1
  Sb  Sb15  1  0.25071251  0.75246190  0.75036352  1
  O  O16  1  0.02060679  0.19413663  0.29165949  1
  O  O17  1  0.97939321  0.80586337  0.29165949  1
  O  O18  1  0.97939321  0.19413663  0.70834051  1
  O  O19  1  0.02060679  0.80586337  0.70834051  1
  O  O20  1  0.29467607  0.01885507  0.19662798  1
  O  O21  1  0.29467607  0.98114493  0.80337202  1
  O  O22  1  0.70532393  0.98114493  0.19662798  1
  O  O23  1  0.70532393  0.01885507  0.80337202  1
  O  O24  1  0.20178780  0.28351493  0.01947122  1
  O  O25  1  0.79821220  0.28351493  0.98052878  1
  O  O26  1  0.20178780  0.71648507  0.98052878  1
  O  O27  1  0.79821220  0.71648507  0.01947122  1
  O  O28  1  0.48174982  0.29519810  0.21689556  1
  O  O29  1  0.51825018  0.70480190  0.21689556  1
  O  O30  1  0.51825018  0.29519810  0.78310444  1
  O  O31  1  0.48174982  0.70480190  0.78310444  1
  O  O32  1  0.21417861  0.48016136  0.29223620  1
  O  O33  1  0.21417861  0.51983864  0.70776380  1
  O  O34  1  0.78582139  0.51983864  0.29223620  1
  O  O35  1  0.78582139  0.48016136  0.70776380  1
  O  O36  1  0.29454763  0.21396638  0.48127533  1
  O  O37  1  0.70545237  0.21396638  0.51872467  1
  O  O38  1  0.29454763  0.78603362  0.51872467  1
  O  O39  1  0.70545237  0.78603362  0.48127533  1
