# generated using pymatgen
data_SrCaNdSbO6
_symmetry_space_group_name_H-M   'P 1'
_cell_length_a   5.85039312
_cell_length_b   5.99654184
_cell_length_c   8.38501298
_cell_angle_alpha   90.17824994
_cell_angle_beta   90.48284339
_cell_angle_gamma   90.01025100
_symmetry_Int_Tables_number   1
_chemical_formula_structural   SrCaNdSbO6
_chemical_formula_sum   'Sr2 Ca2 Nd2 Sb2 O12'
_cell_volume   294.15221606
_cell_formula_units_Z   2
loop_
 _symmetry_equiv_pos_site_id
 _symmetry_equiv_pos_as_xyz
  1  'x, y, z'
loop_
 _atom_site_type_symbol
 _atom_site_label
 _atom_site_symmetry_multiplicity
 _atom_site_fract_x
 _atom_site_fract_y
 _atom_site_fract_z
 _atom_site_occupancy
  Sr  Sr0  1  0.51060585  0.54666940  0.24983438  1
  Sr  Sr1  1  0.48939415  0.45333060  0.75016562  1
  Ca  Ca2  1  0.98650917  0.04654507  0.25321194  1
  Ca  Ca3  1  0.01349083  0.95345493  0.74678806  1
  Nd  Nd4  1  0.00000000  0.50000000  0.00000000  1
  Nd  Nd5  1  0.50000000  -0.00000000  0.50000000  1
  Sb  Sb6  1  0.50000000  -0.00000000  0.00000000  1
  Sb  Sb7  1  0.00000000  0.50000000  0.50000000  1
  O  O8  1  0.22124635  0.18214144  0.93820586  1
  O  O9  1  0.27975760  0.68514775  0.54563405  1
  O  O10  1  0.77875365  0.81785856  0.06179414  1
  O  O11  1  0.72024240  0.31485225  0.45436595  1
  O  O12  1  0.32228820  0.72081203  0.94554714  1
  O  O13  1  0.17385402  0.21765709  0.56133251  1
  O  O14  1  0.67771180  0.27918797  0.05445286  1
  O  O15  1  0.82614598  0.78234291  0.43866749  1
  O  O16  1  0.38416899  0.97014644  0.22811875  1
  O  O17  1  0.09375788  0.44506172  0.27094987  1
  O  O18  1  0.61583101  0.02985356  0.77188125  1
  O  O19  1  0.90624212  0.55493828  0.72905013  1
