# generated using pymatgen
data_BaSrBiSbO6
_symmetry_space_group_name_H-M   'P 1'
_cell_length_a   6.05249504
_cell_length_b   6.08677075
_cell_length_c   8.57325756
_cell_angle_alpha   89.68050432
_cell_angle_beta   90.40603800
_cell_angle_gamma   89.86313695
_symmetry_Int_Tables_number   1
_chemical_formula_structural   BaSrBiSbO6
_chemical_formula_sum   'Ba2 Sr2 Bi2 Sb2 O12'
_cell_volume   315.82632062
_cell_formula_units_Z   2
loop_
 _symmetry_equiv_pos_site_id
 _symmetry_equiv_pos_as_xyz
  1  'x, y, z'
loop_
 _atom_site_type_symbol
 _atom_site_label
 _atom_site_symmetry_multiplicity
 _atom_site_fract_x
 _atom_site_fract_y
 _atom_site_fract_z
 _atom_site_occupancy
  Ba  Ba0  1  0.99472865  0.02753218  0.25010456  1
  Ba  Ba1  1  0.00527135  0.97246782  0.74989544  1
  Sr  Sr2  1  0.50800335  0.53663337  0.24791808  1
  Sr  Sr3  1  0.49199665  0.46336663  0.75208192  1
  Bi  Bi4  1  0.00000000  0.50000000  -0.00000000  1
  Bi  Bi5  1  0.50000000  0.00000000  0.50000000  1
  Sb  Sb6  1  0.50000000  0.00000000  -0.00000000  1
  Sb  Sb7  1  0.00000000  0.50000000  0.50000000  1
  O  O8  1  0.23570428  0.20021754  0.96748240  1
  O  O9  1  0.26710134  0.69444442  0.54544755  1
  O  O10  1  0.76429572  0.79978246  0.03251760  1
  O  O11  1  0.73289866  0.30555558  0.45455245  1
  O  O12  1  0.31229088  0.72753257  0.95643321  1
  O  O13  1  0.19777883  0.23624423  0.54023164  1
  O  O14  1  0.68770912  0.27246743  0.04356679  1
  O  O15  1  0.80222117  0.76375577  0.45976836  1
  O  O16  1  0.43579981  0.96430070  0.23092354  1
  O  O17  1  0.08644378  0.49238502  0.27014769  1
  O  O18  1  0.56420019  0.03569930  0.76907646  1
  O  O19  1  0.91355622  0.50761498  0.72985231  1
