# generated using pymatgen
data_BaEuNbBiO6
_symmetry_space_group_name_H-M   'P 1'
_cell_length_a   6.01176724
_cell_length_b   6.07694587
_cell_length_c   8.54528682
_cell_angle_alpha   90.57775674
_cell_angle_beta   90.42237264
_cell_angle_gamma   90.25159529
_symmetry_Int_Tables_number   1
_chemical_formula_structural   BaEuNbBiO6
_chemical_formula_sum   'Ba2 Eu2 Nb2 Bi2 O12'
_cell_volume   312.15906988
_cell_formula_units_Z   2
loop_
 _symmetry_equiv_pos_site_id
 _symmetry_equiv_pos_as_xyz
  1  'x, y, z'
loop_
 _atom_site_type_symbol
 _atom_site_label
 _atom_site_symmetry_multiplicity
 _atom_site_fract_x
 _atom_site_fract_y
 _atom_site_fract_z
 _atom_site_occupancy
  Ba  Ba0  1  0.50628375  0.53296287  0.25035196  1
  Ba  Ba1  1  0.49371625  0.46703713  0.74964804  1
  Eu  Eu2  1  0.99024494  0.04246436  0.25254541  1
  Eu  Eu3  1  0.00975506  0.95753564  0.74745459  1
  Nb  Nb4  1  0.50000000  0.00000000  0.00000000  1
  Nb  Nb5  1  0.00000000  0.50000000  0.50000000  1
  Bi  Bi6  1  0.00000000  0.50000000  0.00000000  1
  Bi  Bi7  1  0.50000000  0.00000000  0.50000000  1
  O  O8  1  0.22900032  0.18771195  0.94814917  1
  O  O9  1  0.26724871  0.69468283  0.53691212  1
  O  O10  1  0.77099968  0.81228805  0.05185083  1
  O  O11  1  0.73275129  0.30531717  0.46308788  1
  O  O12  1  0.30795064  0.73331038  0.95620618  1
  O  O13  1  0.18115664  0.22303623  0.54849533  1
  O  O14  1  0.69204936  0.26668962  0.04379382  1
  O  O15  1  0.81884336  0.77696377  0.45150467  1
  O  O16  1  0.40026175  0.99099298  0.22855048  1
  O  O17  1  0.07141753  0.46037636  0.27036584  1
  O  O18  1  0.59973825  0.00900702  0.77144952  1
  O  O19  1  0.92858247  0.53962364  0.72963416  1
