# generated using pymatgen
data_BaSrCeNbO6
_symmetry_space_group_name_H-M   'P 1'
_cell_length_a   8.57820394
_cell_length_b   8.59114670
_cell_length_c   8.57344237
_cell_angle_alpha   90.00000000
_cell_angle_beta   90.00000000
_cell_angle_gamma   90.00000000
_symmetry_Int_Tables_number   1
_chemical_formula_structural   BaSrCeNbO6
_chemical_formula_sum   'Ba4 Sr4 Ce4 Nb4 O24'
_cell_volume   631.83362559
_cell_formula_units_Z   4
loop_
 _symmetry_equiv_pos_site_id
 _symmetry_equiv_pos_as_xyz
  1  'x, y, z'
loop_
 _atom_site_type_symbol
 _atom_site_label
 _atom_site_symmetry_multiplicity
 _atom_site_fract_x
 _atom_site_fract_y
 _atom_site_fract_z
 _atom_site_occupancy
  Ba  Ba0  1  -0.00000000  0.00000000  0.00000000  1
  Ba  Ba1  1  0.50000000  0.50000000  0.50000000  1
  Ba  Ba2  1  0.50000000  0.00000000  0.50000000  1
  Ba  Ba3  1  -0.00000000  -0.00000000  0.50000000  1
  Sr  Sr4  1  -0.00000000  0.50000000  0.50000000  1
  Sr  Sr5  1  0.50000000  0.50000000  0.00000000  1
  Sr  Sr6  1  0.50000000  0.00000000  0.00000000  1
  Sr  Sr7  1  -0.00000000  0.50000000  0.00000000  1
  Ce  Ce8  1  0.74962275  0.74814609  0.75218148  1
  Ce  Ce9  1  0.25037725  0.25185391  0.75218148  1
  Ce  Ce10  1  0.25037725  0.74814609  0.24781852  1
  Ce  Ce11  1  0.74962275  0.25185391  0.24781852  1
  Nb  Nb12  1  0.24905570  0.25334049  0.24771024  1
  Nb  Nb13  1  0.75094430  0.74665951  0.24771024  1
  Nb  Nb14  1  0.75094430  0.25334049  0.75228976  1
  Nb  Nb15  1  0.24905570  0.74665951  0.75228976  1
  O  O16  1  0.01539466  0.21837017  0.27408908  1
  O  O17  1  0.98460534  0.78162983  0.27408908  1
  O  O18  1  0.98460534  0.21837017  0.72591092  1
  O  O19  1  0.01539466  0.78162983  0.72591092  1
  O  O20  1  0.28352760  0.01794782  0.21088476  1
  O  O21  1  0.28352760  0.98205218  0.78911524  1
  O  O22  1  0.71647240  0.98205218  0.21088476  1
  O  O23  1  0.71647240  0.01794782  0.78911524  1
  O  O24  1  0.21215178  0.28900665  0.01481631  1
  O  O25  1  0.78784822  0.28900665  0.98518369  1
  O  O26  1  0.21215178  0.71099335  0.98518369  1
  O  O27  1  0.78784822  0.71099335  0.01481631  1
  O  O28  1  0.48342626  0.29035392  0.21409735  1
  O  O29  1  0.51657374  0.70964608  0.21409735  1
  O  O30  1  0.51657374  0.29035392  0.78590265  1
  O  O31  1  0.48342626  0.70964608  0.78590265  1
  O  O32  1  0.21498274  0.48567870  0.28809448  1
  O  O33  1  0.21498274  0.51432130  0.71190552  1
  O  O34  1  0.78501726  0.51432130  0.28809448  1
  O  O35  1  0.78501726  0.48567870  0.71190552  1
  O  O36  1  0.28015776  0.22438977  0.48279103  1
  O  O37  1  0.71984224  0.22438977  0.51720897  1
  O  O38  1  0.28015776  0.77561023  0.51720897  1
  O  O39  1  0.71984224  0.77561023  0.48279103  1
