# generated using pymatgen
data_BaEuYSnO6
_symmetry_space_group_name_H-M   'P 1'
_cell_length_a   8.52292465
_cell_length_b   8.44707683
_cell_length_c   8.58776989
_cell_angle_alpha   90.00000000
_cell_angle_beta   90.00000000
_cell_angle_gamma   90.00000000
_symmetry_Int_Tables_number   1
_chemical_formula_structural   BaEuYSnO6
_chemical_formula_sum   'Ba4 Eu4 Y4 Sn4 O24'
_cell_volume   618.26618219
_cell_formula_units_Z   4
loop_
 _symmetry_equiv_pos_site_id
 _symmetry_equiv_pos_as_xyz
  1  'x, y, z'
loop_
 _atom_site_type_symbol
 _atom_site_label
 _atom_site_symmetry_multiplicity
 _atom_site_fract_x
 _atom_site_fract_y
 _atom_site_fract_z
 _atom_site_occupancy
  Ba  Ba0  1  0.00000000  -0.00000000  0.00000000  1
  Ba  Ba1  1  0.50000000  0.50000000  0.50000000  1
  Ba  Ba2  1  0.00000000  0.50000000  0.50000000  1
  Ba  Ba3  1  0.50000000  -0.00000000  0.00000000  1
  Eu  Eu4  1  0.50000000  -0.00000000  0.50000000  1
  Eu  Eu5  1  0.50000000  0.50000000  0.00000000  1
  Eu  Eu6  1  0.00000000  0.50000000  0.00000000  1
  Eu  Eu7  1  0.00000000  -0.00000000  0.50000000  1
  Y  Y8  1  0.25000000  0.25000000  0.25000000  1
  Y  Y9  1  0.75000000  0.75000000  0.25000000  1
  Y  Y10  1  0.75000000  0.25000000  0.75000000  1
  Y  Y11  1  0.25000000  0.75000000  0.75000000  1
  Sn  Sn12  1  0.75000000  0.75000000  0.75000000  1
  Sn  Sn13  1  0.25000000  0.25000000  0.75000000  1
  Sn  Sn14  1  0.25000000  0.75000000  0.25000000  1
  Sn  Sn15  1  0.75000000  0.25000000  0.25000000  1
  O  O16  1  0.99097611  0.19939948  0.29793158  1
  O  O17  1  0.00902389  0.80060052  0.29793158  1
  O  O18  1  0.00902389  0.19939948  0.70206842  1
  O  O19  1  0.99097611  0.80060052  0.70206842  1
  O  O20  1  0.28204105  0.98990506  0.21874129  1
  O  O21  1  0.28204105  0.01009494  0.78125871  1
  O  O22  1  0.71795895  0.01009494  0.21874129  1
  O  O23  1  0.71795895  0.98990506  0.78125871  1
  O  O24  1  0.19843769  0.29552517  0.99128490  1
  O  O25  1  0.80156231  0.29552517  0.00871510  1
  O  O26  1  0.19843769  0.70447483  0.00871510  1
  O  O27  1  0.80156231  0.70447483  0.99128490  1
  O  O28  1  0.50902389  0.30060052  0.20206842  1
  O  O29  1  0.49097611  0.69939948  0.20206842  1
  O  O30  1  0.49097611  0.30060052  0.79793158  1
  O  O31  1  0.50902389  0.69939948  0.79793158  1
  O  O32  1  0.21795895  0.51009494  0.28125871  1
  O  O33  1  0.21795895  0.48990506  0.71874129  1
  O  O34  1  0.78204105  0.48990506  0.28125871  1
  O  O35  1  0.78204105  0.51009494  0.71874129  1
  O  O36  1  0.30156231  0.20447483  0.50871510  1
  O  O37  1  0.69843769  0.20447483  0.49128490  1
  O  O38  1  0.30156231  0.79552517  0.49128490  1
  O  O39  1  0.69843769  0.79552517  0.50871510  1
