# generated using pymatgen
data_BaSrBiSbO6
_symmetry_space_group_name_H-M   'P 1'
_cell_length_a   8.58406049
_cell_length_b   8.58799446
_cell_length_c   8.57506111
_cell_angle_alpha   90.00000000
_cell_angle_beta   90.00000000
_cell_angle_gamma   90.00000000
_symmetry_Int_Tables_number   1
_chemical_formula_structural   BaSrBiSbO6
_chemical_formula_sum   'Ba4 Sr4 Bi4 Sb4 O24'
_cell_volume   632.15233824
_cell_formula_units_Z   4
loop_
 _symmetry_equiv_pos_site_id
 _symmetry_equiv_pos_as_xyz
  1  'x, y, z'
loop_
 _atom_site_type_symbol
 _atom_site_label
 _atom_site_symmetry_multiplicity
 _atom_site_fract_x
 _atom_site_fract_y
 _atom_site_fract_z
 _atom_site_occupancy
  Ba  Ba0  1  -0.00000000  0.00000000  -0.00000000  1
  Ba  Ba1  1  0.50000000  0.50000000  0.50000000  1
  Ba  Ba2  1  0.50000000  0.00000000  0.50000000  1
  Ba  Ba3  1  0.50000000  0.50000000  -0.00000000  1
  Sr  Sr4  1  -0.00000000  0.50000000  0.50000000  1
  Sr  Sr5  1  0.50000000  0.00000000  -0.00000000  1
  Sr  Sr6  1  -0.00000000  0.50000000  -0.00000000  1
  Sr  Sr7  1  -0.00000000  0.00000000  0.50000000  1
  Bi  Bi8  1  0.75335591  0.75047061  0.74988635  1
  Bi  Bi9  1  0.24664409  0.24952939  0.74988635  1
  Bi  Bi10  1  0.24664409  0.75047061  0.25011365  1
  Bi  Bi11  1  0.75335591  0.24952939  0.25011365  1
  Sb  Sb12  1  0.24715403  0.24979875  0.24999861  1
  Sb  Sb13  1  0.75284597  0.75020125  0.24999861  1
  Sb  Sb14  1  0.75284597  0.24979875  0.75000139  1
  Sb  Sb15  1  0.24715403  0.75020125  0.75000139  1
  O  O16  1  0.01704098  0.20803703  0.28600789  1
  O  O17  1  0.98295902  0.79196297  0.28600789  1
  O  O18  1  0.98295902  0.20803703  0.71399211  1
  O  O19  1  0.01704098  0.79196297  0.71399211  1
  O  O20  1  0.28297718  0.01924802  0.20900545  1
  O  O21  1  0.28297718  0.98075198  0.79099455  1
  O  O22  1  0.71702282  0.98075198  0.20900545  1
  O  O23  1  0.71702282  0.01924802  0.79099455  1
  O  O24  1  0.20820773  0.28643464  0.02020181  1
  O  O25  1  0.79179227  0.28643464  0.97979819  1
  O  O26  1  0.20820773  0.71356536  0.97979819  1
  O  O27  1  0.79179227  0.71356536  0.02020181  1
  O  O28  1  0.47966514  0.28023635  0.22422655  1
  O  O29  1  0.52033486  0.71976365  0.22422655  1
  O  O30  1  0.52033486  0.28023635  0.77577345  1
  O  O31  1  0.47966514  0.71976365  0.77577345  1
  O  O32  1  0.21304246  0.48132325  0.28764355  1
  O  O33  1  0.21304246  0.51867675  0.71235645  1
  O  O34  1  0.78695754  0.51867675  0.28764355  1
  O  O35  1  0.78695754  0.48132325  0.71235645  1
  O  O36  1  0.27782592  0.22153180  0.48295246  1
  O  O37  1  0.72217408  0.22153180  0.51704754  1
  O  O38  1  0.27782592  0.77846820  0.51704754  1
  O  O39  1  0.72217408  0.77846820  0.48295246  1
