# generated using pymatgen
data_SmEuMn2O6
_symmetry_space_group_name_H-M   'P 1'
_cell_length_a   7.96159731
_cell_length_b   7.96159731
_cell_length_c   7.99676582
_cell_angle_alpha   90.00000000
_cell_angle_beta   90.00000000
_cell_angle_gamma   90.00000000
_symmetry_Int_Tables_number   1
_chemical_formula_structural   SmEuMn2O6
_chemical_formula_sum   'Sm4 Eu4 Mn8 O24'
_cell_volume   506.89124874
_cell_formula_units_Z   4
loop_
 _symmetry_equiv_pos_site_id
 _symmetry_equiv_pos_as_xyz
  1  'x, y, z'
loop_
 _atom_site_type_symbol
 _atom_site_label
 _atom_site_symmetry_multiplicity
 _atom_site_fract_x
 _atom_site_fract_y
 _atom_site_fract_z
 _atom_site_occupancy
  Sm  Sm0  1  0.50000000  -0.00000000  -0.00000000  1
  Sm  Sm1  1  0.50000000  0.50000000  -0.00000000  1
  Sm  Sm2  1  0.00000000  -0.00000000  0.50000000  1
  Sm  Sm3  1  0.00000000  0.50000000  -0.00000000  1
  Eu  Eu4  1  0.50000000  -0.00000000  0.50000000  1
  Eu  Eu5  1  0.50000000  0.50000000  0.50000000  1
  Eu  Eu6  1  0.00000000  -0.00000000  -0.00000000  1
  Eu  Eu7  1  0.00000000  0.50000000  0.50000000  1
  Mn  Mn8  1  0.24997136  0.75002864  0.75092326  1
  Mn  Mn9  1  0.24997136  0.75002864  0.24907674  1
  Mn  Mn10  1  0.24997136  0.24997136  0.75092326  1
  Mn  Mn11  1  0.24997136  0.24997136  0.24907674  1
  Mn  Mn12  1  0.75002864  0.75002864  0.75092326  1
  Mn  Mn13  1  0.75002864  0.75002864  0.24907674  1
  Mn  Mn14  1  0.75002864  0.24997136  0.75092326  1
  Mn  Mn15  1  0.75002864  0.24997136  0.24907674  1
  O  O16  1  0.25263625  0.74736375  -0.00000000  1
  O  O17  1  0.24748306  0.75251694  0.50000000  1
  O  O18  1  0.25263625  0.25263625  -0.00000000  1
  O  O19  1  0.24748306  0.24748306  0.50000000  1
  O  O20  1  0.74736375  0.74736375  -0.00000000  1
  O  O21  1  0.75251694  0.75251694  0.50000000  1
  O  O22  1  0.74736375  0.25263625  -0.00000000  1
  O  O23  1  0.75251694  0.24748306  0.50000000  1
  O  O24  1  0.50000000  0.75048348  0.75495632  1
  O  O25  1  0.50000000  0.75048348  0.24504368  1
  O  O26  1  0.50000000  0.24951652  0.75495632  1
  O  O27  1  0.50000000  0.24951652  0.24504368  1
  O  O28  1  0.00000000  0.74935486  0.74945383  1
  O  O29  1  0.00000000  0.74935486  0.25054617  1
  O  O30  1  0.00000000  0.25064514  0.74945383  1
  O  O31  1  0.00000000  0.25064514  0.25054617  1
  O  O32  1  0.25064514  -0.00000000  0.74945383  1
  O  O33  1  0.25064514  -0.00000000  0.25054617  1
  O  O34  1  0.24951652  0.50000000  0.75495632  1
  O  O35  1  0.24951652  0.50000000  0.24504368  1
  O  O36  1  0.74935486  -0.00000000  0.74945383  1
  O  O37  1  0.74935486  -0.00000000  0.25054617  1
  O  O38  1  0.75048348  0.50000000  0.75495632  1
  O  O39  1  0.75048348  0.50000000  0.24504368  1
