# generated using pymatgen
data_Ca2LaSbO6
_symmetry_space_group_name_H-M   'P 1'
_cell_length_a   8.38303115
_cell_length_b   8.38303115
_cell_length_c   8.38303115
_cell_angle_alpha   90.00000000
_cell_angle_beta   90.00000000
_cell_angle_gamma   90.00000000
_symmetry_Int_Tables_number   1
_chemical_formula_structural   Ca2LaSbO6
_chemical_formula_sum   'Ca8 La4 Sb4 O24'
_cell_volume   589.11928508
_cell_formula_units_Z   4
loop_
 _symmetry_equiv_pos_site_id
 _symmetry_equiv_pos_as_xyz
  1  'x, y, z'
loop_
 _atom_site_type_symbol
 _atom_site_label
 _atom_site_symmetry_multiplicity
 _atom_site_fract_x
 _atom_site_fract_y
 _atom_site_fract_z
 _atom_site_occupancy
  Ca  Ca0  1  0.50000000  0.50000000  0.50000000  1
  Ca  Ca1  1  -0.00000000  -0.00000000  0.00000000  1
  Ca  Ca2  1  -0.00000000  -0.00000000  0.50000000  1
  Ca  Ca3  1  -0.00000000  0.50000000  0.00000000  1
  Ca  Ca4  1  0.50000000  -0.00000000  0.00000000  1
  Ca  Ca5  1  0.50000000  0.50000000  0.00000000  1
  Ca  Ca6  1  0.50000000  -0.00000000  0.50000000  1
  Ca  Ca7  1  -0.00000000  0.50000000  0.50000000  1
  La  La8  1  0.75000000  0.75000000  0.75000000  1
  La  La9  1  0.75000000  0.25000000  0.25000000  1
  La  La10  1  0.25000000  0.75000000  0.25000000  1
  La  La11  1  0.25000000  0.25000000  0.75000000  1
  Sb  Sb12  1  0.25000000  0.25000000  0.25000000  1
  Sb  Sb13  1  0.25000000  0.75000000  0.75000000  1
  Sb  Sb14  1  0.75000000  0.25000000  0.75000000  1
  Sb  Sb15  1  0.75000000  0.75000000  0.25000000  1
  O  O16  1  0.20426145  0.31062331  0.47804850  1
  O  O17  1  0.20426145  0.68937669  0.52195150  1
  O  O18  1  0.79573855  0.31062331  0.52195150  1
  O  O19  1  0.79573855  0.68937669  0.47804850  1
  O  O20  1  0.31062331  0.47804850  0.20426145  1
  O  O21  1  0.68937669  0.52195150  0.20426145  1
  O  O22  1  0.31062331  0.52195150  0.79573855  1
  O  O23  1  0.68937669  0.47804850  0.79573855  1
  O  O24  1  0.47804850  0.20426145  0.31062331  1
  O  O25  1  0.52195150  0.20426145  0.68937669  1
  O  O26  1  0.52195150  0.79573855  0.31062331  1
  O  O27  1  0.47804850  0.79573855  0.68937669  1
  O  O28  1  0.29573855  0.18937669  0.02195150  1
  O  O29  1  0.29573855  0.81062331  0.97804850  1
  O  O30  1  0.70426145  0.18937669  0.97804850  1
  O  O31  1  0.70426145  0.81062331  0.02195150  1
  O  O32  1  0.18937669  0.02195150  0.29573855  1
  O  O33  1  0.81062331  0.97804850  0.29573855  1
  O  O34  1  0.18937669  0.97804850  0.70426145  1
  O  O35  1  0.81062331  0.02195150  0.70426145  1
  O  O36  1  0.02195150  0.29573855  0.18937669  1
  O  O37  1  0.97804850  0.29573855  0.81062331  1
  O  O38  1  0.97804850  0.70426145  0.18937669  1
  O  O39  1  0.02195150  0.70426145  0.81062331  1
