# generated using pymatgen
data_Sr2NbBiO6
_symmetry_space_group_name_H-M   'P 1'
_cell_length_a   8.51732627
_cell_length_b   8.51732627
_cell_length_c   8.51732627
_cell_angle_alpha   90.00000000
_cell_angle_beta   90.00000000
_cell_angle_gamma   90.00000000
_symmetry_Int_Tables_number   1
_chemical_formula_structural   Sr2NbBiO6
_chemical_formula_sum   'Sr8 Nb4 Bi4 O24'
_cell_volume   617.88812931
_cell_formula_units_Z   4
loop_
 _symmetry_equiv_pos_site_id
 _symmetry_equiv_pos_as_xyz
  1  'x, y, z'
loop_
 _atom_site_type_symbol
 _atom_site_label
 _atom_site_symmetry_multiplicity
 _atom_site_fract_x
 _atom_site_fract_y
 _atom_site_fract_z
 _atom_site_occupancy
  Sr  Sr0  1  0.50000000  0.50000000  0.50000000  1
  Sr  Sr1  1  -0.00000000  0.00000000  -0.00000000  1
  Sr  Sr2  1  -0.00000000  0.00000000  0.50000000  1
  Sr  Sr3  1  -0.00000000  0.50000000  -0.00000000  1
  Sr  Sr4  1  0.50000000  0.00000000  -0.00000000  1
  Sr  Sr5  1  0.50000000  0.50000000  -0.00000000  1
  Sr  Sr6  1  0.50000000  0.00000000  0.50000000  1
  Sr  Sr7  1  -0.00000000  0.50000000  0.50000000  1
  Nb  Nb8  1  0.25000000  0.25000000  0.25000000  1
  Nb  Nb9  1  0.25000000  0.75000000  0.75000000  1
  Nb  Nb10  1  0.75000000  0.25000000  0.75000000  1
  Nb  Nb11  1  0.75000000  0.75000000  0.25000000  1
  Bi  Bi12  1  0.75000000  0.75000000  0.75000000  1
  Bi  Bi13  1  0.75000000  0.25000000  0.25000000  1
  Bi  Bi14  1  0.25000000  0.75000000  0.25000000  1
  Bi  Bi15  1  0.25000000  0.25000000  0.75000000  1
  O  O16  1  0.21301215  0.29689791  0.48053084  1
  O  O17  1  0.21301215  0.70310209  0.51946916  1
  O  O18  1  0.78698785  0.29689791  0.51946916  1
  O  O19  1  0.78698785  0.70310209  0.48053084  1
  O  O20  1  0.29689791  0.48053084  0.21301215  1
  O  O21  1  0.70310209  0.51946916  0.21301215  1
  O  O22  1  0.29689791  0.51946916  0.78698785  1
  O  O23  1  0.70310209  0.48053084  0.78698785  1
  O  O24  1  0.48053084  0.21301215  0.29689791  1
  O  O25  1  0.51946916  0.21301215  0.70310209  1
  O  O26  1  0.51946916  0.78698785  0.29689791  1
  O  O27  1  0.48053084  0.78698785  0.70310209  1
  O  O28  1  0.28698785  0.20310209  0.01946916  1
  O  O29  1  0.28698785  0.79689791  0.98053084  1
  O  O30  1  0.71301215  0.20310209  0.98053084  1
  O  O31  1  0.71301215  0.79689791  0.01946916  1
  O  O32  1  0.20310209  0.01946916  0.28698785  1
  O  O33  1  0.79689791  0.98053084  0.28698785  1
  O  O34  1  0.20310209  0.98053084  0.71301215  1
  O  O35  1  0.79689791  0.01946916  0.71301215  1
  O  O36  1  0.01946916  0.28698785  0.20310209  1
  O  O37  1  0.98053084  0.28698785  0.79689791  1
  O  O38  1  0.98053084  0.71301215  0.20310209  1
  O  O39  1  0.01946916  0.71301215  0.79689791  1
