# generated using pymatgen
data_BaSrTbWO6
_symmetry_space_group_name_H-M   'P 1'
_cell_length_a   5.99875074
_cell_length_b   5.97479398
_cell_length_c   8.42259734
_cell_angle_alpha   89.94162732
_cell_angle_beta   90.56293084
_cell_angle_gamma   90.32848669
_symmetry_Int_Tables_number   1
_chemical_formula_structural   BaSrTbWO6
_chemical_formula_sum   'Ba2 Sr2 Tb2 W2 O12'
_cell_volume   301.85716545
_cell_formula_units_Z   2
loop_
 _symmetry_equiv_pos_site_id
 _symmetry_equiv_pos_as_xyz
  1  'x, y, z'
loop_
 _atom_site_type_symbol
 _atom_site_label
 _atom_site_symmetry_multiplicity
 _atom_site_fract_x
 _atom_site_fract_y
 _atom_site_fract_z
 _atom_site_occupancy
  Ba  Ba0  1  0.50569254  0.52159156  0.24858628  1
  Ba  Ba1  1  0.49430746  0.47840844  0.75141372  1
  Sr  Sr2  1  0.99586670  0.02400053  0.25172606  1
  Sr  Sr3  1  0.00413330  0.97599947  0.74827394  1
  Tb  Tb4  1  -0.00000000  0.50000000  -0.00000000  1
  Tb  Tb5  1  0.50000000  -0.00000000  0.50000000  1
  W  W6  1  0.50000000  -0.00000000  -0.00000000  1
  W  W7  1  -0.00000000  0.50000000  0.50000000  1
  O  O8  1  0.23231294  0.20117064  0.96969666  1
  O  O9  1  0.25986078  0.70886101  0.52632426  1
  O  O10  1  0.76768706  0.79882936  0.03030334  1
  O  O11  1  0.74013922  0.29113899  0.47367574  1
  O  O12  1  0.28783221  0.73759912  0.96575992  1
  O  O13  1  0.20362826  0.22786415  0.53323233  1
  O  O14  1  0.71216779  0.26240088  0.03424008  1
  O  O15  1  0.79637174  0.77213585  0.46676767  1
  O  O16  1  0.43326587  0.99969136  0.23326335  1
  O  O17  1  0.05639923  0.49118184  0.26614810  1
  O  O18  1  0.56673413  0.00030864  0.76673665  1
  O  O19  1  0.94360077  0.50881816  0.73385190  1
