# generated using pymatgen
data_Ca2LaSbO6
_symmetry_space_group_name_H-M   'P 1'
_cell_length_a   5.90699417
_cell_length_b   5.90699417
_cell_length_c   8.54932360
_cell_angle_alpha   90.00000000
_cell_angle_beta   90.00000000
_cell_angle_gamma   90.00000000
_symmetry_Int_Tables_number   1
_chemical_formula_structural   Ca2LaSbO6
_chemical_formula_sum   'Ca4 La2 Sb2 O12'
_cell_volume   298.30795872
_cell_formula_units_Z   2
loop_
 _symmetry_equiv_pos_site_id
 _symmetry_equiv_pos_as_xyz
  1  'x, y, z'
loop_
 _atom_site_type_symbol
 _atom_site_label
 _atom_site_symmetry_multiplicity
 _atom_site_fract_x
 _atom_site_fract_y
 _atom_site_fract_z
 _atom_site_occupancy
  Ca  Ca0  1  0.50000000  0.00000000  0.75000000  1
  Ca  Ca1  1  0.00000000  0.50000000  0.75000000  1
  Ca  Ca2  1  0.50000000  -0.00000000  0.25000000  1
  Ca  Ca3  1  0.00000000  0.50000000  0.25000000  1
  La  La4  1  0.50000000  0.50000000  0.50000000  1
  La  La5  1  0.00000000  0.00000000  -0.00000000  1
  Sb  Sb6  1  0.50000000  0.50000000  -0.00000000  1
  Sb  Sb7  1  0.00000000  0.00000000  0.50000000  1
  O  O8  1  0.50000000  0.50000000  0.76692241  1
  O  O9  1  0.00000000  -0.00000000  0.73307759  1
  O  O10  1  0.50000000  0.50000000  0.23307759  1
  O  O11  1  0.00000000  0.00000000  0.26692241  1
  O  O12  1  0.68836008  0.14115472  0.50000000  1
  O  O13  1  0.31163992  0.85884528  0.50000000  1
  O  O14  1  0.85884528  0.68836008  0.50000000  1
  O  O15  1  0.14115472  0.31163992  0.50000000  1
  O  O16  1  0.81163992  0.64115472  -0.00000000  1
  O  O17  1  0.18836008  0.35884528  -0.00000000  1
  O  O18  1  0.64115472  0.18836008  -0.00000000  1
  O  O19  1  0.35884528  0.81163992  -0.00000000  1
