# generated using pymatgen
data_NaEu(FeO3)4
_symmetry_space_group_name_H-M   'P 1'
_cell_length_a   6.96989300
_cell_length_b   6.96989300
_cell_length_c   9.76598538
_cell_angle_alpha   90.00000000
_cell_angle_beta   90.00000000
_cell_angle_gamma   93.26778340
_symmetry_Int_Tables_number   1
_chemical_formula_structural   NaEu(FeO3)4
_chemical_formula_sum   'Na1 Eu1 Fe4 O12'
_cell_volume   473.65438842
_cell_formula_units_Z   1
loop_
 _symmetry_equiv_pos_site_id
 _symmetry_equiv_pos_as_xyz
  1  'x, y, z'
loop_
 _atom_site_type_symbol
 _atom_site_label
 _atom_site_symmetry_multiplicity
 _atom_site_fract_x
 _atom_site_fract_y
 _atom_site_fract_z
 _atom_site_occupancy
  Na  Na0  1  0.00160424  -0.00160424  0.50000000  1
  Eu  Eu1  1  0.48122447  0.51877553  0.00000000  1
  Fe  Fe2  1  0.54638836  0.02183910  0.26728565  1
  Fe  Fe3  1  0.54638836  0.02183910  0.73271435  1
  Fe  Fe4  1  0.97816090  0.45361164  0.73271435  1
  Fe  Fe5  1  0.97816090  0.45361164  0.26728565  1
  O  O6  1  0.29770267  0.30354126  0.26038616  1
  O  O7  1  0.69645874  0.70229733  0.26038616  1
  O  O8  1  0.69645874  0.70229733  0.73961384  1
  O  O9  1  0.29770267  0.30354126  0.73961384  1
  O  O10  1  0.17435419  0.82564581  0.17299575  1
  O  O11  1  0.79412908  0.20587092  0.29717754  1
  O  O12  1  0.79412908  0.20587092  0.70282246  1
  O  O13  1  0.17435419  0.82564581  0.82700425  1
  O  O14  1  0.57130615  0.03910540  0.00000000  1
  O  O15  1  0.42897335  0.93209070  0.50000000  1
  O  O16  1  0.96089460  0.42869385  0.00000000  1
  O  O17  1  0.06790930  0.57102665  0.50000000  1
