# generated using pymatgen
data_BaNaPrMnO6
_symmetry_space_group_name_H-M   'P 1'
_cell_length_a   8.47826761
_cell_length_b   8.43461051
_cell_length_c   8.46098307
_cell_angle_alpha   90.00000000
_cell_angle_beta   90.00000000
_cell_angle_gamma   90.00000000
_symmetry_Int_Tables_number   1
_chemical_formula_structural   BaNaPrMnO6
_chemical_formula_sum   'Ba4 Na4 Pr4 Mn4 O24'
_cell_volume   605.05238807
_cell_formula_units_Z   4
loop_
 _symmetry_equiv_pos_site_id
 _symmetry_equiv_pos_as_xyz
  1  'x, y, z'
loop_
 _atom_site_type_symbol
 _atom_site_label
 _atom_site_symmetry_multiplicity
 _atom_site_fract_x
 _atom_site_fract_y
 _atom_site_fract_z
 _atom_site_occupancy
  Ba  Ba0  1  0.00000000  0.00000000  0.00000000  1
  Ba  Ba1  1  0.50000000  0.50000000  0.50000000  1
  Ba  Ba2  1  -0.00000000  0.50000000  0.50000000  1
  Ba  Ba3  1  0.50000000  0.00000000  0.00000000  1
  Na  Na4  1  0.50000000  0.00000000  0.50000000  1
  Na  Na5  1  0.50000000  0.50000000  0.00000000  1
  Na  Na6  1  -0.00000000  0.50000000  0.00000000  1
  Na  Na7  1  -0.00000000  0.00000000  0.50000000  1
  Pr  Pr8  1  0.25000000  0.25000000  0.25000000  1
  Pr  Pr9  1  0.75000000  0.75000000  0.25000000  1
  Pr  Pr10  1  0.75000000  0.25000000  0.75000000  1
  Pr  Pr11  1  0.25000000  0.75000000  0.75000000  1
  Mn  Mn12  1  0.75000000  0.75000000  0.75000000  1
  Mn  Mn13  1  0.25000000  0.25000000  0.75000000  1
  Mn  Mn14  1  0.25000000  0.75000000  0.25000000  1
  Mn  Mn15  1  0.75000000  0.25000000  0.25000000  1
  O  O16  1  0.97458123  0.22627787  0.27397328  1
  O  O17  1  0.02541877  0.77372213  0.27397328  1
  O  O18  1  0.02541877  0.22627787  0.72602672  1
  O  O19  1  0.97458123  0.77372213  0.72602672  1
  O  O20  1  0.26793476  0.97463467  0.22202833  1
  O  O21  1  0.26793476  0.02536533  0.77797167  1
  O  O22  1  0.73206524  0.02536533  0.22202833  1
  O  O23  1  0.73206524  0.97463467  0.77797167  1
  O  O24  1  0.22398630  0.26666929  0.97406830  1
  O  O25  1  0.77601370  0.26666929  0.02593170  1
  O  O26  1  0.22398630  0.73333071  0.02593170  1
  O  O27  1  0.77601370  0.73333071  0.97406830  1
  O  O28  1  0.52541877  0.27372213  0.22602672  1
  O  O29  1  0.47458123  0.72627787  0.22602672  1
  O  O30  1  0.47458123  0.27372213  0.77397328  1
  O  O31  1  0.52541877  0.72627787  0.77397328  1
  O  O32  1  0.23206524  0.52536533  0.27797167  1
  O  O33  1  0.23206524  0.47463467  0.72202833  1
  O  O34  1  0.76793476  0.47463467  0.27797167  1
  O  O35  1  0.76793476  0.52536533  0.72202833  1
  O  O36  1  0.27601370  0.23333071  0.52593170  1
  O  O37  1  0.72398630  0.23333071  0.47406830  1
  O  O38  1  0.27601370  0.76666929  0.47406830  1
  O  O39  1  0.72398630  0.76666929  0.52593170  1
