# generated using pymatgen
data_BaCeEuWO6
_symmetry_space_group_name_H-M   'P 1'
_cell_length_a   6.01230211
_cell_length_b   6.09433405
_cell_length_c   8.51571485
_cell_angle_alpha   89.94606110
_cell_angle_beta   90.33754094
_cell_angle_gamma   90.23838334
_symmetry_Int_Tables_number   1
_chemical_formula_structural   BaCeEuWO6
_chemical_formula_sum   'Ba2 Ce2 Eu2 W2 O12'
_cell_volume   312.01586981
_cell_formula_units_Z   2
loop_
 _symmetry_equiv_pos_site_id
 _symmetry_equiv_pos_as_xyz
  1  'x, y, z'
loop_
 _atom_site_type_symbol
 _atom_site_label
 _atom_site_symmetry_multiplicity
 _atom_site_fract_x
 _atom_site_fract_y
 _atom_site_fract_z
 _atom_site_occupancy
  Ba  Ba0  1  0.50947501  0.53144837  0.25084919  1
  Ba  Ba1  1  0.49052499  0.46855163  0.74915081  1
  Ce  Ce2  1  0.00000000  0.50000000  -0.00000000  1
  Ce  Ce3  1  0.50000000  -0.00000000  0.50000000  1
  Eu  Eu4  1  0.99070111  0.04066654  0.25143089  1
  Eu  Eu5  1  0.00929889  0.95933346  0.74856911  1
  W  W6  1  0.50000000  -0.00000000  -0.00000000  1
  W  W7  1  0.00000000  0.50000000  0.50000000  1
  O  O8  1  0.21077238  0.19902679  0.95414357  1
  O  O9  1  0.26970290  0.71745493  0.53893530  1
  O  O10  1  0.78922762  0.80097321  0.04585643  1
  O  O11  1  0.73029710  0.28254507  0.46106470  1
  O  O12  1  0.29251060  0.73412588  0.95905525  1
  O  O13  1  0.18973002  0.21434379  0.54404795  1
  O  O14  1  0.70748940  0.26587412  0.04094475  1
  O  O15  1  0.81026998  0.78565621  0.45595205  1
  O  O16  1  0.40354278  0.99366360  0.23528300  1
  O  O17  1  0.06260524  0.46498003  0.26362635  1
  O  O18  1  0.59645722  0.00633640  0.76471700  1
  O  O19  1  0.93739476  0.53501997  0.73637365  1
