# generated using pymatgen
data_SrCaLaBiO6
_symmetry_space_group_name_H-M   'P 1'
_cell_length_a   5.97705815
_cell_length_b   5.97705815
_cell_length_c   8.63655261
_cell_angle_alpha   90.00000000
_cell_angle_beta   90.00000000
_cell_angle_gamma   90.00000000
_symmetry_Int_Tables_number   1
_chemical_formula_structural   SrCaLaBiO6
_chemical_formula_sum   'Sr2 Ca2 La2 Bi2 O12'
_cell_volume   308.54277769
_cell_formula_units_Z   2
loop_
 _symmetry_equiv_pos_site_id
 _symmetry_equiv_pos_as_xyz
  1  'x, y, z'
loop_
 _atom_site_type_symbol
 _atom_site_label
 _atom_site_symmetry_multiplicity
 _atom_site_fract_x
 _atom_site_fract_y
 _atom_site_fract_z
 _atom_site_occupancy
  Sr  Sr0  1  0.50000000  0.00000000  0.25000000  1
  Sr  Sr1  1  0.00000000  0.50000000  0.75000000  1
  Ca  Ca2  1  0.00000000  0.00000000  0.50000000  1
  Ca  Ca3  1  0.50000000  0.50000000  -0.00000000  1
  La  La4  1  0.00000000  0.50000000  0.25000000  1
  La  La5  1  0.50000000  0.00000000  0.75000000  1
  Bi  Bi6  1  0.00000000  -0.00000000  -0.00000000  1
  Bi  Bi7  1  0.50000000  0.50000000  0.50000000  1
  O  O8  1  0.00000000  0.00000000  0.24364243  1
  O  O9  1  0.50000000  0.50000000  0.25635757  1
  O  O10  1  0.00000000  0.00000000  0.75635757  1
  O  O11  1  0.50000000  0.50000000  0.74364243  1
  O  O12  1  0.32000683  0.15701790  0.98662289  1
  O  O13  1  0.67999317  0.84298210  0.98662289  1
  O  O14  1  0.84298210  0.32000683  0.01337711  1
  O  O15  1  0.15701790  0.67999317  0.01337711  1
  O  O16  1  0.82000683  0.34298210  0.48662289  1
  O  O17  1  0.17999317  0.65701790  0.48662289  1
  O  O18  1  0.34298210  0.17999317  0.51337711  1
  O  O19  1  0.65701790  0.82000683  0.51337711  1
