# generated using pymatgen
data_KLa(SnO3)4
_symmetry_space_group_name_H-M   'P 1'
_cell_length_a   5.76623369
_cell_length_b   5.76623369
_cell_length_c   8.24421101
_cell_angle_alpha   90.00000000
_cell_angle_beta   90.00000000
_cell_angle_gamma   89.75521705
_symmetry_Int_Tables_number   1
_chemical_formula_structural   KLa(SnO3)4
_chemical_formula_sum   'K1 La1 Sn4 O12'
_cell_volume   274.11298860
_cell_formula_units_Z   1
loop_
 _symmetry_equiv_pos_site_id
 _symmetry_equiv_pos_as_xyz
  1  'x, y, z'
loop_
 _atom_site_type_symbol
 _atom_site_label
 _atom_site_symmetry_multiplicity
 _atom_site_fract_x
 _atom_site_fract_y
 _atom_site_fract_z
 _atom_site_occupancy
  K  K0  1  0.99852827  0.00147173  0.50000000  1
  La  La1  1  0.50072754  0.49927246  0.00000000  1
  Sn  Sn2  1  0.49790732  0.00040689  0.25679200  1
  Sn  Sn3  1  0.49790732  0.00040689  0.74320800  1
  Sn  Sn4  1  0.99959311  0.50209268  0.74320800  1
  Sn  Sn5  1  0.99959311  0.50209268  0.25679200  1
  O  O6  1  0.27677093  0.28002813  0.22106566  1
  O  O7  1  0.71997187  0.72322907  0.22106566  1
  O  O8  1  0.71997187  0.72322907  0.77893434  1
  O  O9  1  0.27677093  0.28002813  0.77893434  1
  O  O10  1  0.25339933  0.74660067  0.20404468  1
  O  O11  1  0.76516165  0.23483835  0.25570656  1
  O  O12  1  0.76516165  0.23483835  0.74429344  1
  O  O13  1  0.25339933  0.74660067  0.79595532  1
  O  O14  1  0.51837019  0.04969180  0.00000000  1
  O  O15  1  0.47799263  0.98163526  0.50000000  1
  O  O16  1  0.95030820  0.48162981  0.00000000  1
  O  O17  1  0.01836474  0.52200737  0.50000000  1
