# generated using pymatgen
data_SrCaLaBiO6
_symmetry_space_group_name_H-M   'P 1'
_cell_length_a   8.49613528
_cell_length_b   8.54182870
_cell_length_c   8.55583854
_cell_angle_alpha   90.00000000
_cell_angle_beta   90.00000000
_cell_angle_gamma   90.00000000
_symmetry_Int_Tables_number   1
_chemical_formula_structural   SrCaLaBiO6
_chemical_formula_sum   'Sr4 Ca4 La4 Bi4 O24'
_cell_volume   620.91886772
_cell_formula_units_Z   4
loop_
 _symmetry_equiv_pos_site_id
 _symmetry_equiv_pos_as_xyz
  1  'x, y, z'
loop_
 _atom_site_type_symbol
 _atom_site_label
 _atom_site_symmetry_multiplicity
 _atom_site_fract_x
 _atom_site_fract_y
 _atom_site_fract_z
 _atom_site_occupancy
  Sr  Sr0  1  0.50000000  -0.00000000  0.50000000  1
  Sr  Sr1  1  0.50000000  0.50000000  0.00000000  1
  Sr  Sr2  1  0.00000000  0.50000000  0.00000000  1
  Sr  Sr3  1  -0.00000000  0.00000000  0.50000000  1
  Ca  Ca4  1  0.25000000  0.25000000  0.25000000  1
  Ca  Ca5  1  0.75000000  0.75000000  0.25000000  1
  Ca  Ca6  1  0.75000000  0.25000000  0.75000000  1
  Ca  Ca7  1  0.25000000  0.75000000  0.75000000  1
  La  La8  1  0.00000000  0.50000000  0.50000000  1
  La  La9  1  0.50000000  -0.00000000  0.00000000  1
  La  La10  1  0.00000000  0.00000000  0.00000000  1
  La  La11  1  0.50000000  0.50000000  0.50000000  1
  Bi  Bi12  1  0.75000000  0.75000000  0.75000000  1
  Bi  Bi13  1  0.25000000  0.25000000  0.75000000  1
  Bi  Bi14  1  0.25000000  0.75000000  0.25000000  1
  Bi  Bi15  1  0.75000000  0.25000000  0.25000000  1
  O  O16  1  0.98987237  0.19592063  0.28419513  1
  O  O17  1  0.01012763  0.80407937  0.28419513  1
  O  O18  1  0.01012763  0.19592063  0.71580487  1
  O  O19  1  0.98987237  0.80407937  0.71580487  1
  O  O20  1  0.29061538  0.99094844  0.18772168  1
  O  O21  1  0.29061538  0.00905156  0.81227832  1
  O  O22  1  0.70938462  0.00905156  0.18772168  1
  O  O23  1  0.70938462  0.99094844  0.81227832  1
  O  O24  1  0.19679523  0.28135819  0.98911884  1
  O  O25  1  0.80320477  0.28135819  0.01088116  1
  O  O26  1  0.19679523  0.71864181  0.01088116  1
  O  O27  1  0.80320477  0.71864181  0.98911884  1
  O  O28  1  0.51012763  0.30407937  0.21580487  1
  O  O29  1  0.48987237  0.69592063  0.21580487  1
  O  O30  1  0.48987237  0.30407937  0.78419513  1
  O  O31  1  0.51012763  0.69592063  0.78419513  1
  O  O32  1  0.20938462  0.50905156  0.31227832  1
  O  O33  1  0.20938462  0.49094844  0.68772168  1
  O  O34  1  0.79061538  0.49094844  0.31227832  1
  O  O35  1  0.79061538  0.50905156  0.68772168  1
  O  O36  1  0.30320477  0.21864181  0.51088116  1
  O  O37  1  0.69679523  0.21864181  0.48911884  1
  O  O38  1  0.30320477  0.78135819  0.48911884  1
  O  O39  1  0.69679523  0.78135819  0.51088116  1
