# generated using pymatgen
data_NaSrPrBiO6
_symmetry_space_group_name_H-M   'P 1'
_cell_length_a   8.70218098
_cell_length_b   8.49869483
_cell_length_c   8.61116250
_cell_angle_alpha   90.00000000
_cell_angle_beta   90.00000000
_cell_angle_gamma   90.00000000
_symmetry_Int_Tables_number   1
_chemical_formula_structural   NaSrPrBiO6
_chemical_formula_sum   'Na4 Sr4 Pr4 Bi4 O24'
_cell_volume   636.85729937
_cell_formula_units_Z   4
loop_
 _symmetry_equiv_pos_site_id
 _symmetry_equiv_pos_as_xyz
  1  'x, y, z'
loop_
 _atom_site_type_symbol
 _atom_site_label
 _atom_site_symmetry_multiplicity
 _atom_site_fract_x
 _atom_site_fract_y
 _atom_site_fract_z
 _atom_site_occupancy
  Na  Na0  1  0.00000000  -0.00000000  0.00000000  1
  Na  Na1  1  0.50000000  0.50000000  0.50000000  1
  Na  Na2  1  0.50000000  -0.00000000  0.50000000  1
  Na  Na3  1  0.00000000  0.50000000  0.00000000  1
  Sr  Sr4  1  0.00000000  0.50000000  0.50000000  1
  Sr  Sr5  1  0.50000000  0.50000000  0.00000000  1
  Sr  Sr6  1  0.50000000  -0.00000000  0.00000000  1
  Sr  Sr7  1  0.00000000  -0.00000000  0.50000000  1
  Pr  Pr8  1  0.25000000  0.25000000  0.25000000  1
  Pr  Pr9  1  0.75000000  0.75000000  0.25000000  1
  Pr  Pr10  1  0.75000000  0.25000000  0.75000000  1
  Pr  Pr11  1  0.25000000  0.75000000  0.75000000  1
  Bi  Bi12  1  0.75000000  0.75000000  0.75000000  1
  Bi  Bi13  1  0.25000000  0.25000000  0.75000000  1
  Bi  Bi14  1  0.25000000  0.75000000  0.25000000  1
  Bi  Bi15  1  0.75000000  0.25000000  0.25000000  1
  O  O16  1  0.98809588  0.24984219  0.31135566  1
  O  O17  1  0.01190412  0.75015781  0.31135566  1
  O  O18  1  0.01190412  0.24984219  0.68864434  1
  O  O19  1  0.98809588  0.75015781  0.68864434  1
  O  O20  1  0.23543353  0.98622034  0.16800041  1
  O  O21  1  0.23543353  0.01377966  0.83199959  1
  O  O22  1  0.76456647  0.01377966  0.16800041  1
  O  O23  1  0.76456647  0.98622034  0.83199959  1
  O  O24  1  0.21550026  0.33495945  0.98594788  1
  O  O25  1  0.78449974  0.33495945  0.01405212  1
  O  O26  1  0.21550026  0.66504055  0.01405212  1
  O  O27  1  0.78449974  0.66504055  0.98594788  1
  O  O28  1  0.51190412  0.25015781  0.18864434  1
  O  O29  1  0.48809588  0.74984219  0.18864434  1
  O  O30  1  0.48809588  0.25015781  0.81135566  1
  O  O31  1  0.51190412  0.74984219  0.81135566  1
  O  O32  1  0.26456647  0.51377966  0.33199959  1
  O  O33  1  0.26456647  0.48622034  0.66800041  1
  O  O34  1  0.73543353  0.48622034  0.33199959  1
  O  O35  1  0.73543353  0.51377966  0.66800041  1
  O  O36  1  0.28449974  0.16504055  0.51405212  1
  O  O37  1  0.71550026  0.16504055  0.48594788  1
  O  O38  1  0.28449974  0.83495945  0.48594788  1
  O  O39  1  0.71550026  0.83495945  0.51405212  1
