# generated using pymatgen
data_SbPt3
_symmetry_space_group_name_H-M   'P 1'
_cell_length_a   9.07203096
_cell_length_b   9.07203096
_cell_length_c   9.07203096
_cell_angle_alpha   154.49527252
_cell_angle_beta   154.49527252
_cell_angle_gamma   36.38013244
_symmetry_Int_Tables_number   1
_chemical_formula_structural   SbPt3
_chemical_formula_sum   'Sb2 Pt6'
_cell_volume   138.24901897
_cell_formula_units_Z   2
loop_
 _symmetry_equiv_pos_site_id
 _symmetry_equiv_pos_as_xyz
  1  'x, y, z'
loop_
 _atom_site_type_symbol
 _atom_site_label
 _atom_site_symmetry_multiplicity
 _atom_site_fract_x
 _atom_site_fract_y
 _atom_site_fract_z
 _atom_site_occupancy
  Sb  Sb0  1  0.86434400  0.86434400  0.00000000  1
  Sb  Sb1  1  0.13565600  0.13565600  0.00000000  1
  Pt  Pt2  1  0.00000000  0.50000000  0.50000000  1
  Pt  Pt3  1  0.50000000  0.00000000  0.50000000  1
  Pt  Pt4  1  0.75000000  0.25000000  0.50000000  1
  Pt  Pt5  1  0.25000000  0.75000000  0.50000000  1
  Pt  Pt6  1  0.61426600  0.61426600  0.00000000  1
  Pt  Pt7  1  0.38573400  0.38573400  0.00000000  1
