# generated using pymatgen
data_BaCeEuWO6
_symmetry_space_group_name_H-M   'P 1'
_cell_length_a   8.82389686
_cell_length_b   8.80669950
_cell_length_c   8.78273480
_cell_angle_alpha   90.00000000
_cell_angle_beta   90.00000000
_cell_angle_gamma   90.00000000
_symmetry_Int_Tables_number   1
_chemical_formula_structural   BaCeEuWO6
_chemical_formula_sum   'Ba4 Ce4 Eu4 W4 O24'
_cell_volume   682.50112250
_cell_formula_units_Z   4
loop_
 _symmetry_equiv_pos_site_id
 _symmetry_equiv_pos_as_xyz
  1  'x, y, z'
loop_
 _atom_site_type_symbol
 _atom_site_label
 _atom_site_symmetry_multiplicity
 _atom_site_fract_x
 _atom_site_fract_y
 _atom_site_fract_z
 _atom_site_occupancy
  Ba  Ba0  1  0.00000000  0.00000000  0.00000000  1
  Ba  Ba1  1  0.50000000  0.50000000  0.50000000  1
  Ba  Ba2  1  0.50000000  0.00000000  0.50000000  1
  Ba  Ba3  1  0.00000000  0.00000000  0.50000000  1
  Ce  Ce4  1  0.75058049  0.74884105  0.75046237  1
  Ce  Ce5  1  0.24941951  0.25115895  0.75046237  1
  Ce  Ce6  1  0.24941951  0.74884105  0.24953763  1
  Ce  Ce7  1  0.75058049  0.25115895  0.24953763  1
  Eu  Eu8  1  0.00000000  0.50000000  0.50000000  1
  Eu  Eu9  1  0.50000000  0.50000000  0.00000000  1
  Eu  Eu10  1  0.50000000  0.00000000  0.00000000  1
  Eu  Eu11  1  0.00000000  0.50000000  0.00000000  1
  W  W12  1  0.24925726  0.25084744  0.25042292  1
  W  W13  1  0.75074274  0.74915256  0.25042292  1
  W  W14  1  0.75074274  0.25084744  0.74957708  1
  W  W15  1  0.24925726  0.74915256  0.74957708  1
  O  O16  1  0.01257269  0.21178126  0.28346551  1
  O  O17  1  0.98742731  0.78821874  0.28346551  1
  O  O18  1  0.98742731  0.21178126  0.71653449  1
  O  O19  1  0.01257269  0.78821874  0.71653449  1
  O  O20  1  0.28800394  0.01645614  0.20572418  1
  O  O21  1  0.28800394  0.98354386  0.79427582  1
  O  O22  1  0.71199606  0.98354386  0.20572418  1
  O  O23  1  0.71199606  0.01645614  0.79427582  1
  O  O24  1  0.20753146  0.28730872  0.01337519  1
  O  O25  1  0.79246854  0.28730872  0.98662481  1
  O  O26  1  0.20753146  0.71269128  0.98662481  1
  O  O27  1  0.79246854  0.71269128  0.01337519  1
  O  O28  1  0.48783502  0.29202158  0.21203161  1
  O  O29  1  0.51216498  0.70797842  0.21203161  1
  O  O30  1  0.51216498  0.29202158  0.78796839  1
  O  O31  1  0.48783502  0.70797842  0.78796839  1
  O  O32  1  0.21243102  0.48365523  0.29263421  1
  O  O33  1  0.21243102  0.51634477  0.70736579  1
  O  O34  1  0.78756898  0.51634477  0.29263421  1
  O  O35  1  0.78756898  0.48365523  0.70736579  1
  O  O36  1  0.28937075  0.21720090  0.48546907  1
  O  O37  1  0.71062925  0.21720090  0.51453093  1
  O  O38  1  0.28937075  0.78279910  0.51453093  1
  O  O39  1  0.71062925  0.78279910  0.48546907  1
