# generated using pymatgen
data_BaSrCeBiO6
_symmetry_space_group_name_H-M   'P 1'
_cell_length_a   8.77240187
_cell_length_b   8.79059641
_cell_length_c   8.77761548
_cell_angle_alpha   90.00000000
_cell_angle_beta   90.00000000
_cell_angle_gamma   90.00000000
_symmetry_Int_Tables_number   1
_chemical_formula_structural   BaSrCeBiO6
_chemical_formula_sum   'Ba4 Sr4 Ce4 Bi4 O24'
_cell_volume   676.88269629
_cell_formula_units_Z   4
loop_
 _symmetry_equiv_pos_site_id
 _symmetry_equiv_pos_as_xyz
  1  'x, y, z'
loop_
 _atom_site_type_symbol
 _atom_site_label
 _atom_site_symmetry_multiplicity
 _atom_site_fract_x
 _atom_site_fract_y
 _atom_site_fract_z
 _atom_site_occupancy
  Ba  Ba0  1  -0.00000000  0.00000000  -0.00000000  1
  Ba  Ba1  1  0.50000000  0.50000000  0.50000000  1
  Ba  Ba2  1  0.50000000  0.50000000  -0.00000000  1
  Ba  Ba3  1  -0.00000000  0.50000000  -0.00000000  1
  Sr  Sr4  1  -0.00000000  0.50000000  0.50000000  1
  Sr  Sr5  1  0.50000000  0.00000000  0.50000000  1
  Sr  Sr6  1  0.50000000  0.00000000  -0.00000000  1
  Sr  Sr7  1  -0.00000000  0.00000000  0.50000000  1
  Ce  Ce8  1  0.25035223  0.24662308  0.25264223  1
  Ce  Ce9  1  0.74964777  0.75337692  0.25264223  1
  Ce  Ce10  1  0.74964777  0.24662308  0.74735777  1
  Ce  Ce11  1  0.25035223  0.75337692  0.74735777  1
  Bi  Bi12  1  0.74983979  0.75289257  0.74745918  1
  Bi  Bi13  1  0.25016021  0.24710743  0.74745918  1
  Bi  Bi14  1  0.25016021  0.75289257  0.25254082  1
  Bi  Bi15  1  0.74983979  0.24710743  0.25254082  1
  O  O16  1  0.00143440  0.20263423  0.29052335  1
  O  O17  1  0.99856560  0.79736577  0.29052335  1
  O  O18  1  0.99856560  0.20263423  0.70947665  1
  O  O19  1  0.00143440  0.79736577  0.70947665  1
  O  O20  1  0.28999420  0.00064643  0.20556198  1
  O  O21  1  0.28999420  0.99935357  0.79443802  1
  O  O22  1  0.71000580  0.99935357  0.20556198  1
  O  O23  1  0.71000580  0.00064643  0.79443802  1
  O  O24  1  0.21570153  0.27876416  0.00192033  1
  O  O25  1  0.78429847  0.27876416  0.99807967  1
  O  O26  1  0.21570153  0.72123584  0.99807967  1
  O  O27  1  0.78429847  0.72123584  0.00192033  1
  O  O28  1  0.49856025  0.28689467  0.22291071  1
  O  O29  1  0.50143975  0.71310533  0.22291071  1
  O  O30  1  0.50143975  0.28689467  0.77708929  1
  O  O31  1  0.49856025  0.71310533  0.77708929  1
  O  O32  1  0.21177024  0.49863239  0.29529657  1
  O  O33  1  0.21177024  0.50136761  0.70470343  1
  O  O34  1  0.78822976  0.50136761  0.29529657  1
  O  O35  1  0.78822976  0.49863239  0.70470343  1
  O  O36  1  0.29431813  0.20665614  0.49885632  1
  O  O37  1  0.70568187  0.20665614  0.50114368  1
  O  O38  1  0.29431813  0.79334386  0.50114368  1
  O  O39  1  0.70568187  0.79334386  0.49885632  1
