# generated using pymatgen
data_SrCeEuSbO6
_symmetry_space_group_name_H-M   'P 1'
_cell_length_a   5.79990178
_cell_length_b   6.09872381
_cell_length_c   8.40667144
_cell_angle_alpha   89.89924491
_cell_angle_beta   89.98567727
_cell_angle_gamma   89.99660197
_symmetry_Int_Tables_number   1
_chemical_formula_structural   SrCeEuSbO6
_chemical_formula_sum   'Sr2 Ce2 Eu2 Sb2 O12'
_cell_volume   297.36030504
_cell_formula_units_Z   2
loop_
 _symmetry_equiv_pos_site_id
 _symmetry_equiv_pos_as_xyz
  1  'x, y, z'
loop_
 _atom_site_type_symbol
 _atom_site_label
 _atom_site_symmetry_multiplicity
 _atom_site_fract_x
 _atom_site_fract_y
 _atom_site_fract_z
 _atom_site_occupancy
  Sr  Sr0  1  0.98474750  0.05713684  0.24666959  1
  Sr  Sr1  1  0.01525250  0.94286316  0.75333041  1
  Ce  Ce2  1  -0.00000000  0.50000000  0.00000000  1
  Ce  Ce3  1  0.50000000  -0.00000000  0.50000000  1
  Eu  Eu4  1  0.51904781  0.56147896  0.24948447  1
  Eu  Eu5  1  0.48095219  0.43852104  0.75051553  1
  Sb  Sb6  1  0.50000000  -0.00000000  0.00000000  1
  Sb  Sb7  1  -0.00000000  0.50000000  0.50000000  1
  O  O8  1  0.18865360  0.19729589  0.94281492  1
  O  O9  1  0.28554260  0.68035176  0.55606363  1
  O  O10  1  0.81134640  0.80270411  0.05718508  1
  O  O11  1  0.71445740  0.31964824  0.44393637  1
  O  O12  1  0.31763989  0.68868366  0.93737507  1
  O  O13  1  0.18015963  0.22207732  0.55687951  1
  O  O14  1  0.68236011  0.31131634  0.06262493  1
  O  O15  1  0.81984037  0.77792268  0.44312049  1
  O  O16  1  0.39153718  0.95289575  0.25406780  1
  O  O17  1  0.11383801  0.46636174  0.27126899  1
  O  O18  1  0.60846282  0.04710425  0.74593220  1
  O  O19  1  0.88616199  0.53363826  0.72873101  1
