# generated using pymatgen
data_KSrCeNbO6
_symmetry_space_group_name_H-M   'P 1'
_cell_length_a   8.46668509
_cell_length_b   8.49941673
_cell_length_c   8.48283068
_cell_angle_alpha   90.00000000
_cell_angle_beta   90.00000000
_cell_angle_gamma   90.00000000
_symmetry_Int_Tables_number   1
_chemical_formula_structural   KSrCeNbO6
_chemical_formula_sum   'K4 Sr4 Ce4 Nb4 O24'
_cell_volume   610.44048503
_cell_formula_units_Z   4
loop_
 _symmetry_equiv_pos_site_id
 _symmetry_equiv_pos_as_xyz
  1  'x, y, z'
loop_
 _atom_site_type_symbol
 _atom_site_label
 _atom_site_symmetry_multiplicity
 _atom_site_fract_x
 _atom_site_fract_y
 _atom_site_fract_z
 _atom_site_occupancy
  K  K0  1  0.50000000  0.00000000  0.50000000  1
  K  K1  1  0.50000000  0.50000000  0.00000000  1
  K  K2  1  0.00000000  0.50000000  -0.00000000  1
  K  K3  1  0.00000000  0.00000000  0.50000000  1
  Sr  Sr4  1  0.00000000  0.50000000  0.50000000  1
  Sr  Sr5  1  0.50000000  0.00000000  0.00000000  1
  Sr  Sr6  1  0.00000000  0.00000000  -0.00000000  1
  Sr  Sr7  1  0.50000000  0.50000000  0.50000000  1
  Ce  Ce8  1  0.75000000  0.75000000  0.75000000  1
  Ce  Ce9  1  0.25000000  0.25000000  0.75000000  1
  Ce  Ce10  1  0.25000000  0.75000000  0.25000000  1
  Ce  Ce11  1  0.75000000  0.25000000  0.25000000  1
  Nb  Nb12  1  0.25000000  0.25000000  0.25000000  1
  Nb  Nb13  1  0.75000000  0.75000000  0.25000000  1
  Nb  Nb14  1  0.75000000  0.25000000  0.75000000  1
  Nb  Nb15  1  0.25000000  0.75000000  0.75000000  1
  O  O16  1  0.01334692  0.23662382  0.26230103  1
  O  O17  1  0.98665308  0.76337618  0.26230103  1
  O  O18  1  0.98665308  0.23662382  0.73769897  1
  O  O19  1  0.01334692  0.76337618  0.73769897  1
  O  O20  1  0.26364068  0.01298274  0.22348719  1
  O  O21  1  0.26364068  0.98701726  0.77651281  1
  O  O22  1  0.73635932  0.98701726  0.22348719  1
  O  O23  1  0.73635932  0.01298274  0.77651281  1
  O  O24  1  0.23534824  0.25321624  0.01289714  1
  O  O25  1  0.76465176  0.25321624  0.98710286  1
  O  O26  1  0.23534824  0.74678376  0.98710286  1
  O  O27  1  0.76465176  0.74678376  0.01289714  1
  O  O28  1  0.48665308  0.26337618  0.23769897  1
  O  O29  1  0.51334692  0.73662382  0.23769897  1
  O  O30  1  0.51334692  0.26337618  0.76230103  1
  O  O31  1  0.48665308  0.73662382  0.76230103  1
  O  O32  1  0.23635932  0.48701726  0.27651281  1
  O  O33  1  0.23635932  0.51298274  0.72348719  1
  O  O34  1  0.76364068  0.51298274  0.27651281  1
  O  O35  1  0.76364068  0.48701726  0.72348719  1
  O  O36  1  0.26465176  0.24678376  0.48710286  1
  O  O37  1  0.73534824  0.24678376  0.51289714  1
  O  O38  1  0.26465176  0.75321624  0.51289714  1
  O  O39  1  0.73534824  0.75321624  0.48710286  1
