# generated using pymatgen
data_Tb2Ni2Sn
_symmetry_space_group_name_H-M   'P 1'
_cell_length_a   7.26582600
_cell_length_b   7.26582600
_cell_length_c   3.72437800
_cell_angle_alpha   90.00000000
_cell_angle_beta   90.00000000
_cell_angle_gamma   90.00000000
_symmetry_Int_Tables_number   1
_chemical_formula_structural   Tb2Ni2Sn
_chemical_formula_sum   'Tb4 Ni4 Sn2'
_cell_volume   196.61821053
_cell_formula_units_Z   2
loop_
 _symmetry_equiv_pos_site_id
 _symmetry_equiv_pos_as_xyz
  1  'x, y, z'
loop_
 _atom_site_type_symbol
 _atom_site_label
 _atom_site_symmetry_multiplicity
 _atom_site_fract_x
 _atom_site_fract_y
 _atom_site_fract_z
 _atom_site_occupancy
  Tb  Tb0  1  0.67572900  0.17572900  0.50000000  1
  Tb  Tb1  1  0.32427100  0.82427100  0.50000000  1
  Tb  Tb2  1  0.17572900  0.32427100  0.50000000  1
  Tb  Tb3  1  0.82427100  0.67572900  0.50000000  1
  Ni  Ni4  1  0.88004900  0.38004900  0.00000000  1
  Ni  Ni5  1  0.11995100  0.61995100  0.00000000  1
  Ni  Ni6  1  0.38004900  0.11995100  0.00000000  1
  Ni  Ni7  1  0.61995100  0.88004900  0.00000000  1
  Sn  Sn8  1  0.50000000  0.50000000  0.00000000  1
  Sn  Sn9  1  0.00000000  0.00000000  0.00000000  1
