# generated using pymatgen
data_CaFe(GeO3)4
_symmetry_space_group_name_H-M   'P 1'
_cell_length_a   5.24663174
_cell_length_b   5.24663174
_cell_length_c   7.43841564
_cell_angle_alpha   90.00000000
_cell_angle_beta   90.00000000
_cell_angle_gamma   83.50457720
_symmetry_Int_Tables_number   1
_chemical_formula_structural   CaFe(GeO3)4
_chemical_formula_sum   'Ca1 Fe1 Ge4 O12'
_cell_volume   203.44397770
_cell_formula_units_Z   1
loop_
 _symmetry_equiv_pos_site_id
 _symmetry_equiv_pos_as_xyz
  1  'x, y, z'
loop_
 _atom_site_type_symbol
 _atom_site_label
 _atom_site_symmetry_multiplicity
 _atom_site_fract_x
 _atom_site_fract_y
 _atom_site_fract_z
 _atom_site_occupancy
  Ca  Ca0  1  0.56178756  0.43821244  0.50000000  1
  Fe  Fe1  1  0.93089530  0.06910470  0.00000000  1
  Ge  Ge2  1  0.46976280  0.97657548  0.24536163  1
  Ge  Ge3  1  0.46976280  0.97657548  0.75463837  1
  Ge  Ge4  1  0.02342452  0.53023720  0.75463837  1
  Ge  Ge5  1  0.02342452  0.53023720  0.24536163  1
  O  O6  1  0.32236586  0.31120969  0.26025447  1
  O  O7  1  0.68879031  0.67763414  0.26025447  1
  O  O8  1  0.68879031  0.67763414  0.73974553  1
  O  O9  1  0.32236586  0.31120969  0.73974553  1
  O  O10  1  0.16230518  0.83769482  0.18564726  1
  O  O11  1  0.80980622  0.19019378  0.26057705  1
  O  O12  1  0.80980622  0.19019378  0.73942295  1
  O  O13  1  0.16230518  0.83769482  0.81435274  1
  O  O14  1  0.57121833  0.00402733  -0.00000000  1
  O  O15  1  0.45208250  0.95666616  0.50000000  1
  O  O16  1  0.99597267  0.42878167  -0.00000000  1
  O  O17  1  0.04333384  0.54791750  0.50000000  1
