# generated using pymatgen
data_NaSmHf4O12
_symmetry_space_group_name_H-M   'P 1'
_cell_length_a   5.68435179
_cell_length_b   5.68435179
_cell_length_c   8.21323896
_cell_angle_alpha   90.00000000
_cell_angle_beta   90.00000000
_cell_angle_gamma   89.74206082
_symmetry_Int_Tables_number   1
_chemical_formula_structural   NaSmHf4O12
_chemical_formula_sum   'Na1 Sm1 Hf4 O12'
_cell_volume   265.38229937
_cell_formula_units_Z   1
loop_
 _symmetry_equiv_pos_site_id
 _symmetry_equiv_pos_as_xyz
  1  'x, y, z'
loop_
 _atom_site_type_symbol
 _atom_site_label
 _atom_site_symmetry_multiplicity
 _atom_site_fract_x
 _atom_site_fract_y
 _atom_site_fract_z
 _atom_site_occupancy
  Na  Na0  1  0.48771500  0.51228500  0.00000000  1
  Sm  Sm1  1  0.01891893  0.98108107  0.50000000  1
  Hf  Hf2  1  0.50958523  0.00679284  0.23978204  1
  Hf  Hf3  1  0.50958523  0.00679284  0.76021796  1
  Hf  Hf4  1  0.99320716  0.49041477  0.76021796  1
  Hf  Hf5  1  0.99320716  0.49041477  0.23978204  1
  O  O6  1  0.20748634  0.20490476  0.28356858  1
  O  O7  1  0.79509524  0.79251366  0.28356858  1
  O  O8  1  0.79509524  0.79251366  0.71643142  1
  O  O9  1  0.20748634  0.20490476  0.71643142  1
  O  O10  1  0.25367718  0.74632282  0.30632304  1
  O  O11  1  0.69761043  0.30238957  0.20563773  1
  O  O12  1  0.69761043  0.30238957  0.79436227  1
  O  O13  1  0.25367718  0.74632282  0.69367696  1
  O  O14  1  0.48394162  0.93300994  0.00000000  1
  O  O15  1  0.57268331  0.03937207  0.50000000  1
  O  O16  1  0.06699006  0.51605838  0.00000000  1
  O  O17  1  0.96062793  0.42731669  0.50000000  1
