# generated using pymatgen
data_SrNdTi4O12
_symmetry_space_group_name_H-M   'P 1'
_cell_length_a   5.50612618
_cell_length_b   5.50612618
_cell_length_c   7.77873738
_cell_angle_alpha   90.00000000
_cell_angle_beta   90.00000000
_cell_angle_gamma   89.82885248
_symmetry_Int_Tables_number   1
_chemical_formula_structural   SrNdTi4O12
_chemical_formula_sum   'Sr1 Nd1 Ti4 O12'
_cell_volume   235.83023926
_cell_formula_units_Z   1
loop_
 _symmetry_equiv_pos_site_id
 _symmetry_equiv_pos_as_xyz
  1  'x, y, z'
loop_
 _atom_site_type_symbol
 _atom_site_label
 _atom_site_symmetry_multiplicity
 _atom_site_fract_x
 _atom_site_fract_y
 _atom_site_fract_z
 _atom_site_occupancy
  Sr  Sr0  1  0.98655243  0.98655243  0.50000000  1
  Nd  Nd1  1  0.51659079  0.51659079  0.00000000  1
  Ti  Ti2  1  0.49626188  0.00630407  0.74878519  1
  Ti  Ti3  1  0.49626188  0.00630407  0.25121481  1
  Ti  Ti4  1  0.00630407  0.49626188  0.25121481  1
  Ti  Ti5  1  0.00630407  0.49626188  0.74878519  1
  O  O6  1  0.76260160  0.23605815  0.75498880  1
  O  O7  1  0.23605815  0.76260160  0.75498880  1
  O  O8  1  0.23605815  0.76260160  0.24501120  1
  O  O9  1  0.76260160  0.23605815  0.24501120  1
  O  O10  1  0.73400571  0.73400571  0.74155517  1
  O  O11  1  0.27463611  0.27463611  0.78459344  1
  O  O12  1  0.27463611  0.27463611  0.21540656  1
  O  O13  1  0.73400571  0.73400571  0.25844483  1
  O  O14  1  0.51486307  0.96529756  -0.00000000  1
  O  O15  1  0.47910542  0.01555568  0.50000000  1
  O  O16  1  0.96529756  0.51486307  -0.00000000  1
  O  O17  1  0.01555568  0.47910542  0.50000000  1
