# generated using pymatgen
data_BaSrNdBiO6
_symmetry_space_group_name_H-M   'P 1'
_cell_length_a   8.76663150
_cell_length_b   8.76346567
_cell_length_c   8.76597013
_cell_angle_alpha   90.00000000
_cell_angle_beta   90.00000000
_cell_angle_gamma   90.00000000
_symmetry_Int_Tables_number   1
_chemical_formula_structural   BaSrNdBiO6
_chemical_formula_sum   'Ba4 Sr4 Nd4 Bi4 O24'
_cell_volume   673.45507157
_cell_formula_units_Z   4
loop_
 _symmetry_equiv_pos_site_id
 _symmetry_equiv_pos_as_xyz
  1  'x, y, z'
loop_
 _atom_site_type_symbol
 _atom_site_label
 _atom_site_symmetry_multiplicity
 _atom_site_fract_x
 _atom_site_fract_y
 _atom_site_fract_z
 _atom_site_occupancy
  Ba  Ba0  1  -0.00000000  0.00000000  -0.00000000  1
  Ba  Ba1  1  0.50000000  0.50000000  0.50000000  1
  Ba  Ba2  1  0.50000000  0.00000000  -0.00000000  1
  Ba  Ba3  1  0.00000000  0.50000000  -0.00000000  1
  Sr  Sr4  1  -0.00000000  0.50000000  0.50000000  1
  Sr  Sr5  1  0.50000000  0.00000000  0.50000000  1
  Sr  Sr6  1  0.50000000  0.50000000  -0.00000000  1
  Sr  Sr7  1  -0.00000000  0.00000000  0.50000000  1
  Nd  Nd8  1  0.25046733  0.25048392  0.25241041  1
  Nd  Nd9  1  0.74953267  0.74951608  0.25241041  1
  Nd  Nd10  1  0.74953267  0.25048392  0.74758959  1
  Nd  Nd11  1  0.25046733  0.74951608  0.74758959  1
  Bi  Bi12  1  0.74945988  0.74997824  0.74712790  1
  Bi  Bi13  1  0.25054012  0.25002176  0.74712790  1
  Bi  Bi14  1  0.25054012  0.74997824  0.25287210  1
  Bi  Bi15  1  0.74945988  0.25002176  0.25287210  1
  O  O16  1  0.98882291  0.20883682  0.28989621  1
  O  O17  1  0.01117709  0.79116318  0.28989621  1
  O  O18  1  0.01117709  0.20883682  0.71010379  1
  O  O19  1  0.98882291  0.79116318  0.71010379  1
  O  O20  1  0.28062779  0.98973890  0.21810914  1
  O  O21  1  0.28062779  0.01026110  0.78189086  1
  O  O22  1  0.71937221  0.01026110  0.21810914  1
  O  O23  1  0.71937221  0.98973890  0.78189086  1
  O  O24  1  0.21564914  0.27774958  0.98822340  1
  O  O25  1  0.78435086  0.27774958  0.01177660  1
  O  O26  1  0.21564914  0.72225042  0.01177660  1
  O  O27  1  0.78435086  0.72225042  0.98822340  1
  O  O28  1  0.51158885  0.29641947  0.21351130  1
  O  O29  1  0.48841115  0.70358053  0.21351130  1
  O  O30  1  0.48841115  0.29641947  0.78648870  1
  O  O31  1  0.51158885  0.70358053  0.78648870  1
  O  O32  1  0.21007904  0.51194734  0.29571429  1
  O  O33  1  0.21007904  0.48805266  0.70428571  1
  O  O34  1  0.78992096  0.48805266  0.29571429  1
  O  O35  1  0.78992096  0.51194734  0.70428571  1
  O  O36  1  0.29793984  0.21194016  0.51043092  1
  O  O37  1  0.70206016  0.21194016  0.48956908  1
  O  O38  1  0.29793984  0.78805984  0.48956908  1
  O  O39  1  0.70206016  0.78805984  0.51043092  1
