# generated using pymatgen
data_NdSm(FeO3)4
_symmetry_space_group_name_H-M   'P 1'
_cell_length_a   5.37419427
_cell_length_b   5.37419427
_cell_length_c   7.61742050
_cell_angle_alpha   90.00000000
_cell_angle_beta   90.00000000
_cell_angle_gamma   90.04339194
_symmetry_Int_Tables_number   1
_chemical_formula_structural   NdSm(FeO3)4
_chemical_formula_sum   'Nd1 Sm1 Fe4 O12'
_cell_volume   220.00600204
_cell_formula_units_Z   1
loop_
 _symmetry_equiv_pos_site_id
 _symmetry_equiv_pos_as_xyz
  1  'x, y, z'
loop_
 _atom_site_type_symbol
 _atom_site_label
 _atom_site_symmetry_multiplicity
 _atom_site_fract_x
 _atom_site_fract_y
 _atom_site_fract_z
 _atom_site_occupancy
  Nd  Nd0  1  0.50000000  0.50000000  -0.00000000  1
  Sm  Sm1  1  -0.00000000  -0.00000000  0.50000000  1
  Fe  Fe2  1  -0.00000000  0.50000000  0.25034126  1
  Fe  Fe3  1  -0.00000000  0.50000000  0.74965874  1
  Fe  Fe4  1  0.50000000  -0.00000000  0.25034126  1
  Fe  Fe5  1  0.50000000  -0.00000000  0.74965874  1
  O  O6  1  0.23896042  0.23896042  0.25208572  1
  O  O7  1  0.23896042  0.23896042  0.74791428  1
  O  O8  1  0.76103958  0.76103958  0.74791428  1
  O  O9  1  0.76103958  0.76103958  0.25208572  1
  O  O10  1  0.74072227  0.25927773  0.75011206  1
  O  O11  1  0.74072227  0.25927773  0.24988794  1
  O  O12  1  0.25927773  0.74072227  0.24988794  1
  O  O13  1  0.25927773  0.74072227  0.75011206  1
  O  O14  1  -0.00000000  0.50000000  0.00000000  1
  O  O15  1  -0.00000000  0.50000000  0.50000000  1
  O  O16  1  0.50000000  -0.00000000  -0.00000000  1
  O  O17  1  0.50000000  -0.00000000  0.50000000  1
