# generated using pymatgen
data_KEuHf4O12
_symmetry_space_group_name_H-M   'P 1'
_cell_length_a   5.75398848
_cell_length_b   5.75398848
_cell_length_c   8.20282410
_cell_angle_alpha   90.00000000
_cell_angle_beta   90.00000000
_cell_angle_gamma   90.31785542
_symmetry_Int_Tables_number   1
_chemical_formula_structural   KEuHf4O12
_chemical_formula_sum   'K1 Eu1 Hf4 O12'
_cell_volume   271.57806627
_cell_formula_units_Z   1
loop_
 _symmetry_equiv_pos_site_id
 _symmetry_equiv_pos_as_xyz
  1  'x, y, z'
loop_
 _atom_site_type_symbol
 _atom_site_label
 _atom_site_symmetry_multiplicity
 _atom_site_fract_x
 _atom_site_fract_y
 _atom_site_fract_z
 _atom_site_occupancy
  K  K0  1  0.01862625  0.98137375  0.50000000  1
  Eu  Eu1  1  0.47761211  0.52238789  0.00000000  1
  Hf  Hf2  1  0.49990751  -0.00075843  0.25626099  1
  Hf  Hf3  1  0.49990751  -0.00075843  0.74373901  1
  Hf  Hf4  1  0.00075843  0.50009249  0.74373901  1
  Hf  Hf5  1  0.00075843  0.50009249  0.25626099  1
  O  O6  1  0.21755523  0.21635051  0.24585621  1
  O  O7  1  0.78364949  0.78244477  0.24585621  1
  O  O8  1  0.78364949  0.78244477  0.75414379  1
  O  O9  1  0.21755523  0.21635051  0.75414379  1
  O  O10  1  0.29115159  0.70884841  0.27303742  1
  O  O11  1  0.69540501  0.30459499  0.19228901  1
  O  O12  1  0.69540501  0.30459499  0.80771099  1
  O  O13  1  0.29115159  0.70884841  0.72696258  1
  O  O14  1  0.47477816  0.92551401  0.00000000  1
  O  O15  1  0.52786273  0.03511976  0.50000000  1
  O  O16  1  0.07448599  0.52522184  0.00000000  1
  O  O17  1  0.96488024  0.47213727  0.50000000  1
