# generated using pymatgen
data_SrCaZr4O12
_symmetry_space_group_name_H-M   'P 1'
_cell_length_a   5.80372326
_cell_length_b   5.80372326
_cell_length_c   8.37429363
_cell_angle_alpha   90.00000000
_cell_angle_beta   90.00000000
_cell_angle_gamma   87.43313202
_symmetry_Int_Tables_number   1
_chemical_formula_structural   SrCaZr4O12
_chemical_formula_sum   'Sr1 Ca1 Zr4 O12'
_cell_volume   281.79001589
_cell_formula_units_Z   1
loop_
 _symmetry_equiv_pos_site_id
 _symmetry_equiv_pos_as_xyz
  1  'x, y, z'
loop_
 _atom_site_type_symbol
 _atom_site_label
 _atom_site_symmetry_multiplicity
 _atom_site_fract_x
 _atom_site_fract_y
 _atom_site_fract_z
 _atom_site_occupancy
  Sr  Sr0  1  0.94484708  0.05515292  0.00000000  1
  Ca  Ca1  1  0.54197310  0.45802690  0.50000000  1
  Zr  Zr2  1  0.48033225  0.98044873  0.26079598  1
  Zr  Zr3  1  0.48033225  0.98044873  0.73920402  1
  Zr  Zr4  1  0.01955127  0.51966775  0.73920402  1
  Zr  Zr5  1  0.01955127  0.51966775  0.26079598  1
  O  O6  1  0.20358772  0.20513018  0.21828974  1
  O  O7  1  0.79486982  0.79641228  0.21828974  1
  O  O8  1  0.79486982  0.79641228  0.78171026  1
  O  O9  1  0.20358772  0.20513018  0.78171026  1
  O  O10  1  0.31642386  0.68357614  0.30998799  1
  O  O11  1  0.71894315  0.28105685  0.24158891  1
  O  O12  1  0.71894315  0.28105685  0.75841109  1
  O  O13  1  0.31642386  0.68357614  0.69001201  1
  O  O14  1  0.47158340  0.97946439  0.00000000  1
  O  O15  1  0.50689297  0.06544828  0.50000000  1
  O  O16  1  0.02053561  0.52841660  0.00000000  1
  O  O17  1  0.93455172  0.49310703  0.50000000  1
