# generated using pymatgen
data_BaPrEuWO6
_symmetry_space_group_name_H-M   'P 1'
_cell_length_a   6.02871834
_cell_length_b   6.08637675
_cell_length_c   8.59586678
_cell_angle_alpha   90.14752596
_cell_angle_beta   90.46120786
_cell_angle_gamma   89.90257089
_symmetry_Int_Tables_number   1
_chemical_formula_structural   BaPrEuWO6
_chemical_formula_sum   'Ba2 Pr2 Eu2 W2 O12'
_cell_volume   315.39687040
_cell_formula_units_Z   2
loop_
 _symmetry_equiv_pos_site_id
 _symmetry_equiv_pos_as_xyz
  1  'x, y, z'
loop_
 _atom_site_type_symbol
 _atom_site_label
 _atom_site_symmetry_multiplicity
 _atom_site_fract_x
 _atom_site_fract_y
 _atom_site_fract_z
 _atom_site_occupancy
  Ba  Ba0  1  0.50791117  0.53185636  0.25035791  1
  Ba  Ba1  1  0.49208883  0.46814364  0.74964209  1
  Pr  Pr2  1  -0.00000000  0.50000000  0.00000000  1
  Pr  Pr3  1  0.50000000  -0.00000000  0.50000000  1
  Eu  Eu4  1  0.99118085  0.04447103  0.25210125  1
  Eu  Eu5  1  0.00881915  0.95552897  0.74789875  1
  W  W6  1  0.50000000  -0.00000000  0.00000000  1
  W  W7  1  -0.00000000  0.50000000  0.50000000  1
  O  O8  1  0.22692246  0.18802975  0.95041339  1
  O  O9  1  0.26534492  0.69939604  0.53554436  1
  O  O10  1  0.77307754  0.81197025  0.04958661  1
  O  O11  1  0.73465508  0.30060396  0.46445564  1
  O  O12  1  0.30697798  0.73900727  0.95456816  1
  O  O13  1  0.17934124  0.22685661  0.54502391  1
  O  O14  1  0.69302202  0.26099273  0.04543184  1
  O  O15  1  0.82065876  0.77314339  0.45497609  1
  O  O16  1  0.40453667  0.99616846  0.22890567  1
  O  O17  1  0.07107877  0.46021439  0.26858127  1
  O  O18  1  0.59546333  0.00383154  0.77109433  1
  O  O19  1  0.92892123  0.53978561  0.73141873  1
