# generated using pymatgen
data_BaNaCeBiO6
_symmetry_space_group_name_H-M   'P 1'
_cell_length_a   8.61885697
_cell_length_b   8.64185085
_cell_length_c   8.66483386
_cell_angle_alpha   90.00000000
_cell_angle_beta   90.00000000
_cell_angle_gamma   90.00000000
_symmetry_Int_Tables_number   1
_chemical_formula_structural   BaNaCeBiO6
_chemical_formula_sum   'Ba4 Na4 Ce4 Bi4 O24'
_cell_volume   645.38174970
_cell_formula_units_Z   4
loop_
 _symmetry_equiv_pos_site_id
 _symmetry_equiv_pos_as_xyz
  1  'x, y, z'
loop_
 _atom_site_type_symbol
 _atom_site_label
 _atom_site_symmetry_multiplicity
 _atom_site_fract_x
 _atom_site_fract_y
 _atom_site_fract_z
 _atom_site_occupancy
  Ba  Ba0  1  -0.00000000  -0.00000000  0.00000000  1
  Ba  Ba1  1  0.50000000  0.50000000  0.50000000  1
  Ba  Ba2  1  0.50000000  0.50000000  0.00000000  1
  Ba  Ba3  1  0.00000000  -0.00000000  0.50000000  1
  Na  Na4  1  0.00000000  0.50000000  0.50000000  1
  Na  Na5  1  0.50000000  -0.00000000  0.50000000  1
  Na  Na6  1  0.50000000  -0.00000000  -0.00000000  1
  Na  Na7  1  -0.00000000  0.50000000  0.00000000  1
  Ce  Ce8  1  0.25000000  0.25000000  0.25000000  1
  Ce  Ce9  1  0.75000000  0.75000000  0.25000000  1
  Ce  Ce10  1  0.75000000  0.25000000  0.75000000  1
  Ce  Ce11  1  0.25000000  0.75000000  0.75000000  1
  Bi  Bi12  1  0.75000000  0.75000000  0.75000000  1
  Bi  Bi13  1  0.25000000  0.25000000  0.75000000  1
  Bi  Bi14  1  0.25000000  0.75000000  0.25000000  1
  Bi  Bi15  1  0.75000000  0.25000000  0.25000000  1
  O  O16  1  0.99538399  0.21463313  0.27046925  1
  O  O17  1  0.00461601  0.78536687  0.27046925  1
  O  O18  1  0.00461601  0.21463313  0.72953075  1
  O  O19  1  0.99538399  0.78536687  0.72953075  1
  O  O20  1  0.27003568  0.99500574  0.20995233  1
  O  O21  1  0.27003568  0.00499426  0.79004767  1
  O  O22  1  0.72996432  0.00499426  0.20995233  1
  O  O23  1  0.72996432  0.99500574  0.79004767  1
  O  O24  1  0.21989879  0.28604585  0.99457389  1
  O  O25  1  0.78010121  0.28604585  0.00542611  1
  O  O26  1  0.21989879  0.71395415  0.00542611  1
  O  O27  1  0.78010121  0.71395415  0.99457389  1
  O  O28  1  0.50461601  0.28536687  0.22953075  1
  O  O29  1  0.49538399  0.71463313  0.22953075  1
  O  O30  1  0.49538399  0.28536687  0.77046925  1
  O  O31  1  0.50461601  0.71463313  0.77046925  1
  O  O32  1  0.22996432  0.50499426  0.29004767  1
  O  O33  1  0.22996432  0.49500574  0.70995233  1
  O  O34  1  0.77003568  0.49500574  0.29004767  1
  O  O35  1  0.77003568  0.50499426  0.70995233  1
  O  O36  1  0.28010121  0.21395415  0.50542611  1
  O  O37  1  0.71989879  0.21395415  0.49457389  1
  O  O38  1  0.28010121  0.78604585  0.49457389  1
  O  O39  1  0.71989879  0.78604585  0.50542611  1
