# generated using pymatgen
data_BaCaNdNbO6
_symmetry_space_group_name_H-M   'P 1'
_cell_length_a   8.47292372
_cell_length_b   8.52727453
_cell_length_c   8.50113353
_cell_angle_alpha   90.00000000
_cell_angle_beta   90.00000000
_cell_angle_gamma   90.00000000
_symmetry_Int_Tables_number   1
_chemical_formula_structural   BaCaNdNbO6
_chemical_formula_sum   'Ba4 Ca4 Nd4 Nb4 O24'
_cell_volume   614.21494499
_cell_formula_units_Z   4
loop_
 _symmetry_equiv_pos_site_id
 _symmetry_equiv_pos_as_xyz
  1  'x, y, z'
loop_
 _atom_site_type_symbol
 _atom_site_label
 _atom_site_symmetry_multiplicity
 _atom_site_fract_x
 _atom_site_fract_y
 _atom_site_fract_z
 _atom_site_occupancy
  Ba  Ba0  1  0.00000000  -0.00000000  0.00000000  1
  Ba  Ba1  1  0.50000000  0.50000000  0.50000000  1
  Ba  Ba2  1  0.50000000  -0.00000000  0.50000000  1
  Ba  Ba3  1  0.50000000  0.50000000  0.00000000  1
  Ca  Ca4  1  0.00000000  0.50000000  0.50000000  1
  Ca  Ca5  1  0.50000000  -0.00000000  0.00000000  1
  Ca  Ca6  1  0.00000000  0.50000000  0.00000000  1
  Ca  Ca7  1  0.00000000  -0.00000000  0.50000000  1
  Nd  Nd8  1  0.24368764  0.24955420  0.24635972  1
  Nd  Nd9  1  0.75631236  0.75044580  0.24635972  1
  Nd  Nd10  1  0.75631236  0.24955420  0.75364028  1
  Nd  Nd11  1  0.24368764  0.75044580  0.75364028  1
  Nb  Nb12  1  0.75677570  0.75190266  0.74862816  1
  Nb  Nb13  1  0.24322430  0.24809734  0.74862816  1
  Nb  Nb14  1  0.24322430  0.75190266  0.25137184  1
  Nb  Nb15  1  0.75677570  0.24809734  0.25137184  1
  O  O16  1  0.98142545  0.18436583  0.29250138  1
  O  O17  1  0.01857455  0.81563417  0.29250138  1
  O  O18  1  0.01857455  0.18436583  0.70749862  1
  O  O19  1  0.98142545  0.81563417  0.70749862  1
  O  O20  1  0.29275365  0.97930561  0.19139643  1
  O  O21  1  0.29275365  0.02069439  0.80860357  1
  O  O22  1  0.70724635  0.02069439  0.19139643  1
  O  O23  1  0.70724635  0.97930561  0.80860357  1
  O  O24  1  0.19442241  0.30030180  0.97794655  1
  O  O25  1  0.80557759  0.30030180  0.02205345  1
  O  O26  1  0.19442241  0.69969820  0.02205345  1
  O  O27  1  0.80557759  0.69969820  0.97794655  1
  O  O28  1  0.52086637  0.28543244  0.22634917  1
  O  O29  1  0.47913363  0.71456756  0.22634917  1
  O  O30  1  0.47913363  0.28543244  0.77365083  1
  O  O31  1  0.52086637  0.71456756  0.77365083  1
  O  O32  1  0.19894676  0.51891615  0.29712757  1
  O  O33  1  0.19894676  0.48108385  0.70287243  1
  O  O34  1  0.80105324  0.48108385  0.29712757  1
  O  O35  1  0.80105324  0.51891615  0.70287243  1
  O  O36  1  0.27833839  0.21862941  0.51724469  1
  O  O37  1  0.72166161  0.21862941  0.48275531  1
  O  O38  1  0.27833839  0.78137059  0.48275531  1
  O  O39  1  0.72166161  0.78137059  0.51724469  1
