# generated using pymatgen
data_KSrPrWO6
_symmetry_space_group_name_H-M   'P 1'
_cell_length_a   8.52683299
_cell_length_b   8.54509090
_cell_length_c   8.52652117
_cell_angle_alpha   90.00000000
_cell_angle_beta   90.00000000
_cell_angle_gamma   90.00000000
_symmetry_Int_Tables_number   1
_chemical_formula_structural   KSrPrWO6
_chemical_formula_sum   'K4 Sr4 Pr4 W4 O24'
_cell_volume   621.26418582
_cell_formula_units_Z   4
loop_
 _symmetry_equiv_pos_site_id
 _symmetry_equiv_pos_as_xyz
  1  'x, y, z'
loop_
 _atom_site_type_symbol
 _atom_site_label
 _atom_site_symmetry_multiplicity
 _atom_site_fract_x
 _atom_site_fract_y
 _atom_site_fract_z
 _atom_site_occupancy
  K  K0  1  0.50000000  -0.00000000  0.50000000  1
  K  K1  1  0.50000000  0.50000000  0.00000000  1
  K  K2  1  -0.00000000  0.50000000  0.00000000  1
  K  K3  1  -0.00000000  0.00000000  0.50000000  1
  Sr  Sr4  1  -0.00000000  0.50000000  0.50000000  1
  Sr  Sr5  1  0.50000000  -0.00000000  0.00000000  1
  Sr  Sr6  1  -0.00000000  -0.00000000  0.00000000  1
  Sr  Sr7  1  0.50000000  0.50000000  0.50000000  1
  Pr  Pr8  1  0.75000000  0.75000000  0.75000000  1
  Pr  Pr9  1  0.25000000  0.25000000  0.75000000  1
  Pr  Pr10  1  0.25000000  0.75000000  0.25000000  1
  Pr  Pr11  1  0.75000000  0.25000000  0.25000000  1
  W  W12  1  0.25000000  0.25000000  0.25000000  1
  W  W13  1  0.75000000  0.75000000  0.25000000  1
  W  W14  1  0.75000000  0.25000000  0.75000000  1
  W  W15  1  0.25000000  0.75000000  0.75000000  1
  O  O16  1  0.02439794  0.21975100  0.27500003  1
  O  O17  1  0.97560206  0.78024900  0.27500003  1
  O  O18  1  0.97560206  0.21975100  0.72499997  1
  O  O19  1  0.02439794  0.78024900  0.72499997  1
  O  O20  1  0.27740540  0.02344502  0.20908765  1
  O  O21  1  0.27740540  0.97655498  0.79091235  1
  O  O22  1  0.72259460  0.97655498  0.20908765  1
  O  O23  1  0.72259460  0.02344502  0.79091235  1
  O  O24  1  0.21819940  0.27003763  0.02459478  1
  O  O25  1  0.78180060  0.27003763  0.97540522  1
  O  O26  1  0.21819940  0.72996237  0.97540522  1
  O  O27  1  0.78180060  0.72996237  0.02459478  1
  O  O28  1  0.47560206  0.28024900  0.22499997  1
  O  O29  1  0.52439794  0.71975100  0.22499997  1
  O  O30  1  0.52439794  0.28024900  0.77500003  1
  O  O31  1  0.47560206  0.71975100  0.77500003  1
  O  O32  1  0.22259460  0.47655498  0.29091235  1
  O  O33  1  0.22259460  0.52344502  0.70908765  1
  O  O34  1  0.77740540  0.52344502  0.29091235  1
  O  O35  1  0.77740540  0.47655498  0.70908765  1
  O  O36  1  0.28180060  0.22996237  0.47540522  1
  O  O37  1  0.71819940  0.22996237  0.52459478  1
  O  O38  1  0.28180060  0.77003763  0.52459478  1
  O  O39  1  0.71819940  0.77003763  0.47540522  1
