# generated using pymatgen
data_SrSmEuVO6
_symmetry_space_group_name_H-M   'P 1'
_cell_length_a   8.55762353
_cell_length_b   8.56089627
_cell_length_c   8.56846128
_cell_angle_alpha   90.00000000
_cell_angle_beta   90.00000000
_cell_angle_gamma   90.00000000
_symmetry_Int_Tables_number   1
_chemical_formula_structural   SrSmEuVO6
_chemical_formula_sum   'Sr4 Sm4 Eu4 V4 O24'
_cell_volume   627.73341940
_cell_formula_units_Z   4
loop_
 _symmetry_equiv_pos_site_id
 _symmetry_equiv_pos_as_xyz
  1  'x, y, z'
loop_
 _atom_site_type_symbol
 _atom_site_label
 _atom_site_symmetry_multiplicity
 _atom_site_fract_x
 _atom_site_fract_y
 _atom_site_fract_z
 _atom_site_occupancy
  Sr  Sr0  1  0.50000000  0.50000000  0.00000000  1
  Sr  Sr1  1  0.50000000  -0.00000000  0.00000000  1
  Sr  Sr2  1  -0.00000000  0.50000000  0.00000000  1
  Sr  Sr3  1  -0.00000000  -0.00000000  0.50000000  1
  Sm  Sm4  1  0.75039721  0.75050155  0.75061839  1
  Sm  Sm5  1  0.24960279  0.24949845  0.75061839  1
  Sm  Sm6  1  0.24960279  0.75050155  0.24938161  1
  Sm  Sm7  1  0.75039721  0.24949845  0.24938161  1
  Eu  Eu8  1  -0.00000000  0.50000000  0.50000000  1
  Eu  Eu9  1  0.50000000  -0.00000000  0.50000000  1
  Eu  Eu10  1  -0.00000000  -0.00000000  0.00000000  1
  Eu  Eu11  1  0.50000000  0.50000000  0.50000000  1
  V  V12  1  0.25015479  0.24939099  0.24882477  1
  V  V13  1  0.74984521  0.75060901  0.24882477  1
  V  V14  1  0.74984521  0.24939099  0.75117523  1
  V  V15  1  0.25015479  0.75060901  0.75117523  1
  O  O16  1  0.02318526  0.20934049  0.28393604  1
  O  O17  1  0.97681474  0.79065951  0.28393604  1
  O  O18  1  0.97681474  0.20934049  0.71606396  1
  O  O19  1  0.02318526  0.79065951  0.71606396  1
  O  O20  1  0.28364952  0.02286849  0.20941184  1
  O  O21  1  0.28364952  0.97713151  0.79058816  1
  O  O22  1  0.71635048  0.97713151  0.20941184  1
  O  O23  1  0.71635048  0.02286849  0.79058816  1
  O  O24  1  0.20887222  0.28328210  0.02327446  1
  O  O25  1  0.79112778  0.28328210  0.97672554  1
  O  O26  1  0.20887222  0.71671790  0.97672554  1
  O  O27  1  0.79112778  0.71671790  0.02327446  1
  O  O28  1  0.47645861  0.29114762  0.21680580  1
  O  O29  1  0.52354139  0.70885238  0.21680580  1
  O  O30  1  0.52354139  0.29114762  0.78319420  1
  O  O31  1  0.47645861  0.70885238  0.78319420  1
  O  O32  1  0.21497257  0.47741009  0.29279835  1
  O  O33  1  0.21497257  0.52258991  0.70720165  1
  O  O34  1  0.78502743  0.52258991  0.29279835  1
  O  O35  1  0.78502743  0.47741009  0.70720165  1
  O  O36  1  0.29235126  0.21512019  0.47750974  1
  O  O37  1  0.70764874  0.21512019  0.52249026  1
  O  O38  1  0.29235126  0.78487981  0.52249026  1
  O  O39  1  0.70764874  0.78487981  0.47750974  1
