# generated using pymatgen
data_Ba2CrBiO6
_symmetry_space_group_name_H-M   'P 1'
_cell_length_a   8.40829932
_cell_length_b   8.40829932
_cell_length_c   8.40829932
_cell_angle_alpha   90.00000000
_cell_angle_beta   90.00000000
_cell_angle_gamma   90.00000000
_symmetry_Int_Tables_number   1
_chemical_formula_structural   Ba2CrBiO6
_chemical_formula_sum   'Ba8 Cr4 Bi4 O24'
_cell_volume   594.46253637
_cell_formula_units_Z   4
loop_
 _symmetry_equiv_pos_site_id
 _symmetry_equiv_pos_as_xyz
  1  'x, y, z'
loop_
 _atom_site_type_symbol
 _atom_site_label
 _atom_site_symmetry_multiplicity
 _atom_site_fract_x
 _atom_site_fract_y
 _atom_site_fract_z
 _atom_site_occupancy
  Ba  Ba0  1  0.50000000  0.50000000  0.50000000  1
  Ba  Ba1  1  0.00000000  -0.00000000  0.00000000  1
  Ba  Ba2  1  0.00000000  -0.00000000  0.50000000  1
  Ba  Ba3  1  0.00000000  0.50000000  0.00000000  1
  Ba  Ba4  1  0.50000000  -0.00000000  0.00000000  1
  Ba  Ba5  1  0.50000000  0.50000000  0.00000000  1
  Ba  Ba6  1  0.50000000  -0.00000000  0.50000000  1
  Ba  Ba7  1  0.00000000  0.50000000  0.50000000  1
  Cr  Cr8  1  0.25000000  0.25000000  0.25000000  1
  Cr  Cr9  1  0.25000000  0.75000000  0.75000000  1
  Cr  Cr10  1  0.75000000  0.25000000  0.75000000  1
  Cr  Cr11  1  0.75000000  0.75000000  0.25000000  1
  Bi  Bi12  1  0.75000000  0.75000000  0.75000000  1
  Bi  Bi13  1  0.75000000  0.25000000  0.25000000  1
  Bi  Bi14  1  0.25000000  0.75000000  0.25000000  1
  Bi  Bi15  1  0.25000000  0.25000000  0.75000000  1
  O  O16  1  0.24157780  0.26043377  0.48557268  1
  O  O17  1  0.24157780  0.73956623  0.51442732  1
  O  O18  1  0.75842220  0.26043377  0.51442732  1
  O  O19  1  0.75842220  0.73956623  0.48557268  1
  O  O20  1  0.26043377  0.48557268  0.24157780  1
  O  O21  1  0.73956623  0.51442732  0.24157780  1
  O  O22  1  0.26043377  0.51442732  0.75842220  1
  O  O23  1  0.73956623  0.48557268  0.75842220  1
  O  O24  1  0.48557268  0.24157780  0.26043377  1
  O  O25  1  0.51442732  0.24157780  0.73956623  1
  O  O26  1  0.51442732  0.75842220  0.26043377  1
  O  O27  1  0.48557268  0.75842220  0.73956623  1
  O  O28  1  0.25842220  0.23956623  0.01442732  1
  O  O29  1  0.25842220  0.76043377  0.98557268  1
  O  O30  1  0.74157780  0.23956623  0.98557268  1
  O  O31  1  0.74157780  0.76043377  0.01442732  1
  O  O32  1  0.23956623  0.01442732  0.25842220  1
  O  O33  1  0.76043377  0.98557268  0.25842220  1
  O  O34  1  0.23956623  0.98557268  0.74157780  1
  O  O35  1  0.76043377  0.01442732  0.74157780  1
  O  O36  1  0.01442732  0.25842220  0.23956623  1
  O  O37  1  0.98557268  0.25842220  0.76043377  1
  O  O38  1  0.98557268  0.74157780  0.23956623  1
  O  O39  1  0.01442732  0.74157780  0.76043377  1
