# generated using pymatgen
data_BaSrCe2O6
_symmetry_space_group_name_H-M   'P 1'
_cell_length_a   4.48140351
_cell_length_b   6.19762300
_cell_length_c   6.19762300
_cell_angle_alpha   89.26843982
_cell_angle_beta   90.00000000
_cell_angle_gamma   90.00000000
_symmetry_Int_Tables_number   1
_chemical_formula_structural   BaSrCe2O6
_chemical_formula_sum   'Ba1 Sr1 Ce2 O6'
_cell_volume   172.11905687
_cell_formula_units_Z   1
loop_
 _symmetry_equiv_pos_site_id
 _symmetry_equiv_pos_as_xyz
  1  'x, y, z'
loop_
 _atom_site_type_symbol
 _atom_site_label
 _atom_site_symmetry_multiplicity
 _atom_site_fract_x
 _atom_site_fract_y
 _atom_site_fract_z
 _atom_site_occupancy
  Ba  Ba0  1  0.50000000  -0.00000000  0.00000000  1
  Sr  Sr1  1  0.50000000  0.50000000  0.50000000  1
  Ce  Ce2  1  -0.00000000  -0.00000000  0.50000000  1
  Ce  Ce3  1  -0.00000000  0.50000000  0.00000000  1
  O  O4  1  0.50000000  -0.00000000  0.50000000  1
  O  O5  1  0.50000000  0.50000000  0.00000000  1
  O  O6  1  -0.00000000  0.31625664  0.68374336  1
  O  O7  1  0.00000000  0.68374336  0.31625664  1
  O  O8  1  -0.00000000  0.81109900  0.81109900  1
  O  O9  1  -0.00000000  0.18890100  0.18890100  1
