# generated using pymatgen
data_KDyTi4O12
_symmetry_space_group_name_H-M   'P 1'
_cell_length_a   5.48221442
_cell_length_b   5.48221442
_cell_length_c   7.76074313
_cell_angle_alpha   90.00000000
_cell_angle_beta   90.00000000
_cell_angle_gamma   90.05889839
_symmetry_Int_Tables_number   1
_chemical_formula_structural   KDyTi4O12
_chemical_formula_sum   'K1 Dy1 Ti4 O12'
_cell_volume   233.24648885
_cell_formula_units_Z   1
loop_
 _symmetry_equiv_pos_site_id
 _symmetry_equiv_pos_as_xyz
  1  'x, y, z'
loop_
 _atom_site_type_symbol
 _atom_site_label
 _atom_site_symmetry_multiplicity
 _atom_site_fract_x
 _atom_site_fract_y
 _atom_site_fract_z
 _atom_site_occupancy
  K  K0  1  0.01305918  0.98694082  0.50000000  1
  Dy  Dy1  1  0.47728356  0.52271644  -0.00000000  1
  Ti  Ti2  1  0.50518212  0.01084128  0.25655242  1
  Ti  Ti3  1  0.50518212  0.01084128  0.74344758  1
  Ti  Ti4  1  0.98915872  0.49481788  0.74344758  1
  Ti  Ti5  1  0.98915872  0.49481788  0.25655242  1
  O  O6  1  0.24379995  0.24202621  0.23056068  1
  O  O7  1  0.75797379  0.75620005  0.23056068  1
  O  O8  1  0.75797379  0.75620005  0.76943932  1
  O  O9  1  0.24379995  0.24202621  0.76943932  1
  O  O10  1  0.27377729  0.72622271  0.24896216  1
  O  O11  1  0.72205227  0.27794773  0.20250252  1
  O  O12  1  0.72205227  0.27794773  0.79749748  1
  O  O13  1  0.27377729  0.72622271  0.75103784  1
  O  O14  1  0.47918853  0.94840941  -0.00000000  1
  O  O15  1  0.51799443  0.01460457  0.50000000  1
  O  O16  1  0.05159059  0.52081147  -0.00000000  1
  O  O17  1  0.98539543  0.48200557  0.50000000  1
