# generated using pymatgen
data_BaCaTbSnO6
_symmetry_space_group_name_H-M   'P 1'
_cell_length_a   8.53047434
_cell_length_b   8.47373640
_cell_length_c   8.41908551
_cell_angle_alpha   90.00000000
_cell_angle_beta   90.00000000
_cell_angle_gamma   90.00000000
_symmetry_Int_Tables_number   1
_chemical_formula_structural   BaCaTbSnO6
_chemical_formula_sum   'Ba4 Ca4 Tb4 Sn4 O24'
_cell_volume   608.57351968
_cell_formula_units_Z   4
loop_
 _symmetry_equiv_pos_site_id
 _symmetry_equiv_pos_as_xyz
  1  'x, y, z'
loop_
 _atom_site_type_symbol
 _atom_site_label
 _atom_site_symmetry_multiplicity
 _atom_site_fract_x
 _atom_site_fract_y
 _atom_site_fract_z
 _atom_site_occupancy
  Ba  Ba0  1  0.00000000  0.00000000  -0.00000000  1
  Ba  Ba1  1  0.50000000  0.50000000  0.50000000  1
  Ba  Ba2  1  0.50000000  0.50000000  -0.00000000  1
  Ba  Ba3  1  0.00000000  0.00000000  0.50000000  1
  Ca  Ca4  1  -0.00000000  0.50000000  0.50000000  1
  Ca  Ca5  1  0.50000000  -0.00000000  0.50000000  1
  Ca  Ca6  1  0.50000000  -0.00000000  -0.00000000  1
  Ca  Ca7  1  -0.00000000  0.50000000  -0.00000000  1
  Tb  Tb8  1  0.25000000  0.25000000  0.25000000  1
  Tb  Tb9  1  0.75000000  0.75000000  0.25000000  1
  Tb  Tb10  1  0.75000000  0.25000000  0.75000000  1
  Tb  Tb11  1  0.25000000  0.75000000  0.75000000  1
  Sn  Sn12  1  0.75000000  0.75000000  0.75000000  1
  Sn  Sn13  1  0.25000000  0.25000000  0.75000000  1
  Sn  Sn14  1  0.25000000  0.75000000  0.25000000  1
  Sn  Sn15  1  0.75000000  0.25000000  0.25000000  1
  O  O16  1  0.99088309  0.21783377  0.28144256  1
  O  O17  1  0.00911691  0.78216623  0.28144256  1
  O  O18  1  0.00911691  0.21783377  0.71855744  1
  O  O19  1  0.99088309  0.78216623  0.71855744  1
  O  O20  1  0.28682492  0.98972652  0.19406668  1
  O  O21  1  0.28682492  0.01027348  0.80593332  1
  O  O22  1  0.71317508  0.01027348  0.19406668  1
  O  O23  1  0.71317508  0.98972652  0.80593332  1
  O  O24  1  0.20321516  0.30193888  0.98976679  1
  O  O25  1  0.79678484  0.30193888  0.01023321  1
  O  O26  1  0.20321516  0.69806112  0.01023321  1
  O  O27  1  0.79678484  0.69806112  0.98976679  1
  O  O28  1  0.50911691  0.28216623  0.21855744  1
  O  O29  1  0.49088309  0.71783377  0.21855744  1
  O  O30  1  0.49088309  0.28216623  0.78144256  1
  O  O31  1  0.50911691  0.71783377  0.78144256  1
  O  O32  1  0.21317508  0.51027348  0.30593332  1
  O  O33  1  0.21317508  0.48972652  0.69406668  1
  O  O34  1  0.78682492  0.48972652  0.30593332  1
  O  O35  1  0.78682492  0.51027348  0.69406668  1
  O  O36  1  0.29678484  0.19806112  0.51023321  1
  O  O37  1  0.70321516  0.19806112  0.48976679  1
  O  O38  1  0.29678484  0.80193888  0.48976679  1
  O  O39  1  0.70321516  0.80193888  0.51023321  1
