# generated using pymatgen
data_BaNaCeWO6
_symmetry_space_group_name_H-M   'P 1'
_cell_length_a   8.49633492
_cell_length_b   8.45674041
_cell_length_c   8.43377149
_cell_angle_alpha   90.00000000
_cell_angle_beta   90.00000000
_cell_angle_gamma   90.00000000
_symmetry_Int_Tables_number   1
_chemical_formula_structural   BaNaCeWO6
_chemical_formula_sum   'Ba4 Na4 Ce4 W4 O24'
_cell_volume   605.97743580
_cell_formula_units_Z   4
loop_
 _symmetry_equiv_pos_site_id
 _symmetry_equiv_pos_as_xyz
  1  'x, y, z'
loop_
 _atom_site_type_symbol
 _atom_site_label
 _atom_site_symmetry_multiplicity
 _atom_site_fract_x
 _atom_site_fract_y
 _atom_site_fract_z
 _atom_site_occupancy
  Ba  Ba0  1  0.00000000  -0.00000000  0.00000000  1
  Ba  Ba1  1  0.50000000  0.50000000  0.50000000  1
  Ba  Ba2  1  0.00000000  0.50000000  0.50000000  1
  Ba  Ba3  1  0.50000000  -0.00000000  -0.00000000  1
  Na  Na4  1  0.50000000  -0.00000000  0.50000000  1
  Na  Na5  1  0.50000000  0.50000000  0.00000000  1
  Na  Na6  1  0.00000000  0.50000000  -0.00000000  1
  Na  Na7  1  0.00000000  -0.00000000  0.50000000  1
  Ce  Ce8  1  0.75000000  0.75000000  0.75000000  1
  Ce  Ce9  1  0.25000000  0.25000000  0.75000000  1
  Ce  Ce10  1  0.25000000  0.75000000  0.25000000  1
  Ce  Ce11  1  0.75000000  0.25000000  0.25000000  1
  W  W12  1  0.25000000  0.25000000  0.25000000  1
  W  W13  1  0.75000000  0.75000000  0.25000000  1
  W  W14  1  0.75000000  0.25000000  0.75000000  1
  W  W15  1  0.25000000  0.75000000  0.75000000  1
  O  O16  1  0.01063938  0.22923299  0.28601180  1
  O  O17  1  0.98936062  0.77076701  0.28601180  1
  O  O18  1  0.98936062  0.22923299  0.71398820  1
  O  O19  1  0.01063938  0.77076701  0.71398820  1
  O  O20  1  0.26324509  0.01008068  0.21966438  1
  O  O21  1  0.26324509  0.98991932  0.78033562  1
  O  O22  1  0.73675491  0.98991932  0.21966438  1
  O  O23  1  0.73675491  0.01008068  0.78033562  1
  O  O24  1  0.21134904  0.26968301  0.02211567  1
  O  O25  1  0.78865096  0.26968301  0.97788433  1
  O  O26  1  0.21134904  0.73031699  0.97788433  1
  O  O27  1  0.78865096  0.73031699  0.02211567  1
  O  O28  1  0.48936062  0.27076701  0.21398820  1
  O  O29  1  0.51063938  0.72923299  0.21398820  1
  O  O30  1  0.51063938  0.27076701  0.78601180  1
  O  O31  1  0.48936062  0.72923299  0.78601180  1
  O  O32  1  0.23675491  0.48991932  0.28033562  1
  O  O33  1  0.23675491  0.51008068  0.71966438  1
  O  O34  1  0.76324509  0.51008068  0.28033562  1
  O  O35  1  0.76324509  0.48991932  0.71966438  1
  O  O36  1  0.28865096  0.23031699  0.47788433  1
  O  O37  1  0.71134904  0.23031699  0.52211567  1
  O  O38  1  0.28865096  0.76968301  0.52211567  1
  O  O39  1  0.71134904  0.76968301  0.47788433  1
