# generated using pymatgen
data_BaYInWO6
_symmetry_space_group_name_H-M   'P 1'
_cell_length_a   8.50580887
_cell_length_b   8.48860263
_cell_length_c   8.48865210
_cell_angle_alpha   90.00000000
_cell_angle_beta   90.00000000
_cell_angle_gamma   90.00000000
_symmetry_Int_Tables_number   1
_chemical_formula_structural   BaYInWO6
_chemical_formula_sum   'Ba4 Y4 In4 W4 O24'
_cell_volume   612.90132215
_cell_formula_units_Z   4
loop_
 _symmetry_equiv_pos_site_id
 _symmetry_equiv_pos_as_xyz
  1  'x, y, z'
loop_
 _atom_site_type_symbol
 _atom_site_label
 _atom_site_symmetry_multiplicity
 _atom_site_fract_x
 _atom_site_fract_y
 _atom_site_fract_z
 _atom_site_occupancy
  Ba  Ba0  1  -0.00000000  0.00000000  -0.00000000  1
  Ba  Ba1  1  0.50000000  0.50000000  0.50000000  1
  Ba  Ba2  1  -0.00000000  0.50000000  0.50000000  1
  Ba  Ba3  1  0.50000000  0.00000000  0.00000000  1
  Y  Y4  1  0.25000000  0.25000000  0.25000000  1
  Y  Y5  1  0.75000000  0.75000000  0.25000000  1
  Y  Y6  1  0.75000000  0.25000000  0.75000000  1
  Y  Y7  1  0.25000000  0.75000000  0.75000000  1
  In  In8  1  0.50000000  0.00000000  0.50000000  1
  In  In9  1  0.50000000  0.50000000  0.00000000  1
  In  In10  1  -0.00000000  0.50000000  -0.00000000  1
  In  In11  1  -0.00000000  0.00000000  0.50000000  1
  W  W12  1  0.75000000  0.75000000  0.75000000  1
  W  W13  1  0.25000000  0.25000000  0.75000000  1
  W  W14  1  0.25000000  0.75000000  0.25000000  1
  W  W15  1  0.75000000  0.25000000  0.25000000  1
  O  O16  1  0.98107923  0.24874544  0.25741700  1
  O  O17  1  0.01892077  0.75125456  0.25741700  1
  O  O18  1  0.01892077  0.24874544  0.74258300  1
  O  O19  1  0.98107923  0.75125456  0.74258300  1
  O  O20  1  0.25157093  0.98099250  0.23735151  1
  O  O21  1  0.25157093  0.01900750  0.76264849  1
  O  O22  1  0.74842907  0.01900750  0.23735151  1
  O  O23  1  0.74842907  0.98099250  0.76264849  1
  O  O24  1  0.24285569  0.24770799  0.98139412  1
  O  O25  1  0.75714431  0.24770799  0.01860588  1
  O  O26  1  0.24285569  0.75229201  0.01860588  1
  O  O27  1  0.75714431  0.75229201  0.98139412  1
  O  O28  1  0.51892077  0.25125456  0.24258300  1
  O  O29  1  0.48107923  0.74874544  0.24258300  1
  O  O30  1  0.48107923  0.25125456  0.75741700  1
  O  O31  1  0.51892077  0.74874544  0.75741700  1
  O  O32  1  0.24842907  0.51900750  0.26264849  1
  O  O33  1  0.24842907  0.48099250  0.73735151  1
  O  O34  1  0.75157093  0.48099250  0.26264849  1
  O  O35  1  0.75157093  0.51900750  0.73735151  1
  O  O36  1  0.25714431  0.25229201  0.51860588  1
  O  O37  1  0.74285569  0.25229201  0.48139412  1
  O  O38  1  0.25714431  0.74770799  0.48139412  1
  O  O39  1  0.74285569  0.74770799  0.51860588  1
