# generated using pymatgen
data_KSrPrFeO6
_symmetry_space_group_name_H-M   'P 1'
_cell_length_a   5.92368019
_cell_length_b   5.92368019
_cell_length_c   5.92368019
_cell_angle_alpha   60.00000000
_cell_angle_beta   60.00000000
_cell_angle_gamma   60.00000000
_symmetry_Int_Tables_number   1
_chemical_formula_structural   KSrPrFeO6
_chemical_formula_sum   'K1 Sr1 Pr1 Fe1 O6'
_cell_volume   146.98053113
_cell_formula_units_Z   1
loop_
 _symmetry_equiv_pos_site_id
 _symmetry_equiv_pos_as_xyz
  1  'x, y, z'
loop_
 _atom_site_type_symbol
 _atom_site_label
 _atom_site_symmetry_multiplicity
 _atom_site_fract_x
 _atom_site_fract_y
 _atom_site_fract_z
 _atom_site_occupancy
  K  K0  1  0.75000000  0.75000000  0.75000000  1
  Sr  Sr1  1  0.25000000  0.25000000  0.25000000  1
  Pr  Pr2  1  0.50000000  0.50000000  0.50000000  1
  Fe  Fe3  1  0.00000000  0.00000000  0.00000000  1
  O  O4  1  0.77651418  0.22348582  0.22348582  1
  O  O5  1  0.22348582  0.77651418  0.77651418  1
  O  O6  1  0.77651418  0.22348582  0.77651418  1
  O  O7  1  0.22348582  0.77651418  0.22348582  1
  O  O8  1  0.77651418  0.77651418  0.22348582  1
  O  O9  1  0.22348582  0.22348582  0.77651418  1
