# generated using pymatgen
data_CeEu2WO6
_symmetry_space_group_name_H-M   'P 1'
_cell_length_a   8.48379001
_cell_length_b   8.48379001
_cell_length_c   8.48379001
_cell_angle_alpha   90.00000000
_cell_angle_beta   90.00000000
_cell_angle_gamma   90.00000000
_symmetry_Int_Tables_number   1
_chemical_formula_structural   CeEu2WO6
_chemical_formula_sum   'Ce4 Eu8 W4 O24'
_cell_volume   610.61818088
_cell_formula_units_Z   4
loop_
 _symmetry_equiv_pos_site_id
 _symmetry_equiv_pos_as_xyz
  1  'x, y, z'
loop_
 _atom_site_type_symbol
 _atom_site_label
 _atom_site_symmetry_multiplicity
 _atom_site_fract_x
 _atom_site_fract_y
 _atom_site_fract_z
 _atom_site_occupancy
  Ce  Ce0  1  0.75000000  0.75000000  0.75000000  1
  Ce  Ce1  1  0.75000000  0.25000000  0.25000000  1
  Ce  Ce2  1  0.25000000  0.75000000  0.25000000  1
  Ce  Ce3  1  0.25000000  0.25000000  0.75000000  1
  Eu  Eu4  1  0.50000000  0.50000000  0.50000000  1
  Eu  Eu5  1  -0.00000000  0.00000000  -0.00000000  1
  Eu  Eu6  1  -0.00000000  0.00000000  0.50000000  1
  Eu  Eu7  1  -0.00000000  0.50000000  -0.00000000  1
  Eu  Eu8  1  0.50000000  0.00000000  -0.00000000  1
  Eu  Eu9  1  0.50000000  0.50000000  -0.00000000  1
  Eu  Eu10  1  0.50000000  0.00000000  0.50000000  1
  Eu  Eu11  1  -0.00000000  0.50000000  0.50000000  1
  W  W12  1  0.25000000  0.25000000  0.25000000  1
  W  W13  1  0.25000000  0.75000000  0.75000000  1
  W  W14  1  0.75000000  0.25000000  0.75000000  1
  W  W15  1  0.75000000  0.75000000  0.25000000  1
  O  O16  1  0.20876578  0.29815311  0.48817663  1
  O  O17  1  0.20876578  0.70184689  0.51182337  1
  O  O18  1  0.79123422  0.29815311  0.51182337  1
  O  O19  1  0.79123422  0.70184689  0.48817663  1
  O  O20  1  0.29815311  0.48817663  0.20876578  1
  O  O21  1  0.70184689  0.51182337  0.20876578  1
  O  O22  1  0.29815311  0.51182337  0.79123422  1
  O  O23  1  0.70184689  0.48817663  0.79123422  1
  O  O24  1  0.48817663  0.20876578  0.29815311  1
  O  O25  1  0.51182337  0.20876578  0.70184689  1
  O  O26  1  0.51182337  0.79123422  0.29815311  1
  O  O27  1  0.48817663  0.79123422  0.70184689  1
  O  O28  1  0.29123422  0.20184689  0.01182337  1
  O  O29  1  0.29123422  0.79815311  0.98817663  1
  O  O30  1  0.70876578  0.20184689  0.98817663  1
  O  O31  1  0.70876578  0.79815311  0.01182337  1
  O  O32  1  0.20184689  0.01182337  0.29123422  1
  O  O33  1  0.79815311  0.98817663  0.29123422  1
  O  O34  1  0.20184689  0.98817663  0.70876578  1
  O  O35  1  0.79815311  0.01182337  0.70876578  1
  O  O36  1  0.01182337  0.29123422  0.20184689  1
  O  O37  1  0.98817663  0.29123422  0.79815311  1
  O  O38  1  0.98817663  0.70876578  0.20184689  1
  O  O39  1  0.01182337  0.70876578  0.79815311  1
