# generated using pymatgen
data_BaTbEuBiO6
_symmetry_space_group_name_H-M   'P 1'
_cell_length_a   6.10047597
_cell_length_b   6.21868938
_cell_length_c   8.70770059
_cell_angle_alpha   90.07248795
_cell_angle_beta   89.92704289
_cell_angle_gamma   89.80696979
_symmetry_Int_Tables_number   1
_chemical_formula_structural   BaTbEuBiO6
_chemical_formula_sum   'Ba2 Tb2 Eu2 Bi2 O12'
_cell_volume   330.34132496
_cell_formula_units_Z   2
loop_
 _symmetry_equiv_pos_site_id
 _symmetry_equiv_pos_as_xyz
  1  'x, y, z'
loop_
 _atom_site_type_symbol
 _atom_site_label
 _atom_site_symmetry_multiplicity
 _atom_site_fract_x
 _atom_site_fract_y
 _atom_site_fract_z
 _atom_site_occupancy
  Ba  Ba0  1  0.99104841  0.03590578  0.25026094  1
  Ba  Ba1  1  0.00895159  0.96409422  0.74973906  1
  Tb  Tb2  1  0.50000000  0.00000000  0.00000000  1
  Tb  Tb3  1  -0.00000000  0.50000000  0.50000000  1
  Eu  Eu4  1  0.51081054  0.54721539  0.25103483  1
  Eu  Eu5  1  0.48918946  0.45278461  0.74896517  1
  Bi  Bi6  1  -0.00000000  0.50000000  0.00000000  1
  Bi  Bi7  1  0.50000000  0.00000000  0.50000000  1
  O  O8  1  0.20946879  0.22060340  0.95347783  1
  O  O9  1  0.30883064  0.70207338  0.55262037  1
  O  O10  1  0.79053121  0.77939660  0.04652217  1
  O  O11  1  0.69116936  0.29792662  0.44737963  1
  O  O12  1  0.29469982  0.69396821  0.94542947  1
  O  O13  1  0.21897265  0.21293102  0.54511223  1
  O  O14  1  0.70530018  0.30603179  0.05457053  1
  O  O15  1  0.78102735  0.78706898  0.45488777  1
  O  O16  1  0.42631916  0.95081338  0.25411054  1
  O  O17  1  0.10978590  0.48780745  0.24409543  1
  O  O18  1  0.57368084  0.04918662  0.74588946  1
  O  O19  1  0.89021410  0.51219255  0.75590457  1
