# generated using pymatgen
data_BaTbEuVO6
_symmetry_space_group_name_H-M   'P 1'
_cell_length_a   11.59287875
_cell_length_b   11.20456480
_cell_length_c   10.36763840
_cell_angle_alpha   90.00000000
_cell_angle_beta   90.00000000
_cell_angle_gamma   90.00000000
_symmetry_Int_Tables_number   1
_chemical_formula_structural   BaTbEuVO6
_chemical_formula_sum   'Ba4 Tb4 Eu4 V4 O24'
_cell_volume   1346.68532567
_cell_formula_units_Z   4
loop_
 _symmetry_equiv_pos_site_id
 _symmetry_equiv_pos_as_xyz
  1  'x, y, z'
loop_
 _atom_site_type_symbol
 _atom_site_label
 _atom_site_symmetry_multiplicity
 _atom_site_fract_x
 _atom_site_fract_y
 _atom_site_fract_z
 _atom_site_occupancy
  Ba  Ba0  1  0.00000000  -0.00000000  0.00000000  1
  Ba  Ba1  1  0.50000000  0.50000000  0.50000000  1
  Ba  Ba2  1  0.50000000  -0.00000000  0.50000000  1
  Ba  Ba3  1  0.50000000  0.50000000  0.00000000  1
  Tb  Tb4  1  0.75094458  0.75121940  0.74611828  1
  Tb  Tb5  1  0.24905542  0.24878060  0.74611828  1
  Tb  Tb6  1  0.24905542  0.75121940  0.25388172  1
  Tb  Tb7  1  0.75094458  0.24878060  0.25388172  1
  Eu  Eu8  1  0.00000000  0.50000000  0.50000000  1
  Eu  Eu9  1  0.50000000  -0.00000000  0.00000000  1
  Eu  Eu10  1  -0.00000000  0.50000000  0.00000000  1
  Eu  Eu11  1  -0.00000000  -0.00000000  0.50000000  1
  V  V12  1  0.25176185  0.24710384  0.25296151  1
  V  V13  1  0.74823815  0.75289616  0.25296151  1
  V  V14  1  0.74823815  0.24710384  0.74703849  1
  V  V15  1  0.25176185  0.75289616  0.74703849  1
  O  O16  1  0.01690086  0.22497914  0.27871411  1
  O  O17  1  0.98309914  0.77502086  0.27871411  1
  O  O18  1  0.98309914  0.22497914  0.72128589  1
  O  O19  1  0.01690086  0.77502086  0.72128589  1
  O  O20  1  0.27491471  0.01893401  0.22036143  1
  O  O21  1  0.27491471  0.98106599  0.77963857  1
  O  O22  1  0.72508529  0.98106599  0.22036143  1
  O  O23  1  0.72508529  0.01893401  0.77963857  1
  O  O24  1  0.21970490  0.27850780  0.02665685  1
  O  O25  1  0.78029510  0.27850780  0.97334315  1
  O  O26  1  0.21970490  0.72149220  0.97334315  1
  O  O27  1  0.78029510  0.72149220  0.02665685  1
  O  O28  1  0.47868721  0.26662931  0.22808720  1
  O  O29  1  0.52131279  0.73337069  0.22808720  1
  O  O30  1  0.52131279  0.26662931  0.77191280  1
  O  O31  1  0.47868721  0.73337069  0.77191280  1
  O  O32  1  0.21918383  0.48303329  0.27586846  1
  O  O33  1  0.21918383  0.51696671  0.72413154  1
  O  O34  1  0.78081617  0.51696671  0.27586846  1
  O  O35  1  0.78081617  0.48303329  0.72413154  1
  O  O36  1  0.26711139  0.22820032  0.47413462  1
  O  O37  1  0.73288861  0.22820032  0.52586538  1
  O  O38  1  0.26711139  0.77179968  0.52586538  1
  O  O39  1  0.73288861  0.77179968  0.47413462  1
