# generated using pymatgen
data_RbSeO3
_symmetry_space_group_name_H-M   'P 1'
_cell_length_a   5.50549900
_cell_length_b   5.77156849
_cell_length_c   7.39052304
_cell_angle_alpha   107.56534209
_cell_angle_beta   107.94247385
_cell_angle_gamma   92.66571236
_symmetry_Int_Tables_number   1
_chemical_formula_structural   RbSeO3
_chemical_formula_sum   'Rb2 Se2 O6'
_cell_volume   210.46488442
_cell_formula_units_Z   2
loop_
 _symmetry_equiv_pos_site_id
 _symmetry_equiv_pos_as_xyz
  1  'x, y, z'
loop_
 _atom_site_type_symbol
 _atom_site_label
 _atom_site_symmetry_multiplicity
 _atom_site_fract_x
 _atom_site_fract_y
 _atom_site_fract_z
 _atom_site_occupancy
  Rb  Rb0  1  0.12999300  0.36018500  0.77863300  1
  Rb  Rb1  1  0.87000700  0.63981500  0.22136700  1
  Se  Se2  1  0.44741400  0.16090800  0.29166400  1
  Se  Se3  1  0.55258600  0.83909200  0.70833600  1
  O  O4  1  0.76850700  0.16752500  0.34353800  1
  O  O5  1  0.23149300  0.83247500  0.65646200  1
  O  O6  1  0.35622100  0.40539000  0.22243300  1
  O  O7  1  0.64377900  0.59461000  0.77756700  1
  O  O8  1  0.28465200  0.89195400  0.11948300  1
  O  O9  1  0.71534800  0.10804600  0.88051700  1
