# generated using pymatgen
data_NaPrZr4O12
_symmetry_space_group_name_H-M   'P 1'
_cell_length_a   5.78236941
_cell_length_b   5.78236941
_cell_length_c   8.36999123
_cell_angle_alpha   90.00000000
_cell_angle_beta   90.00000000
_cell_angle_gamma   90.12791327
_symmetry_Int_Tables_number   1
_chemical_formula_structural   NaPrZr4O12
_chemical_formula_sum   'Na1 Pr1 Zr4 O12'
_cell_volume   279.85662198
_cell_formula_units_Z   1
loop_
 _symmetry_equiv_pos_site_id
 _symmetry_equiv_pos_as_xyz
  1  'x, y, z'
loop_
 _atom_site_type_symbol
 _atom_site_label
 _atom_site_symmetry_multiplicity
 _atom_site_fract_x
 _atom_site_fract_y
 _atom_site_fract_z
 _atom_site_occupancy
  Na  Na0  1  0.51147694  0.51147694  0.00000000  1
  Pr  Pr1  1  0.98194018  0.98194018  0.50000000  1
  Zr  Zr2  1  0.48981772  0.00736498  0.76387581  1
  Zr  Zr3  1  0.48981772  0.00736498  0.23612419  1
  Zr  Zr4  1  0.00736498  0.48981772  0.23612419  1
  Zr  Zr5  1  0.00736498  0.48981772  0.76387581  1
  O  O6  1  0.78981825  0.20905466  0.71617038  1
  O  O7  1  0.20905466  0.78981825  0.71617038  1
  O  O8  1  0.20905466  0.78981825  0.28382962  1
  O  O9  1  0.78981825  0.20905466  0.28382962  1
  O  O10  1  0.75195217  0.75195217  0.69533830  1
  O  O11  1  0.30286219  0.30286219  0.79752004  1
  O  O12  1  0.30286219  0.30286219  0.20247996  1
  O  O13  1  0.75195217  0.75195217  0.30466170  1
  O  O14  1  0.51350933  0.92320774  -0.00000000  1
  O  O15  1  0.42888999  0.03753586  0.50000000  1
  O  O16  1  0.92320774  0.51350933  -0.00000000  1
  O  O17  1  0.03753586  0.42888999  0.50000000  1
