# generated using pymatgen
data_BaTb2DyO6
_symmetry_space_group_name_H-M   'P 1'
_cell_length_a   5.95750776
_cell_length_b   6.17285106
_cell_length_c   8.63340536
_cell_angle_alpha   90.00000000
_cell_angle_beta   90.00000000
_cell_angle_gamma   88.84547775
_symmetry_Int_Tables_number   1
_chemical_formula_structural   BaTb2DyO6
_chemical_formula_sum   'Ba2 Tb4 Dy2 O12'
_cell_volume   317.42737146
_cell_formula_units_Z   2
loop_
 _symmetry_equiv_pos_site_id
 _symmetry_equiv_pos_as_xyz
  1  'x, y, z'
loop_
 _atom_site_type_symbol
 _atom_site_label
 _atom_site_symmetry_multiplicity
 _atom_site_fract_x
 _atom_site_fract_y
 _atom_site_fract_z
 _atom_site_occupancy
  Ba  Ba0  1  0.00887496  0.05208783  0.75000000  1
  Ba  Ba1  1  0.99112504  0.94791217  0.25000000  1
  Tb  Tb2  1  0.00000000  0.50000000  0.00000000  1
  Tb  Tb3  1  0.50000000  0.00000000  0.00000000  1
  Tb  Tb4  1  0.00000000  0.50000000  0.50000000  1
  Tb  Tb5  1  0.50000000  0.00000000  0.50000000  1
  Dy  Dy6  1  0.53507057  0.44423350  0.25000000  1
  Dy  Dy7  1  0.46492943  0.55576650  0.75000000  1
  O  O8  1  0.40585928  0.09156998  0.25000000  1
  O  O9  1  0.83775157  0.47721542  0.75000000  1
  O  O10  1  0.59414072  0.90843002  0.75000000  1
  O  O11  1  0.16224843  0.52278458  0.25000000  1
  O  O12  1  0.21145618  0.78376978  0.93632274  1
  O  O13  1  0.68610944  0.68665258  0.08037713  1
  O  O14  1  0.78854382  0.21623022  0.43632274  1
  O  O15  1  0.31389056  0.31334742  0.58037713  1
  O  O16  1  0.78854382  0.21623022  0.06367726  1
  O  O17  1  0.31389056  0.31334742  0.91962287  1
  O  O18  1  0.21145618  0.78376978  0.56367726  1
  O  O19  1  0.68610944  0.68665258  0.41962287  1
