# generated using pymatgen
data_KLa(FeO3)4
_symmetry_space_group_name_H-M   'P 1'
_cell_length_a   5.46078417
_cell_length_b   5.46078417
_cell_length_c   7.69680507
_cell_angle_alpha   90.00000000
_cell_angle_beta   90.00000000
_cell_angle_gamma   90.20891285
_symmetry_Int_Tables_number   1
_chemical_formula_structural   KLa(FeO3)4
_chemical_formula_sum   'K1 La1 Fe4 O12'
_cell_volume   229.51846181
_cell_formula_units_Z   1
loop_
 _symmetry_equiv_pos_site_id
 _symmetry_equiv_pos_as_xyz
  1  'x, y, z'
loop_
 _atom_site_type_symbol
 _atom_site_label
 _atom_site_symmetry_multiplicity
 _atom_site_fract_x
 _atom_site_fract_y
 _atom_site_fract_z
 _atom_site_occupancy
  K  K0  1  0.99969721  0.99969721  0.00000000  1
  La  La1  1  0.50096528  0.50096528  0.50000000  1
  Fe  Fe2  1  0.49994419  0.00024874  0.75500210  1
  Fe  Fe3  1  0.49994419  0.00024874  0.24499790  1
  Fe  Fe4  1  0.00024874  0.49994419  0.24499790  1
  Fe  Fe5  1  0.00024874  0.49994419  0.75500210  1
  O  O6  1  0.73969282  0.25999413  0.73865890  1
  O  O7  1  0.25999413  0.73969282  0.73865890  1
  O  O8  1  0.25999413  0.73969282  0.26134110  1
  O  O9  1  0.73969282  0.25999413  0.26134110  1
  O  O10  1  0.74199662  0.74199662  0.74058164  1
  O  O11  1  0.25705114  0.25705114  0.73329674  1
  O  O12  1  0.25705114  0.25705114  0.26670326  1
  O  O13  1  0.74199662  0.74199662  0.25941836  1
  O  O14  1  0.49845158  0.00418792  -0.00000000  1
  O  O15  1  0.50358853  0.99475420  0.50000000  1
  O  O16  1  0.00418792  0.49845158  0.00000000  1
  O  O17  1  0.99475420  0.50358853  0.50000000  1
