# generated using pymatgen
data_SrCaTbBiO6
_symmetry_space_group_name_H-M   'P 1'
_cell_length_a   8.48948072
_cell_length_b   8.48023825
_cell_length_c   8.49084909
_cell_angle_alpha   90.00000000
_cell_angle_beta   90.00000000
_cell_angle_gamma   90.00000000
_symmetry_Int_Tables_number   1
_chemical_formula_structural   SrCaTbBiO6
_chemical_formula_sum   'Sr4 Ca4 Tb4 Bi4 O24'
_cell_volume   611.28016275
_cell_formula_units_Z   4
loop_
 _symmetry_equiv_pos_site_id
 _symmetry_equiv_pos_as_xyz
  1  'x, y, z'
loop_
 _atom_site_type_symbol
 _atom_site_label
 _atom_site_symmetry_multiplicity
 _atom_site_fract_x
 _atom_site_fract_y
 _atom_site_fract_z
 _atom_site_occupancy
  Sr  Sr0  1  0.00000000  0.50000000  0.50000000  1
  Sr  Sr1  1  0.50000000  -0.00000000  0.50000000  1
  Sr  Sr2  1  0.50000000  0.50000000  -0.00000000  1
  Sr  Sr3  1  0.50000000  -0.00000000  -0.00000000  1
  Ca  Ca4  1  0.00000000  0.50000000  -0.00000000  1
  Ca  Ca5  1  -0.00000000  -0.00000000  0.50000000  1
  Ca  Ca6  1  -0.00000000  -0.00000000  -0.00000000  1
  Ca  Ca7  1  0.50000000  0.50000000  0.50000000  1
  Tb  Tb8  1  0.24779170  0.24968614  0.25001555  1
  Tb  Tb9  1  0.75220830  0.75031386  0.25001555  1
  Tb  Tb10  1  0.75220830  0.24968614  0.74998445  1
  Tb  Tb11  1  0.24779170  0.75031386  0.74998445  1
  Bi  Bi12  1  0.75254314  0.75026013  0.74980863  1
  Bi  Bi13  1  0.24745686  0.24973987  0.74980863  1
  Bi  Bi14  1  0.24745686  0.75026013  0.25019137  1
  Bi  Bi15  1  0.75254314  0.24973987  0.25019137  1
  O  O16  1  0.99291176  0.19388295  0.29612966  1
  O  O17  1  0.00708824  0.80611705  0.29612966  1
  O  O18  1  0.00708824  0.19388295  0.70387034  1
  O  O19  1  0.99291176  0.80611705  0.70387034  1
  O  O20  1  0.28504894  0.99277616  0.19972349  1
  O  O21  1  0.28504894  0.00722384  0.80027651  1
  O  O22  1  0.71495106  0.00722384  0.19972349  1
  O  O23  1  0.71495106  0.99277616  0.80027651  1
  O  O24  1  0.19208285  0.29364044  0.99201508  1
  O  O25  1  0.80791715  0.29364044  0.00798492  1
  O  O26  1  0.19208285  0.70635956  0.00798492  1
  O  O27  1  0.80791715  0.70635956  0.99201508  1
  O  O28  1  0.50758350  0.29478161  0.21317776  1
  O  O29  1  0.49241650  0.70521839  0.21317776  1
  O  O30  1  0.49241650  0.29478161  0.78682224  1
  O  O31  1  0.50758350  0.70521839  0.78682224  1
  O  O32  1  0.21317204  0.50682961  0.29710164  1
  O  O33  1  0.21317204  0.49317039  0.70289836  1
  O  O34  1  0.78682796  0.49317039  0.29710164  1
  O  O35  1  0.78682796  0.50682961  0.70289836  1
  O  O36  1  0.29781424  0.21569729  0.50676590  1
  O  O37  1  0.70218576  0.21569729  0.49323410  1
  O  O38  1  0.29781424  0.78430271  0.49323410  1
  O  O39  1  0.70218576  0.78430271  0.50676590  1
