# generated using pymatgen
data_BaSrLaBiO6
_symmetry_space_group_name_H-M   'P 1'
_cell_length_a   8.84368988
_cell_length_b   8.82491764
_cell_length_c   8.79128961
_cell_angle_alpha   90.00000000
_cell_angle_beta   90.00000000
_cell_angle_gamma   90.00000000
_symmetry_Int_Tables_number   1
_chemical_formula_structural   BaSrLaBiO6
_chemical_formula_sum   'Ba4 Sr4 La4 Bi4 O24'
_cell_volume   686.11474551
_cell_formula_units_Z   4
loop_
 _symmetry_equiv_pos_site_id
 _symmetry_equiv_pos_as_xyz
  1  'x, y, z'
loop_
 _atom_site_type_symbol
 _atom_site_label
 _atom_site_symmetry_multiplicity
 _atom_site_fract_x
 _atom_site_fract_y
 _atom_site_fract_z
 _atom_site_occupancy
  Ba  Ba0  1  -0.00000000  -0.00000000  -0.00000000  1
  Ba  Ba1  1  0.50000000  0.50000000  0.50000000  1
  Ba  Ba2  1  0.50000000  -0.00000000  0.50000000  1
  Ba  Ba3  1  -0.00000000  0.50000000  -0.00000000  1
  Sr  Sr4  1  0.25000000  0.25000000  0.25000000  1
  Sr  Sr5  1  0.75000000  0.75000000  0.25000000  1
  Sr  Sr6  1  0.75000000  0.25000000  0.75000000  1
  Sr  Sr7  1  0.25000000  0.75000000  0.75000000  1
  La  La8  1  -0.00000000  0.50000000  0.50000000  1
  La  La9  1  0.50000000  0.50000000  -0.00000000  1
  La  La10  1  0.50000000  0.00000000  -0.00000000  1
  La  La11  1  -0.00000000  -0.00000000  0.50000000  1
  Bi  Bi12  1  0.75000000  0.75000000  0.75000000  1
  Bi  Bi13  1  0.25000000  0.25000000  0.75000000  1
  Bi  Bi14  1  0.25000000  0.75000000  0.25000000  1
  Bi  Bi15  1  0.75000000  0.25000000  0.25000000  1
  O  O16  1  0.98153073  0.18439134  0.29853192  1
  O  O17  1  0.01846927  0.81560866  0.29853192  1
  O  O18  1  0.01846927  0.18439134  0.70146808  1
  O  O19  1  0.98153073  0.81560866  0.70146808  1
  O  O20  1  0.30959009  0.98098710  0.19437145  1
  O  O21  1  0.30959009  0.01901290  0.80562855  1
  O  O22  1  0.69040991  0.01901290  0.19437145  1
  O  O23  1  0.69040991  0.98098710  0.80562855  1
  O  O24  1  0.20933426  0.28614726  0.98226918  1
  O  O25  1  0.79066574  0.28614726  0.01773082  1
  O  O26  1  0.20933426  0.71385274  0.01773082  1
  O  O27  1  0.79066574  0.71385274  0.98226918  1
  O  O28  1  0.51846927  0.31560866  0.20146808  1
  O  O29  1  0.48153073  0.68439134  0.20146808  1
  O  O30  1  0.48153073  0.31560866  0.79853192  1
  O  O31  1  0.51846927  0.68439134  0.79853192  1
  O  O32  1  0.19040991  0.51901290  0.30562855  1
  O  O33  1  0.19040991  0.48098710  0.69437145  1
  O  O34  1  0.80959009  0.48098710  0.30562855  1
  O  O35  1  0.80959009  0.51901290  0.69437145  1
  O  O36  1  0.29066574  0.21385274  0.51773082  1
  O  O37  1  0.70933426  0.21385274  0.48226918  1
  O  O38  1  0.29066574  0.78614726  0.48226918  1
  O  O39  1  0.70933426  0.78614726  0.51773082  1
