# generated using pymatgen
data_KLaEuSbO6
_symmetry_space_group_name_H-M   'P 1'
_cell_length_a   5.89062489
_cell_length_b   6.12033612
_cell_length_c   8.46341451
_cell_angle_alpha   90.02274568
_cell_angle_beta   90.48026724
_cell_angle_gamma   89.97960083
_symmetry_Int_Tables_number   1
_chemical_formula_structural   KLaEuSbO6
_chemical_formula_sum   'K2 La2 Eu2 Sb2 O12'
_cell_volume   305.11737217
_cell_formula_units_Z   2
loop_
 _symmetry_equiv_pos_site_id
 _symmetry_equiv_pos_as_xyz
  1  'x, y, z'
loop_
 _atom_site_type_symbol
 _atom_site_label
 _atom_site_symmetry_multiplicity
 _atom_site_fract_x
 _atom_site_fract_y
 _atom_site_fract_z
 _atom_site_occupancy
  K  K0  1  0.50867831  0.53480355  0.24920769  1
  K  K1  1  0.00870076  0.96517066  0.74917705  1
  La  La2  1  0.99793086  0.52049013  -0.00045483  1
  La  La3  1  0.49780941  0.97960265  0.49954436  1
  Eu  Eu4  1  0.98062368  0.06663011  0.25174394  1
  Eu  Eu5  1  0.48034127  0.43337846  0.75116060  1
  Sb  Sb6  1  0.49938917  -0.00056942  0.00116474  1
  Sb  Sb7  1  -0.00077928  0.50032504  0.50083579  1
  O  O8  1  0.23946894  0.21205102  0.95717612  1
  O  O9  1  0.28648057  0.66001765  0.56272660  1
  O  O10  1  0.78674601  0.84004843  0.06277370  1
  O  O11  1  0.73955053  0.28832291  0.45721935  1
  O  O12  1  0.35084906  0.71264770  0.93901761  1
  O  O13  1  0.20132893  0.23629002  0.54743634  1
  O  O14  1  0.70153552  0.26354162  0.04754909  1
  O  O15  1  0.85063086  0.78739349  0.43905012  1
  O  O16  1  0.36820974  0.97533126  0.22265740  1
  O  O17  1  0.06695334  0.44990090  0.26966066  1
  O  O18  1  0.56718703  0.04998208  0.76950286  1
  O  O19  1  0.86836528  0.52464175  0.72285082  1
