# generated using pymatgen
data_SrCaGdBiO6
_symmetry_space_group_name_H-M   'P 1'
_cell_length_a   5.96615349
_cell_length_b   5.96615349
_cell_length_c   8.65833430
_cell_angle_alpha   90.00000000
_cell_angle_beta   90.00000000
_cell_angle_gamma   90.39153272
_symmetry_Int_Tables_number   1
_chemical_formula_structural   SrCaGdBiO6
_chemical_formula_sum   'Sr2 Ca2 Gd2 Bi2 O12'
_cell_volume   308.18610501
_cell_formula_units_Z   2
loop_
 _symmetry_equiv_pos_site_id
 _symmetry_equiv_pos_as_xyz
  1  'x, y, z'
loop_
 _atom_site_type_symbol
 _atom_site_label
 _atom_site_symmetry_multiplicity
 _atom_site_fract_x
 _atom_site_fract_y
 _atom_site_fract_z
 _atom_site_occupancy
  Sr  Sr0  1  0.50000000  0.50000000  0.25000000  1
  Sr  Sr1  1  0.50000000  0.50000000  0.75000000  1
  Ca  Ca2  1  -0.00000000  -0.00000000  0.25000000  1
  Ca  Ca3  1  -0.00000000  -0.00000000  0.75000000  1
  Gd  Gd4  1  -0.00000000  0.50000000  0.50000000  1
  Gd  Gd5  1  0.50000000  -0.00000000  -0.00000000  1
  Bi  Bi6  1  -0.00000000  0.50000000  -0.00000000  1
  Bi  Bi7  1  0.50000000  -0.00000000  0.50000000  1
  O  O8  1  -0.00000000  0.50000000  0.24414796  1
  O  O9  1  0.50000000  -0.00000000  0.25585204  1
  O  O10  1  -0.00000000  0.50000000  0.75585204  1
  O  O11  1  0.50000000  -0.00000000  0.74414796  1
  O  O12  1  0.31711624  0.66543016  0.00000000  1
  O  O13  1  0.68288376  0.33456984  -0.00000000  1
  O  O14  1  0.83979852  0.82084280  0.00000000  1
  O  O15  1  0.16020148  0.17915720  -0.00000000  1
  O  O16  1  0.82084280  0.83979852  0.50000000  1
  O  O17  1  0.17915720  0.16020148  0.50000000  1
  O  O18  1  0.33456984  0.68288376  0.50000000  1
  O  O19  1  0.66543016  0.31711624  0.50000000  1
