# generated using pymatgen
data_BaYNbSnO6
_symmetry_space_group_name_H-M   'P 1'
_cell_length_a   5.93346305
_cell_length_b   5.97835233
_cell_length_c   8.49516718
_cell_angle_alpha   89.56768977
_cell_angle_beta   90.18496635
_cell_angle_gamma   89.39588939
_symmetry_Int_Tables_number   1
_chemical_formula_structural   BaYNbSnO6
_chemical_formula_sum   'Ba2 Y2 Nb2 Sn2 O12'
_cell_volume   301.31641994
_cell_formula_units_Z   2
loop_
 _symmetry_equiv_pos_site_id
 _symmetry_equiv_pos_as_xyz
  1  'x, y, z'
loop_
 _atom_site_type_symbol
 _atom_site_label
 _atom_site_symmetry_multiplicity
 _atom_site_fract_x
 _atom_site_fract_y
 _atom_site_fract_z
 _atom_site_occupancy
  Ba  Ba0  1  0.99478501  0.01973928  0.25108442  1
  Ba  Ba1  1  0.00521499  0.98026072  0.74891558  1
  Y  Y2  1  0.50000000  -0.00000000  0.00000000  1
  Y  Y3  1  0.00000000  0.50000000  0.50000000  1
  Nb  Nb4  1  0.00000000  0.50000000  0.00000000  1
  Nb  Nb5  1  0.50000000  -0.00000000  0.50000000  1
  Sn  Sn6  1  0.49543786  0.51425320  0.25258777  1
  Sn  Sn7  1  0.50456214  0.48574680  0.74741223  1
  O  O8  1  0.19592728  0.22897922  0.97541393  1
  O  O9  1  0.30512405  0.72382957  0.54443630  1
  O  O10  1  0.80407272  0.77102078  0.02458607  1
  O  O11  1  0.69487595  0.27617043  0.45556370  1
  O  O12  1  0.26772714  0.69941792  0.94833603  1
  O  O13  1  0.22469913  0.19619471  0.51719711  1
  O  O14  1  0.73227286  0.30058208  0.05166397  1
  O  O15  1  0.77530087  0.80380529  0.48280289  1
  O  O16  1  0.44640078  0.96782566  0.26499671  1
  O  O17  1  0.09159169  0.50610616  0.23528903  1
  O  O18  1  0.55359922  0.03217434  0.73500329  1
  O  O19  1  0.90840831  0.49389384  0.76471097  1
