# generated using pymatgen
data_BaNaCeSbO6
_symmetry_space_group_name_H-M   'P 1'
_cell_length_a   8.44740083
_cell_length_b   8.46992564
_cell_length_c   8.45620042
_cell_angle_alpha   90.00000000
_cell_angle_beta   90.00000000
_cell_angle_gamma   90.00000000
_symmetry_Int_Tables_number   1
_chemical_formula_structural   BaNaCeSbO6
_chemical_formula_sum   'Ba4 Na4 Ce4 Sb4 O24'
_cell_volume   605.03147361
_cell_formula_units_Z   4
loop_
 _symmetry_equiv_pos_site_id
 _symmetry_equiv_pos_as_xyz
  1  'x, y, z'
loop_
 _atom_site_type_symbol
 _atom_site_label
 _atom_site_symmetry_multiplicity
 _atom_site_fract_x
 _atom_site_fract_y
 _atom_site_fract_z
 _atom_site_occupancy
  Ba  Ba0  1  -0.00000000  0.00000000  -0.00000000  1
  Ba  Ba1  1  0.50000000  0.50000000  0.50000000  1
  Ba  Ba2  1  0.50000000  0.50000000  -0.00000000  1
  Ba  Ba3  1  -0.00000000  0.00000000  0.50000000  1
  Na  Na4  1  -0.00000000  0.50000000  0.50000000  1
  Na  Na5  1  0.50000000  -0.00000000  0.50000000  1
  Na  Na6  1  0.50000000  -0.00000000  -0.00000000  1
  Na  Na7  1  -0.00000000  0.50000000  -0.00000000  1
  Ce  Ce8  1  0.75000000  0.75000000  0.75000000  1
  Ce  Ce9  1  0.25000000  0.25000000  0.75000000  1
  Ce  Ce10  1  0.25000000  0.75000000  0.25000000  1
  Ce  Ce11  1  0.75000000  0.25000000  0.25000000  1
  Sb  Sb12  1  0.25000000  0.25000000  0.25000000  1
  Sb  Sb13  1  0.75000000  0.75000000  0.25000000  1
  Sb  Sb14  1  0.75000000  0.25000000  0.75000000  1
  Sb  Sb15  1  0.25000000  0.75000000  0.75000000  1
  O  O16  1  0.01249868  0.22979876  0.26446463  1
  O  O17  1  0.98750132  0.77020124  0.26446463  1
  O  O18  1  0.98750132  0.22979876  0.73553537  1
  O  O19  1  0.01249868  0.77020124  0.73553537  1
  O  O20  1  0.26049123  0.01259779  0.23091392  1
  O  O21  1  0.26049123  0.98740221  0.76908608  1
  O  O22  1  0.73950877  0.98740221  0.23091392  1
  O  O23  1  0.73950877  0.01259779  0.76908608  1
  O  O24  1  0.23222812  0.26854719  0.01327488  1
  O  O25  1  0.76777188  0.26854719  0.98672512  1
  O  O26  1  0.23222812  0.73145281  0.98672512  1
  O  O27  1  0.76777188  0.73145281  0.01327488  1
  O  O28  1  0.48750132  0.27020124  0.23553537  1
  O  O29  1  0.51249868  0.72979876  0.23553537  1
  O  O30  1  0.51249868  0.27020124  0.76446463  1
  O  O31  1  0.48750132  0.72979876  0.76446463  1
  O  O32  1  0.23950877  0.48740221  0.26908608  1
  O  O33  1  0.23950877  0.51259779  0.73091392  1
  O  O34  1  0.76049123  0.51259779  0.26908608  1
  O  O35  1  0.76049123  0.48740221  0.73091392  1
  O  O36  1  0.26777188  0.23145281  0.48672512  1
  O  O37  1  0.73222812  0.23145281  0.51327488  1
  O  O38  1  0.26777188  0.76854719  0.51327488  1
  O  O39  1  0.73222812  0.76854719  0.48672512  1
