# generated using pymatgen
data_NaDy(FeO3)4
_symmetry_space_group_name_H-M   'P 1'
_cell_length_a   5.26738634
_cell_length_b   5.26738634
_cell_length_c   7.65125109
_cell_angle_alpha   90.00000000
_cell_angle_beta   90.00000000
_cell_angle_gamma   92.50469553
_symmetry_Int_Tables_number   1
_chemical_formula_structural   NaDy(FeO3)4
_chemical_formula_sum   'Na1 Dy1 Fe4 O12'
_cell_volume   212.08389797
_cell_formula_units_Z   1
loop_
 _symmetry_equiv_pos_site_id
 _symmetry_equiv_pos_as_xyz
  1  'x, y, z'
loop_
 _atom_site_type_symbol
 _atom_site_label
 _atom_site_symmetry_multiplicity
 _atom_site_fract_x
 _atom_site_fract_y
 _atom_site_fract_z
 _atom_site_occupancy
  Na  Na0  1  0.01009807  0.98990193  0.50000000  1
  Dy  Dy1  1  0.47573061  0.52426939  0.00000000  1
  Fe  Fe2  1  0.49840451  0.00530579  0.25867882  1
  Fe  Fe3  1  0.49840451  0.00530579  0.74132118  1
  Fe  Fe4  1  0.99469421  0.50159549  0.74132118  1
  Fe  Fe5  1  0.99469421  0.50159549  0.25867882  1
  O  O6  1  0.30395915  0.30632477  0.24299007  1
  O  O7  1  0.69367523  0.69604085  0.24299007  1
  O  O8  1  0.69367523  0.69604085  0.75700993  1
  O  O9  1  0.30395915  0.30632477  0.75700993  1
  O  O10  1  0.21703804  0.78296196  0.18309822  1
  O  O11  1  0.79866020  0.20133980  0.30120678  1
  O  O12  1  0.79866020  0.20133980  0.69879322  1
  O  O13  1  0.21703804  0.78296196  0.81690178  1
  O  O14  1  0.55316357  0.06587468  0.00000000  1
  O  O15  1  0.43543036  0.93961061  0.50000000  1
  O  O16  1  0.93412532  0.44683643  0.00000000  1
  O  O17  1  0.06038939  0.56456964  0.50000000  1
