# generated using pymatgen
data_BaSrCaWO6
_symmetry_space_group_name_H-M   'P 1'
_cell_length_a   5.95623810
_cell_length_b   5.97517437
_cell_length_c   8.42445402
_cell_angle_alpha   89.53808519
_cell_angle_beta   90.33562944
_cell_angle_gamma   89.71986193
_symmetry_Int_Tables_number   1
_chemical_formula_structural   BaSrCaWO6
_chemical_formula_sum   'Ba2 Sr2 Ca2 W2 O12'
_cell_volume   299.80408134
_cell_formula_units_Z   2
loop_
 _symmetry_equiv_pos_site_id
 _symmetry_equiv_pos_as_xyz
  1  'x, y, z'
loop_
 _atom_site_type_symbol
 _atom_site_label
 _atom_site_symmetry_multiplicity
 _atom_site_fract_x
 _atom_site_fract_y
 _atom_site_fract_z
 _atom_site_occupancy
  Ba  Ba0  1  0.99653923  0.02244690  0.24934201  1
  Ba  Ba1  1  0.00346077  0.97755310  0.75065799  1
  Sr  Sr2  1  0.50443370  0.53354889  0.24881462  1
  Sr  Sr3  1  0.49556630  0.46645111  0.75118538  1
  Ca  Ca4  1  0.00000000  0.50000000  0.00000000  1
  Ca  Ca5  1  0.50000000  -0.00000000  0.50000000  1
  W  W6  1  0.50000000  -0.00000000  0.00000000  1
  W  W7  1  0.00000000  0.50000000  0.50000000  1
  O  O8  1  0.24177904  0.20027479  0.97423013  1
  O  O9  1  0.25787803  0.69645165  0.54015367  1
  O  O10  1  0.75822096  0.79972521  0.02576987  1
  O  O11  1  0.74212197  0.30354835  0.45984633  1
  O  O12  1  0.30900411  0.73694631  0.96239132  1
  O  O13  1  0.19873010  0.24216157  0.53468317  1
  O  O14  1  0.69099589  0.26305369  0.03760868  1
  O  O15  1  0.80126990  0.75783843  0.46531683  1
  O  O16  1  0.44486124  0.97025490  0.22831616  1
  O  O17  1  0.07537233  0.49718699  0.27293392  1
  O  O18  1  0.55513876  0.02974510  0.77168384  1
  O  O19  1  0.92462767  0.50281301  0.72706608  1
