# generated using pymatgen
data_Ba2PrHfO6
_symmetry_space_group_name_H-M   'P 1'
_cell_length_a   8.81845453
_cell_length_b   8.81845453
_cell_length_c   8.81845453
_cell_angle_alpha   90.00000000
_cell_angle_beta   90.00000000
_cell_angle_gamma   90.00000000
_symmetry_Int_Tables_number   1
_chemical_formula_structural   Ba2PrHfO6
_chemical_formula_sum   'Ba8 Pr4 Hf4 O24'
_cell_volume   685.76835373
_cell_formula_units_Z   4
loop_
 _symmetry_equiv_pos_site_id
 _symmetry_equiv_pos_as_xyz
  1  'x, y, z'
loop_
 _atom_site_type_symbol
 _atom_site_label
 _atom_site_symmetry_multiplicity
 _atom_site_fract_x
 _atom_site_fract_y
 _atom_site_fract_z
 _atom_site_occupancy
  Ba  Ba0  1  0.50000000  0.50000000  0.50000000  1
  Ba  Ba1  1  0.00000000  0.00000000  -0.00000000  1
  Ba  Ba2  1  0.00000000  0.00000000  0.50000000  1
  Ba  Ba3  1  0.00000000  0.50000000  -0.00000000  1
  Ba  Ba4  1  0.50000000  0.00000000  -0.00000000  1
  Ba  Ba5  1  0.50000000  0.50000000  -0.00000000  1
  Ba  Ba6  1  0.50000000  0.00000000  0.50000000  1
  Ba  Ba7  1  0.00000000  0.50000000  0.50000000  1
  Pr  Pr8  1  0.25000000  0.25000000  0.25000000  1
  Pr  Pr9  1  0.25000000  0.75000000  0.75000000  1
  Pr  Pr10  1  0.75000000  0.25000000  0.75000000  1
  Pr  Pr11  1  0.75000000  0.75000000  0.25000000  1
  Hf  Hf12  1  0.75000000  0.75000000  0.75000000  1
  Hf  Hf13  1  0.75000000  0.25000000  0.25000000  1
  Hf  Hf14  1  0.25000000  0.75000000  0.25000000  1
  Hf  Hf15  1  0.25000000  0.25000000  0.75000000  1
  O  O16  1  0.22620806  0.27666249  0.51532392  1
  O  O17  1  0.22620806  0.72333751  0.48467608  1
  O  O18  1  0.77379194  0.27666249  0.48467608  1
  O  O19  1  0.77379194  0.72333751  0.51532392  1
  O  O20  1  0.27666249  0.51532392  0.22620806  1
  O  O21  1  0.72333751  0.48467608  0.22620806  1
  O  O22  1  0.27666249  0.48467608  0.77379194  1
  O  O23  1  0.72333751  0.51532392  0.77379194  1
  O  O24  1  0.51532392  0.22620806  0.27666249  1
  O  O25  1  0.48467608  0.22620806  0.72333751  1
  O  O26  1  0.48467608  0.77379194  0.27666249  1
  O  O27  1  0.51532392  0.77379194  0.72333751  1
  O  O28  1  0.27379194  0.22333751  0.98467608  1
  O  O29  1  0.27379194  0.77666249  0.01532392  1
  O  O30  1  0.72620806  0.22333751  0.01532392  1
  O  O31  1  0.72620806  0.77666249  0.98467608  1
  O  O32  1  0.22333751  0.98467608  0.27379194  1
  O  O33  1  0.77666249  0.01532392  0.27379194  1
  O  O34  1  0.22333751  0.01532392  0.72620806  1
  O  O35  1  0.77666249  0.98467608  0.72620806  1
  O  O36  1  0.98467608  0.27379194  0.22333751  1
  O  O37  1  0.01532392  0.27379194  0.77666249  1
  O  O38  1  0.01532392  0.72620806  0.22333751  1
  O  O39  1  0.98467608  0.72620806  0.77666249  1
