# generated using pymatgen
data_KSrCeWO6
_symmetry_space_group_name_H-M   'P 1'
_cell_length_a   8.42086632
_cell_length_b   8.47047197
_cell_length_c   8.48011535
_cell_angle_alpha   90.00000000
_cell_angle_beta   90.00000000
_cell_angle_gamma   90.00000000
_symmetry_Int_Tables_number   1
_chemical_formula_structural   KSrCeWO6
_chemical_formula_sum   'K4 Sr4 Ce4 W4 O24'
_cell_volume   604.87570660
_cell_formula_units_Z   4
loop_
 _symmetry_equiv_pos_site_id
 _symmetry_equiv_pos_as_xyz
  1  'x, y, z'
loop_
 _atom_site_type_symbol
 _atom_site_label
 _atom_site_symmetry_multiplicity
 _atom_site_fract_x
 _atom_site_fract_y
 _atom_site_fract_z
 _atom_site_occupancy
  K  K0  1  0.00000000  0.50000000  0.50000000  1
  K  K1  1  0.50000000  0.50000000  0.00000000  1
  K  K2  1  0.50000000  0.00000000  0.00000000  1
  K  K3  1  0.00000000  0.00000000  0.50000000  1
  Sr  Sr4  1  0.50000000  0.00000000  0.50000000  1
  Sr  Sr5  1  0.00000000  0.50000000  0.00000000  1
  Sr  Sr6  1  0.00000000  0.00000000  0.00000000  1
  Sr  Sr7  1  0.50000000  0.50000000  0.50000000  1
  Ce  Ce8  1  0.75000000  0.75000000  0.75000000  1
  Ce  Ce9  1  0.25000000  0.25000000  0.75000000  1
  Ce  Ce10  1  0.25000000  0.75000000  0.25000000  1
  Ce  Ce11  1  0.75000000  0.25000000  0.25000000  1
  W  W12  1  0.25000000  0.25000000  0.25000000  1
  W  W13  1  0.75000000  0.75000000  0.25000000  1
  W  W14  1  0.75000000  0.25000000  0.75000000  1
  W  W15  1  0.25000000  0.75000000  0.75000000  1
  O  O16  1  0.01988360  0.22520739  0.26720863  1
  O  O17  1  0.98011640  0.77479261  0.26720863  1
  O  O18  1  0.98011640  0.22520739  0.73279137  1
  O  O19  1  0.01988360  0.77479261  0.73279137  1
  O  O20  1  0.26923564  0.01002686  0.23074864  1
  O  O21  1  0.26923564  0.98997314  0.76925136  1
  O  O22  1  0.73076436  0.98997314  0.23074864  1
  O  O23  1  0.73076436  0.01002686  0.76925136  1
  O  O24  1  0.21037060  0.26792497  0.01122536  1
  O  O25  1  0.78962940  0.26792497  0.98877464  1
  O  O26  1  0.21037060  0.73207503  0.98877464  1
  O  O27  1  0.78962940  0.73207503  0.01122536  1
  O  O28  1  0.48011640  0.27479261  0.23279137  1
  O  O29  1  0.51988360  0.72520739  0.23279137  1
  O  O30  1  0.51988360  0.27479261  0.76720863  1
  O  O31  1  0.48011640  0.72520739  0.76720863  1
  O  O32  1  0.23076436  0.48997314  0.26925136  1
  O  O33  1  0.23076436  0.51002686  0.73074864  1
  O  O34  1  0.76923564  0.51002686  0.26925136  1
  O  O35  1  0.76923564  0.48997314  0.73074864  1
  O  O36  1  0.28962940  0.23207503  0.48877464  1
  O  O37  1  0.71037060  0.23207503  0.51122536  1
  O  O38  1  0.28962940  0.76792497  0.51122536  1
  O  O39  1  0.71037060  0.76792497  0.48877464  1
