# generated using pymatgen
data_SrCaYBiO6
_symmetry_space_group_name_H-M   'P 1'
_cell_length_a   5.92319351
_cell_length_b   5.92319351
_cell_length_c   8.59899169
_cell_angle_alpha   90.00000000
_cell_angle_beta   90.00000000
_cell_angle_gamma   90.00000000
_symmetry_Int_Tables_number   1
_chemical_formula_structural   SrCaYBiO6
_chemical_formula_sum   'Sr2 Ca2 Y2 Bi2 O12'
_cell_volume   301.68892790
_cell_formula_units_Z   2
loop_
 _symmetry_equiv_pos_site_id
 _symmetry_equiv_pos_as_xyz
  1  'x, y, z'
loop_
 _atom_site_type_symbol
 _atom_site_label
 _atom_site_symmetry_multiplicity
 _atom_site_fract_x
 _atom_site_fract_y
 _atom_site_fract_z
 _atom_site_occupancy
  Sr  Sr0  1  0.50000000  0.00000000  0.25000000  1
  Sr  Sr1  1  -0.00000000  0.50000000  0.75000000  1
  Ca  Ca2  1  -0.00000000  0.50000000  0.25000000  1
  Ca  Ca3  1  0.50000000  0.00000000  0.75000000  1
  Y  Y4  1  -0.00000000  0.00000000  0.50000000  1
  Y  Y5  1  0.50000000  0.50000000  0.00000000  1
  Bi  Bi6  1  -0.00000000  0.00000000  -0.00000000  1
  Bi  Bi7  1  0.50000000  0.50000000  0.50000000  1
  O  O8  1  -0.00000000  0.00000000  0.24503988  1
  O  O9  1  0.50000000  0.50000000  0.25496012  1
  O  O10  1  -0.00000000  0.00000000  0.75496012  1
  O  O11  1  0.50000000  0.50000000  0.74503988  1
  O  O12  1  0.31936198  0.16485242  0.98949952  1
  O  O13  1  0.68063802  0.83514758  0.98949952  1
  O  O14  1  0.83514758  0.31936198  0.01050048  1
  O  O15  1  0.16485242  0.68063802  0.01050048  1
  O  O16  1  0.81936198  0.33514758  0.48949952  1
  O  O17  1  0.18063802  0.66485242  0.48949952  1
  O  O18  1  0.33514758  0.18063802  0.51050048  1
  O  O19  1  0.66485242  0.81936198  0.51050048  1
