# generated using pymatgen
data_KNa(BiO3)2
_symmetry_space_group_name_H-M   'P 1'
_cell_length_a   4.28888212
_cell_length_b   5.88192454
_cell_length_c   5.88192454
_cell_angle_alpha   90.49998837
_cell_angle_beta   90.00000000
_cell_angle_gamma   90.00000000
_symmetry_Int_Tables_number   1
_chemical_formula_structural   KNa(BiO3)2
_chemical_formula_sum   'K1 Na1 Bi2 O6'
_cell_volume   148.37696079
_cell_formula_units_Z   1
loop_
 _symmetry_equiv_pos_site_id
 _symmetry_equiv_pos_as_xyz
  1  'x, y, z'
loop_
 _atom_site_type_symbol
 _atom_site_label
 _atom_site_symmetry_multiplicity
 _atom_site_fract_x
 _atom_site_fract_y
 _atom_site_fract_z
 _atom_site_occupancy
  K  K0  1  0.50000000  0.50000000  0.50000000  1
  Na  Na1  1  0.50000000  -0.00000000  -0.00000000  1
  Bi  Bi2  1  0.00000000  -0.00000000  0.50000000  1
  Bi  Bi3  1  0.00000000  0.50000000  -0.00000000  1
  O  O4  1  0.50000000  -0.00000000  0.50000000  1
  O  O5  1  0.50000000  0.50000000  -0.00000000  1
  O  O6  1  0.00000000  0.31366603  0.68633397  1
  O  O7  1  0.00000000  0.68633397  0.31366603  1
  O  O8  1  0.00000000  0.82164682  0.82164682  1
  O  O9  1  0.00000000  0.17835318  0.17835318  1
