# generated using pymatgen
data_CeEu2ZrO6
_symmetry_space_group_name_H-M   'P 1'
_cell_length_a   8.61418148
_cell_length_b   8.61418148
_cell_length_c   8.61418148
_cell_angle_alpha   90.00000000
_cell_angle_beta   90.00000000
_cell_angle_gamma   90.00000000
_symmetry_Int_Tables_number   1
_chemical_formula_structural   CeEu2ZrO6
_chemical_formula_sum   'Ce4 Eu8 Zr4 O24'
_cell_volume   639.20777839
_cell_formula_units_Z   4
loop_
 _symmetry_equiv_pos_site_id
 _symmetry_equiv_pos_as_xyz
  1  'x, y, z'
loop_
 _atom_site_type_symbol
 _atom_site_label
 _atom_site_symmetry_multiplicity
 _atom_site_fract_x
 _atom_site_fract_y
 _atom_site_fract_z
 _atom_site_occupancy
  Ce  Ce0  1  0.75000000  0.75000000  0.75000000  1
  Ce  Ce1  1  0.75000000  0.25000000  0.25000000  1
  Ce  Ce2  1  0.25000000  0.75000000  0.25000000  1
  Ce  Ce3  1  0.25000000  0.25000000  0.75000000  1
  Eu  Eu4  1  0.50000000  0.50000000  0.50000000  1
  Eu  Eu5  1  0.00000000  0.00000000  0.00000000  1
  Eu  Eu6  1  0.00000000  0.00000000  0.50000000  1
  Eu  Eu7  1  0.00000000  0.50000000  0.00000000  1
  Eu  Eu8  1  0.50000000  0.00000000  0.00000000  1
  Eu  Eu9  1  0.50000000  0.50000000  -0.00000000  1
  Eu  Eu10  1  0.50000000  0.00000000  0.50000000  1
  Eu  Eu11  1  0.00000000  0.50000000  0.50000000  1
  Zr  Zr12  1  0.25000000  0.25000000  0.25000000  1
  Zr  Zr13  1  0.25000000  0.75000000  0.75000000  1
  Zr  Zr14  1  0.75000000  0.25000000  0.75000000  1
  Zr  Zr15  1  0.75000000  0.75000000  0.25000000  1
  O  O16  1  0.21248537  0.29415795  0.49169445  1
  O  O17  1  0.21248537  0.70584205  0.50830555  1
  O  O18  1  0.78751463  0.29415795  0.50830555  1
  O  O19  1  0.78751463  0.70584205  0.49169445  1
  O  O20  1  0.29415795  0.49169445  0.21248537  1
  O  O21  1  0.70584205  0.50830555  0.21248537  1
  O  O22  1  0.29415795  0.50830555  0.78751463  1
  O  O23  1  0.70584205  0.49169445  0.78751463  1
  O  O24  1  0.49169445  0.21248537  0.29415795  1
  O  O25  1  0.50830555  0.21248537  0.70584205  1
  O  O26  1  0.50830555  0.78751463  0.29415795  1
  O  O27  1  0.49169445  0.78751463  0.70584205  1
  O  O28  1  0.28751463  0.20584205  0.00830555  1
  O  O29  1  0.28751463  0.79415795  0.99169445  1
  O  O30  1  0.71248537  0.20584205  0.99169445  1
  O  O31  1  0.71248537  0.79415795  0.00830555  1
  O  O32  1  0.20584205  0.00830555  0.28751463  1
  O  O33  1  0.79415795  0.99169445  0.28751463  1
  O  O34  1  0.20584205  0.99169445  0.71248537  1
  O  O35  1  0.79415795  0.00830555  0.71248537  1
  O  O36  1  0.00830555  0.28751463  0.20584205  1
  O  O37  1  0.99169445  0.28751463  0.79415795  1
  O  O38  1  0.99169445  0.71248537  0.20584205  1
  O  O39  1  0.00830555  0.71248537  0.79415795  1
