# generated using pymatgen
data_BaCo(SeO3)4
_symmetry_space_group_name_H-M   'P 1'
_cell_length_a   5.50085766
_cell_length_b   5.50085766
_cell_length_c   7.55891915
_cell_angle_alpha   90.00000000
_cell_angle_beta   90.00000000
_cell_angle_gamma   90.00000000
_symmetry_Int_Tables_number   1
_chemical_formula_structural   BaCo(SeO3)4
_chemical_formula_sum   'Ba1 Co1 Se4 O12'
_cell_volume   228.72862266
_cell_formula_units_Z   1
loop_
 _symmetry_equiv_pos_site_id
 _symmetry_equiv_pos_as_xyz
  1  'x, y, z'
loop_
 _atom_site_type_symbol
 _atom_site_label
 _atom_site_symmetry_multiplicity
 _atom_site_fract_x
 _atom_site_fract_y
 _atom_site_fract_z
 _atom_site_occupancy
  Ba  Ba0  1  0.50000000  0.50000000  0.50000000  1
  Co  Co1  1  0.00000000  0.00000000  0.00000000  1
  Se  Se2  1  -0.00000000  0.50000000  0.75843273  1
  Se  Se3  1  0.00000000  0.50000000  0.24156727  1
  Se  Se4  1  0.50000000  -0.00000000  0.75843273  1
  Se  Se5  1  0.50000000  -0.00000000  0.24156727  1
  O  O6  1  0.23963154  0.23963154  0.77939078  1
  O  O7  1  0.23963154  0.23963154  0.22060922  1
  O  O8  1  0.76036846  0.76036846  0.22060922  1
  O  O9  1  0.76036846  0.76036846  0.77939078  1
  O  O10  1  0.76036846  0.23963154  0.22060922  1
  O  O11  1  0.76036846  0.23963154  0.77939078  1
  O  O12  1  0.23963154  0.76036846  0.22060922  1
  O  O13  1  0.23963154  0.76036846  0.77939078  1
  O  O14  1  -0.00000000  0.50000000  0.50000000  1
  O  O15  1  -0.00000000  0.50000000  0.00000000  1
  O  O16  1  0.50000000  -0.00000000  0.50000000  1
  O  O17  1  0.50000000  0.00000000  0.00000000  1
