# generated using pymatgen
data_BaCaNdSbO6
_symmetry_space_group_name_H-M   'P 1'
_cell_length_a   5.96322022
_cell_length_b   6.02514912
_cell_length_c   8.51756007
_cell_angle_alpha   90.32758318
_cell_angle_beta   90.63852286
_cell_angle_gamma   89.97218323
_symmetry_Int_Tables_number   1
_chemical_formula_structural   BaCaNdSbO6
_chemical_formula_sum   'Ba2 Ca2 Nd2 Sb2 O12'
_cell_volume   306.00586235
_cell_formula_units_Z   2
loop_
 _symmetry_equiv_pos_site_id
 _symmetry_equiv_pos_as_xyz
  1  'x, y, z'
loop_
 _atom_site_type_symbol
 _atom_site_label
 _atom_site_symmetry_multiplicity
 _atom_site_fract_x
 _atom_site_fract_y
 _atom_site_fract_z
 _atom_site_occupancy
  Ba  Ba0  1  0.50613513  0.53000342  0.25001823  1
  Ba  Ba1  1  0.49386487  0.46999658  0.74998177  1
  Ca  Ca2  1  0.99118159  0.03754506  0.25474654  1
  Ca  Ca3  1  0.00881841  0.96245494  0.74525346  1
  Nd  Nd4  1  0.00000000  0.50000000  -0.00000000  1
  Nd  Nd5  1  0.50000000  -0.00000000  0.50000000  1
  Sb  Sb6  1  0.50000000  -0.00000000  -0.00000000  1
  Sb  Sb7  1  0.00000000  0.50000000  0.50000000  1
  O  O8  1  0.22962184  0.18860724  0.93772570  1
  O  O9  1  0.27144664  0.69343171  0.52452210  1
  O  O10  1  0.77037816  0.81139276  0.06227430  1
  O  O11  1  0.72855336  0.30656829  0.47547790  1
  O  O12  1  0.30550229  0.73322613  0.96275447  1
  O  O13  1  0.17895631  0.22018703  0.55555709  1
  O  O14  1  0.69449771  0.26677387  0.03724553  1
  O  O15  1  0.82104369  0.77981297  0.44444291  1
  O  O16  1  0.39411890  0.00350143  0.22865072  1
  O  O17  1  0.06005599  0.43971799  0.27004544  1
  O  O18  1  0.60588110  0.99649857  0.77134928  1
  O  O19  1  0.93994401  0.56028201  0.72995456  1
