# generated using pymatgen
data_BaSrCeVO6
_symmetry_space_group_name_H-M   'P 1'
_cell_length_a   5.91535425
_cell_length_b   5.90570280
_cell_length_c   8.40456022
_cell_angle_alpha   90.42366386
_cell_angle_beta   90.40979408
_cell_angle_gamma   90.96803934
_symmetry_Int_Tables_number   1
_chemical_formula_structural   BaSrCeVO6
_chemical_formula_sum   'Ba2 Sr2 Ce2 V2 O12'
_cell_volume   293.54992457
_cell_formula_units_Z   2
loop_
 _symmetry_equiv_pos_site_id
 _symmetry_equiv_pos_as_xyz
  1  'x, y, z'
loop_
 _atom_site_type_symbol
 _atom_site_label
 _atom_site_symmetry_multiplicity
 _atom_site_fract_x
 _atom_site_fract_y
 _atom_site_fract_z
 _atom_site_occupancy
  Ba  Ba0  1  0.50455759  0.51478602  0.24942449  1
  Ba  Ba1  1  0.49544241  0.48521398  0.75057551  1
  Sr  Sr2  1  -0.00005540  0.02415091  0.25170409  1
  Sr  Sr3  1  0.00005540  0.97584909  0.74829591  1
  Ce  Ce4  1  0.00000000  0.50000000  0.00000000  1
  Ce  Ce5  1  0.50000000  0.00000000  0.50000000  1
  V  V6  1  0.50000000  0.00000000  0.00000000  1
  V  V7  1  0.00000000  0.50000000  0.50000000  1
  O  O8  1  0.23551032  0.21311292  0.97001656  1
  O  O9  1  0.24900797  0.70432871  0.52157071  1
  O  O10  1  0.76448968  0.78688708  0.02998344  1
  O  O11  1  0.75099203  0.29567129  0.47842929  1
  O  O12  1  0.29384721  0.75321538  0.97443374  1
  O  O13  1  0.20832706  0.23036886  0.52848887  1
  O  O14  1  0.70615279  0.24678462  0.02556626  1
  O  O15  1  0.79167294  0.76963114  0.47151113  1
  O  O16  1  0.44001094  0.00115133  0.23862189  1
  O  O17  1  0.04140696  0.48067848  0.26160098  1
  O  O18  1  0.55998906  0.99884867  0.76137811  1
  O  O19  1  0.95859304  0.51932152  0.73839902  1
