# generated using pymatgen
data_CaAl4SiO12
_symmetry_space_group_name_H-M   'P 1'
_cell_length_a   5.02921498
_cell_length_b   5.02921498
_cell_length_c   7.59421283
_cell_angle_alpha   90.00000000
_cell_angle_beta   90.00000000
_cell_angle_gamma   87.13069982
_symmetry_Int_Tables_number   1
_chemical_formula_structural   CaAl4SiO12
_chemical_formula_sum   'Ca1 Al4 Si1 O12'
_cell_volume   191.83964362
_cell_formula_units_Z   1
loop_
 _symmetry_equiv_pos_site_id
 _symmetry_equiv_pos_as_xyz
  1  'x, y, z'
loop_
 _atom_site_type_symbol
 _atom_site_label
 _atom_site_symmetry_multiplicity
 _atom_site_fract_x
 _atom_site_fract_y
 _atom_site_fract_z
 _atom_site_occupancy
  Ca  Ca0  1  0.53457059  0.46542941  0.50000000  1
  Al  Al1  1  0.48939598  0.99187890  0.24118337  1
  Al  Al2  1  0.48939598  0.99187890  0.75881663  1
  Al  Al3  1  0.00812110  0.51060402  0.75881663  1
  Al  Al4  1  0.00812110  0.51060402  0.24118337  1
  Si  Si5  1  0.97134228  0.02865772  0.00000000  1
  O  O6  1  0.32234273  0.31932445  0.25338782  1
  O  O7  1  0.68067555  0.67765727  0.25338782  1
  O  O8  1  0.68067555  0.67765727  0.74661218  1
  O  O9  1  0.32234273  0.31932445  0.74661218  1
  O  O10  1  0.14179120  0.85820880  0.16373094  1
  O  O11  1  0.79908979  0.20091021  0.29226275  1
  O  O12  1  0.79908979  0.20091021  0.70773725  1
  O  O13  1  0.14179120  0.85820880  0.83626906  1
  O  O14  1  0.64036958  0.99713838  0.00000000  1
  O  O15  1  0.43807354  0.95785030  0.50000000  1
  O  O16  1  0.00286162  0.35963042  0.00000000  1
  O  O17  1  0.04214970  0.56192646  0.50000000  1
