# generated using pymatgen
data_KLaV4O12
_symmetry_space_group_name_H-M   'P 1'
_cell_length_a   5.98428141
_cell_length_b   5.98428141
_cell_length_c   7.28762465
_cell_angle_alpha   90.00000000
_cell_angle_beta   90.00000000
_cell_angle_gamma   75.25713091
_symmetry_Int_Tables_number   1
_chemical_formula_structural   KLaV4O12
_chemical_formula_sum   'K1 La1 V4 O12'
_cell_volume   252.38953580
_cell_formula_units_Z   1
loop_
 _symmetry_equiv_pos_site_id
 _symmetry_equiv_pos_as_xyz
  1  'x, y, z'
loop_
 _atom_site_type_symbol
 _atom_site_label
 _atom_site_symmetry_multiplicity
 _atom_site_fract_x
 _atom_site_fract_y
 _atom_site_fract_z
 _atom_site_occupancy
  K  K0  1  0.02887120  0.02887120  0.50000000  1
  La  La1  1  0.54950209  0.54950209  -0.00000000  1
  V  V2  1  0.53642228  0.03783070  0.75063509  1
  V  V3  1  0.53642228  0.03783070  0.24936491  1
  V  V4  1  0.03783070  0.53642228  0.24936491  1
  V  V5  1  0.03783070  0.53642228  0.75063509  1
  O  O6  1  0.71790523  0.20658620  0.77243322  1
  O  O7  1  0.20658620  0.71790523  0.77243322  1
  O  O8  1  0.20658620  0.71790523  0.22756678  1
  O  O9  1  0.71790523  0.20658620  0.22756678  1
  O  O10  1  0.72570895  0.72570895  0.74989774  1
  O  O11  1  0.25604121  0.25604121  0.76265148  1
  O  O12  1  0.25604121  0.25604121  0.23734852  1
  O  O13  1  0.72570895  0.72570895  0.25010226  1
  O  O14  1  0.48435233  0.96563788  -0.00000000  1
  O  O15  1  0.50194443  0.00960291  0.50000000  1
  O  O16  1  0.96563788  0.48435233  -0.00000000  1
  O  O17  1  0.00960291  0.50194443  0.50000000  1
