# generated using pymatgen
data_KPrV4O12
_symmetry_space_group_name_H-M   'P 1'
_cell_length_a   6.02762537
_cell_length_b   6.02762537
_cell_length_c   7.21903869
_cell_angle_alpha   90.00000000
_cell_angle_beta   90.00000000
_cell_angle_gamma   73.68966445
_symmetry_Int_Tables_number   1
_chemical_formula_structural   KPrV4O12
_chemical_formula_sum   'K1 Pr1 V4 O12'
_cell_volume   251.72833126
_cell_formula_units_Z   1
loop_
 _symmetry_equiv_pos_site_id
 _symmetry_equiv_pos_as_xyz
  1  'x, y, z'
loop_
 _atom_site_type_symbol
 _atom_site_label
 _atom_site_symmetry_multiplicity
 _atom_site_fract_x
 _atom_site_fract_y
 _atom_site_fract_z
 _atom_site_occupancy
  K  K0  1  0.03500347  0.03500347  0.50000000  1
  Pr  Pr1  1  0.54701584  0.54701584  0.00000000  1
  V  V2  1  0.53966804  0.03575585  0.75270778  1
  V  V3  1  0.53966804  0.03575585  0.24729222  1
  V  V4  1  0.03575585  0.53966804  0.24729222  1
  V  V5  1  0.03575585  0.53966804  0.75270778  1
  O  O6  1  0.72403555  0.19535304  0.78189110  1
  O  O7  1  0.19535304  0.72403555  0.78189110  1
  O  O8  1  0.19535304  0.72403555  0.21810890  1
  O  O9  1  0.72403555  0.19535304  0.21810890  1
  O  O10  1  0.71865383  0.71865383  0.74114373  1
  O  O11  1  0.26364049  0.26364049  0.77350013  1
  O  O12  1  0.26364049  0.26364049  0.22649987  1
  O  O13  1  0.71865383  0.71865383  0.25885627  1
  O  O14  1  0.48799926  0.95305646  0.00000000  1
  O  O15  1  0.50095181  0.02335955  0.50000000  1
  O  O16  1  0.95305646  0.48799926  0.00000000  1
  O  O17  1  0.02335955  0.50095181  0.50000000  1
