# generated using pymatgen
data_SrCeEuNbO6
_symmetry_space_group_name_H-M   'P 1'
_cell_length_a   5.87089319
_cell_length_b   6.09308145
_cell_length_c   8.44309727
_cell_angle_alpha   89.85050807
_cell_angle_beta   90.56569591
_cell_angle_gamma   89.92924795
_symmetry_Int_Tables_number   1
_chemical_formula_structural   SrCeEuNbO6
_chemical_formula_sum   'Sr2 Ce2 Eu2 Nb2 O12'
_cell_volume   302.00905469
_cell_formula_units_Z   2
loop_
 _symmetry_equiv_pos_site_id
 _symmetry_equiv_pos_as_xyz
  1  'x, y, z'
loop_
 _atom_site_type_symbol
 _atom_site_label
 _atom_site_symmetry_multiplicity
 _atom_site_fract_x
 _atom_site_fract_y
 _atom_site_fract_z
 _atom_site_occupancy
  Sr  Sr0  1  0.98155339  0.06098998  0.25168222  1
  Sr  Sr1  1  0.01844661  0.93901002  0.74831778  1
  Ce  Ce2  1  0.00000000  0.50000000  -0.00000000  1
  Ce  Ce3  1  0.50000000  -0.00000000  0.50000000  1
  Eu  Eu4  1  0.51905145  0.56291892  0.24800287  1
  Eu  Eu5  1  0.48094855  0.43708108  0.75199713  1
  Nb  Nb6  1  0.50000000  -0.00000000  -0.00000000  1
  Nb  Nb7  1  0.00000000  0.50000000  0.50000000  1
  O  O8  1  0.21674609  0.18790633  0.94513415  1
  O  O9  1  0.28583087  0.68486639  0.55612123  1
  O  O10  1  0.78325391  0.81209367  0.05486585  1
  O  O11  1  0.71416913  0.31513361  0.44387877  1
  O  O12  1  0.32104689  0.71359560  0.94482222  1
  O  O13  1  0.18182412  0.21679579  0.55464555  1
  O  O14  1  0.67895311  0.28640440  0.05517778  1
  O  O15  1  0.81817588  0.78320421  0.44535445  1
  O  O16  1  0.39865156  0.97075928  0.23305797  1
  O  O17  1  0.10749702  0.47441466  0.26702169  1
  O  O18  1  0.60134844  0.02924072  0.76694203  1
  O  O19  1  0.89250298  0.52558534  0.73297831  1
