# generated using pymatgen
data_BaSrTbHfO6
_symmetry_space_group_name_H-M   'P 1'
_cell_length_a   8.56042545
_cell_length_b   8.56722104
_cell_length_c   8.55540863
_cell_angle_alpha   90.00000000
_cell_angle_beta   90.00000000
_cell_angle_gamma   90.00000000
_symmetry_Int_Tables_number   1
_chemical_formula_structural   BaSrTbHfO6
_chemical_formula_sum   'Ba4 Sr4 Tb4 Hf4 O24'
_cell_volume   627.44560140
_cell_formula_units_Z   4
loop_
 _symmetry_equiv_pos_site_id
 _symmetry_equiv_pos_as_xyz
  1  'x, y, z'
loop_
 _atom_site_type_symbol
 _atom_site_label
 _atom_site_symmetry_multiplicity
 _atom_site_fract_x
 _atom_site_fract_y
 _atom_site_fract_z
 _atom_site_occupancy
  Ba  Ba0  1  0.00000000  0.00000000  -0.00000000  1
  Ba  Ba1  1  0.50000000  0.50000000  0.50000000  1
  Ba  Ba2  1  0.50000000  0.00000000  -0.00000000  1
  Ba  Ba3  1  0.00000000  0.00000000  0.50000000  1
  Sr  Sr4  1  0.00000000  0.50000000  0.50000000  1
  Sr  Sr5  1  0.50000000  -0.00000000  0.50000000  1
  Sr  Sr6  1  0.50000000  0.50000000  -0.00000000  1
  Sr  Sr7  1  0.00000000  0.50000000  -0.00000000  1
  Tb  Tb8  1  0.25208110  0.25315237  0.25064391  1
  Tb  Tb9  1  0.74791890  0.74684763  0.25064391  1
  Tb  Tb10  1  0.74791890  0.25315237  0.74935609  1
  Tb  Tb11  1  0.25208110  0.74684763  0.74935609  1
  Hf  Hf12  1  0.74842086  0.74596843  0.74977389  1
  Hf  Hf13  1  0.25157914  0.25403157  0.74977389  1
  Hf  Hf14  1  0.25157914  0.74596843  0.25022611  1
  Hf  Hf15  1  0.74842086  0.25403157  0.25022611  1
  O  O16  1  0.98926958  0.22483614  0.27670769  1
  O  O17  1  0.01073042  0.77516386  0.27670769  1
  O  O18  1  0.01073042  0.22483614  0.72329231  1
  O  O19  1  0.98926958  0.77516386  0.72329231  1
  O  O20  1  0.27345453  0.98869491  0.22406653  1
  O  O21  1  0.27345453  0.01130509  0.77593347  1
  O  O22  1  0.72654547  0.01130509  0.22406653  1
  O  O23  1  0.72654547  0.98869491  0.77593347  1
  O  O24  1  0.21589050  0.28365940  0.98905288  1
  O  O25  1  0.78410950  0.28365940  0.01094712  1
  O  O26  1  0.21589050  0.71634060  0.01094712  1
  O  O27  1  0.78410950  0.71634060  0.98905288  1
  O  O28  1  0.51098772  0.28978760  0.21370180  1
  O  O29  1  0.48901228  0.71021240  0.21370180  1
  O  O30  1  0.48901228  0.28978760  0.78629820  1
  O  O31  1  0.51098772  0.71021240  0.78629820  1
  O  O32  1  0.21454738  0.51013006  0.29200819  1
  O  O33  1  0.21454738  0.48986994  0.70799181  1
  O  O34  1  0.78545262  0.48986994  0.29200819  1
  O  O35  1  0.78545262  0.51013006  0.70799181  1
  O  O36  1  0.29062086  0.21846102  0.51123034  1
  O  O37  1  0.70937914  0.21846102  0.48876966  1
  O  O38  1  0.29062086  0.78153898  0.48876966  1
  O  O39  1  0.70937914  0.78153898  0.51123034  1
