# generated using pymatgen
data_KNdZr4O12
_symmetry_space_group_name_H-M   'P 1'
_cell_length_a   5.84986352
_cell_length_b   5.84986352
_cell_length_c   8.36001274
_cell_angle_alpha   90.00000000
_cell_angle_beta   90.00000000
_cell_angle_gamma   90.84554077
_symmetry_Int_Tables_number   1
_chemical_formula_structural   KNdZr4O12
_chemical_formula_sum   'K1 Nd1 Zr4 O12'
_cell_volume   286.05603518
_cell_formula_units_Z   1
loop_
 _symmetry_equiv_pos_site_id
 _symmetry_equiv_pos_as_xyz
  1  'x, y, z'
loop_
 _atom_site_type_symbol
 _atom_site_label
 _atom_site_symmetry_multiplicity
 _atom_site_fract_x
 _atom_site_fract_y
 _atom_site_fract_z
 _atom_site_occupancy
  K  K0  1  0.97811825  0.02188175  -0.00000000  1
  Nd  Nd1  1  0.52503147  0.47496853  0.50000000  1
  Zr  Zr2  1  0.49044796  0.98798889  0.24406262  1
  Zr  Zr3  1  0.49044796  0.98798889  0.75593738  1
  Zr  Zr4  1  0.01201111  0.50955204  0.75593738  1
  Zr  Zr5  1  0.01201111  0.50955204  0.24406262  1
  O  O6  1  0.22905552  0.22890620  0.26943580  1
  O  O7  1  0.77109380  0.77094448  0.26943580  1
  O  O8  1  0.77109380  0.77094448  0.73056420  1
  O  O9  1  0.22905552  0.22890620  0.73056420  1
  O  O10  1  0.29769634  0.70230366  0.31167217  1
  O  O11  1  0.71822710  0.28177290  0.25246464  1
  O  O12  1  0.71822710  0.28177290  0.74753536  1
  O  O13  1  0.29769634  0.70230366  0.68832783  1
  O  O14  1  0.46977547  0.97451605  0.00000000  1
  O  O15  1  0.51574597  0.06521878  0.50000000  1
  O  O16  1  0.02548395  0.53022453  -0.00000000  1
  O  O17  1  0.93478122  0.48425403  0.50000000  1
