# generated using pymatgen
data_KNb4InO12
_symmetry_space_group_name_H-M   'P 1'
_cell_length_a   5.53181451
_cell_length_b   5.53181451
_cell_length_c   7.97348419
_cell_angle_alpha   90.00000000
_cell_angle_beta   90.00000000
_cell_angle_gamma   90.68231591
_symmetry_Int_Tables_number   1
_chemical_formula_structural   KNb4InO12
_chemical_formula_sum   'K1 Nb4 In1 O12'
_cell_volume   243.97906330
_cell_formula_units_Z   1
loop_
 _symmetry_equiv_pos_site_id
 _symmetry_equiv_pos_as_xyz
  1  'x, y, z'
loop_
 _atom_site_type_symbol
 _atom_site_label
 _atom_site_symmetry_multiplicity
 _atom_site_fract_x
 _atom_site_fract_y
 _atom_site_fract_z
 _atom_site_occupancy
  K  K0  1  0.97877269  0.02122731  -0.00000000  1
  Nb  Nb1  1  0.48618406  0.00923479  0.24679130  1
  Nb  Nb2  1  0.48618406  0.00923479  0.75320870  1
  Nb  Nb3  1  0.99076521  0.51381594  0.75320870  1
  Nb  Nb4  1  0.99076521  0.51381594  0.24679130  1
  In  In5  1  0.52211082  0.47788918  0.50000000  1
  O  O6  1  0.20838852  0.20215244  0.25732723  1
  O  O7  1  0.79784756  0.79161148  0.25732723  1
  O  O8  1  0.79784756  0.79161148  0.74267277  1
  O  O9  1  0.20838852  0.20215244  0.74267277  1
  O  O10  1  0.31938963  0.68061037  0.31611187  1
  O  O11  1  0.71056769  0.28943231  0.21626404  1
  O  O12  1  0.71056769  0.28943231  0.78373596  1
  O  O13  1  0.31938963  0.68061037  0.68388813  1
  O  O14  1  0.46451789  0.95320286  0.00000000  1
  O  O15  1  0.52910328  0.08658715  0.50000000  1
  O  O16  1  0.04679714  0.53548211  0.00000000  1
  O  O17  1  0.91341285  0.47089672  0.50000000  1
