# generated using pymatgen
data_KNdTi4O12
_symmetry_space_group_name_H-M   'P 1'
_cell_length_a   5.48996136
_cell_length_b   5.48996136
_cell_length_c   7.86019705
_cell_angle_alpha   90.00000000
_cell_angle_beta   90.00000000
_cell_angle_gamma   89.94505434
_symmetry_Int_Tables_number   1
_chemical_formula_structural   KNdTi4O12
_chemical_formula_sum   'K1 Nd1 Ti4 O12'
_cell_volume   236.90368138
_cell_formula_units_Z   1
loop_
 _symmetry_equiv_pos_site_id
 _symmetry_equiv_pos_as_xyz
  1  'x, y, z'
loop_
 _atom_site_type_symbol
 _atom_site_label
 _atom_site_symmetry_multiplicity
 _atom_site_fract_x
 _atom_site_fract_y
 _atom_site_fract_z
 _atom_site_occupancy
  K  K0  1  0.99331748  0.00668252  0.00000000  1
  Nd  Nd1  1  0.50978478  0.49021522  0.50000000  1
  Ti  Ti2  1  0.49702252  0.99567919  0.24031688  1
  Ti  Ti3  1  0.49702252  0.99567919  0.75968312  1
  Ti  Ti4  1  0.00432081  0.50297748  0.75968312  1
  Ti  Ti5  1  0.00432081  0.50297748  0.24031688  1
  O  O6  1  0.25410111  0.25472632  0.27083380  1
  O  O7  1  0.74527368  0.74589889  0.27083380  1
  O  O8  1  0.74527368  0.74589889  0.72916620  1
  O  O9  1  0.25410111  0.25472632  0.72916620  1
  O  O10  1  0.26084196  0.73915804  0.27865771  1
  O  O11  1  0.73844456  0.26155544  0.25886991  1
  O  O12  1  0.73844456  0.26155544  0.74113009  1
  O  O13  1  0.26084196  0.73915804  0.72134229  1
  O  O14  1  0.49176381  0.99114149  0.00000000  1
  O  O15  1  0.51020505  0.01863892  0.50000000  1
  O  O16  1  0.00885851  0.50823619  0.00000000  1
  O  O17  1  0.98136108  0.48979495  0.50000000  1
