# generated using pymatgen
data_Ba2LaWO6
_symmetry_space_group_name_H-M   'P 1'
_cell_length_a   8.74361836
_cell_length_b   8.74361836
_cell_length_c   8.74361836
_cell_angle_alpha   90.00000000
_cell_angle_beta   90.00000000
_cell_angle_gamma   90.00000000
_symmetry_Int_Tables_number   1
_chemical_formula_structural   Ba2LaWO6
_chemical_formula_sum   'Ba8 La4 W4 O24'
_cell_volume   668.45716084
_cell_formula_units_Z   4
loop_
 _symmetry_equiv_pos_site_id
 _symmetry_equiv_pos_as_xyz
  1  'x, y, z'
loop_
 _atom_site_type_symbol
 _atom_site_label
 _atom_site_symmetry_multiplicity
 _atom_site_fract_x
 _atom_site_fract_y
 _atom_site_fract_z
 _atom_site_occupancy
  Ba  Ba0  1  0.50000000  0.50000000  0.50000000  1
  Ba  Ba1  1  0.00000000  0.00000000  -0.00000000  1
  Ba  Ba2  1  0.00000000  0.00000000  0.50000000  1
  Ba  Ba3  1  0.00000000  0.50000000  -0.00000000  1
  Ba  Ba4  1  0.50000000  0.00000000  -0.00000000  1
  Ba  Ba5  1  0.50000000  0.50000000  -0.00000000  1
  Ba  Ba6  1  0.50000000  0.00000000  0.50000000  1
  Ba  Ba7  1  0.00000000  0.50000000  0.50000000  1
  La  La8  1  0.75000000  0.75000000  0.75000000  1
  La  La9  1  0.75000000  0.25000000  0.25000000  1
  La  La10  1  0.25000000  0.75000000  0.25000000  1
  La  La11  1  0.25000000  0.25000000  0.75000000  1
  W  W12  1  0.25000000  0.25000000  0.25000000  1
  W  W13  1  0.25000000  0.75000000  0.75000000  1
  W  W14  1  0.75000000  0.25000000  0.75000000  1
  W  W15  1  0.75000000  0.75000000  0.25000000  1
  O  O16  1  0.22453877  0.27317307  0.47930450  1
  O  O17  1  0.22453877  0.72682693  0.52069550  1
  O  O18  1  0.77546123  0.27317307  0.52069550  1
  O  O19  1  0.77546123  0.72682693  0.47930450  1
  O  O20  1  0.27317307  0.47930450  0.22453877  1
  O  O21  1  0.72682693  0.52069550  0.22453877  1
  O  O22  1  0.27317307  0.52069550  0.77546123  1
  O  O23  1  0.72682693  0.47930450  0.77546123  1
  O  O24  1  0.47930450  0.22453877  0.27317307  1
  O  O25  1  0.52069550  0.22453877  0.72682693  1
  O  O26  1  0.52069550  0.77546123  0.27317307  1
  O  O27  1  0.47930450  0.77546123  0.72682693  1
  O  O28  1  0.27546123  0.22682693  0.02069550  1
  O  O29  1  0.27546123  0.77317307  0.97930450  1
  O  O30  1  0.72453877  0.22682693  0.97930450  1
  O  O31  1  0.72453877  0.77317307  0.02069550  1
  O  O32  1  0.22682693  0.02069550  0.27546123  1
  O  O33  1  0.77317307  0.97930450  0.27546123  1
  O  O34  1  0.22682693  0.97930450  0.72453877  1
  O  O35  1  0.77317307  0.02069550  0.72453877  1
  O  O36  1  0.02069550  0.27546123  0.22682693  1
  O  O37  1  0.97930450  0.27546123  0.77317307  1
  O  O38  1  0.97930450  0.72453877  0.22682693  1
  O  O39  1  0.02069550  0.72453877  0.77317307  1
