# generated using pymatgen
data_BaSrCeHfO6
_symmetry_space_group_name_H-M   'P 1'
_cell_length_a   8.58173361
_cell_length_b   8.58226683
_cell_length_c   8.57373087
_cell_angle_alpha   90.00000000
_cell_angle_beta   90.00000000
_cell_angle_gamma   90.00000000
_symmetry_Int_Tables_number   1
_chemical_formula_structural   BaSrCeHfO6
_chemical_formula_sum   'Ba4 Sr4 Ce4 Hf4 O24'
_cell_volume   631.46151772
_cell_formula_units_Z   4
loop_
 _symmetry_equiv_pos_site_id
 _symmetry_equiv_pos_as_xyz
  1  'x, y, z'
loop_
 _atom_site_type_symbol
 _atom_site_label
 _atom_site_symmetry_multiplicity
 _atom_site_fract_x
 _atom_site_fract_y
 _atom_site_fract_z
 _atom_site_occupancy
  Ba  Ba0  1  -0.00000000  -0.00000000  0.00000000  1
  Ba  Ba1  1  0.50000000  0.50000000  0.50000000  1
  Ba  Ba2  1  0.00000000  0.50000000  0.00000000  1
  Ba  Ba3  1  0.00000000  -0.00000000  0.50000000  1
  Sr  Sr4  1  -0.00000000  0.50000000  0.50000000  1
  Sr  Sr5  1  0.50000000  -0.00000000  0.50000000  1
  Sr  Sr6  1  0.50000000  0.50000000  0.00000000  1
  Sr  Sr7  1  0.50000000  -0.00000000  0.00000000  1
  Ce  Ce8  1  0.74727591  0.74950143  0.74981580  1
  Ce  Ce9  1  0.25272409  0.25049857  0.74981580  1
  Ce  Ce10  1  0.25272409  0.74950143  0.25018420  1
  Ce  Ce11  1  0.74727591  0.25049857  0.25018420  1
  Hf  Hf12  1  0.25328730  0.25052591  0.25013961  1
  Hf  Hf13  1  0.74671270  0.74947409  0.25013961  1
  Hf  Hf14  1  0.74671270  0.25052591  0.74986039  1
  Hf  Hf15  1  0.25328730  0.74947409  0.74986039  1
  O  O16  1  0.01015267  0.22443757  0.27282411  1
  O  O17  1  0.98984733  0.77556243  0.27282411  1
  O  O18  1  0.98984733  0.22443757  0.72717589  1
  O  O19  1  0.01015267  0.77556243  0.72717589  1
  O  O20  1  0.28438767  0.00950722  0.21675138  1
  O  O21  1  0.28438767  0.99049278  0.78324862  1
  O  O22  1  0.71561233  0.99049278  0.21675138  1
  O  O23  1  0.71561233  0.00950722  0.78324862  1
  O  O24  1  0.22663842  0.27568948  0.00867446  1
  O  O25  1  0.77336158  0.27568948  0.99132554  1
  O  O26  1  0.22663842  0.72431052  0.99132554  1
  O  O27  1  0.77336158  0.72431052  0.00867446  1
  O  O28  1  0.49126622  0.28953017  0.21588569  1
  O  O29  1  0.50873378  0.71046983  0.21588569  1
  O  O30  1  0.50873378  0.28953017  0.78411431  1
  O  O31  1  0.49126622  0.71046983  0.78411431  1
  O  O32  1  0.21935468  0.49023995  0.28847356  1
  O  O33  1  0.21935468  0.50976005  0.71152644  1
  O  O34  1  0.78064532  0.50976005  0.28847356  1
  O  O35  1  0.78064532  0.49023995  0.71152644  1
  O  O36  1  0.28892359  0.21511871  0.49006346  1
  O  O37  1  0.71107641  0.21511871  0.50993654  1
  O  O38  1  0.28892359  0.78488129  0.50993654  1
  O  O39  1  0.71107641  0.78488129  0.49006346  1
