# generated using pymatgen
data_BaSrPrHfO6
_symmetry_space_group_name_H-M   'P 1'
_cell_length_a   8.68998186
_cell_length_b   8.74069510
_cell_length_c   8.67802383
_cell_angle_alpha   90.00000000
_cell_angle_beta   90.00000000
_cell_angle_gamma   90.00000000
_symmetry_Int_Tables_number   1
_chemical_formula_structural   BaSrPrHfO6
_chemical_formula_sum   'Ba4 Sr4 Pr4 Hf4 O24'
_cell_volume   659.15215965
_cell_formula_units_Z   4
loop_
 _symmetry_equiv_pos_site_id
 _symmetry_equiv_pos_as_xyz
  1  'x, y, z'
loop_
 _atom_site_type_symbol
 _atom_site_label
 _atom_site_symmetry_multiplicity
 _atom_site_fract_x
 _atom_site_fract_y
 _atom_site_fract_z
 _atom_site_occupancy
  Ba  Ba0  1  -0.00000000  -0.00000000  0.00000000  1
  Ba  Ba1  1  0.50000000  0.50000000  0.50000000  1
  Ba  Ba2  1  0.50000000  0.50000000  -0.00000000  1
  Ba  Ba3  1  0.50000000  0.00000000  -0.00000000  1
  Sr  Sr4  1  -0.00000000  0.50000000  0.50000000  1
  Sr  Sr5  1  0.50000000  0.00000000  0.50000000  1
  Sr  Sr6  1  -0.00000000  0.50000000  0.00000000  1
  Sr  Sr7  1  -0.00000000  0.00000000  0.50000000  1
  Pr  Pr8  1  0.24671114  0.25146743  0.25262526  1
  Pr  Pr9  1  0.75328886  0.74853257  0.25262526  1
  Pr  Pr10  1  0.75328886  0.25146743  0.74737474  1
  Pr  Pr11  1  0.24671114  0.74853257  0.74737474  1
  Hf  Hf12  1  0.75522647  0.74767759  0.74695296  1
  Hf  Hf13  1  0.24477353  0.25232241  0.74695296  1
  Hf  Hf14  1  0.24477353  0.74767759  0.25304704  1
  Hf  Hf15  1  0.75522647  0.25232241  0.25304704  1
  O  O16  1  0.98457385  0.20256241  0.29413288  1
  O  O17  1  0.01542615  0.79743759  0.29413288  1
  O  O18  1  0.01542615  0.20256241  0.70586712  1
  O  O19  1  0.98457385  0.79743759  0.70586712  1
  O  O20  1  0.27835247  0.98345544  0.21336892  1
  O  O21  1  0.27835247  0.01654456  0.78663108  1
  O  O22  1  0.72164753  0.01654456  0.21336892  1
  O  O23  1  0.72164753  0.98345544  0.78663108  1
  O  O24  1  0.20583139  0.28788727  0.98355052  1
  O  O25  1  0.79416861  0.28788727  0.01644948  1
  O  O26  1  0.20583139  0.71211273  0.01644948  1
  O  O27  1  0.79416861  0.71211273  0.98355052  1
  O  O28  1  0.51715878  0.28528056  0.22077556  1
  O  O29  1  0.48284122  0.71471944  0.22077556  1
  O  O30  1  0.48284122  0.28528056  0.77922444  1
  O  O31  1  0.51715878  0.71471944  0.77922444  1
  O  O32  1  0.20833390  0.51653057  0.29675795  1
  O  O33  1  0.20833390  0.48346943  0.70324205  1
  O  O34  1  0.79166610  0.48346943  0.29675795  1
  O  O35  1  0.79166610  0.51653057  0.70324205  1
  O  O36  1  0.29654654  0.21005485  0.51569502  1
  O  O37  1  0.70345346  0.21005485  0.48430498  1
  O  O38  1  0.29654654  0.78994515  0.48430498  1
  O  O39  1  0.70345346  0.78994515  0.51569502  1
