# generated using pymatgen
data_BaSrNdNbO6
_symmetry_space_group_name_H-M   'P 1'
_cell_length_a   8.58880928
_cell_length_b   8.61226777
_cell_length_c   8.60107935
_cell_angle_alpha   90.00000000
_cell_angle_beta   90.00000000
_cell_angle_gamma   90.00000000
_symmetry_Int_Tables_number   1
_chemical_formula_structural   BaSrNdNbO6
_chemical_formula_sum   'Ba4 Sr4 Nd4 Nb4 O24'
_cell_volume   636.21431654
_cell_formula_units_Z   4
loop_
 _symmetry_equiv_pos_site_id
 _symmetry_equiv_pos_as_xyz
  1  'x, y, z'
loop_
 _atom_site_type_symbol
 _atom_site_label
 _atom_site_symmetry_multiplicity
 _atom_site_fract_x
 _atom_site_fract_y
 _atom_site_fract_z
 _atom_site_occupancy
  Ba  Ba0  1  -0.00000000  -0.00000000  0.00000000  1
  Ba  Ba1  1  0.50000000  0.50000000  0.50000000  1
  Ba  Ba2  1  0.50000000  0.50000000  0.00000000  1
  Ba  Ba3  1  -0.00000000  -0.00000000  0.50000000  1
  Sr  Sr4  1  -0.00000000  0.50000000  0.50000000  1
  Sr  Sr5  1  0.50000000  -0.00000000  0.50000000  1
  Sr  Sr6  1  0.50000000  -0.00000000  0.00000000  1
  Sr  Sr7  1  -0.00000000  0.50000000  0.00000000  1
  Nd  Nd8  1  0.25000000  0.25000000  0.25000000  1
  Nd  Nd9  1  0.75000000  0.75000000  0.25000000  1
  Nd  Nd10  1  0.75000000  0.25000000  0.75000000  1
  Nd  Nd11  1  0.25000000  0.75000000  0.75000000  1
  Nb  Nb12  1  0.75000000  0.75000000  0.75000000  1
  Nb  Nb13  1  0.25000000  0.25000000  0.75000000  1
  Nb  Nb14  1  0.25000000  0.75000000  0.25000000  1
  Nb  Nb15  1  0.75000000  0.25000000  0.25000000  1
  O  O16  1  0.98078831  0.21676772  0.27880348  1
  O  O17  1  0.01921169  0.78323228  0.27880348  1
  O  O18  1  0.01921169  0.21676772  0.72119652  1
  O  O19  1  0.98078831  0.78323228  0.72119652  1
  O  O20  1  0.28320473  0.98078216  0.20790289  1
  O  O21  1  0.28320473  0.01921784  0.79209711  1
  O  O22  1  0.71679527  0.01921784  0.20790289  1
  O  O23  1  0.71679527  0.98078216  0.79209711  1
  O  O24  1  0.21145950  0.28732567  0.98075637  1
  O  O25  1  0.78854050  0.28732567  0.01924363  1
  O  O26  1  0.21145950  0.71267433  0.01924363  1
  O  O27  1  0.78854050  0.71267433  0.98075637  1
  O  O28  1  0.51921169  0.28323228  0.22119652  1
  O  O29  1  0.48078831  0.71676772  0.22119652  1
  O  O30  1  0.48078831  0.28323228  0.77880348  1
  O  O31  1  0.51921169  0.71676772  0.77880348  1
  O  O32  1  0.21679527  0.51921784  0.29209711  1
  O  O33  1  0.21679527  0.48078216  0.70790289  1
  O  O34  1  0.78320473  0.48078216  0.29209711  1
  O  O35  1  0.78320473  0.51921784  0.70790289  1
  O  O36  1  0.28854050  0.21267433  0.51924363  1
  O  O37  1  0.71145950  0.21267433  0.48075637  1
  O  O38  1  0.28854050  0.78732567  0.48075637  1
  O  O39  1  0.71145950  0.78732567  0.51924363  1
