# generated using pymatgen
data_BaCaSmNbO6
_symmetry_space_group_name_H-M   'P 1'
_cell_length_a   5.93838456
_cell_length_b   6.01274901
_cell_length_c   8.47797239
_cell_angle_alpha   90.56977011
_cell_angle_beta   89.45911849
_cell_angle_gamma   89.93885785
_symmetry_Int_Tables_number   1
_chemical_formula_structural   BaCaSmNbO6
_chemical_formula_sum   'Ba2 Ca2 Sm2 Nb2 O12'
_cell_volume   302.68595782
_cell_formula_units_Z   2
loop_
 _symmetry_equiv_pos_site_id
 _symmetry_equiv_pos_as_xyz
  1  'x, y, z'
loop_
 _atom_site_type_symbol
 _atom_site_label
 _atom_site_symmetry_multiplicity
 _atom_site_fract_x
 _atom_site_fract_y
 _atom_site_fract_z
 _atom_site_occupancy
  Ba  Ba0  1  0.99471148  0.03227325  0.25052363  1
  Ba  Ba1  1  0.00528852  0.96772675  0.74947637  1
  Ca  Ca2  1  0.50858768  0.54074359  0.25383332  1
  Ca  Ca3  1  0.49141232  0.45925641  0.74616668  1
  Sm  Sm4  1  0.50000000  0.00000000  0.00000000  1
  Sm  Sm5  1  0.00000000  0.50000000  0.50000000  1
  Nb  Nb6  1  0.00000000  0.50000000  0.00000000  1
  Nb  Nb7  1  0.50000000  0.00000000  0.50000000  1
  O  O8  1  0.19355180  0.22944106  0.96085333  1
  O  O9  1  0.31883440  0.71793248  0.55618291  1
  O  O10  1  0.80644820  0.77055894  0.03914667  1
  O  O11  1  0.68116560  0.28206752  0.44381709  1
  O  O12  1  0.27434102  0.68853378  0.93898206  1
  O  O13  1  0.22584877  0.19339307  0.52888713  1
  O  O14  1  0.72565898  0.31146622  0.06101794  1
  O  O15  1  0.77415123  0.80660693  0.47111287  1
  O  O16  1  0.43434167  0.94145996  0.26788400  1
  O  O17  1  0.10725270  0.49967638  0.23105486  1
  O  O18  1  0.56565833  0.05854004  0.73211600  1
  O  O19  1  0.89274730  0.50032362  0.76894514  1
