# generated using pymatgen
data_BaCeEuSbO6
_symmetry_space_group_name_H-M   'P 1'
_cell_length_a   6.00908068
_cell_length_b   6.10957217
_cell_length_c   8.56802919
_cell_angle_alpha   90.16178858
_cell_angle_beta   90.27212002
_cell_angle_gamma   90.51648583
_symmetry_Int_Tables_number   1
_chemical_formula_structural   BaCeEuSbO6
_chemical_formula_sum   'Ba2 Ce2 Eu2 Sb2 O12'
_cell_volume   314.53968229
_cell_formula_units_Z   2
loop_
 _symmetry_equiv_pos_site_id
 _symmetry_equiv_pos_as_xyz
  1  'x, y, z'
loop_
 _atom_site_type_symbol
 _atom_site_label
 _atom_site_symmetry_multiplicity
 _atom_site_fract_x
 _atom_site_fract_y
 _atom_site_fract_z
 _atom_site_occupancy
  Ba  Ba0  1  0.51129597  0.53928563  0.24947029  1
  Ba  Ba1  1  0.48870403  0.46071437  0.75052971  1
  Ce  Ce2  1  -0.00000000  0.50000000  -0.00000000  1
  Ce  Ce3  1  0.50000000  -0.00000000  0.50000000  1
  Eu  Eu4  1  0.98885431  0.04498570  0.25160532  1
  Eu  Eu5  1  0.01114569  0.95501430  0.74839468  1
  Sb  Sb6  1  0.50000000  -0.00000000  -0.00000000  1
  Sb  Sb7  1  -0.00000000  0.50000000  0.50000000  1
  O  O8  1  0.21715969  0.19334296  0.95450123  1
  O  O9  1  0.27342871  0.70515847  0.54253312  1
  O  O10  1  0.78284031  0.80665704  0.04549877  1
  O  O11  1  0.72657129  0.29484153  0.45746688  1
  O  O12  1  0.29798084  0.72535489  0.95741917  1
  O  O13  1  0.19105970  0.21474545  0.54391597  1
  O  O14  1  0.70201916  0.27464511  0.04258083  1
  O  O15  1  0.80894030  0.78525455  0.45608403  1
  O  O16  1  0.40798246  0.98901779  0.23804114  1
  O  O17  1  0.07278205  0.47514376  0.26180721  1
  O  O18  1  0.59201754  0.01098221  0.76195886  1
  O  O19  1  0.92721795  0.52485624  0.73819279  1
