# generated using pymatgen
data_ZnCu2SnSe4
_symmetry_space_group_name_H-M   'P 1'
_cell_length_a   7.04268853
_cell_length_b   7.04268853
_cell_length_c   7.04268853
_cell_angle_alpha   131.62360387
_cell_angle_beta   131.62360387
_cell_angle_gamma   70.82415725
_symmetry_Int_Tables_number   1
_chemical_formula_structural   ZnCu2SnSe4
_chemical_formula_sum   'Zn1 Cu2 Sn1 Se4'
_cell_volume   191.18001558
_cell_formula_units_Z   1
loop_
 _symmetry_equiv_pos_site_id
 _symmetry_equiv_pos_as_xyz
  1  'x, y, z'
loop_
 _atom_site_type_symbol
 _atom_site_label
 _atom_site_symmetry_multiplicity
 _atom_site_fract_x
 _atom_site_fract_y
 _atom_site_fract_z
 _atom_site_occupancy
  Zn  Zn0  1  0.75000000  0.25000000  0.50000000  1
  Cu  Cu1  1  0.25000000  0.75000000  0.50000000  1
  Cu  Cu2  1  0.00000000  0.00000000  0.00000000  1
  Sn  Sn3  1  0.50000000  0.50000000  0.00000000  1
  Se  Se4  1  0.62975400  0.63653400  0.52624700  1
  Se  Se5  1  0.11028700  0.10350700  0.47375300  1
  Se  Se6  1  0.89649300  0.37024600  0.00678000  1
  Se  Se7  1  0.36346600  0.88971300  0.99322000  1
