# generated using pymatgen
data_BaCeEuSbO6
_symmetry_space_group_name_H-M   'P 1'
_cell_length_a   8.66693240
_cell_length_b   8.62083694
_cell_length_c   8.65706583
_cell_angle_alpha   90.00000000
_cell_angle_beta   90.00000000
_cell_angle_gamma   90.00000000
_symmetry_Int_Tables_number   1
_chemical_formula_structural   BaCeEuSbO6
_chemical_formula_sum   'Ba4 Ce4 Eu4 Sb4 O24'
_cell_volume   646.82315711
_cell_formula_units_Z   4
loop_
 _symmetry_equiv_pos_site_id
 _symmetry_equiv_pos_as_xyz
  1  'x, y, z'
loop_
 _atom_site_type_symbol
 _atom_site_label
 _atom_site_symmetry_multiplicity
 _atom_site_fract_x
 _atom_site_fract_y
 _atom_site_fract_z
 _atom_site_occupancy
  Ba  Ba0  1  -0.00000000  0.00000000  0.00000000  1
  Ba  Ba1  1  0.50000000  0.50000000  0.50000000  1
  Ba  Ba2  1  0.50000000  0.00000000  0.50000000  1
  Ba  Ba3  1  0.50000000  0.00000000  -0.00000000  1
  Ce  Ce4  1  0.75477504  0.74718322  0.74846986  1
  Ce  Ce5  1  0.24522496  0.25281678  0.74846986  1
  Ce  Ce6  1  0.24522496  0.74718322  0.25153014  1
  Ce  Ce7  1  0.75477504  0.25281678  0.25153014  1
  Eu  Eu8  1  0.00000000  0.50000000  0.50000000  1
  Eu  Eu9  1  0.50000000  0.50000000  -0.00000000  1
  Eu  Eu10  1  -0.00000000  0.50000000  0.00000000  1
  Eu  Eu11  1  -0.00000000  0.00000000  0.50000000  1
  Sb  Sb12  1  0.24711763  0.25116415  0.25133468  1
  Sb  Sb13  1  0.75288237  0.74883585  0.25133468  1
  Sb  Sb14  1  0.75288237  0.25116415  0.74866532  1
  Sb  Sb15  1  0.24711763  0.74883585  0.74866532  1
  O  O16  1  0.01395119  0.20721248  0.28894192  1
  O  O17  1  0.98604881  0.79278752  0.28894192  1
  O  O18  1  0.98604881  0.20721248  0.71105808  1
  O  O19  1  0.01395119  0.79278752  0.71105808  1
  O  O20  1  0.27881325  0.01458614  0.21451510  1
  O  O21  1  0.27881325  0.98541386  0.78548490  1
  O  O22  1  0.72118675  0.98541386  0.21451510  1
  O  O23  1  0.72118675  0.01458614  0.78548490  1
  O  O24  1  0.20653477  0.28957946  0.01317959  1
  O  O25  1  0.79346523  0.28957946  0.98682041  1
  O  O26  1  0.20653477  0.71042054  0.98682041  1
  O  O27  1  0.79346523  0.71042054  0.01317959  1
  O  O28  1  0.48521426  0.29438574  0.21307009  1
  O  O29  1  0.51478574  0.70561426  0.21307009  1
  O  O30  1  0.51478574  0.29438574  0.78692991  1
  O  O31  1  0.48521426  0.70561426  0.78692991  1
  O  O32  1  0.20957104  0.48603460  0.29346058  1
  O  O33  1  0.20957104  0.51396540  0.70653942  1
  O  O34  1  0.79042896  0.51396540  0.29346058  1
  O  O35  1  0.79042896  0.48603460  0.70653942  1
  O  O36  1  0.28423992  0.22011633  0.48674373  1
  O  O37  1  0.71576008  0.22011633  0.51325627  1
  O  O38  1  0.28423992  0.77988367  0.51325627  1
  O  O39  1  0.71576008  0.77988367  0.48674373  1
