# generated using pymatgen
data_SmEu(FeO3)2
_symmetry_space_group_name_H-M   'P 1'
_cell_length_a   7.86967909
_cell_length_b   7.86967909
_cell_length_c   7.86979419
_cell_angle_alpha   90.00000000
_cell_angle_beta   90.00000000
_cell_angle_gamma   90.00000000
_symmetry_Int_Tables_number   1
_chemical_formula_structural   SmEu(FeO3)2
_chemical_formula_sum   'Sm4 Eu4 Fe8 O24'
_cell_volume   487.39090528
_cell_formula_units_Z   4
loop_
 _symmetry_equiv_pos_site_id
 _symmetry_equiv_pos_as_xyz
  1  'x, y, z'
loop_
 _atom_site_type_symbol
 _atom_site_label
 _atom_site_symmetry_multiplicity
 _atom_site_fract_x
 _atom_site_fract_y
 _atom_site_fract_z
 _atom_site_occupancy
  Sm  Sm0  1  0.50000000  0.00000000  0.50000000  1
  Sm  Sm1  1  0.50000000  0.50000000  -0.00000000  1
  Sm  Sm2  1  -0.00000000  0.50000000  -0.00000000  1
  Sm  Sm3  1  0.50000000  0.50000000  0.50000000  1
  Eu  Eu4  1  0.50000000  0.00000000  -0.00000000  1
  Eu  Eu5  1  -0.00000000  0.00000000  -0.00000000  1
  Eu  Eu6  1  -0.00000000  0.00000000  0.50000000  1
  Eu  Eu7  1  -0.00000000  0.50000000  0.50000000  1
  Fe  Fe8  1  0.25074285  0.74925715  0.75000000  1
  Fe  Fe9  1  0.74925715  0.74925715  0.75000000  1
  Fe  Fe10  1  0.25074285  0.74925715  0.25000000  1
  Fe  Fe11  1  0.74925715  0.74925715  0.25000000  1
  Fe  Fe12  1  0.25074285  0.25074285  0.75000000  1
  Fe  Fe13  1  0.74925715  0.25074285  0.75000000  1
  Fe  Fe14  1  0.25074285  0.25074285  0.25000000  1
  Fe  Fe15  1  0.74925715  0.25074285  0.25000000  1
  O  O16  1  0.50000000  0.74414009  0.74785388  1
  O  O17  1  -0.00000000  0.74376003  0.75354924  1
  O  O18  1  0.50000000  0.74414009  0.25214612  1
  O  O19  1  -0.00000000  0.74376003  0.24645076  1
  O  O20  1  0.50000000  0.25585991  0.74785388  1
  O  O21  1  -0.00000000  0.25623997  0.75354924  1
  O  O22  1  0.50000000  0.25585991  0.25214612  1
  O  O23  1  -0.00000000  0.25623997  0.24645076  1
  O  O24  1  0.25623997  0.00000000  0.74645076  1
  O  O25  1  0.74376003  0.00000000  0.74645076  1
  O  O26  1  0.25623997  0.00000000  0.25354924  1
  O  O27  1  0.74376003  0.00000000  0.25354924  1
  O  O28  1  0.25585991  0.50000000  0.75214612  1
  O  O29  1  0.74414009  0.50000000  0.75214612  1
  O  O30  1  0.25585991  0.50000000  0.24785388  1
  O  O31  1  0.74414009  0.50000000  0.24785388  1
  O  O32  1  0.25203321  0.73970012  -0.00000000  1
  O  O33  1  0.74796679  0.73970012  -0.00000000  1
  O  O34  1  0.26029988  0.74796679  0.50000000  1
  O  O35  1  0.73970012  0.74796679  0.50000000  1
  O  O36  1  0.25203321  0.26029988  -0.00000000  1
  O  O37  1  0.74796679  0.26029988  -0.00000000  1
  O  O38  1  0.26029988  0.25203321  0.50000000  1
  O  O39  1  0.73970012  0.25203321  0.50000000  1
