# generated using pymatgen
data_SrNdEuSbO6
_symmetry_space_group_name_H-M   'P 1'
_cell_length_a   5.92027598
_cell_length_b   6.04123180
_cell_length_c   8.44687013
_cell_angle_alpha   90.12420489
_cell_angle_beta   90.38269358
_cell_angle_gamma   90.13207137
_symmetry_Int_Tables_number   1
_chemical_formula_structural   SrNdEuSbO6
_chemical_formula_sum   'Sr2 Nd2 Eu2 Sb2 O12'
_cell_volume   302.10046423
_cell_formula_units_Z   2
loop_
 _symmetry_equiv_pos_site_id
 _symmetry_equiv_pos_as_xyz
  1  'x, y, z'
loop_
 _atom_site_type_symbol
 _atom_site_label
 _atom_site_symmetry_multiplicity
 _atom_site_fract_x
 _atom_site_fract_y
 _atom_site_fract_z
 _atom_site_occupancy
  Sr  Sr0  1  0.98804654  0.04605376  0.25072975  1
  Sr  Sr1  1  0.01195346  0.95394624  0.74927025  1
  Nd  Nd2  1  -0.00000000  0.50000000  0.00000000  1
  Nd  Nd3  1  0.50000000  -0.00000000  0.50000000  1
  Eu  Eu4  1  0.51337707  0.54704069  0.24860174  1
  Eu  Eu5  1  0.48662293  0.45295931  0.75139826  1
  Sb  Sb6  1  0.50000000  -0.00000000  0.00000000  1
  Sb  Sb7  1  -0.00000000  0.50000000  0.50000000  1
  O  O8  1  0.22284103  0.18858456  0.95137691  1
  O  O9  1  0.27687325  0.68748231  0.55264142  1
  O  O10  1  0.77715897  0.81141544  0.04862309  1
  O  O11  1  0.72312675  0.31251769  0.44735858  1
  O  O12  1  0.32010269  0.72140302  0.94580637  1
  O  O13  1  0.18278666  0.22334317  0.55317100  1
  O  O14  1  0.67989731  0.27859698  0.05419363  1
  O  O15  1  0.81721334  0.77665683  0.44682900  1
  O  O16  1  0.40636639  0.96333340  0.22998311  1
  O  O17  1  0.10196933  0.46947113  0.27037541  1
  O  O18  1  0.59363361  0.03666660  0.77001689  1
  O  O19  1  0.89803067  0.53052887  0.72962459  1
