# generated using pymatgen
data_BaCaPrBiO6
_symmetry_space_group_name_H-M   'P 1'
_cell_length_a   8.70037281
_cell_length_b   8.68188888
_cell_length_c   8.72119573
_cell_angle_alpha   90.00000000
_cell_angle_beta   90.00000000
_cell_angle_gamma   90.00000000
_symmetry_Int_Tables_number   1
_chemical_formula_structural   BaCaPrBiO6
_chemical_formula_sum   'Ba4 Ca4 Pr4 Bi4 O24'
_cell_volume   658.76136224
_cell_formula_units_Z   4
loop_
 _symmetry_equiv_pos_site_id
 _symmetry_equiv_pos_as_xyz
  1  'x, y, z'
loop_
 _atom_site_type_symbol
 _atom_site_label
 _atom_site_symmetry_multiplicity
 _atom_site_fract_x
 _atom_site_fract_y
 _atom_site_fract_z
 _atom_site_occupancy
  Ba  Ba0  1  0.00000000  0.00000000  0.00000000  1
  Ba  Ba1  1  0.50000000  0.50000000  0.50000000  1
  Ba  Ba2  1  0.00000000  0.50000000  0.50000000  1
  Ba  Ba3  1  0.50000000  0.50000000  0.00000000  1
  Ca  Ca4  1  0.50000000  0.00000000  0.50000000  1
  Ca  Ca5  1  0.50000000  0.00000000  0.00000000  1
  Ca  Ca6  1  0.00000000  0.50000000  0.00000000  1
  Ca  Ca7  1  0.00000000  0.00000000  0.50000000  1
  Pr  Pr8  1  0.24784222  0.24458247  0.24932824  1
  Pr  Pr9  1  0.75215778  0.75541753  0.24932824  1
  Pr  Pr10  1  0.75215778  0.24458247  0.75067176  1
  Pr  Pr11  1  0.24784222  0.75541753  0.75067176  1
  Bi  Bi12  1  0.74973984  0.75642630  0.75095609  1
  Bi  Bi13  1  0.25026016  0.24357370  0.75095609  1
  Bi  Bi14  1  0.25026016  0.75642630  0.24904391  1
  Bi  Bi15  1  0.74973984  0.24357370  0.24904391  1
  O  O16  1  0.98520819  0.19149244  0.30255614  1
  O  O17  1  0.01479181  0.80850756  0.30255614  1
  O  O18  1  0.01479181  0.19149244  0.69744386  1
  O  O19  1  0.98520819  0.80850756  0.69744386  1
  O  O20  1  0.29501941  0.98835745  0.18234330  1
  O  O21  1  0.29501941  0.01164255  0.81765670  1
  O  O22  1  0.70498059  0.01164255  0.18234330  1
  O  O23  1  0.70498059  0.98835745  0.81765670  1
  O  O24  1  0.18812636  0.29600165  0.98607763  1
  O  O25  1  0.81187364  0.29600165  0.01392237  1
  O  O26  1  0.18812636  0.70399835  0.01392237  1
  O  O27  1  0.81187364  0.70399835  0.98607763  1
  O  O28  1  0.51013548  0.28386676  0.21407839  1
  O  O29  1  0.48986452  0.71613324  0.21407839  1
  O  O30  1  0.48986452  0.28386676  0.78592161  1
  O  O31  1  0.51013548  0.71613324  0.78592161  1
  O  O32  1  0.22230114  0.51366131  0.29170608  1
  O  O33  1  0.22230114  0.48633869  0.70829392  1
  O  O34  1  0.77769886  0.48633869  0.29170608  1
  O  O35  1  0.77769886  0.51366131  0.70829392  1
  O  O36  1  0.30164415  0.19531256  0.51301571  1
  O  O37  1  0.69835585  0.19531256  0.48698429  1
  O  O38  1  0.30164415  0.80468744  0.48698429  1
  O  O39  1  0.69835585  0.80468744  0.51301571  1
