# generated using pymatgen
data_KBaLaMnO6
_symmetry_space_group_name_H-M   'P 1'
_cell_length_a   8.53778953
_cell_length_b   8.56731502
_cell_length_c   8.57905761
_cell_angle_alpha   90.00000000
_cell_angle_beta   90.00000000
_cell_angle_gamma   90.00000000
_symmetry_Int_Tables_number   1
_chemical_formula_structural   KBaLaMnO6
_chemical_formula_sum   'K4 Ba4 La4 Mn4 O24'
_cell_volume   627.52316867
_cell_formula_units_Z   4
loop_
 _symmetry_equiv_pos_site_id
 _symmetry_equiv_pos_as_xyz
  1  'x, y, z'
loop_
 _atom_site_type_symbol
 _atom_site_label
 _atom_site_symmetry_multiplicity
 _atom_site_fract_x
 _atom_site_fract_y
 _atom_site_fract_z
 _atom_site_occupancy
  K  K0  1  0.00000000  0.50000000  0.50000000  1
  K  K1  1  0.50000000  0.00000000  0.50000000  1
  K  K2  1  0.50000000  0.00000000  -0.00000000  1
  K  K3  1  0.00000000  0.50000000  0.00000000  1
  Ba  Ba4  1  0.50000000  0.50000000  0.00000000  1
  Ba  Ba5  1  0.00000000  0.00000000  0.50000000  1
  Ba  Ba6  1  0.00000000  0.00000000  -0.00000000  1
  Ba  Ba7  1  0.50000000  0.50000000  0.50000000  1
  La  La8  1  0.75000000  0.75000000  0.75000000  1
  La  La9  1  0.25000000  0.25000000  0.75000000  1
  La  La10  1  0.25000000  0.75000000  0.25000000  1
  La  La11  1  0.75000000  0.25000000  0.25000000  1
  Mn  Mn12  1  0.25000000  0.25000000  0.25000000  1
  Mn  Mn13  1  0.75000000  0.75000000  0.25000000  1
  Mn  Mn14  1  0.75000000  0.25000000  0.75000000  1
  Mn  Mn15  1  0.25000000  0.75000000  0.75000000  1
  O  O16  1  0.02441736  0.23214679  0.25756042  1
  O  O17  1  0.97558264  0.76785321  0.25756042  1
  O  O18  1  0.97558264  0.23214679  0.74243958  1
  O  O19  1  0.02441736  0.76785321  0.74243958  1
  O  O20  1  0.24859317  0.02521736  0.24161123  1
  O  O21  1  0.24859317  0.97478264  0.75838877  1
  O  O22  1  0.75140683  0.97478264  0.24161123  1
  O  O23  1  0.75140683  0.02521736  0.75838877  1
  O  O24  1  0.24223275  0.25771350  0.02622390  1
  O  O25  1  0.75776725  0.25771350  0.97377610  1
  O  O26  1  0.24223275  0.74228650  0.97377610  1
  O  O27  1  0.75776725  0.74228650  0.02622390  1
  O  O28  1  0.47558264  0.26785321  0.24243958  1
  O  O29  1  0.52441736  0.73214679  0.24243958  1
  O  O30  1  0.52441736  0.26785321  0.75756042  1
  O  O31  1  0.47558264  0.73214679  0.75756042  1
  O  O32  1  0.25140683  0.47478264  0.25838877  1
  O  O33  1  0.25140683  0.52521736  0.74161123  1
  O  O34  1  0.74859317  0.52521736  0.25838877  1
  O  O35  1  0.74859317  0.47478264  0.74161123  1
  O  O36  1  0.25776725  0.24228650  0.47377610  1
  O  O37  1  0.74223275  0.24228650  0.52622390  1
  O  O38  1  0.25776725  0.75771350  0.52622390  1
  O  O39  1  0.74223275  0.75771350  0.47377610  1
