# generated using pymatgen
data_BaNaLaMnO6
_symmetry_space_group_name_H-M   'P 1'
_cell_length_a   8.51480852
_cell_length_b   8.50428893
_cell_length_c   8.44229337
_cell_angle_alpha   90.00000000
_cell_angle_beta   90.00000000
_cell_angle_gamma   90.00000000
_symmetry_Int_Tables_number   1
_chemical_formula_structural   BaNaLaMnO6
_chemical_formula_sum   'Ba4 Na4 La4 Mn4 O24'
_cell_volume   611.32665552
_cell_formula_units_Z   4
loop_
 _symmetry_equiv_pos_site_id
 _symmetry_equiv_pos_as_xyz
  1  'x, y, z'
loop_
 _atom_site_type_symbol
 _atom_site_label
 _atom_site_symmetry_multiplicity
 _atom_site_fract_x
 _atom_site_fract_y
 _atom_site_fract_z
 _atom_site_occupancy
  Ba  Ba0  1  0.00000000  -0.00000000  0.00000000  1
  Ba  Ba1  1  0.50000000  0.50000000  0.50000000  1
  Ba  Ba2  1  0.50000000  -0.00000000  0.50000000  1
  Ba  Ba3  1  0.00000000  0.50000000  0.00000000  1
  Na  Na4  1  0.00000000  0.50000000  0.50000000  1
  Na  Na5  1  0.50000000  0.50000000  0.00000000  1
  Na  Na6  1  0.50000000  -0.00000000  0.00000000  1
  Na  Na7  1  0.00000000  -0.00000000  0.50000000  1
  La  La8  1  0.75000000  0.75000000  0.75000000  1
  La  La9  1  0.25000000  0.25000000  0.75000000  1
  La  La10  1  0.25000000  0.75000000  0.25000000  1
  La  La11  1  0.75000000  0.25000000  0.25000000  1
  Mn  Mn12  1  0.25000000  0.25000000  0.25000000  1
  Mn  Mn13  1  0.75000000  0.75000000  0.25000000  1
  Mn  Mn14  1  0.75000000  0.25000000  0.75000000  1
  Mn  Mn15  1  0.25000000  0.75000000  0.75000000  1
  O  O16  1  0.02700009  0.22013030  0.26950609  1
  O  O17  1  0.97299991  0.77986970  0.26950609  1
  O  O18  1  0.97299991  0.22013030  0.73049391  1
  O  O19  1  0.02700009  0.77986970  0.73049391  1
  O  O20  1  0.27707025  0.02606381  0.22216167  1
  O  O21  1  0.27707025  0.97393619  0.77783833  1
  O  O22  1  0.72292975  0.97393619  0.22216167  1
  O  O23  1  0.72292975  0.02606381  0.77783833  1
  O  O24  1  0.21959346  0.26992439  0.02560417  1
  O  O25  1  0.78040654  0.26992439  0.97439583  1
  O  O26  1  0.21959346  0.73007561  0.97439583  1
  O  O27  1  0.78040654  0.73007561  0.02560417  1
  O  O28  1  0.47299991  0.27986970  0.23049391  1
  O  O29  1  0.52700009  0.72013030  0.23049391  1
  O  O30  1  0.52700009  0.27986970  0.76950609  1
  O  O31  1  0.47299991  0.72013030  0.76950609  1
  O  O32  1  0.22292975  0.47393619  0.27783833  1
  O  O33  1  0.22292975  0.52606381  0.72216167  1
  O  O34  1  0.77707025  0.52606381  0.27783833  1
  O  O35  1  0.77707025  0.47393619  0.72216167  1
  O  O36  1  0.28040654  0.23007561  0.47439583  1
  O  O37  1  0.71959346  0.23007561  0.52560417  1
  O  O38  1  0.28040654  0.76992439  0.52560417  1
  O  O39  1  0.71959346  0.76992439  0.47439583  1
