# generated using pymatgen
data_Ba2CeNbO6
_symmetry_space_group_name_H-M   'P 1'
_cell_length_a   8.66538891
_cell_length_b   8.66538891
_cell_length_c   8.66538891
_cell_angle_alpha   90.00000000
_cell_angle_beta   90.00000000
_cell_angle_gamma   90.00000000
_symmetry_Int_Tables_number   1
_chemical_formula_structural   Ba2CeNbO6
_chemical_formula_sum   'Ba8 Ce4 Nb4 O24'
_cell_volume   650.67508424
_cell_formula_units_Z   4
loop_
 _symmetry_equiv_pos_site_id
 _symmetry_equiv_pos_as_xyz
  1  'x, y, z'
loop_
 _atom_site_type_symbol
 _atom_site_label
 _atom_site_symmetry_multiplicity
 _atom_site_fract_x
 _atom_site_fract_y
 _atom_site_fract_z
 _atom_site_occupancy
  Ba  Ba0  1  0.50000000  0.50000000  0.50000000  1
  Ba  Ba1  1  0.00000000  -0.00000000  0.00000000  1
  Ba  Ba2  1  0.00000000  -0.00000000  0.50000000  1
  Ba  Ba3  1  0.00000000  0.50000000  0.00000000  1
  Ba  Ba4  1  0.50000000  -0.00000000  0.00000000  1
  Ba  Ba5  1  0.50000000  0.50000000  0.00000000  1
  Ba  Ba6  1  0.50000000  -0.00000000  0.50000000  1
  Ba  Ba7  1  0.00000000  0.50000000  0.50000000  1
  Ce  Ce8  1  0.75000000  0.75000000  0.75000000  1
  Ce  Ce9  1  0.75000000  0.25000000  0.25000000  1
  Ce  Ce10  1  0.25000000  0.75000000  0.25000000  1
  Ce  Ce11  1  0.25000000  0.25000000  0.75000000  1
  Nb  Nb12  1  0.25000000  0.25000000  0.25000000  1
  Nb  Nb13  1  0.25000000  0.75000000  0.75000000  1
  Nb  Nb14  1  0.75000000  0.25000000  0.75000000  1
  Nb  Nb15  1  0.75000000  0.75000000  0.25000000  1
  O  O16  1  0.23172635  0.26938916  0.48486741  1
  O  O17  1  0.23172635  0.73061084  0.51513259  1
  O  O18  1  0.76827365  0.26938916  0.51513259  1
  O  O19  1  0.76827365  0.73061084  0.48486741  1
  O  O20  1  0.26938916  0.48486741  0.23172635  1
  O  O21  1  0.73061084  0.51513259  0.23172635  1
  O  O22  1  0.26938916  0.51513259  0.76827365  1
  O  O23  1  0.73061084  0.48486741  0.76827365  1
  O  O24  1  0.48486741  0.23172635  0.26938916  1
  O  O25  1  0.51513259  0.23172635  0.73061084  1
  O  O26  1  0.51513259  0.76827365  0.26938916  1
  O  O27  1  0.48486741  0.76827365  0.73061084  1
  O  O28  1  0.26827365  0.23061084  0.01513259  1
  O  O29  1  0.26827365  0.76938916  0.98486741  1
  O  O30  1  0.73172635  0.23061084  0.98486741  1
  O  O31  1  0.73172635  0.76938916  0.01513259  1
  O  O32  1  0.23061084  0.01513259  0.26827365  1
  O  O33  1  0.76938916  0.98486741  0.26827365  1
  O  O34  1  0.23061084  0.98486741  0.73172635  1
  O  O35  1  0.76938916  0.01513259  0.73172635  1
  O  O36  1  0.01513259  0.26827365  0.23061084  1
  O  O37  1  0.98486741  0.26827365  0.76938916  1
  O  O38  1  0.98486741  0.73172635  0.23061084  1
  O  O39  1  0.01513259  0.73172635  0.76938916  1
