# generated using pymatgen
data_SrCaGdNbO6
_symmetry_space_group_name_H-M   'P 1'
_cell_length_a   5.82160272
_cell_length_b   5.82160272
_cell_length_c   8.53137390
_cell_angle_alpha   90.00000000
_cell_angle_beta   90.00000000
_cell_angle_gamma   90.00000000
_symmetry_Int_Tables_number   1
_chemical_formula_structural   SrCaGdNbO6
_chemical_formula_sum   'Sr2 Ca2 Gd2 Nb2 O12'
_cell_volume   289.13728962
_cell_formula_units_Z   2
loop_
 _symmetry_equiv_pos_site_id
 _symmetry_equiv_pos_as_xyz
  1  'x, y, z'
loop_
 _atom_site_type_symbol
 _atom_site_label
 _atom_site_symmetry_multiplicity
 _atom_site_fract_x
 _atom_site_fract_y
 _atom_site_fract_z
 _atom_site_occupancy
  Sr  Sr0  1  0.50000000  -0.00000000  0.25000000  1
  Sr  Sr1  1  0.00000000  0.50000000  0.75000000  1
  Ca  Ca2  1  0.00000000  0.50000000  0.25000000  1
  Ca  Ca3  1  0.50000000  0.00000000  0.75000000  1
  Gd  Gd4  1  0.00000000  -0.00000000  -0.00000000  1
  Gd  Gd5  1  0.50000000  0.50000000  0.50000000  1
  Nb  Nb6  1  0.00000000  -0.00000000  0.50000000  1
  Nb  Nb7  1  0.50000000  0.50000000  0.00000000  1
  O  O8  1  0.00000000  0.00000000  0.26306386  1
  O  O9  1  0.50000000  0.50000000  0.23693614  1
  O  O10  1  0.00000000  -0.00000000  0.73693614  1
  O  O11  1  0.50000000  0.50000000  0.76306386  1
  O  O12  1  0.34036989  0.19252556  0.98534123  1
  O  O13  1  0.65963011  0.80747444  0.98534123  1
  O  O14  1  0.80747444  0.34036989  0.01465877  1
  O  O15  1  0.19252556  0.65963011  0.01465877  1
  O  O16  1  0.84036989  0.30747444  0.48534123  1
  O  O17  1  0.15963011  0.69252556  0.48534123  1
  O  O18  1  0.30747444  0.15963011  0.51465877  1
  O  O19  1  0.69252556  0.84036989  0.51465877  1
