# generated using pymatgen
data_NaCeTi4O12
_symmetry_space_group_name_H-M   'P 1'
_cell_length_a   5.40039060
_cell_length_b   5.40039060
_cell_length_c   7.79940927
_cell_angle_alpha   90.00000000
_cell_angle_beta   90.00000000
_cell_angle_gamma   90.42189317
_symmetry_Int_Tables_number   1
_chemical_formula_structural   NaCeTi4O12
_chemical_formula_sum   'Na1 Ce1 Ti4 O12'
_cell_volume   227.45751023
_cell_formula_units_Z   1
loop_
 _symmetry_equiv_pos_site_id
 _symmetry_equiv_pos_as_xyz
  1  'x, y, z'
loop_
 _atom_site_type_symbol
 _atom_site_label
 _atom_site_symmetry_multiplicity
 _atom_site_fract_x
 _atom_site_fract_y
 _atom_site_fract_z
 _atom_site_occupancy
  Na  Na0  1  0.98792598  0.01207402  0.00000000  1
  Ce  Ce1  1  0.52258968  0.47741032  0.50000000  1
  Ti  Ti2  1  0.49388988  0.98908107  0.23465467  1
  Ti  Ti3  1  0.49388988  0.98908107  0.76534533  1
  Ti  Ti4  1  0.01091893  0.50611012  0.76534533  1
  Ti  Ti5  1  0.01091893  0.50611012  0.23465467  1
  O  O6  1  0.29026768  0.28897180  0.27678687  1
  O  O7  1  0.71102820  0.70973232  0.27678687  1
  O  O8  1  0.71102820  0.70973232  0.72321313  1
  O  O9  1  0.29026768  0.28897180  0.72321313  1
  O  O10  1  0.20693756  0.79306244  0.21297751  1
  O  O11  1  0.75947721  0.24052279  0.30205527  1
  O  O12  1  0.75947721  0.24052279  0.69794473  1
  O  O13  1  0.20693756  0.79306244  0.78702249  1
  O  O14  1  0.55258969  0.02090757  0.00000000  1
  O  O15  1  0.46147793  0.93621465  0.50000000  1
  O  O16  1  0.97909243  0.44741031  0.00000000  1
  O  O17  1  0.06378535  0.53852207  0.50000000  1
