# generated using pymatgen
data_BaEuGdSbO6
_symmetry_space_group_name_H-M   'P 1'
_cell_length_a   6.15409861
_cell_length_b   6.15409861
_cell_length_c   8.94700958
_cell_angle_alpha   90.00000000
_cell_angle_beta   90.00000000
_cell_angle_gamma   90.26679543
_symmetry_Int_Tables_number   1
_chemical_formula_structural   BaEuGdSbO6
_chemical_formula_sum   'Ba2 Eu2 Gd2 Sb2 O12'
_cell_volume   338.84579131
_cell_formula_units_Z   2
loop_
 _symmetry_equiv_pos_site_id
 _symmetry_equiv_pos_as_xyz
  1  'x, y, z'
loop_
 _atom_site_type_symbol
 _atom_site_label
 _atom_site_symmetry_multiplicity
 _atom_site_fract_x
 _atom_site_fract_y
 _atom_site_fract_z
 _atom_site_occupancy
  Ba  Ba0  1  0.50000000  0.50000000  0.25000000  1
  Ba  Ba1  1  0.50000000  0.50000000  0.75000000  1
  Eu  Eu2  1  0.00000000  -0.00000000  0.25000000  1
  Eu  Eu3  1  0.00000000  -0.00000000  0.75000000  1
  Gd  Gd4  1  0.00000000  0.50000000  -0.00000000  1
  Gd  Gd5  1  0.50000000  -0.00000000  0.50000000  1
  Sb  Sb6  1  0.00000000  0.50000000  0.50000000  1
  Sb  Sb7  1  0.50000000  -0.00000000  -0.00000000  1
  O  O8  1  0.00000000  0.50000000  0.26481647  1
  O  O9  1  0.50000000  -0.00000000  0.23518353  1
  O  O10  1  0.00000000  0.50000000  0.73518353  1
  O  O11  1  0.50000000  -0.00000000  0.76481647  1
  O  O12  1  0.31839380  0.70868040  0.00000000  1
  O  O13  1  0.68160620  0.29131960  -0.00000000  1
  O  O14  1  0.79458795  0.82919767  -0.00000000  1
  O  O15  1  0.20541205  0.17080233  0.00000000  1
  O  O16  1  0.82919767  0.79458795  0.50000000  1
  O  O17  1  0.17080233  0.20541205  0.50000000  1
  O  O18  1  0.29131960  0.68160620  0.50000000  1
  O  O19  1  0.70868040  0.31839380  0.50000000  1
