# generated using pymatgen
data_BaSrNdWO6
_symmetry_space_group_name_H-M   'P 1'
_cell_length_a   6.06845386
_cell_length_b   6.07708711
_cell_length_c   8.53939283
_cell_angle_alpha   90.12043919
_cell_angle_beta   90.80862407
_cell_angle_gamma   90.09865964
_symmetry_Int_Tables_number   1
_chemical_formula_structural   BaSrNdWO6
_chemical_formula_sum   'Ba2 Sr2 Nd2 W2 O12'
_cell_volume   314.88765117
_cell_formula_units_Z   2
loop_
 _symmetry_equiv_pos_site_id
 _symmetry_equiv_pos_as_xyz
  1  'x, y, z'
loop_
 _atom_site_type_symbol
 _atom_site_label
 _atom_site_symmetry_multiplicity
 _atom_site_fract_x
 _atom_site_fract_y
 _atom_site_fract_z
 _atom_site_occupancy
  Ba  Ba0  1  0.50733330  0.52686487  0.24877639  1
  Ba  Ba1  1  0.49266670  0.47313513  0.75122361  1
  Sr  Sr2  1  0.99284409  0.03367940  0.25345598  1
  Sr  Sr3  1  0.00715591  0.96632060  0.74654402  1
  Nd  Nd4  1  -0.00000000  0.50000000  -0.00000000  1
  Nd  Nd5  1  0.50000000  -0.00000000  0.50000000  1
  W  W6  1  0.50000000  -0.00000000  -0.00000000  1
  W  W7  1  -0.00000000  0.50000000  0.50000000  1
  O  O8  1  0.23715644  0.19652019  0.95445514  1
  O  O9  1  0.26367204  0.69642643  0.52575675  1
  O  O10  1  0.76284356  0.80347981  0.04554486  1
  O  O11  1  0.73632796  0.30357357  0.47424325  1
  O  O12  1  0.29639598  0.73956484  0.95710662  1
  O  O13  1  0.19208548  0.22587235  0.54601696  1
  O  O14  1  0.70360402  0.26043516  0.04289338  1
  O  O15  1  0.80791452  0.77412765  0.45398304  1
  O  O16  1  0.41319273  0.00150964  0.22726987  1
  O  O17  1  0.06785744  0.46873900  0.27083803  1
  O  O18  1  0.58680727  0.99849036  0.77273013  1
  O  O19  1  0.93214256  0.53126100  0.72916197  1
