# generated using pymatgen
data_NaTl
_symmetry_space_group_name_H-M   'P 1'
_cell_length_a   6.39502782
_cell_length_b   6.39502782
_cell_length_c   6.07374400
_cell_angle_alpha   90.00000000
_cell_angle_beta   90.00000000
_cell_angle_gamma   99.16620227
_symmetry_Int_Tables_number   1
_chemical_formula_structural   NaTl
_chemical_formula_sum   'Na4 Tl4'
_cell_volume   245.22225515
_cell_formula_units_Z   4
loop_
 _symmetry_equiv_pos_site_id
 _symmetry_equiv_pos_as_xyz
  1  'x, y, z'
loop_
 _atom_site_type_symbol
 _atom_site_label
 _atom_site_symmetry_multiplicity
 _atom_site_fract_x
 _atom_site_fract_y
 _atom_site_fract_z
 _atom_site_occupancy
  Na  Na0  1  0.50933600  0.12964100  0.25000000  1
  Na  Na1  1  0.87035900  0.49066400  0.75000000  1
  Na  Na2  1  0.49066400  0.87035900  0.75000000  1
  Na  Na3  1  0.12964100  0.50933600  0.25000000  1
  Tl  Tl4  1  0.00000000  0.00000000  0.50000000  1
  Tl  Tl5  1  0.00000000  0.00000000  0.00000000  1
  Tl  Tl6  1  0.63266300  0.63266300  0.25000000  1
  Tl  Tl7  1  0.36733700  0.36733700  0.75000000  1
