# generated using pymatgen
data_BaCaZr2O6
_symmetry_space_group_name_H-M   'P 1'
_cell_length_a   5.87632065
_cell_length_b   5.88153828
_cell_length_c   5.88153828
_cell_angle_alpha   60.83466932
_cell_angle_beta   60.02934129
_cell_angle_gamma   60.02934129
_symmetry_Int_Tables_number   1
_chemical_formula_structural   BaCaZr2O6
_chemical_formula_sum   'Ba1 Ca1 Zr2 O6'
_cell_volume   144.68786698
_cell_formula_units_Z   1
loop_
 _symmetry_equiv_pos_site_id
 _symmetry_equiv_pos_as_xyz
  1  'x, y, z'
loop_
 _atom_site_type_symbol
 _atom_site_label
 _atom_site_symmetry_multiplicity
 _atom_site_fract_x
 _atom_site_fract_y
 _atom_site_fract_z
 _atom_site_occupancy
  Ba  Ba0  1  0.50215906  -0.00000000  -0.00000000  1
  Ca  Ca1  1  0.97131413  0.50000000  0.50000000  1
  Zr  Zr2  1  0.74768058  0.25135100  0.25135100  1
  Zr  Zr3  1  0.25038257  0.74864900  0.74864900  1
  O  O4  1  0.39083320  0.50000000  0.50000000  1
  O  O5  1  0.05738610  -0.00000000  -0.00000000  1
  O  O6  1  0.97431578  0.52802357  0.06346704  1
  O  O7  1  0.56580640  0.93653296  0.47197643  1
  O  O8  1  0.56580640  0.47197643  0.93653296  1
  O  O9  1  0.97431578  0.06346704  0.52802357  1
