# generated using pymatgen
data_BaMnNb4O12
_symmetry_space_group_name_H-M   'P 1'
_cell_length_a   5.60757338
_cell_length_b   5.60757338
_cell_length_c   7.99814955
_cell_angle_alpha   90.00000000
_cell_angle_beta   90.00000000
_cell_angle_gamma   91.45666768
_symmetry_Int_Tables_number   1
_chemical_formula_structural   BaMnNb4O12
_chemical_formula_sum   'Ba1 Mn1 Nb4 O12'
_cell_volume   251.41957039
_cell_formula_units_Z   1
loop_
 _symmetry_equiv_pos_site_id
 _symmetry_equiv_pos_as_xyz
  1  'x, y, z'
loop_
 _atom_site_type_symbol
 _atom_site_label
 _atom_site_symmetry_multiplicity
 _atom_site_fract_x
 _atom_site_fract_y
 _atom_site_fract_z
 _atom_site_occupancy
  Ba  Ba0  1  0.52385059  0.47614941  0.50000000  1
  Mn  Mn1  1  0.98077911  0.01922089  0.00000000  1
  Nb  Nb2  1  0.50940328  0.98225789  0.24364346  1
  Nb  Nb3  1  0.50940328  0.98225789  0.75635654  1
  Nb  Nb4  1  0.01774211  0.49059672  0.75635654  1
  Nb  Nb5  1  0.01774211  0.49059672  0.24364346  1
  O  O6  1  0.28656469  0.29743802  0.24048480  1
  O  O7  1  0.70256198  0.71343531  0.24048480  1
  O  O8  1  0.70256198  0.71343531  0.75951520  1
  O  O9  1  0.28656469  0.29743802  0.75951520  1
  O  O10  1  0.18753826  0.81246174  0.18843339  1
  O  O11  1  0.78101409  0.21898591  0.27911458  1
  O  O12  1  0.78101409  0.21898591  0.72088542  1
  O  O13  1  0.18753826  0.81246174  0.81156661  1
  O  O14  1  0.58060580  0.03041926  0.00000000  1
  O  O15  1  0.46217711  0.96904216  0.50000000  1
  O  O16  1  0.96958074  0.41939420  0.00000000  1
  O  O17  1  0.03095784  0.53782289  0.50000000  1
