# generated using pymatgen
data_RbCr5S8
_symmetry_space_group_name_H-M   'P 1'
_cell_length_a   3.46684071
_cell_length_b   8.75302278
_cell_length_c   9.03126231
_cell_angle_alpha   104.43373141
_cell_angle_beta   101.06576963
_cell_angle_gamma   89.99999672
_symmetry_Int_Tables_number   1
_chemical_formula_structural   RbCr5S8
_chemical_formula_sum   'Rb1 Cr5 S8'
_cell_volume   260.14174950
_cell_formula_units_Z   1
loop_
 _symmetry_equiv_pos_site_id
 _symmetry_equiv_pos_as_xyz
  1  'x, y, z'
loop_
 _atom_site_type_symbol
 _atom_site_label
 _atom_site_symmetry_multiplicity
 _atom_site_fract_x
 _atom_site_fract_y
 _atom_site_fract_z
 _atom_site_occupancy
  Rb  Rb0  1  0.49892984  0.49918789  0.99785969  1
  Cr  Cr1  1  0.29487412  0.66532594  0.58974824  1
  Cr  Cr2  1  0.70519839  0.32731106  0.41039678  1
  Cr  Cr3  1  0.34063795  0.02062951  0.68127491  1
  Cr  Cr4  1  0.65371981  0.98929746  0.30744062  1
  Cr  Cr5  1  0.00629408  0.99812221  0.01258817  1
  S  S6  1  0.23760103  0.15464187  0.47520105  1
  S  S7  1  0.75853304  0.84637826  0.51706707  1
  S  S8  1  0.17179976  0.48301114  0.34359853  1
  S  S9  1  0.82860418  0.51369723  0.65720936  1
  S  S10  1  0.09004859  0.82711768  0.18009718  1
  S  S11  1  0.91433251  0.16349841  0.82866503  1
  S  S12  1  0.42580314  0.85089238  0.85160627  1
  S  S13  1  0.57362355  0.16088896  0.14724711  1
