# generated using pymatgen
data_CaCoF5
_symmetry_space_group_name_H-M   'P 1'
_cell_length_a   5.59296068
_cell_length_b   5.59296068
_cell_length_c   7.66059538
_cell_angle_alpha   69.71493316
_cell_angle_beta   69.71493316
_cell_angle_gamma   71.66869343
_symmetry_Int_Tables_number   1
_chemical_formula_structural   CaCoF5
_chemical_formula_sum   'Ca2 Co2 F10'
_cell_volume   205.62360624
_cell_formula_units_Z   2
loop_
 _symmetry_equiv_pos_site_id
 _symmetry_equiv_pos_as_xyz
  1  'x, y, z'
loop_
 _atom_site_type_symbol
 _atom_site_label
 _atom_site_symmetry_multiplicity
 _atom_site_fract_x
 _atom_site_fract_y
 _atom_site_fract_z
 _atom_site_occupancy
  Ca  Ca0  1  0.54637800  0.45362200  0.75000000  1
  Ca  Ca1  1  0.45362200  0.54637800  0.25000000  1
  Co  Co2  1  0.00000000  0.00000000  0.50000000  1
  Co  Co3  1  0.00000000  0.00000000  0.00000000  1
  F  F4  1  0.09218900  0.90781100  0.25000000  1
  F  F5  1  0.90781100  0.09218900  0.75000000  1
  F  F6  1  0.75784900  0.79469000  0.11646400  1
  F  F7  1  0.20531000  0.24215100  0.38353600  1
  F  F8  1  0.69893200  0.28740500  0.46586400  1
  F  F9  1  0.71259500  0.30106800  0.03413600  1
  F  F10  1  0.30106800  0.71259500  0.53413600  1
  F  F11  1  0.28740500  0.69893200  0.96586400  1
  F  F12  1  0.79469000  0.75784900  0.61646400  1
  F  F13  1  0.24215100  0.20531000  0.88353600  1
