# generated using pymatgen
data_MgCoF5
_symmetry_space_group_name_H-M   'P 1'
_cell_length_a   5.25051329
_cell_length_b   5.25051329
_cell_length_c   7.37034938
_cell_angle_alpha   69.30597637
_cell_angle_beta   69.30597637
_cell_angle_gamma   72.14811165
_symmetry_Int_Tables_number   1
_chemical_formula_structural   MgCoF5
_chemical_formula_sum   'Mg2 Co2 F10'
_cell_volume   173.93804073
_cell_formula_units_Z   2
loop_
 _symmetry_equiv_pos_site_id
 _symmetry_equiv_pos_as_xyz
  1  'x, y, z'
loop_
 _atom_site_type_symbol
 _atom_site_label
 _atom_site_symmetry_multiplicity
 _atom_site_fract_x
 _atom_site_fract_y
 _atom_site_fract_z
 _atom_site_occupancy
  Mg  Mg0  1  0.52928800  0.47071200  0.75000000  1
  Mg  Mg1  1  0.47071200  0.52928800  0.25000000  1
  Co  Co2  1  0.00000000  0.00000000  0.00000000  1
  Co  Co3  1  0.00000000  0.00000000  0.50000000  1
  F  F4  1  0.12941500  0.87058500  0.25000000  1
  F  F5  1  0.87058500  0.12941500  0.75000000  1
  F  F6  1  0.21693800  0.26388200  0.37433400  1
  F  F7  1  0.73611800  0.78306200  0.12566600  1
  F  F8  1  0.70539900  0.31858800  0.04887500  1
  F  F9  1  0.68141200  0.29460100  0.45112500  1
  F  F10  1  0.29460100  0.68141200  0.95112500  1
  F  F11  1  0.31858800  0.70539900  0.54887500  1
  F  F12  1  0.26388200  0.21693800  0.87433400  1
  F  F13  1  0.78306200  0.73611800  0.62566600  1
