# generated using pymatgen
data_SrVZnP2O9
_symmetry_space_group_name_H-M   'P 1'
_cell_length_a   9.14686800
_cell_length_b   9.26147500
_cell_length_c   17.72525100
_cell_angle_alpha   90.00000000
_cell_angle_beta   90.00000000
_cell_angle_gamma   90.00000000
_symmetry_Int_Tables_number   1
_chemical_formula_structural   SrVZnP2O9
_chemical_formula_sum   'Sr8 V8 Zn8 P16 O72'
_cell_volume   1501.56786111
_cell_formula_units_Z   8
loop_
 _symmetry_equiv_pos_site_id
 _symmetry_equiv_pos_as_xyz
  1  'x, y, z'
loop_
 _atom_site_type_symbol
 _atom_site_label
 _atom_site_symmetry_multiplicity
 _atom_site_fract_x
 _atom_site_fract_y
 _atom_site_fract_z
 _atom_site_occupancy
  Sr  Sr0  1  0.06775200  0.36198900  0.10016600  1
  Sr  Sr1  1  0.56775200  0.63801100  0.39983400  1
  Sr  Sr2  1  0.43224800  0.86198900  0.89983400  1
  Sr  Sr3  1  0.93224800  0.13801100  0.60016600  1
  Sr  Sr4  1  0.93224800  0.63801100  0.89983400  1
  Sr  Sr5  1  0.43224800  0.36198900  0.60016600  1
  Sr  Sr6  1  0.56775200  0.13801100  0.10016600  1
  Sr  Sr7  1  0.06775200  0.86198900  0.39983400  1
  V  V8  1  0.75481100  0.49438300  0.21106500  1
  V  V9  1  0.25481100  0.50561700  0.28893500  1
  V  V10  1  0.74518900  0.99438300  0.78893500  1
  V  V11  1  0.24518900  0.00561700  0.71106500  1
  V  V12  1  0.24518900  0.50561700  0.78893500  1
  V  V13  1  0.74518900  0.49438300  0.71106500  1
  V  V14  1  0.25481100  0.00561700  0.21106500  1
  V  V15  1  0.75481100  0.99438300  0.28893500  1
  Zn  Zn16  1  0.07191500  0.30550200  0.43623800  1
  Zn  Zn17  1  0.57191500  0.69449800  0.06376200  1
  Zn  Zn18  1  0.42808500  0.80550200  0.56376200  1
  Zn  Zn19  1  0.92808500  0.19449800  0.93623800  1
  Zn  Zn20  1  0.92808500  0.69449800  0.56376200  1
  Zn  Zn21  1  0.42808500  0.30550200  0.93623800  1
  Zn  Zn22  1  0.57191500  0.19449800  0.43623800  1
  Zn  Zn23  1  0.07191500  0.80550200  0.06376200  1
  P  P24  1  0.23405700  0.07021100  0.01191800  1
  P  P25  1  0.73405700  0.92978900  0.48808200  1
  P  P26  1  0.26594300  0.57021100  0.98808200  1
  P  P27  1  0.76594300  0.42978900  0.51191800  1
  P  P28  1  0.76594300  0.92978900  0.98808200  1
  P  P29  1  0.26594300  0.07021100  0.51191800  1
  P  P30  1  0.73405700  0.42978900  0.01191800  1
  P  P31  1  0.23405700  0.57021100  0.48808200  1
  P  P32  1  0.50434600  0.25575900  0.27193800  1
  P  P33  1  0.00434600  0.74424100  0.22806200  1
  P  P34  1  0.99565400  0.75575900  0.72806200  1
  P  P35  1  0.49565400  0.24424100  0.77193800  1
  P  P36  1  0.49565400  0.74424100  0.72806200  1
  P  P37  1  0.99565400  0.25575900  0.77193800  1
  P  P38  1  0.00434600  0.24424100  0.27193800  1
  P  P39  1  0.50434600  0.75575900  0.22806200  1
  O  O40  1  0.41558800  0.36013900  0.32172400  1
  O  O41  1  0.91558800  0.63986100  0.17827600  1
  O  O42  1  0.08441200  0.86013900  0.67827600  1
  O  O43  1  0.58441200  0.13986100  0.82172400  1
  O  O44  1  0.58441200  0.63986100  0.67827600  1
  O  O45  1  0.08441200  0.36013900  0.82172400  1
  O  O46  1  0.91558800  0.13986100  0.32172400  1
  O  O47  1  0.41558800  0.86013900  0.17827600  1
  O  O48  1  0.60195100  0.33415400  0.21363600  1
  O  O49  1  0.10195100  0.66584600  0.28636400  1
  O  O50  1  0.89804900  0.83415400  0.78636400  1
  O  O51  1  0.39804900  0.16584600  0.71363600  1
  O  O52  1  0.39804900  0.66584600  0.78636400  1
  O  O53  1  0.89804900  0.33415400  0.71363600  1
  O  O54  1  0.10195100  0.16584600  0.21363600  1
  O  O55  1  0.60195100  0.83415400  0.28636400  1
  O  O56  1  0.19027700  0.91542300  0.98912700  1
  O  O57  1  0.69027700  0.08457700  0.51087300  1
  O  O58  1  0.30972300  0.41542300  0.01087300  1
  O  O59  1  0.80972300  0.58457700  0.48912700  1
  O  O60  1  0.80972300  0.08457700  0.01087300  1
  O  O61  1  0.30972300  0.91542300  0.48912700  1
  O  O62  1  0.69027700  0.58457700  0.98912700  1
  O  O63  1  0.19027700  0.41542300  0.51087300  1
  O  O64  1  0.59864700  0.15820400  0.32795800  1
  O  O65  1  0.09864700  0.84179600  0.17204200  1
  O  O66  1  0.90135300  0.65820400  0.67204200  1
  O  O67  1  0.73649200  0.54383500  0.30013400  1
  O  O68  1  0.40135300  0.34179600  0.82795800  1
  O  O69  1  0.90135300  0.15820400  0.82795800  1
  O  O70  1  0.09864700  0.34179600  0.32795800  1
  O  O71  1  0.59864700  0.65820400  0.17204200  1
  O  O72  1  0.37740500  0.10494300  0.96689800  1
  O  O73  1  0.87740500  0.89505700  0.53310200  1
  O  O74  1  0.12259500  0.60494300  0.03310200  1
  O  O75  1  0.62259500  0.39505700  0.46689800  1
  O  O76  1  0.62259500  0.89505700  0.03310200  1
  O  O77  1  0.12259500  0.10494300  0.46689800  1
  O  O78  1  0.87740500  0.39505700  0.96689800  1
  O  O79  1  0.37740500  0.60494300  0.53310200  1
  O  O80  1  0.22762100  0.08080100  0.59689700  1
  O  O81  1  0.72762100  0.91919900  0.90310300  1
  O  O82  1  0.27237900  0.58080100  0.40310300  1
  O  O83  1  0.77237900  0.41919900  0.09689700  1
  O  O84  1  0.77237900  0.91919900  0.40310300  1
  O  O85  1  0.27237900  0.08080100  0.09689700  1
  O  O86  1  0.72762100  0.41919900  0.59689700  1
  O  O87  1  0.22762100  0.58080100  0.90310300  1
  O  O88  1  0.91227900  0.84656200  0.27771400  1
  O  O89  1  0.41227900  0.15343800  0.22228600  1
  O  O90  1  0.58772100  0.34656200  0.72228600  1
  O  O91  1  0.08772100  0.65343800  0.77771400  1
  O  O92  1  0.08772100  0.15343800  0.72228600  1
  O  O93  1  0.58772100  0.84656200  0.77771400  1
  O  O94  1  0.41227900  0.65343800  0.27771400  1
  O  O95  1  0.91227900  0.34656200  0.22228600  1
  O  O96  1  0.11199900  0.68042100  0.50571200  1
  O  O97  1  0.61199900  0.31957900  0.99428800  1
  O  O98  1  0.38800100  0.18042100  0.49428800  1
  O  O99  1  0.88800100  0.81957900  0.00571200  1
  O  O100  1  0.88800100  0.31957900  0.49428800  1
  O  O101  1  0.38800100  0.68042100  0.00571200  1
  O  O102  1  0.61199900  0.81957900  0.50571200  1
  O  O103  1  0.11199900  0.18042100  0.99428800  1
  O  O104  1  0.73649200  0.04383500  0.19986600  1
  O  O105  1  0.23649200  0.95616500  0.30013400  1
  O  O106  1  0.76350800  0.54383500  0.80013400  1
  O  O107  1  0.26350800  0.45616500  0.69986600  1
  O  O108  1  0.26350800  0.95616500  0.80013400  1
  O  O109  1  0.76350800  0.04383500  0.69986600  1
  O  O110  1  0.23649200  0.45616500  0.19986600  1
  O  O111  1  0.40135300  0.84179600  0.67204200  1
