# generated using pymatgen
data_Mg3Au
_symmetry_space_group_name_H-M   'P 1'
_cell_length_a   8.12385269
_cell_length_b   8.12385269
_cell_length_c   8.58982900
_cell_angle_alpha   90.00000000
_cell_angle_beta   90.00000000
_cell_angle_gamma   120.00000558
_symmetry_Int_Tables_number   1
_chemical_formula_structural   Mg3Au
_chemical_formula_sum   'Mg18 Au6'
_cell_volume   490.95219329
_cell_formula_units_Z   6
loop_
 _symmetry_equiv_pos_site_id
 _symmetry_equiv_pos_as_xyz
  1  'x, y, z'
loop_
 _atom_site_type_symbol
 _atom_site_label
 _atom_site_symmetry_multiplicity
 _atom_site_fract_x
 _atom_site_fract_y
 _atom_site_fract_z
 _atom_site_occupancy
  Mg  Mg0  1  0.94609800  0.63371800  0.57827200  1
  Mg  Mg1  1  0.36628200  0.31238000  0.57827200  1
  Mg  Mg2  1  0.68762000  0.05390200  0.57827200  1
  Mg  Mg3  1  0.31238000  0.36628200  0.92172800  1
  Mg  Mg4  1  0.05390200  0.68762000  0.92172800  1
  Mg  Mg5  1  0.63371800  0.94609800  0.92172800  1
  Mg  Mg6  1  0.00000000  0.00000000  0.25000000  1
  Mg  Mg7  1  0.00000000  0.00000000  0.75000000  1
  Mg  Mg8  1  0.33333300  0.66666700  0.18432900  1
  Mg  Mg9  1  0.66666700  0.33333300  0.31567100  1
  Mg  Mg10  1  0.66666700  0.33333300  0.81567100  1
  Mg  Mg11  1  0.33333300  0.66666700  0.68432900  1
  Mg  Mg12  1  0.36628200  0.05390200  0.07827200  1
  Mg  Mg13  1  0.94609800  0.31238000  0.07827200  1
  Mg  Mg14  1  0.68762000  0.63371800  0.07827200  1
  Mg  Mg15  1  0.31238000  0.94609800  0.42172800  1
  Mg  Mg16  1  0.63371800  0.68762000  0.42172800  1
  Mg  Mg17  1  0.05390200  0.36628200  0.42172800  1
  Au  Au18  1  0.66021000  0.66021000  0.75000000  1
  Au  Au19  1  0.00000000  0.33979000  0.75000000  1
  Au  Au20  1  0.33979000  0.00000000  0.75000000  1
  Au  Au21  1  0.33979000  0.33979000  0.25000000  1
  Au  Au22  1  0.00000000  0.66021000  0.25000000  1
  Au  Au23  1  0.66021000  0.00000000  0.25000000  1
