# generated using pymatgen
data_ScSi3Ni2
_symmetry_space_group_name_H-M   'P 1'
_cell_length_a   12.19802246
_cell_length_b   12.19802246
_cell_length_c   12.19802246
_cell_angle_alpha   162.12361942
_cell_angle_beta   162.12361942
_cell_angle_gamma   25.38573553
_symmetry_Int_Tables_number   1
_chemical_formula_structural   ScSi3Ni2
_chemical_formula_sum   'Sc2 Si6 Ni4'
_cell_volume   170.96654659
_cell_formula_units_Z   2
loop_
 _symmetry_equiv_pos_site_id
 _symmetry_equiv_pos_as_xyz
  1  'x, y, z'
loop_
 _atom_site_type_symbol
 _atom_site_label
 _atom_site_symmetry_multiplicity
 _atom_site_fract_x
 _atom_site_fract_y
 _atom_site_fract_z
 _atom_site_occupancy
  Sc  Sc0  1  0.85041700  0.85041700  0.00000000  1
  Sc  Sc1  1  0.14958300  0.14958300  0.00000000  1
  Si  Si2  1  0.45029900  0.95029900  0.50000000  1
  Si  Si3  1  0.95029900  0.45029900  0.50000000  1
  Si  Si4  1  0.54970100  0.04970100  0.50000000  1
  Si  Si5  1  0.30606100  0.30606100  0.00000000  1
  Si  Si6  1  0.69393900  0.69393900  0.00000000  1
  Si  Si7  1  0.04970100  0.54970100  0.50000000  1
  Ni  Ni8  1  0.25000000  0.75000000  0.50000000  1
  Ni  Ni9  1  0.75000000  0.25000000  0.50000000  1
  Ni  Ni10  1  0.40022700  0.40022700  0.00000000  1
  Ni  Ni11  1  0.59977300  0.59977300  0.00000000  1
