# generated using pymatgen
data_NaCaFe2(SiO3)4
_symmetry_space_group_name_H-M   'P 1'
_cell_length_a   5.35232861
_cell_length_b   9.79547158
_cell_length_c   9.04714176
_cell_angle_alpha   90.01423136
_cell_angle_beta   90.00121711
_cell_angle_gamma   105.01217425
_symmetry_Int_Tables_number   1
_chemical_formula_structural   NaCaFe2(SiO3)4
_chemical_formula_sum   'Na2 Ca2 Fe4 Si8 O24'
_cell_volume   458.14034703
_cell_formula_units_Z   2
loop_
 _symmetry_equiv_pos_site_id
 _symmetry_equiv_pos_as_xyz
  1  'x, y, z'
loop_
 _atom_site_type_symbol
 _atom_site_label
 _atom_site_symmetry_multiplicity
 _atom_site_fract_x
 _atom_site_fract_y
 _atom_site_fract_z
 _atom_site_occupancy
  Na  Na0  1  0.75024100  0.49988100  0.79329400  1
  Na  Na1  1  0.24992000  0.99996700  0.30038400  1
  Ca  Ca2  1  0.24982300  0.49992900  0.19411100  1
  Ca  Ca3  1  0.75015500  0.00009100  0.70311100  1
  Fe  Fe4  1  0.75004900  0.00004200  0.10276100  1
  Fe  Fe5  1  0.74991200  0.50004500  0.40739600  1
  Fe  Fe6  1  0.25001600  0.99998700  0.90789000  1
  Fe  Fe7  1  0.25047500  0.50021700  0.60275400  1
  Si  Si8  1  0.55900800  0.28903400  0.09364400  1
  Si  Si9  1  0.05262500  0.78805900  0.58659200  1
  Si  Si10  1  0.94102200  0.71096700  0.09362300  1
  Si  Si11  1  0.44722600  0.21188600  0.58661500  1
  Si  Si12  1  0.04987700  0.28736000  0.91205500  1
  Si  Si13  1  0.55499800  0.79032600  0.40571400  1
  Si  Si14  1  0.45016400  0.71262700  0.91207200  1
  Si  Si15  1  0.94497400  0.20974600  0.40579100  1
  O  O16  1  0.64752100  0.64621200  0.02104600  1
  O  O17  1  0.15315900  0.15206300  0.51178700  1
  O  O18  1  0.85257900  0.35378200  0.02119300  1
  O  O19  1  0.34668100  0.84785100  0.51178200  1
  O  O20  1  0.54796000  0.36720100  0.25122600  1
  O  O21  1  0.04539600  0.86158200  0.74482500  1
  O  O22  1  0.95197900  0.63278500  0.25117100  1
  O  O23  1  0.45447200  0.13831500  0.74478700  1
  O  O24  1  0.48486900  0.11688600  0.08960700  1
  O  O25  1  0.96375100  0.61643400  0.57223700  1
  O  O26  1  0.01511600  0.88310200  0.08961300  1
  O  O27  1  0.53592600  0.38350800  0.57220200  1
  O  O28  1  0.16054500  0.65431200  0.99434600  1
  O  O29  1  0.65756500  0.14707600  0.48587200  1
  O  O30  1  0.33951400  0.34567500  0.99438400  1
  O  O31  1  0.84235500  0.85292800  0.48591100  1
  O  O32  1  0.04622600  0.35364600  0.75190100  1
  O  O33  1  0.54881400  0.86259300  0.24626800  1
  O  O34  1  0.45358400  0.64623000  0.75185700  1
  O  O35  1  0.95130000  0.13758300  0.24625400  1
  O  O36  1  0.95759800  0.11451100  0.92241600  1
  O  O37  1  0.48015700  0.61676000  0.40442500  1
  O  O38  1  0.54246000  0.88546400  0.92233700  1
  O  O39  1  0.01998800  0.38333600  0.40475000  1
