# generated using pymatgen
data_SrLa3Mn2Cr2O12
_symmetry_space_group_name_H-M   'P 1'
_cell_length_a   5.46406393
_cell_length_b   7.99640652
_cell_length_c   5.54193397
_cell_angle_alpha   90.25552317
_cell_angle_beta   90.00953032
_cell_angle_gamma   91.06819281
_symmetry_Int_Tables_number   1
_chemical_formula_structural   SrLa3Mn2Cr2O12
_chemical_formula_sum   'Sr1 La3 Mn2 Cr2 O12'
_cell_volume   242.09854012
_cell_formula_units_Z   1
loop_
 _symmetry_equiv_pos_site_id
 _symmetry_equiv_pos_as_xyz
  1  'x, y, z'
loop_
 _atom_site_type_symbol
 _atom_site_label
 _atom_site_symmetry_multiplicity
 _atom_site_fract_x
 _atom_site_fract_y
 _atom_site_fract_z
 _atom_site_occupancy
  Sr  Sr0  1  0.99984900  0.74919300  0.49448900  1
  La  La1  1  0.49821700  0.25109100  0.00384800  1
  La  La2  1  0.50148300  0.74967600  0.99859400  1
  La  La3  1  0.00044100  0.25060400  0.50204000  1
  Mn  Mn4  1  0.99970200  0.99964400  0.00136100  1
  Mn  Mn5  1  0.00000300  0.50183200  0.99905900  1
  Cr  Cr6  1  0.49965100  0.50069800  0.49950600  1
  Cr  Cr7  1  0.50014600  0.99882100  0.50058500  1
  O  O8  1  0.99634500  0.76756100  0.94330500  1
  O  O9  1  0.50054700  0.24875600  0.44286900  1
  O  O10  1  0.00444900  0.23393500  0.06822000  1
  O  O11  1  0.49931000  0.75062300  0.56315900  1
  O  O12  1  0.27917700  0.46725000  0.78471900  1
  O  O13  1  0.72337100  0.03509200  0.78672100  1
  O  O14  1  0.78046400  0.97280200  0.27085200  1
  O  O15  1  0.21851700  0.52100100  0.27314500  1
  O  O16  1  0.78204300  0.46316100  0.72439300  1
  O  O17  1  0.21831000  0.04052500  0.72818600  1
  O  O18  1  0.28373600  0.97279300  0.20716700  1
  O  O19  1  0.71423800  0.52494300  0.20778000  1
