# generated using pymatgen
data_Li4V(TeO4)3
_symmetry_space_group_name_H-M   'P 1'
_cell_length_a   5.05227705
_cell_length_b   10.43527170
_cell_length_c   18.29333382
_cell_angle_alpha   74.06689871
_cell_angle_beta   88.99986678
_cell_angle_gamma   86.37759388
_symmetry_Int_Tables_number   1
_chemical_formula_structural   Li4V(TeO4)3
_chemical_formula_sum   'Li16 V4 Te12 O48'
_cell_volume   925.55440009
_cell_formula_units_Z   4
loop_
 _symmetry_equiv_pos_site_id
 _symmetry_equiv_pos_as_xyz
  1  'x, y, z'
loop_
 _atom_site_type_symbol
 _atom_site_label
 _atom_site_symmetry_multiplicity
 _atom_site_fract_x
 _atom_site_fract_y
 _atom_site_fract_z
 _atom_site_occupancy
  Li  Li0  1  0.99609900  0.57654900  0.84805500  1
  Li  Li1  1  0.99595600  0.32691700  0.34797400  1
  Li  Li2  1  0.99608300  0.07658700  0.84802400  1
  Li  Li3  1  0.99603200  0.82692900  0.34795200  1
  Li  Li4  1  0.49638500  0.53307100  0.93462500  1
  Li  Li5  1  0.49740200  0.28311100  0.43464100  1
  Li  Li6  1  0.49641000  0.03316300  0.93459300  1
  Li  Li7  1  0.49751800  0.78318900  0.43463600  1
  Li  Li8  1  0.01262200  0.43882500  0.64953400  1
  Li  Li9  1  0.01087400  0.18772400  0.14937400  1
  Li  Li10  1  0.01263700  0.93883800  0.64951700  1
  Li  Li11  1  0.01111700  0.68788300  0.14938000  1
  Li  Li12  1  0.49971600  0.46002200  0.58642200  1
  Li  Li13  1  0.49870100  0.20977200  0.08667800  1
  Li  Li14  1  0.49969900  0.96008500  0.58642500  1
  Li  Li15  1  0.49885100  0.70972600  0.08662700  1
  V  V16  1  0.99800400  0.47998500  0.05198700  1
  V  V17  1  0.99926900  0.23043500  0.55207200  1
  V  V18  1  0.99912400  0.73034400  0.55214200  1
  V  V19  1  0.99824800  0.97995400  0.05196200  1
  Te  Te20  1  0.49646600  0.64704000  0.69976800  1
  Te  Te21  1  0.49576100  0.39701800  0.19969700  1
  Te  Te22  1  0.49646900  0.14706300  0.69971100  1
  Te  Te23  1  0.49593200  0.89698600  0.19972400  1
  Te  Te24  1  0.99514400  0.27031800  0.96197800  1
  Te  Te25  1  0.99540000  0.02085800  0.46189500  1
  Te  Te26  1  0.99523800  0.77036900  0.96197200  1
  Te  Te27  1  0.99545100  0.52092200  0.46190800  1
  Te  Te28  1  0.50149200  0.34869400  0.80073600  1
  Te  Te29  1  0.50105300  0.09876600  0.30073600  1
  Te  Te30  1  0.50145400  0.84870800  0.80077000  1
  Te  Te31  1  0.50115500  0.59874700  0.30073000  1
  O  O32  1  0.26416000  0.61035600  0.62586700  1
  O  O33  1  0.26310700  0.36029300  0.12588200  1
  O  O34  1  0.26407900  0.11038000  0.62583600  1
  O  O35  1  0.26331300  0.86026800  0.12589400  1
  O  O36  1  0.73883400  0.25148500  0.62351400  1
  O  O37  1  0.73847200  0.00147900  0.12351300  1
  O  O38  1  0.73883200  0.75148100  0.62361200  1
  O  O39  1  0.73822800  0.50150200  0.12347100  1
  O  O40  1  0.28543100  0.53466600  0.78146500  1
  O  O41  1  0.28487900  0.28456600  0.28149800  1
  O  O42  1  0.28537300  0.03466800  0.78146400  1
  O  O43  1  0.28499400  0.78452000  0.28149700  1
  O  O44  1  0.71839000  0.18372700  0.77788600  1
  O  O45  1  0.71791700  0.93365800  0.27787900  1
  O  O46  1  0.71841000  0.68369500  0.77792800  1
  O  O47  1  0.71783100  0.43360300  0.27785800  1
  O  O48  1  0.20432700  0.41671500  0.97336300  1
  O  O49  1  0.20470800  0.16720600  0.47327100  1
  O  O50  1  0.20452200  0.91669600  0.97338200  1
  O  O51  1  0.20476700  0.66715900  0.47335900  1
  O  O52  1  0.79219200  0.11217400  0.96985200  1
  O  O53  1  0.79271600  0.86260300  0.46997100  1
  O  O54  1  0.79211400  0.61226700  0.96981900  1
  O  O55  1  0.79276300  0.36273300  0.46987300  1
  O  O56  1  0.70281000  0.47683000  0.71022700  1
  O  O57  1  0.70206200  0.22685300  0.21006400  1
  O  O58  1  0.70264800  0.97681400  0.71021700  1
  O  O59  1  0.70224300  0.72685600  0.21007900  1
  O  O60  1  0.29846300  0.30982200  0.70876800  1
  O  O61  1  0.29797600  0.05970700  0.20889300  1
  O  O62  1  0.29852000  0.80977200  0.70879400  1
  O  O63  1  0.29795000  0.55974100  0.20891400  1
  O  O64  1  0.80728800  0.56409900  0.54742800  1
  O  O65  1  0.80615900  0.31369000  0.04731600  1
  O  O66  1  0.80719800  0.06418800  0.54736200  1
  O  O67  1  0.80635500  0.81369500  0.04734700  1
  O  O68  1  0.20162900  0.38346100  0.54414900  1
  O  O69  1  0.20051200  0.13295400  0.04436900  1
  O  O70  1  0.20156600  0.88339700  0.54421000  1
  O  O71  1  0.20048600  0.63293400  0.04434500  1
  O  O72  1  0.77801700  0.39999700  0.88787300  1
  O  O73  1  0.77785000  0.15058800  0.38794600  1
  O  O74  1  0.77804700  0.90005400  0.88787900  1
  O  O75  1  0.77781900  0.65071100  0.38797000  1
  O  O76  1  0.21564100  0.21620800  0.88709500  1
  O  O77  1  0.21548100  0.96683800  0.38684100  1
  O  O78  1  0.21563300  0.71624700  0.88708300  1
  O  O79  1  0.21552300  0.46696400  0.38678400  1
