# generated using pymatgen
data_Sr3CaV4O12
_symmetry_space_group_name_H-M   'P 1'
_cell_length_a   6.75710966
_cell_length_b   6.75717777
_cell_length_c   11.68513932
_cell_angle_alpha   78.72881599
_cell_angle_beta   79.12011757
_cell_angle_gamma   109.58019945
_symmetry_Int_Tables_number   1
_chemical_formula_structural   Sr3CaV4O12
_chemical_formula_sum   'Sr6 Ca2 V8 O24'
_cell_volume   473.95365636
_cell_formula_units_Z   2
loop_
 _symmetry_equiv_pos_site_id
 _symmetry_equiv_pos_as_xyz
  1  'x, y, z'
loop_
 _atom_site_type_symbol
 _atom_site_label
 _atom_site_symmetry_multiplicity
 _atom_site_fract_x
 _atom_site_fract_y
 _atom_site_fract_z
 _atom_site_occupancy
  Sr  Sr0  1  0.24998800  0.74995500  0.50001400  1
  Sr  Sr1  1  0.75000400  0.25001200  0.50001700  1
  Sr  Sr2  1  0.12408100  0.12376600  0.24944900  1
  Sr  Sr3  1  0.62635500  0.62602600  0.24954800  1
  Sr  Sr4  1  0.87366000  0.87398900  0.75047300  1
  Sr  Sr5  1  0.37590100  0.37622600  0.75051400  1
  Ca  Ca6  1  0.50114400  0.00115300  0.00002000  1
  Ca  Ca7  1  0.99880300  0.49880500  0.00004900  1
  V  V8  1  0.50040300  0.50016800  0.99957100  1
  V  V9  1  0.99964400  0.99987700  0.00036000  1
  V  V10  1  0.37123900  0.87506100  0.75402500  1
  V  V11  1  0.87562300  0.37159000  0.75315600  1
  V  V12  1  0.62446000  0.12847300  0.24672500  1
  V  V13  1  0.12879600  0.62494900  0.24594400  1
  V  V14  1  0.24995000  0.24995900  0.49996500  1
  V  V15  1  0.75000500  0.75004900  0.49997200  1
  O  O16  1  0.99648100  0.99647000  0.49998600  1
  O  O17  1  0.50348700  0.50348000  0.50004300  1
  O  O18  1  0.25000500  0.25003800  0.99998100  1
  O  O19  1  0.75001500  0.74998500  0.00001900  1
  O  O20  1  0.12026200  0.62372400  0.75693700  1
  O  O21  1  0.61973100  0.12303900  0.75698800  1
  O  O22  1  0.37969300  0.87629000  0.24311400  1
  O  O23  1  0.88028500  0.37689000  0.24305900  1
  O  O24  1  0.31391400  0.05747200  0.62871200  1
  O  O25  1  0.80935400  0.56875700  0.62203500  1
  O  O26  1  0.69063500  0.93129000  0.37795400  1
  O  O27  1  0.18606900  0.44253100  0.37125000  1
  O  O28  1  0.44764600  0.18289000  0.36927200  1
  O  O29  1  0.93398500  0.68836800  0.37752000  1
  O  O30  1  0.56603500  0.81164100  0.62245400  1
  O  O31  1  0.05237500  0.31707500  0.63069500  1
  O  O32  1  0.43784700  0.68987100  0.87289000  1
  O  O33  1  0.93243200  0.18745500  0.88076400  1
  O  O34  1  0.56761000  0.31258100  0.11930400  1
  O  O35  1  0.06215300  0.81006700  0.12711900  1
  O  O36  1  0.18627800  0.93407600  0.88011000  1
  O  O37  1  0.68847100  0.43903800  0.87294700  1
  O  O38  1  0.81143900  0.06085000  0.12713700  1
  O  O39  1  0.31374300  0.56606700  0.11990900  1
