# generated using pymatgen
data_Fe4OF6
_symmetry_space_group_name_H-M   'P 1'
_cell_length_a   5.17965105
_cell_length_b   7.21004114
_cell_length_c   7.10965171
_cell_angle_alpha   90.82515087
_cell_angle_beta   89.22683219
_cell_angle_gamma   90.04708940
_symmetry_Int_Tables_number   1
_chemical_formula_structural   Fe4OF6
_chemical_formula_sum   'Fe8 O2 F12'
_cell_volume   265.46172008
_cell_formula_units_Z   2
loop_
 _symmetry_equiv_pos_site_id
 _symmetry_equiv_pos_as_xyz
  1  'x, y, z'
loop_
 _atom_site_type_symbol
 _atom_site_label
 _atom_site_symmetry_multiplicity
 _atom_site_fract_x
 _atom_site_fract_y
 _atom_site_fract_z
 _atom_site_occupancy
  Fe  Fe0  1  0.55480700  0.49056200  0.25221900  1
  Fe  Fe1  1  0.44385900  0.50981800  0.74735500  1
  Fe  Fe2  1  0.95814700  0.73845700  0.01439500  1
  Fe  Fe3  1  0.46782300  0.02288300  0.74517700  1
  Fe  Fe4  1  0.53122900  0.97601100  0.24933400  1
  Fe  Fe5  1  0.05528400  0.26567100  0.49692100  1
  Fe  Fe6  1  0.03789400  0.25615300  0.98536300  1
  Fe  Fe7  1  0.94411400  0.74816500  0.50535600  1
  O  O8  1  0.24621100  0.25138800  0.74602100  1
  O  O9  1  0.74877300  0.74732800  0.25028200  1
  F  F10  1  0.87314500  0.30439900  0.24234400  1
  F  F11  1  0.36351100  0.22807400  0.27601200  1
  F  F12  1  0.13218100  0.69838700  0.76078900  1
  F  F13  1  0.64252600  0.77107900  0.72911300  1
  F  F14  1  0.74094800  0.05016100  0.97282600  1
  F  F15  1  0.76140100  0.05436800  0.52123400  1
  F  F16  1  0.74488500  0.46630900  0.54706700  1
  F  F17  1  0.74427000  0.46960700  0.94150100  1
  F  F18  1  0.25238500  0.52456300  0.05759900  1
  F  F19  1  0.24950200  0.53901400  0.45153000  1
  F  F20  1  0.24589200  0.95576000  0.02727100  1
  F  F21  1  0.26121300  0.93184200  0.48029400  1
