# generated using pymatgen
data_Na6NiO4
_symmetry_space_group_name_H-M   'P 1'
_cell_length_a   7.64920814
_cell_length_b   7.64546131
_cell_length_c   5.92101241
_cell_angle_alpha   89.32882279
_cell_angle_beta   90.33781361
_cell_angle_gamma   119.99028795
_symmetry_Int_Tables_number   1
_chemical_formula_structural   Na6NiO4
_chemical_formula_sum   'Na12 Ni2 O8'
_cell_volume   299.88826493
_cell_formula_units_Z   2
loop_
 _symmetry_equiv_pos_site_id
 _symmetry_equiv_pos_as_xyz
  1  'x, y, z'
loop_
 _atom_site_type_symbol
 _atom_site_label
 _atom_site_symmetry_multiplicity
 _atom_site_fract_x
 _atom_site_fract_y
 _atom_site_fract_z
 _atom_site_occupancy
  Na  Na0  1  0.14139700  0.85968400  0.96704900  1
  Na  Na1  1  0.07820000  0.53765100  0.63475400  1
  Na  Na2  1  0.14201900  0.28317700  0.96728100  1
  Na  Na3  1  0.46466700  0.92739200  0.63565600  1
  Na  Na4  1  0.46057900  0.53854500  0.63248800  1
  Na  Na5  1  0.28420800  0.14224500  0.46788600  1
  Na  Na6  1  0.71577300  0.85800300  0.96792500  1
  Na  Na7  1  0.53531800  0.46275600  0.13558400  1
  Na  Na8  1  0.53944100  0.07801000  0.13243100  1
  Na  Na9  1  0.85857900  0.71825700  0.46701800  1
  Na  Na10  1  0.92174000  0.45942000  0.13465500  1
  Na  Na11  1  0.85800500  0.14115400  0.46722700  1
  Ni  Ni12  1  0.33219000  0.66808700  0.23942500  1
  Ni  Ni13  1  0.66780300  0.33588000  0.73943000  1
  O  O14  1  0.18848500  0.81068800  0.36303400  1
  O  O15  1  0.18954900  0.37940500  0.35535700  1
  O  O16  1  0.33656900  0.66226500  0.90485100  1
  O  O17  1  0.61992500  0.80962300  0.35603000  1
  O  O18  1  0.38010200  0.18977900  0.85617600  1
  O  O19  1  0.81144900  0.62207600  0.86312300  1
  O  O20  1  0.66351300  0.32578900  0.40479700  1
  O  O21  1  0.81049100  0.18991700  0.85542100  1
