# generated using pymatgen
data_CaLaTaCrO6
_symmetry_space_group_name_H-M   'P 1'
_cell_length_a   5.65486600
_cell_length_b   10.08941450
_cell_length_c   10.20122918
_cell_angle_alpha   65.56933084
_cell_angle_beta   90.00087799
_cell_angle_gamma   90.00054860
_symmetry_Int_Tables_number   1
_chemical_formula_structural   CaLaTaCrO6
_chemical_formula_sum   'Ca4 La4 Ta4 Cr4 O24'
_cell_volume   529.91084122
_cell_formula_units_Z   4
loop_
 _symmetry_equiv_pos_site_id
 _symmetry_equiv_pos_as_xyz
  1  'x, y, z'
loop_
 _atom_site_type_symbol
 _atom_site_label
 _atom_site_symmetry_multiplicity
 _atom_site_fract_x
 _atom_site_fract_y
 _atom_site_fract_z
 _atom_site_occupancy
  Ca  Ca0  1  0.45026900  0.13349600  0.61132500  1
  Ca  Ca1  1  0.45027900  0.63349200  0.11132200  1
  Ca  Ca2  1  0.04971400  0.63349700  0.61131700  1
  Ca  Ca3  1  0.04973300  0.13349700  0.11134100  1
  La  La4  1  0.95411000  0.36821500  0.38721600  1
  La  La5  1  0.95409000  0.86821500  0.88721700  1
  La  La6  1  0.54589000  0.86821800  0.38720500  1
  La  La7  1  0.54591000  0.36820700  0.88722200  1
  Ta  Ta8  1  0.00326300  0.75078600  0.25097800  1
  Ta  Ta9  1  0.00326400  0.25077800  0.75098700  1
  Ta  Ta10  1  0.49674900  0.25078600  0.25098000  1
  Ta  Ta11  1  0.49674800  0.75078700  0.75098500  1
  Cr  Cr12  1  0.99844300  0.49923800  0.00132100  1
  Cr  Cr13  1  0.50154400  0.99921700  0.00133600  1
  Cr  Cr14  1  0.99840700  0.99924500  0.50132200  1
  Cr  Cr15  1  0.50159400  0.49923300  0.50131800  1
  O  O16  1  0.45266900  0.08560300  0.19251000  1
  O  O17  1  0.45266300  0.58560100  0.69250800  1
  O  O18  1  0.04733900  0.08560200  0.69250800  1
  O  O19  1  0.04733500  0.58560000  0.19251000  1
  O  O20  1  0.20851200  0.36817500  0.58248400  1
  O  O21  1  0.20851100  0.86817300  0.08248400  1
  O  O22  1  0.29146200  0.86816200  0.58252200  1
  O  O23  1  0.29146500  0.36815500  0.08252600  1
  O  O24  1  0.21577300  0.18066100  0.38491000  1
  O  O25  1  0.21577600  0.68066000  0.88491600  1
  O  O26  1  0.28423000  0.68066000  0.38491300  1
  O  O27  1  0.28423100  0.18066000  0.88491300  1
  O  O28  1  0.71871000  0.31657100  0.61700700  1
  O  O29  1  0.71871300  0.81657400  0.11700600  1
  O  O30  1  0.78129600  0.81657500  0.61700500  1
  O  O31  1  0.78129000  0.31657900  0.11700500  1
  O  O32  1  0.70234200  0.12996800  0.41859700  1
  O  O33  1  0.70235100  0.62996900  0.91859600  1
  O  O34  1  0.79766200  0.62996700  0.41859900  1
  O  O35  1  0.79765700  0.12996500  0.91859700  1
  O  O36  1  0.95746700  0.91730000  0.30362500  1
  O  O37  1  0.95746600  0.41730600  0.80362400  1
  O  O38  1  0.54253300  0.91730100  0.80362300  1
  O  O39  1  0.54253800  0.41730100  0.30362400  1
