# generated using pymatgen
data_BeSiN2
_symmetry_space_group_name_H-M   'P 1'
_cell_length_a   4.99615295
_cell_length_b   4.99615295
_cell_length_c   4.99615295
_cell_angle_alpha   131.89004701
_cell_angle_beta   131.89004701
_cell_angle_gamma   70.40274120
_symmetry_Int_Tables_number   1
_chemical_formula_structural   BeSiN2
_chemical_formula_sum   'Be2 Si2 N4'
_cell_volume   67.72593518
_cell_formula_units_Z   2
loop_
 _symmetry_equiv_pos_site_id
 _symmetry_equiv_pos_as_xyz
  1  'x, y, z'
loop_
 _atom_site_type_symbol
 _atom_site_label
 _atom_site_symmetry_multiplicity
 _atom_site_fract_x
 _atom_site_fract_y
 _atom_site_fract_z
 _atom_site_occupancy
  Be  Be0  1  0.75000000  0.25000000  0.50000000  1
  Be  Be1  1  0.00000000  0.00000000  0.00000000  1
  Si  Si2  1  0.25000000  0.75000000  0.50000000  1
  Si  Si3  1  0.50000000  0.50000000  0.00000000  1
  N  N4  1  0.12949300  0.12500000  0.50449300  1
  N  N5  1  0.62050700  0.62500000  0.49550700  1
  N  N6  1  0.87500000  0.37949300  0.00449300  1
  N  N7  1  0.37500000  0.87050700  0.99550700  1
