# generated using pymatgen
data_Fe2B4Mo
_symmetry_space_group_name_H-M   'P 1'
_cell_length_a   6.65591248
_cell_length_b   6.65591248
_cell_length_c   6.65591248
_cell_angle_alpha   154.06531109
_cell_angle_beta   153.08028712
_cell_angle_gamma   37.72702777
_symmetry_Int_Tables_number   1
_chemical_formula_structural   Fe2B4Mo
_chemical_formula_sum   'Fe2 B4 Mo1'
_cell_volume   58.29590714
_cell_formula_units_Z   1
loop_
 _symmetry_equiv_pos_site_id
 _symmetry_equiv_pos_as_xyz
  1  'x, y, z'
loop_
 _atom_site_type_symbol
 _atom_site_label
 _atom_site_symmetry_multiplicity
 _atom_site_fract_x
 _atom_site_fract_y
 _atom_site_fract_z
 _atom_site_occupancy
  Fe  Fe0  1  0.81584000  0.81584000  0.00000000  1
  Fe  Fe1  1  0.18416000  0.18416000  0.00000000  1
  B  B2  1  0.42570400  0.92570400  0.50000000  1
  B  B3  1  0.57429600  0.07429600  0.50000000  1
  B  B4  1  0.34751900  0.34751900  0.00000000  1
  B  B5  1  0.65248100  0.65248100  0.00000000  1
  Mo  Mo6  1  0.00000000  0.50000000  0.50000000  1
