# generated using pymatgen
data_Sr3AlO4F
_symmetry_space_group_name_H-M   'P 1'
_cell_length_a   7.42129025
_cell_length_b   7.42129025
_cell_length_c   7.42129025
_cell_angle_alpha   125.15455298
_cell_angle_beta   125.15455298
_cell_angle_gamma   81.28219746
_symmetry_Int_Tables_number   1
_chemical_formula_structural   Sr3AlO4F
_chemical_formula_sum   'Sr6 Al2 O8 F2'
_cell_volume   263.13892999
_cell_formula_units_Z   2
loop_
 _symmetry_equiv_pos_site_id
 _symmetry_equiv_pos_as_xyz
  1  'x, y, z'
loop_
 _atom_site_type_symbol
 _atom_site_label
 _atom_site_symmetry_multiplicity
 _atom_site_fract_x
 _atom_site_fract_y
 _atom_site_fract_z
 _atom_site_occupancy
  Sr  Sr0  1  0.83125600  0.33125600  0.16251300  1
  Sr  Sr1  1  0.33125600  0.16874400  0.50000000  1
  Sr  Sr2  1  0.66874400  0.83125600  0.50000000  1
  Sr  Sr3  1  0.16874400  0.66874400  0.83748700  1
  Sr  Sr4  1  0.25000000  0.25000000  0.00000000  1
  Sr  Sr5  1  0.75000000  0.75000000  0.00000000  1
  Al  Al6  1  0.75000000  0.25000000  0.50000000  1
  Al  Al7  1  0.25000000  0.75000000  0.50000000  1
  O  O8  1  0.50583000  0.00583000  0.21550600  1
  O  O9  1  0.20967500  0.70967500  0.21550600  1
  O  O10  1  0.49417000  0.99417000  0.78449400  1
  O  O11  1  0.99417000  0.20967500  0.50000000  1
  O  O12  1  0.70967500  0.49417000  0.50000000  1
  O  O13  1  0.00583000  0.79032500  0.50000000  1
  O  O14  1  0.29032500  0.50583000  0.50000000  1
  O  O15  1  0.79032500  0.29032500  0.78449400  1
  F  F16  1  0.50000000  0.50000000  0.00000000  1
  F  F17  1  0.00000000  0.00000000  0.00000000  1
