# generated using pymatgen
data_ZrTi(PbO3)2
_symmetry_space_group_name_H-M   'P 1'
_cell_length_a   5.69315100
_cell_length_b   5.69315100
_cell_length_c   4.43006000
_cell_angle_alpha   90.00000000
_cell_angle_beta   90.00000000
_cell_angle_gamma   90.00000000
_symmetry_Int_Tables_number   1
_chemical_formula_structural   ZrTi(PbO3)2
_chemical_formula_sum   'Zr1 Ti1 Pb2 O6'
_cell_volume   143.58696433
_cell_formula_units_Z   1
loop_
 _symmetry_equiv_pos_site_id
 _symmetry_equiv_pos_as_xyz
  1  'x, y, z'
loop_
 _atom_site_type_symbol
 _atom_site_label
 _atom_site_symmetry_multiplicity
 _atom_site_fract_x
 _atom_site_fract_y
 _atom_site_fract_z
 _atom_site_occupancy
  Zr  Zr0  1  0.50000000  0.50000000  0.54647400  1
  Ti  Ti1  1  0.00000000  0.00000000  0.53759500  1
  Pb  Pb2  1  0.50000000  0.00000000  0.98460000  1
  Pb  Pb3  1  0.00000000  0.50000000  0.98460000  1
  O  O4  1  0.75865700  0.24134300  0.63644100  1
  O  O5  1  0.24134300  0.24134300  0.63644100  1
  O  O6  1  0.75865700  0.75865700  0.63644100  1
  O  O7  1  0.24134300  0.75865700  0.63644100  1
  O  O8  1  0.00000000  0.00000000  0.14198100  1
  O  O9  1  0.50000000  0.50000000  0.09798700  1
