# generated using pymatgen
data_Na3VPCO7
_symmetry_space_group_name_H-M   'P 1'
_cell_length_a   8.65396197
_cell_length_b   8.65331306
_cell_length_c   8.91588626
_cell_angle_alpha   90.93666856
_cell_angle_beta   89.06392541
_cell_angle_gamma   76.90727805
_symmetry_Int_Tables_number   1
_chemical_formula_structural   Na3VPCO7
_chemical_formula_sum   'Na12 V4 P4 C4 O28'
_cell_volume   650.08925695
_cell_formula_units_Z   4
loop_
 _symmetry_equiv_pos_site_id
 _symmetry_equiv_pos_as_xyz
  1  'x, y, z'
loop_
 _atom_site_type_symbol
 _atom_site_label
 _atom_site_symmetry_multiplicity
 _atom_site_fract_x
 _atom_site_fract_y
 _atom_site_fract_z
 _atom_site_occupancy
  Na  Na0  1  0.74370200  0.74297300  0.00021000  1
  Na  Na1  1  0.24368400  0.24295900  0.00016000  1
  Na  Na2  1  0.49300800  0.49372500  0.99983400  1
  Na  Na3  1  0.99292100  0.99367400  0.99978100  1
  Na  Na4  1  0.33908900  0.89507000  0.16185800  1
  Na  Na5  1  0.83909800  0.39509200  0.16189400  1
  Na  Na6  1  0.64509400  0.08908200  0.83815200  1
  Na  Na7  1  0.14507000  0.58911600  0.83810300  1
  Na  Na8  1  0.49095100  0.99460100  0.49918000  1
  Na  Na9  1  0.99104300  0.49455500  0.49924400  1
  Na  Na10  1  0.74457900  0.24100800  0.50078500  1
  Na  Na11  1  0.24455600  0.74101800  0.50078600  1
  V  V12  1  0.89331500  0.84334500  0.27964800  1
  V  V13  1  0.09337300  0.14325800  0.72042300  1
  V  V14  1  0.39326900  0.34347500  0.27963300  1
  V  V15  1  0.59349600  0.64330100  0.72033300  1
  P  P16  1  0.61085900  0.62588000  0.34348500  1
  P  P17  1  0.11085100  0.12588800  0.34345400  1
  P  P18  1  0.37591600  0.36092200  0.65651300  1
  P  P19  1  0.87592500  0.86086500  0.65654400  1
  C  C20  1  0.61883700  0.11805100  0.16382800  1
  C  C21  1  0.11885500  0.61802200  0.16382100  1
  C  C22  1  0.36804200  0.86886800  0.83617700  1
  C  C23  1  0.86805800  0.36885100  0.83617000  1
  O  O24  1  0.52615600  0.21077000  0.07004600  1
  O  O25  1  0.02614900  0.71076400  0.07008200  1
  O  O26  1  0.46077000  0.77619000  0.92995100  1
  O  O27  1  0.96079600  0.27615500  0.92992000  1
  O  O28  1  0.73298600  0.00352900  0.11283900  1
  O  O29  1  0.23300100  0.50353900  0.11279100  1
  O  O30  1  0.25351000  0.98299900  0.88717900  1
  O  O31  1  0.75356900  0.48300000  0.88719600  1
  O  O32  1  0.06677600  0.98714200  0.24935100  1
  O  O33  1  0.56673600  0.48715900  0.24940400  1
  O  O34  1  0.73714800  0.81676000  0.75054800  1
  O  O35  1  0.23714100  0.31678800  0.75051100  1
  O  O36  1  0.25025300  0.16919400  0.24979300  1
  O  O37  1  0.75021700  0.66924500  0.24984000  1
  O  O38  1  0.91923800  0.00021600  0.75025200  1
  O  O39  1  0.41924400  0.50024400  0.75028200  1
  O  O40  1  0.59310900  0.14427200  0.30558700  1
  O  O41  1  0.09310500  0.64420900  0.30559100  1
  O  O42  1  0.39425400  0.84315000  0.69441400  1
  O  O43  1  0.89425200  0.34308800  0.69440600  1
  O  O44  1  0.46792700  0.76909500  0.35807300  1
  O  O45  1  0.96788500  0.26909300  0.35811500  1
  O  O46  1  0.51907300  0.21791600  0.64190000  1
  O  O47  1  0.01910400  0.71788700  0.64191900  1
  O  O48  1  0.17372800  0.06269400  0.49811700  1
  O  O49  1  0.67374900  0.56271700  0.49814400  1
  O  O50  1  0.81284600  0.92388700  0.50190700  1
  O  O51  1  0.31288600  0.42389700  0.50182400  1
