# generated using pymatgen
data_MgFe(GeO3)2
_symmetry_space_group_name_H-M   'P 1'
_cell_length_a   5.25206587
_cell_length_b   9.80323004
_cell_length_c   9.17677927
_cell_angle_alpha   90.00026092
_cell_angle_beta   89.99760141
_cell_angle_gamma   79.63428810
_symmetry_Int_Tables_number   1
_chemical_formula_structural   MgFe(GeO3)2
_chemical_formula_sum   'Mg4 Fe4 Ge8 O24'
_cell_volume   464.77545705
_cell_formula_units_Z   4
loop_
 _symmetry_equiv_pos_site_id
 _symmetry_equiv_pos_as_xyz
  1  'x, y, z'
loop_
 _atom_site_type_symbol
 _atom_site_label
 _atom_site_symmetry_multiplicity
 _atom_site_fract_x
 _atom_site_fract_y
 _atom_site_fract_z
 _atom_site_occupancy
  Mg  Mg0  1  0.75000000  0.50004600  0.22889600  1
  Mg  Mg1  1  0.75000300  0.00003100  0.72890100  1
  Mg  Mg2  1  0.25000300  0.49997500  0.77108600  1
  Mg  Mg3  1  0.24997000  0.99999700  0.27110800  1
  Fe  Fe4  1  0.74997800  0.00000100  0.09233800  1
  Fe  Fe5  1  0.25002900  0.99999300  0.90771800  1
  Fe  Fe6  1  0.75007400  0.49996800  0.59238200  1
  Fe  Fe7  1  0.24998100  0.49997500  0.40761700  1
  Ge  Ge8  1  0.78556800  0.30091500  0.90583300  1
  Ge  Ge9  1  0.78550300  0.80093300  0.40582200  1
  Ge  Ge10  1  0.71445700  0.69908300  0.90579600  1
  Ge  Ge11  1  0.71452200  0.19907100  0.40582900  1
  Ge  Ge12  1  0.21443300  0.69908200  0.09415000  1
  Ge  Ge13  1  0.21446200  0.19906700  0.59420000  1
  Ge  Ge14  1  0.28553600  0.30092000  0.09416200  1
  Ge  Ge15  1  0.28545900  0.80094000  0.59419100  1
  O  O16  1  0.59510000  0.35970000  0.06898200  1
  O  O17  1  0.59508400  0.85971300  0.56895900  1
  O  O18  1  0.90488600  0.64030300  0.06896000  1
  O  O19  1  0.90489700  0.14028900  0.56897300  1
  O  O20  1  0.40490000  0.64030300  0.93102000  1
  O  O21  1  0.40490800  0.14029200  0.43103800  1
  O  O22  1  0.09511100  0.35969700  0.93103200  1
  O  O23  1  0.09509300  0.85971600  0.43103400  1
  O  O24  1  0.11447200  0.38519300  0.23895700  1
  O  O25  1  0.11450500  0.88522100  0.73902100  1
  O  O26  1  0.38548800  0.61480900  0.23894200  1
  O  O27  1  0.38548100  0.11479000  0.73900800  1
  O  O28  1  0.88552000  0.61479500  0.76102500  1
  O  O29  1  0.88550100  0.11478700  0.26099100  1
  O  O30  1  0.61452400  0.38519400  0.76104500  1
  O  O31  1  0.61451900  0.88520900  0.26099600  1
  O  O32  1  0.85863800  0.11803000  0.90515500  1
  O  O33  1  0.85862000  0.61805500  0.40513000  1
  O  O34  1  0.64137800  0.88196800  0.90513800  1
  O  O35  1  0.64138800  0.38194800  0.40515900  1
  O  O36  1  0.14135400  0.88197200  0.09486400  1
  O  O37  1  0.14140700  0.38193800  0.59485500  1
  O  O38  1  0.35862600  0.11803200  0.09486500  1
  O  O39  1  0.35862300  0.61805000  0.59482300  1
