# generated using pymatgen
data_YCr(WO4)2
_symmetry_space_group_name_H-M   'P 1'
_cell_length_a   5.30557710
_cell_length_b   5.73054200
_cell_length_c   9.76451258
_cell_angle_alpha   90.00283880
_cell_angle_beta   92.54986741
_cell_angle_gamma   89.99786512
_symmetry_Int_Tables_number   1
_chemical_formula_structural   YCr(WO4)2
_chemical_formula_sum   'Y2 Cr2 W4 O16'
_cell_volume   296.58465796
_cell_formula_units_Z   2
loop_
 _symmetry_equiv_pos_site_id
 _symmetry_equiv_pos_as_xyz
  1  'x, y, z'
loop_
 _atom_site_type_symbol
 _atom_site_label
 _atom_site_symmetry_multiplicity
 _atom_site_fract_x
 _atom_site_fract_y
 _atom_site_fract_z
 _atom_site_occupancy
  Y  Y0  1  0.25001000  0.66226100  0.24998900  1
  Y  Y1  1  0.75001200  0.33773200  0.75002600  1
  Cr  Cr2  1  0.75003100  0.33248500  0.25003400  1
  Cr  Cr3  1  0.25004200  0.66771200  0.75001000  1
  W  W4  1  0.25103700  0.16097300  0.49725300  1
  W  W5  1  0.24890600  0.16097600  0.00274300  1
  W  W6  1  0.74895500  0.83902300  0.50274700  1
  W  W7  1  0.75111000  0.83897500  0.99726000  1
  O  O8  1  0.42308400  0.35631800  0.14215500  1
  O  O9  1  0.07690000  0.35632700  0.35783900  1
  O  O10  1  0.57691400  0.64368100  0.85783500  1
  O  O11  1  0.92308000  0.64367100  0.64215700  1
  O  O12  1  0.43535700  0.89458300  0.61411000  1
  O  O13  1  0.06462600  0.89458000  0.88588400  1
  O  O14  1  0.56464000  0.10542400  0.38588200  1
  O  O15  1  0.93536600  0.10541200  0.11411000  1
  O  O16  1  0.87223700  0.61003600  0.12617200  1
  O  O17  1  0.62773200  0.61003400  0.37381000  1
  O  O18  1  0.12773900  0.38989300  0.87382500  1
  O  O19  1  0.37226600  0.38995600  0.62618200  1
  O  O20  1  0.42132000  0.88406900  0.09638200  1
  O  O21  1  0.57863300  0.11592000  0.90359500  1
  O  O22  1  0.07864800  0.88402500  0.40358300  1
  O  O23  1  0.92135100  0.11593300  0.59641800  1
