# generated using pymatgen
data_CaC2
_symmetry_space_group_name_H-M   'P 1'
_cell_length_a   3.91297813
_cell_length_b   3.91297813
_cell_length_c   7.45456745
_cell_angle_alpha   75.40707476
_cell_angle_beta   75.40707476
_cell_angle_gamma   64.24311311
_symmetry_Int_Tables_number   1
_chemical_formula_structural   CaC2
_chemical_formula_sum   'Ca2 C4'
_cell_volume   98.14537619
_cell_formula_units_Z   2
loop_
 _symmetry_equiv_pos_site_id
 _symmetry_equiv_pos_as_xyz
  1  'x, y, z'
loop_
 _atom_site_type_symbol
 _atom_site_label
 _atom_site_symmetry_multiplicity
 _atom_site_fract_x
 _atom_site_fract_y
 _atom_site_fract_z
 _atom_site_occupancy
  Ca  Ca0  1  0.17724900  0.82275100  0.25000000  1
  Ca  Ca1  1  0.82275100  0.17724900  0.75000000  1
  C  C2  1  0.42144200  0.13822300  0.43881100  1
  C  C3  1  0.86177700  0.57855800  0.06118900  1
  C  C4  1  0.13822300  0.42144200  0.93881100  1
  C  C5  1  0.57855800  0.86177700  0.56118900  1
