# generated using pymatgen
data_YV(WO4)2
_symmetry_space_group_name_H-M   'P 1'
_cell_length_a   5.31624056
_cell_length_b   5.78138100
_cell_length_c   9.77002876
_cell_angle_alpha   89.99733558
_cell_angle_beta   92.87435329
_cell_angle_gamma   90.00272117
_symmetry_Int_Tables_number   1
_chemical_formula_structural   YV(WO4)2
_chemical_formula_sum   'Y2 V2 W4 O16'
_cell_volume   299.90612022
_cell_formula_units_Z   2
loop_
 _symmetry_equiv_pos_site_id
 _symmetry_equiv_pos_as_xyz
  1  'x, y, z'
loop_
 _atom_site_type_symbol
 _atom_site_label
 _atom_site_symmetry_multiplicity
 _atom_site_fract_x
 _atom_site_fract_y
 _atom_site_fract_z
 _atom_site_occupancy
  Y  Y0  1  0.25003200  0.66472700  0.25002400  1
  Y  Y1  1  0.75001100  0.33548900  0.75001000  1
  V  V2  1  0.24982100  0.66474000  0.74982600  1
  V  V3  1  0.74976000  0.33537200  0.24998900  1
  W  W4  1  0.25265800  0.15821200  0.49681300  1
  W  W5  1  0.24735100  0.15824800  0.00319100  1
  W  W6  1  0.74716000  0.84183600  0.50331100  1
  W  W7  1  0.75283000  0.84184300  0.99668300  1
  O  O8  1  0.42731200  0.35766300  0.14131700  1
  O  O9  1  0.07277900  0.35757300  0.35871600  1
  O  O10  1  0.57273500  0.64221800  0.85878200  1
  O  O11  1  0.92732100  0.64232800  0.64124500  1
  O  O12  1  0.43737900  0.89538600  0.61405200  1
  O  O13  1  0.06262300  0.89550700  0.88597800  1
  O  O14  1  0.56256400  0.10441200  0.38601800  1
  O  O15  1  0.93745200  0.10450900  0.11403200  1
  O  O16  1  0.87556000  0.61429300  0.12414200  1
  O  O17  1  0.62457200  0.61426200  0.37587000  1
  O  O18  1  0.12461900  0.38564200  0.87583600  1
  O  O19  1  0.37549700  0.38561000  0.62413900  1
  O  O20  1  0.42119900  0.88530000  0.09688000  1
  O  O21  1  0.57891900  0.11482200  0.90305000  1
  O  O22  1  0.07877100  0.88521800  0.40317300  1
  O  O23  1  0.92107300  0.11478900  0.59692100  1
