# generated using pymatgen
data_YMn(WO4)2
_symmetry_space_group_name_H-M   'P 1'
_cell_length_a   5.22591793
_cell_length_b   5.87355449
_cell_length_c   10.11869048
_cell_angle_alpha   89.51306028
_cell_angle_beta   93.82825634
_cell_angle_gamma   88.88092675
_symmetry_Int_Tables_number   1
_chemical_formula_structural   YMn(WO4)2
_chemical_formula_sum   'Y2 Mn2 W4 O16'
_cell_volume   309.82320851
_cell_formula_units_Z   2
loop_
 _symmetry_equiv_pos_site_id
 _symmetry_equiv_pos_as_xyz
  1  'x, y, z'
loop_
 _atom_site_type_symbol
 _atom_site_label
 _atom_site_symmetry_multiplicity
 _atom_site_fract_x
 _atom_site_fract_y
 _atom_site_fract_z
 _atom_site_occupancy
  Y  Y0  1  0.24207600  0.68270900  0.23977900  1
  Y  Y1  1  0.75792200  0.31731900  0.76026400  1
  Mn  Mn2  1  0.74693300  0.30323000  0.23709800  1
  Mn  Mn3  1  0.25288300  0.69658300  0.76263600  1
  W  W4  1  0.24895300  0.16985200  0.49566800  1
  W  W5  1  0.75104700  0.83018300  0.50430200  1
  W  W6  1  0.24303900  0.16803800  0.00488800  1
  W  W7  1  0.75699400  0.83195300  0.99511500  1
  O  O8  1  0.39050000  0.37182900  0.14076000  1
  O  O9  1  0.60945100  0.62822000  0.85924600  1
  O  O10  1  0.09521300  0.36620800  0.37120400  1
  O  O11  1  0.90479900  0.63379700  0.62881900  1
  O  O12  1  0.45366500  0.90136500  0.60563800  1
  O  O13  1  0.54635100  0.09865200  0.39439300  1
  O  O14  1  0.04459700  0.92108500  0.88405400  1
  O  O15  1  0.95544600  0.07889800  0.11597800  1
  O  O16  1  0.87416300  0.60912300  0.12294700  1
  O  O17  1  0.12585800  0.39087400  0.87708000  1
  O  O18  1  0.61039100  0.63104500  0.38317300  1
  O  O19  1  0.38963600  0.36900000  0.61686800  1
  O  O20  1  0.43361100  0.88969100  0.09696200  1
  O  O21  1  0.56643100  0.11033800  0.90308600  1
  O  O22  1  0.05428000  0.89131500  0.40274600  1
  O  O23  1  0.94576100  0.10869300  0.59729700  1
