# generated using pymatgen
data_Na2CoSiCO7
_symmetry_space_group_name_H-M   'P 1'
_cell_length_a   6.30792500
_cell_length_b   10.29710301
_cell_length_c   9.58817564
_cell_angle_alpha   90.76909973
_cell_angle_beta   90.00001560
_cell_angle_gamma   89.99995055
_symmetry_Int_Tables_number   1
_chemical_formula_structural   Na2CoSiCO7
_chemical_formula_sum   'Na8 Co4 Si4 C4 O28'
_cell_volume   622.72805413
_cell_formula_units_Z   4
loop_
 _symmetry_equiv_pos_site_id
 _symmetry_equiv_pos_as_xyz
  1  'x, y, z'
loop_
 _atom_site_type_symbol
 _atom_site_label
 _atom_site_symmetry_multiplicity
 _atom_site_fract_x
 _atom_site_fract_y
 _atom_site_fract_z
 _atom_site_occupancy
  Na  Na0  1  0.00591100  0.12752700  0.23850600  1
  Na  Na1  1  0.99820000  0.61486700  0.24149500  1
  Na  Na2  1  0.49409100  0.12752700  0.23850700  1
  Na  Na3  1  0.50180200  0.61486400  0.24149100  1
  Na  Na4  1  0.49820400  0.38514500  0.75851800  1
  Na  Na5  1  0.50591700  0.87247300  0.76146600  1
  Na  Na6  1  0.00179600  0.38514900  0.75851900  1
  Na  Na7  1  0.99408400  0.87247300  0.76146700  1
  Co  Co8  1  0.74999900  0.90857600  0.36555300  1
  Co  Co9  1  0.25000000  0.09142000  0.63440700  1
  Co  Co10  1  0.75000000  0.39465400  0.39884000  1
  Co  Co11  1  0.25000000  0.60536700  0.60116000  1
  Si  Si12  1  0.25000000  0.33663900  0.43458800  1
  Si  Si13  1  0.25000000  0.84784000  0.42450200  1
  Si  Si14  1  0.75000000  0.15215900  0.57550000  1
  Si  Si15  1  0.74999900  0.66337600  0.56541000  1
  C  C16  1  0.75000100  0.36460800  0.05826500  1
  C  C17  1  0.75000100  0.86489100  0.07719300  1
  C  C18  1  0.24999900  0.13506100  0.92283900  1
  C  C19  1  0.25000000  0.63539300  0.94174900  1
  O  O20  1  0.24999900  0.11984200  0.05433400  1
  O  O21  1  0.25000000  0.63231200  0.07473600  1
  O  O22  1  0.75000000  0.36766500  0.92527400  1
  O  O23  1  0.75000000  0.88008700  0.94567800  1
  O  O24  1  0.75000200  0.47000600  0.13031800  1
  O  O25  1  0.75000000  0.96914800  0.15763200  1
  O  O26  1  0.25000100  0.03082400  0.84235300  1
  O  O27  1  0.25000000  0.53000000  0.86968600  1
  O  O28  1  0.74999900  0.25550100  0.12036000  1
  O  O29  1  0.75000100  0.75455100  0.13569700  1
  O  O30  1  0.24999900  0.24540300  0.86438500  1
  O  O31  1  0.25000000  0.74450000  0.87966200  1
  O  O32  1  0.75000000  0.09508200  0.41564400  1
  O  O33  1  0.74999800  0.58022300  0.41834700  1
  O  O34  1  0.25000000  0.41979800  0.58165100  1
  O  O35  1  0.25000000  0.90493200  0.58433100  1
  O  O36  1  0.25000000  0.17731700  0.45904600  1
  O  O37  1  0.25000100  0.68650000  0.42365700  1
  O  O38  1  0.75000000  0.31350400  0.57632600  1
  O  O39  1  0.74999900  0.82271800  0.54097400  1
  O  O40  1  0.03368700  0.36726700  0.34262500  1
  O  O41  1  0.03955100  0.89344600  0.33508400  1
  O  O42  1  0.46631200  0.36726800  0.34262400  1
  O  O43  1  0.46044800  0.89344700  0.33508300  1
  O  O44  1  0.53952200  0.10655400  0.66488400  1
  O  O45  1  0.53368000  0.63277300  0.65737600  1
  O  O46  1  0.96047800  0.10655400  0.66488400  1
  O  O47  1  0.96631900  0.63277200  0.65737500  1
