# generated using pymatgen
data_MoC
_symmetry_space_group_name_H-M   'P 1'
_cell_length_a   3.07357026
_cell_length_b   3.07357026
_cell_length_c   15.42037300
_cell_angle_alpha   90.00000000
_cell_angle_beta   90.00000000
_cell_angle_gamma   120.00000559
_symmetry_Int_Tables_number   1
_chemical_formula_structural   MoC
_chemical_formula_sum   'Mo6 C6'
_cell_volume   126.15712306
_cell_formula_units_Z   6
loop_
 _symmetry_equiv_pos_site_id
 _symmetry_equiv_pos_as_xyz
  1  'x, y, z'
loop_
 _atom_site_type_symbol
 _atom_site_label
 _atom_site_symmetry_multiplicity
 _atom_site_fract_x
 _atom_site_fract_y
 _atom_site_fract_z
 _atom_site_occupancy
  Mo  Mo0  1  0.33333300  0.66666700  0.42383200  1
  Mo  Mo1  1  0.66666700  0.33333300  0.92383200  1
  Mo  Mo2  1  0.66666700  0.33333300  0.57616800  1
  Mo  Mo3  1  0.33333300  0.66666700  0.07616800  1
  Mo  Mo4  1  0.00000000  0.00000000  0.75000000  1
  Mo  Mo5  1  0.00000000  0.00000000  0.25000000  1
  C  C6  1  0.33333300  0.66666700  0.83354000  1
  C  C7  1  0.66666700  0.33333300  0.33354000  1
  C  C8  1  0.66666700  0.33333300  0.16646000  1
  C  C9  1  0.33333300  0.66666700  0.66646000  1
  C  C10  1  0.00000000  0.00000000  0.50000000  1
  C  C11  1  0.00000000  0.00000000  0.00000000  1
