# generated using pymatgen
data_Ca3Co2O7
_symmetry_space_group_name_H-M   'P 1'
_cell_length_a   5.29460045
_cell_length_b   10.00685398
_cell_length_c   5.40570440
_cell_angle_alpha   90.08692185
_cell_angle_beta   89.84272189
_cell_angle_gamma   105.29081998
_symmetry_Int_Tables_number   1
_chemical_formula_structural   Ca3Co2O7
_chemical_formula_sum   'Ca6 Co4 O14'
_cell_volume   276.26659854
_cell_formula_units_Z   2
loop_
 _symmetry_equiv_pos_site_id
 _symmetry_equiv_pos_as_xyz
  1  'x, y, z'
loop_
 _atom_site_type_symbol
 _atom_site_label
 _atom_site_symmetry_multiplicity
 _atom_site_fract_x
 _atom_site_fract_y
 _atom_site_fract_z
 _atom_site_occupancy
  Ca  Ca0  1  0.75919500  0.00422300  0.69938100  1
  Ca  Ca1  1  0.24540700  0.00418900  0.19940800  1
  Ca  Ca2  1  0.57051600  0.62483700  0.79120400  1
  Ca  Ca3  1  0.42762000  0.37013800  0.29276500  1
  Ca  Ca4  1  0.94168000  0.36998200  0.79273700  1
  Ca  Ca5  1  0.05462800  0.62476700  0.29116300  1
  Co  Co6  1  0.65199200  0.80492400  0.24932300  1
  Co  Co7  1  0.84634400  0.19533300  0.24766700  1
  Co  Co8  1  0.34869600  0.19527900  0.74772300  1
  Co  Co9  1  0.15316900  0.80492000  0.74909700  1
  O  O10  1  0.33065700  0.00460900  0.76699900  1
  O  O11  1  0.67372500  0.00445700  0.26714300  1
  O  O12  1  0.00199700  0.60515300  0.74360900  1
  O  O13  1  0.99494700  0.38913500  0.24122700  1
  O  O14  1  0.60290000  0.60505500  0.24456600  1
  O  O15  1  0.39402700  0.38914600  0.74158500  1
  O  O16  1  0.36834600  0.77953600  0.05833700  1
  O  O17  1  0.65313900  0.22564000  0.53780800  1
  O  O18  1  0.41206700  0.77974100  0.55865300  1
  O  O19  1  0.57232900  0.22566500  0.03771000  1
  O  O20  1  0.89098000  0.83214000  0.93205500  1
  O  O21  1  0.12469700  0.16451700  0.45909800  1
  O  O22  1  0.03930800  0.16460300  0.95910200  1
  O  O23  1  0.94163500  0.83200900  0.43164400  1
