# generated using pymatgen
data_Li2CoCSO7
_symmetry_space_group_name_H-M   'P 1'
_cell_length_a   4.98880277
_cell_length_b   17.83031495
_cell_length_c   6.44519054
_cell_angle_alpha   89.91536513
_cell_angle_beta   90.04735296
_cell_angle_gamma   83.63129593
_symmetry_Int_Tables_number   1
_chemical_formula_structural   Li2CoCSO7
_chemical_formula_sum   'Li8 Co4 C4 S4 O28'
_cell_volume   569.77309292
_cell_formula_units_Z   4
loop_
 _symmetry_equiv_pos_site_id
 _symmetry_equiv_pos_as_xyz
  1  'x, y, z'
loop_
 _atom_site_type_symbol
 _atom_site_label
 _atom_site_symmetry_multiplicity
 _atom_site_fract_x
 _atom_site_fract_y
 _atom_site_fract_z
 _atom_site_occupancy
  Li  Li0  1  0.21107200  0.09194300  0.51491100  1
  Li  Li1  1  0.21500000  0.59267000  0.51574500  1
  Li  Li2  1  0.21148100  0.09189800  0.98336600  1
  Li  Li3  1  0.21551400  0.59232100  0.98339300  1
  Li  Li4  1  0.78910900  0.40824200  0.48514400  1
  Li  Li5  1  0.78620100  0.90767900  0.48517000  1
  Li  Li6  1  0.78939100  0.40857700  0.01640800  1
  Li  Li7  1  0.78594500  0.90785700  0.01655900  1
  Co  Co8  1  0.77577900  0.67666300  0.75210500  1
  Co  Co9  1  0.22997100  0.82397300  0.25020700  1
  Co  Co10  1  0.76625000  0.17580600  0.74893200  1
  Co  Co11  1  0.23411900  0.32412600  0.25119700  1
  C  C12  1  0.72754900  0.03522700  0.74991700  1
  C  C13  1  0.73053400  0.53578800  0.74926900  1
  C  C14  1  0.27252800  0.46478100  0.25029400  1
  C  C15  1  0.27024800  0.96447200  0.25013300  1
  S  S16  1  0.75050100  0.20564900  0.24961600  1
  S  S17  1  0.74547200  0.70643000  0.24974300  1
  S  S18  1  0.24993500  0.29417900  0.75053700  1
  S  S19  1  0.25094000  0.79329800  0.74999500  1
  O  O20  1  0.29747100  0.03472500  0.24945400  1
  O  O21  1  0.29917200  0.53507900  0.24985800  1
  O  O22  1  0.70383500  0.46549300  0.75033100  1
  O  O23  1  0.70046600  0.96493900  0.75047400  1
  O  O24  1  0.96391300  0.06073600  0.74948700  1
  O  O25  1  0.96795900  0.56100100  0.75030900  1
  O  O26  1  0.03632900  0.43914200  0.25076800  1
  O  O27  1  0.03371700  0.93895000  0.25037600  1
  O  O28  1  0.51850200  0.08763900  0.74969600  1
  O  O29  1  0.52118700  0.58791100  0.74700600  1
  O  O30  1  0.48178600  0.41240700  0.25028900  1
  O  O31  1  0.47903700  0.91202900  0.25062600  1
  O  O32  1  0.14725500  0.21925900  0.75142600  1
  O  O33  1  0.15328900  0.71761400  0.75442600  1
  O  O34  1  0.85335600  0.28049000  0.24883400  1
  O  O35  1  0.84571600  0.78171900  0.24516400  1
  O  O36  1  0.44900800  0.21747600  0.25115200  1
  O  O37  1  0.44394700  0.71756200  0.25161200  1
  O  O38  1  0.55147900  0.28237500  0.74898700  1
  O  O39  1  0.55209500  0.78248000  0.74614700  1
  O  O40  1  0.84596700  0.16003700  0.06506200  1
  O  O41  1  0.84239600  0.66040900  0.06630600  1
  O  O42  1  0.84915200  0.16015000  0.43424300  1
  O  O43  1  0.84832600  0.66248300  0.43525700  1
  O  O44  1  0.15114300  0.33959400  0.56588700  1
  O  O45  1  0.14713600  0.83782800  0.56540200  1
  O  O46  1  0.15436100  0.33975600  0.93505000  1
  O  O47  1  0.15446100  0.83913900  0.93373100  1
