# generated using pymatgen
data_SrV3P4O17
_symmetry_space_group_name_H-M   'P 1'
_cell_length_a   7.64008900
_cell_length_b   10.20197200
_cell_length_c   16.53575600
_cell_angle_alpha   90.00000000
_cell_angle_beta   90.00000000
_cell_angle_gamma   90.00000000
_symmetry_Int_Tables_number   1
_chemical_formula_structural   SrV3P4O17
_chemical_formula_sum   'Sr4 V12 P16 O68'
_cell_volume   1288.86253665
_cell_formula_units_Z   4
loop_
 _symmetry_equiv_pos_site_id
 _symmetry_equiv_pos_as_xyz
  1  'x, y, z'
loop_
 _atom_site_type_symbol
 _atom_site_label
 _atom_site_symmetry_multiplicity
 _atom_site_fract_x
 _atom_site_fract_y
 _atom_site_fract_z
 _atom_site_occupancy
  Sr  Sr0  1  0.99412500  0.56314100  0.82118400  1
  Sr  Sr1  1  0.49412500  0.93685900  0.17881600  1
  Sr  Sr2  1  0.00587500  0.06314100  0.67881600  1
  Sr  Sr3  1  0.50587500  0.43685900  0.32118400  1
  V  V4  1  0.21717000  0.67683600  0.65039400  1
  V  V5  1  0.71717000  0.82316400  0.34960600  1
  V  V6  1  0.78283000  0.17683600  0.84960600  1
  V  V7  1  0.28283000  0.32316400  0.15039400  1
  V  V8  1  0.21136400  0.75210400  0.99690600  1
  V  V9  1  0.71136400  0.74789600  0.00309400  1
  V  V10  1  0.78863600  0.25210400  0.50309400  1
  V  V11  1  0.28863600  0.24789600  0.49690600  1
  V  V12  1  0.71801400  0.67461400  0.65244300  1
  V  V13  1  0.21801400  0.82538600  0.34755700  1
  V  V14  1  0.28198600  0.17461400  0.84755700  1
  V  V15  1  0.78198600  0.32538600  0.15244300  1
  P  P16  1  0.29513500  0.94029800  0.53923800  1
  P  P17  1  0.79513500  0.55970200  0.46076200  1
  P  P18  1  0.70486500  0.44029800  0.96076200  1
  P  P19  1  0.20486500  0.05970200  0.03923800  1
  P  P20  1  0.30482800  0.86209000  0.81241700  1
  P  P21  1  0.80482800  0.63791000  0.18758300  1
  P  P22  1  0.69517200  0.36209000  0.68758300  1
  P  P23  1  0.19517200  0.13791000  0.31241700  1
  P  P24  1  0.29061500  0.43776000  0.96103300  1
  P  P25  1  0.79061500  0.06224000  0.03896700  1
  P  P26  1  0.70938500  0.93776000  0.53896700  1
  P  P27  1  0.20938500  0.56224000  0.46103300  1
  P  P28  1  0.30309200  0.36390700  0.68926100  1
  P  P29  1  0.80309200  0.13609300  0.31073900  1
  P  P30  1  0.69690800  0.86390700  0.81073900  1
  P  P31  1  0.19690800  0.63609300  0.18926100  1
  O  O32  1  0.49788500  0.43757100  0.96592100  1
  O  O33  1  0.99788500  0.06242900  0.03407900  1
  O  O34  1  0.50211500  0.93757100  0.53407900  1
  O  O35  1  0.00211500  0.56242900  0.46592100  1
  O  O36  1  0.50012200  0.37300700  0.72248400  1
  O  O37  1  0.00012200  0.12699300  0.27751600  1
  O  O38  1  0.49987800  0.87300700  0.77751600  1
  O  O39  1  0.99987800  0.62699300  0.22248400  1
  O  O40  1  0.23801900  0.86218300  0.61447200  1
  O  O41  1  0.73801900  0.63781700  0.38552800  1
  O  O42  1  0.76198100  0.36218300  0.88552800  1
  O  O43  1  0.26198100  0.13781700  0.11447200  1
  O  O44  1  0.21346900  0.75051500  0.76610400  1
  O  O45  1  0.71346900  0.74948500  0.23389600  1
  O  O46  1  0.78653100  0.25051500  0.73389600  1
  O  O47  1  0.28653100  0.24948500  0.26610400  1
  O  O48  1  0.27656400  0.61305000  0.54134800  1
  O  O49  1  0.77656400  0.88695000  0.45865200  1
  O  O50  1  0.72343600  0.11305000  0.95865200  1
  O  O51  1  0.22343600  0.38695000  0.04134800  1
  O  O52  1  0.21984300  0.49629100  0.71127700  1
  O  O53  1  0.71984300  0.00370900  0.28872300  1
  O  O54  1  0.78015700  0.99629100  0.78872300  1
  O  O55  1  0.28015700  0.50370900  0.21127700  1
  O  O56  1  0.00368200  0.77559400  0.97664300  1
  O  O57  1  0.31648600  0.83441900  0.90181400  1
  O  O58  1  0.68351400  0.33441900  0.59818600  1
  O  O59  1  0.18351400  0.16558100  0.40181400  1
  O  O60  1  0.22859800  0.57726000  0.93986500  1
  O  O61  1  0.72859800  0.92274000  0.06013500  1
  O  O62  1  0.77140200  0.07726000  0.56013500  1
  O  O63  1  0.27140200  0.42274000  0.43986500  1
  O  O64  1  0.99643800  0.33005600  0.16332000  1
  O  O65  1  0.49643800  0.16994400  0.83668000  1
  O  O66  1  0.00356200  0.83005600  0.33668000  1
  O  O67  1  0.50356200  0.66994400  0.66332000  1
  O  O68  1  0.71816200  0.25129900  0.26426600  1
  O  O69  1  0.21816200  0.24870100  0.73573400  1
  O  O70  1  0.28183800  0.75129900  0.23573400  1
  O  O71  1  0.78183800  0.74870100  0.76426600  1
  O  O72  1  0.49716600  0.33181300  0.14528300  1
  O  O73  1  0.99716600  0.16818700  0.85471700  1
  O  O74  1  0.50283400  0.83181300  0.35471700  1
  O  O75  1  0.00283400  0.66818700  0.64528300  1
  O  O76  1  0.73682500  0.14431400  0.11295300  1
  O  O77  1  0.23682500  0.35568600  0.88704700  1
  O  O78  1  0.26317500  0.64431400  0.38704700  1
  O  O79  1  0.76317500  0.85568600  0.61295300  1
  O  O80  1  0.72137600  0.50351500  0.20652100  1
  O  O81  1  0.22137600  0.99648500  0.79347900  1
  O  O82  1  0.27862400  0.00351500  0.29347900  1
  O  O83  1  0.77862400  0.49648500  0.70652100  1
  O  O84  1  0.77394900  0.38876100  0.03994700  1
  O  O85  1  0.27394900  0.11123900  0.96005300  1
  O  O86  1  0.22605100  0.88876100  0.46005300  1
  O  O87  1  0.72605100  0.61123900  0.53994700  1
  O  O88  1  0.30429600  0.34083400  0.59931700  1
  O  O89  1  0.80429600  0.15916600  0.40068300  1
  O  O90  1  0.69570400  0.84083400  0.90068300  1
  O  O91  1  0.19570400  0.65916600  0.09931700  1
  O  O92  1  0.23881300  0.08212300  0.55916300  1
  O  O93  1  0.73881300  0.41787700  0.44083700  1
  O  O94  1  0.76118700  0.58212300  0.94083700  1
  O  O95  1  0.26118700  0.91787700  0.05916300  1
  O  O96  1  0.49631800  0.22440600  0.47664300  1
  O  O97  1  0.99631800  0.27559400  0.52335700  1
  O  O98  1  0.50368200  0.72440600  0.02335700  1
  O  O99  1  0.81648600  0.66558100  0.09818600  1
