# generated using pymatgen
data_GaMo4CS8
_symmetry_space_group_name_H-M   'P 1'
_cell_length_a   7.20383984
_cell_length_b   7.20383984
_cell_length_c   7.20383984
_cell_angle_alpha   60.00000000
_cell_angle_beta   60.00000000
_cell_angle_gamma   60.00000000
_symmetry_Int_Tables_number   1
_chemical_formula_structural   GaMo4CS8
_chemical_formula_sum   'Ga1 Mo4 C1 S8'
_cell_volume   264.34868119
_cell_formula_units_Z   1
loop_
 _symmetry_equiv_pos_site_id
 _symmetry_equiv_pos_as_xyz
  1  'x, y, z'
loop_
 _atom_site_type_symbol
 _atom_site_label
 _atom_site_symmetry_multiplicity
 _atom_site_fract_x
 _atom_site_fract_y
 _atom_site_fract_z
 _atom_site_occupancy
  Ga  Ga0  1  0.00000000  0.00000000  0.00000000  1
  Mo  Mo1  1  0.20829100  0.59723600  0.59723600  1
  Mo  Mo2  1  0.59723600  0.59723600  0.20829100  1
  Mo  Mo3  1  0.59723600  0.20829100  0.59723600  1
  Mo  Mo4  1  0.59723600  0.59723600  0.59723600  1
  C  C5  1  0.75000000  0.75000000  0.75000000  1
  S  S6  1  0.36997900  0.36997900  0.36997900  1
  S  S7  1  0.85652100  0.85652100  0.43043800  1
  S  S8  1  0.85652100  0.43043800  0.85652100  1
  S  S9  1  0.43043800  0.85652100  0.85652100  1
  S  S10  1  0.85652100  0.85652100  0.85652100  1
  S  S11  1  0.36997900  0.89006300  0.36997900  1
  S  S12  1  0.36997900  0.36997900  0.89006300  1
  S  S13  1  0.89006300  0.36997900  0.36997900  1
