# generated using pymatgen
data_Ho2Cu(GeO3)4
_symmetry_space_group_name_H-M   'P 1'
_cell_length_a   4.99271300
_cell_length_b   7.25955080
_cell_length_c   7.98450525
_cell_angle_alpha   113.60353486
_cell_angle_beta   86.94265442
_cell_angle_gamma   103.14578267
_symmetry_Int_Tables_number   1
_chemical_formula_structural   Ho2Cu(GeO3)4
_chemical_formula_sum   'Ho2 Cu1 Ge4 O12'
_cell_volume   258.00544329
_cell_formula_units_Z   1
loop_
 _symmetry_equiv_pos_site_id
 _symmetry_equiv_pos_as_xyz
  1  'x, y, z'
loop_
 _atom_site_type_symbol
 _atom_site_label
 _atom_site_symmetry_multiplicity
 _atom_site_fract_x
 _atom_site_fract_y
 _atom_site_fract_z
 _atom_site_occupancy
  Ho  Ho0  1  0.95419300  0.76961300  0.54882100  1
  Ho  Ho1  1  0.04580700  0.23038700  0.45117900  1
  Cu  Cu2  1  0.00000000  0.00000000  0.00000000  1
  Ge  Ge3  1  0.46034500  0.83243400  0.22549500  1
  Ge  Ge4  1  0.53965500  0.16756600  0.77450500  1
  Ge  Ge5  1  0.41770200  0.61635100  0.79538900  1
  Ge  Ge6  1  0.58229800  0.38364900  0.20461100  1
  O  O7  1  0.22484700  0.93331700  0.38918200  1
  O  O8  1  0.77515300  0.06668300  0.61081800  1
  O  O9  1  0.20572000  0.57518600  0.61083400  1
  O  O10  1  0.79428000  0.42481400  0.38916600  1
  O  O11  1  0.58444700  0.65798100  0.29458800  1
  O  O12  1  0.41555300  0.34201900  0.70541200  1
  O  O13  1  0.26804200  0.68773800  0.01226600  1
  O  O14  1  0.25718200  0.22327200  0.19428700  1
  O  O15  1  0.74281800  0.77672800  0.80571300  1
  O  O16  1  0.24768700  0.99194100  0.79626800  1
  O  O17  1  0.75231300  0.00805900  0.20373200  1
  O  O18  1  0.73195800  0.31226200  0.98773400  1
