# generated using pymatgen
data_Er2Cu(GeO3)4
_symmetry_space_group_name_H-M   'P 1'
_cell_length_a   4.99252500
_cell_length_b   7.23443335
_cell_length_c   7.95850692
_cell_angle_alpha   113.55573319
_cell_angle_beta   87.00150722
_cell_angle_gamma   103.08917091
_symmetry_Int_Tables_number   1
_chemical_formula_structural   Er2Cu(GeO3)4
_chemical_formula_sum   'Er2 Cu1 Ge4 O12'
_cell_volume   256.41285476
_cell_formula_units_Z   1
loop_
 _symmetry_equiv_pos_site_id
 _symmetry_equiv_pos_as_xyz
  1  'x, y, z'
loop_
 _atom_site_type_symbol
 _atom_site_label
 _atom_site_symmetry_multiplicity
 _atom_site_fract_x
 _atom_site_fract_y
 _atom_site_fract_z
 _atom_site_occupancy
  Er  Er0  1  0.95439400  0.76970900  0.54893700  1
  Er  Er1  1  0.04560600  0.23029100  0.45106300  1
  Cu  Cu2  1  0.00000000  0.00000000  0.00000000  1
  Ge  Ge3  1  0.46038300  0.83329500  0.22623800  1
  Ge  Ge4  1  0.53961700  0.16670500  0.77376200  1
  Ge  Ge5  1  0.41731800  0.61656900  0.79457700  1
  Ge  Ge6  1  0.58268200  0.38343100  0.20542300  1
  O  O7  1  0.22381500  0.93337900  0.38993600  1
  O  O8  1  0.77618500  0.06662100  0.61006400  1
  O  O9  1  0.20501800  0.57465200  0.60941000  1
  O  O10  1  0.79498200  0.42534800  0.39059000  1
  O  O11  1  0.58614500  0.65873700  0.29532300  1
  O  O12  1  0.41385500  0.34126300  0.70467700  1
  O  O13  1  0.26831800  0.68846100  0.01226500  1
  O  O14  1  0.25725400  0.22323900  0.19528300  1
  O  O15  1  0.74274600  0.77676100  0.80471700  1
  O  O16  1  0.24770600  0.99061600  0.79564200  1
  O  O17  1  0.75229400  0.00938400  0.20435800  1
  O  O18  1  0.73168200  0.31153900  0.98773500  1
