# generated using pymatgen
data_Mg(As2Rh3)2
_symmetry_space_group_name_H-M   'P 1'
_cell_length_a   7.38900025
_cell_length_b   7.38900025
_cell_length_c   3.63731800
_cell_angle_alpha   90.00000000
_cell_angle_beta   90.00000000
_cell_angle_gamma   120.00000226
_symmetry_Int_Tables_number   1
_chemical_formula_structural   Mg(As2Rh3)2
_chemical_formula_sum   'Mg1 As4 Rh6'
_cell_volume   171.98210347
_cell_formula_units_Z   1
loop_
 _symmetry_equiv_pos_site_id
 _symmetry_equiv_pos_as_xyz
  1  'x, y, z'
loop_
 _atom_site_type_symbol
 _atom_site_label
 _atom_site_symmetry_multiplicity
 _atom_site_fract_x
 _atom_site_fract_y
 _atom_site_fract_z
 _atom_site_occupancy
  Mg  Mg0  1  0.00000000  0.00000000  0.00000000  1
  As  As1  1  0.81201300  0.18798700  0.50000000  1
  As  As2  1  0.37597300  0.18798700  0.50000000  1
  As  As3  1  0.33333300  0.66666700  0.00000000  1
  As  As4  1  0.81201300  0.62402700  0.50000000  1
  Rh  Rh5  1  0.19213300  0.80786700  0.50000000  1
  Rh  Rh6  1  0.19213300  0.38426700  0.50000000  1
  Rh  Rh7  1  0.53436800  0.06873600  0.00000000  1
  Rh  Rh8  1  0.93126400  0.46563200  0.00000000  1
  Rh  Rh9  1  0.53436800  0.46563200  0.00000000  1
  Rh  Rh10  1  0.61573300  0.80786700  0.50000000  1
