# generated using pymatgen
data_Mo2S3
_symmetry_space_group_name_H-M   'P 1'
_cell_length_a   3.20985700
_cell_length_b   6.17036400
_cell_length_c   8.70627230
_cell_angle_alpha   77.04242643
_cell_angle_beta   90.00000000
_cell_angle_gamma   90.00000000
_symmetry_Int_Tables_number   1
_chemical_formula_structural   Mo2S3
_chemical_formula_sum   'Mo4 S6'
_cell_volume   168.04545355
_cell_formula_units_Z   2
loop_
 _symmetry_equiv_pos_site_id
 _symmetry_equiv_pos_as_xyz
  1  'x, y, z'
loop_
 _atom_site_type_symbol
 _atom_site_label
 _atom_site_symmetry_multiplicity
 _atom_site_fract_x
 _atom_site_fract_y
 _atom_site_fract_z
 _atom_site_occupancy
  Mo  Mo0  1  0.25000000  0.68747200  0.00912100  1
  Mo  Mo1  1  0.75000000  0.31252800  0.99087900  1
  Mo  Mo2  1  0.25000000  0.89253500  0.62641400  1
  Mo  Mo3  1  0.75000000  0.10746500  0.37358600  1
  S  S4  1  0.25000000  0.49327400  0.80353300  1
  S  S5  1  0.75000000  0.50672600  0.19646700  1
  S  S6  1  0.25000000  0.02626500  0.15780500  1
  S  S7  1  0.75000000  0.97373500  0.84219500  1
  S  S8  1  0.25000000  0.27347000  0.51325000  1
  S  S9  1  0.75000000  0.72653000  0.48675000  1
