# generated using pymatgen
data_GaSi(MoS2)4
_symmetry_space_group_name_H-M   'P 1'
_cell_length_a   7.49563876
_cell_length_b   7.49563876
_cell_length_c   7.49563876
_cell_angle_alpha   60.00000000
_cell_angle_beta   60.00000000
_cell_angle_gamma   60.00000000
_symmetry_Int_Tables_number   1
_chemical_formula_structural   GaSi(MoS2)4
_chemical_formula_sum   'Ga1 Si1 Mo4 S8'
_cell_volume   297.79057468
_cell_formula_units_Z   1
loop_
 _symmetry_equiv_pos_site_id
 _symmetry_equiv_pos_as_xyz
  1  'x, y, z'
loop_
 _atom_site_type_symbol
 _atom_site_label
 _atom_site_symmetry_multiplicity
 _atom_site_fract_x
 _atom_site_fract_y
 _atom_site_fract_z
 _atom_site_occupancy
  Ga  Ga0  1  0.00000000  0.00000000  0.00000000  1
  Si  Si1  1  0.25000000  0.25000000  0.25000000  1
  Mo  Mo2  1  0.40587900  0.78236200  0.40587900  1
  Mo  Mo3  1  0.78236200  0.40587900  0.40587900  1
  Mo  Mo4  1  0.40587900  0.40587900  0.40587900  1
  Mo  Mo5  1  0.40587900  0.40587900  0.78236200  1
  S  S6  1  0.13635900  0.13635900  0.13635900  1
  S  S7  1  0.13635900  0.59092300  0.13635900  1
  S  S8  1  0.59092300  0.13635900  0.13635900  1
  S  S9  1  0.13635900  0.13635900  0.59092300  1
  S  S10  1  0.62437300  0.62437300  0.12688100  1
  S  S11  1  0.62437300  0.62437300  0.62437300  1
  S  S12  1  0.12688100  0.62437300  0.62437300  1
  S  S13  1  0.62437300  0.12688100  0.62437300  1
