# generated using pymatgen
data_ThGe2
_symmetry_space_group_name_H-M   'P 1'
_cell_length_a   8.70929275
_cell_length_b   8.70929275
_cell_length_c   4.03193900
_cell_angle_alpha   90.00000000
_cell_angle_beta   90.00000000
_cell_angle_gamma   152.26085957
_symmetry_Int_Tables_number   1
_chemical_formula_structural   ThGe2
_chemical_formula_sum   'Th2 Ge4'
_cell_volume   142.34747142
_cell_formula_units_Z   2
loop_
 _symmetry_equiv_pos_site_id
 _symmetry_equiv_pos_as_xyz
  1  'x, y, z'
loop_
 _atom_site_type_symbol
 _atom_site_label
 _atom_site_symmetry_multiplicity
 _atom_site_fract_x
 _atom_site_fract_y
 _atom_site_fract_z
 _atom_site_occupancy
  Th  Th0  1  0.10746200  0.89253800  0.25000000  1
  Th  Th1  1  0.89253800  0.10746200  0.75000000  1
  Ge  Ge2  1  0.45108800  0.54891200  0.25000000  1
  Ge  Ge3  1  0.54891200  0.45108800  0.75000000  1
  Ge  Ge4  1  0.25122300  0.74877700  0.75000000  1
  Ge  Ge5  1  0.74877700  0.25122300  0.25000000  1
