# generated using pymatgen
data_PbS
_symmetry_space_group_name_H-M   'P 1'
_cell_length_a   8.05746135
_cell_length_b   8.05746135
_cell_length_c   3.99607300
_cell_angle_alpha   90.00000000
_cell_angle_beta   90.00000000
_cell_angle_gamma   103.47871177
_symmetry_Int_Tables_number   1
_chemical_formula_structural   PbS
_chemical_formula_sum   'Pb4 S4'
_cell_volume   252.29003581
_cell_formula_units_Z   4
loop_
 _symmetry_equiv_pos_site_id
 _symmetry_equiv_pos_as_xyz
  1  'x, y, z'
loop_
 _atom_site_type_symbol
 _atom_site_label
 _atom_site_symmetry_multiplicity
 _atom_site_fract_x
 _atom_site_fract_y
 _atom_site_fract_z
 _atom_site_occupancy
  Pb  Pb0  1  0.30263900  0.24687600  0.00000000  1
  Pb  Pb1  1  0.75312400  0.69736100  0.00000000  1
  Pb  Pb2  1  0.77645400  0.22354600  0.50000000  1
  Pb  Pb3  1  0.26438700  0.73561300  0.00000000  1
  S  S4  1  0.40201300  0.03943600  0.50000000  1
  S  S5  1  0.96056400  0.59798700  0.50000000  1
  S  S6  1  0.63908600  0.36091400  0.00000000  1
  S  S7  1  0.42673400  0.57326600  0.50000000  1
