# generated using pymatgen
data_Er4Mo4O11
_symmetry_space_group_name_H-M   'P 1'
_cell_length_a   5.70257400
_cell_length_b   10.73796200
_cell_length_c   15.93310800
_cell_angle_alpha   90.00000000
_cell_angle_beta   90.00000000
_cell_angle_gamma   90.00000000
_symmetry_Int_Tables_number   1
_chemical_formula_structural   Er4Mo4O11
_chemical_formula_sum   'Er16 Mo16 O44'
_cell_volume   975.64830037
_cell_formula_units_Z   4
loop_
 _symmetry_equiv_pos_site_id
 _symmetry_equiv_pos_as_xyz
  1  'x, y, z'
loop_
 _atom_site_type_symbol
 _atom_site_label
 _atom_site_symmetry_multiplicity
 _atom_site_fract_x
 _atom_site_fract_y
 _atom_site_fract_z
 _atom_site_occupancy
  Er  Er0  1  0.00000000  0.61491200  0.57721100  1
  Er  Er1  1  0.00000000  0.38508800  0.42278900  1
  Er  Er2  1  0.00000000  0.11491200  0.92278900  1
  Er  Er3  1  0.00000000  0.88508800  0.07721100  1
  Er  Er4  1  0.00000000  0.40340800  0.73628200  1
  Er  Er5  1  0.00000000  0.59659200  0.26371800  1
  Er  Er6  1  0.00000000  0.90340800  0.76371800  1
  Er  Er7  1  0.00000000  0.09659200  0.23628200  1
  Er  Er8  1  0.50000000  0.42401600  0.59883600  1
  Er  Er9  1  0.50000000  0.57598400  0.40116400  1
  Er  Er10  1  0.50000000  0.92401600  0.90116400  1
  Er  Er11  1  0.50000000  0.07598400  0.09883600  1
  Er  Er12  1  0.50000000  0.18442100  0.77693200  1
  Er  Er13  1  0.50000000  0.81557900  0.22306800  1
  Er  Er14  1  0.50000000  0.68442100  0.72306800  1
  Er  Er15  1  0.50000000  0.31557900  0.27693200  1
  Mo  Mo16  1  0.00000000  0.91629100  0.56079900  1
  Mo  Mo17  1  0.00000000  0.08370900  0.43920100  1
  Mo  Mo18  1  0.00000000  0.41629100  0.93920100  1
  Mo  Mo19  1  0.00000000  0.58370900  0.06079900  1
  Mo  Mo20  1  0.50000000  0.90378500  0.57138900  1
  Mo  Mo21  1  0.50000000  0.09621500  0.42861100  1
  Mo  Mo22  1  0.50000000  0.40378500  0.92861100  1
  Mo  Mo23  1  0.50000000  0.59621500  0.07138900  1
  Mo  Mo24  1  0.27495500  0.86369200  0.41405800  1
  Mo  Mo25  1  0.27495500  0.13630800  0.58594200  1
  Mo  Mo26  1  0.72504500  0.36369200  0.08594200  1
  Mo  Mo27  1  0.72504500  0.63630800  0.91405800  1
  Mo  Mo28  1  0.72504500  0.13630800  0.58594200  1
  Mo  Mo29  1  0.72504500  0.86369200  0.41405800  1
  Mo  Mo30  1  0.27495500  0.63630800  0.91405800  1
  Mo  Mo31  1  0.27495500  0.36369200  0.08594200  1
  O  O32  1  0.24560500  0.00000000  0.00000000  1
  O  O33  1  0.75439500  0.50000000  0.50000000  1
  O  O34  1  0.75439500  0.00000000  0.00000000  1
  O  O35  1  0.24560500  0.50000000  0.50000000  1
  O  O36  1  0.00000000  0.23289800  0.52266100  1
  O  O37  1  0.00000000  0.76710200  0.47733900  1
  O  O38  1  0.00000000  0.73289800  0.97733900  1
  O  O39  1  0.00000000  0.26710200  0.02266100  1
  O  O40  1  0.00000000  0.04795000  0.65505000  1
  O  O41  1  0.00000000  0.95205000  0.34495000  1
  O  O42  1  0.00000000  0.54795000  0.84495000  1
  O  O43  1  0.00000000  0.45205000  0.15505000  1
  O  O44  1  0.50000000  0.24864900  0.51346300  1
  O  O45  1  0.50000000  0.75135100  0.48653700  1
  O  O46  1  0.50000000  0.74864900  0.98653700  1
  O  O47  1  0.50000000  0.25135100  0.01346300  1
  O  O48  1  0.50000000  0.04120300  0.66744800  1
  O  O49  1  0.50000000  0.95879700  0.33255200  1
  O  O50  1  0.76265900  0.30988900  0.85972700  1
  O  O51  1  0.50000000  0.54120300  0.83255200  1
  O  O52  1  0.24743400  0.95987600  0.17233300  1
  O  O53  1  0.24743400  0.04012400  0.82766700  1
  O  O54  1  0.75256600  0.45987600  0.32766700  1
  O  O55  1  0.75256600  0.54012400  0.67233300  1
  O  O56  1  0.75256600  0.04012400  0.82766700  1
  O  O57  1  0.75256600  0.95987600  0.17233300  1
  O  O58  1  0.24743400  0.54012400  0.67233300  1
  O  O59  1  0.24743400  0.45987600  0.32766700  1
  O  O60  1  0.23734100  0.69011100  0.14027300  1
  O  O61  1  0.23734100  0.30988900  0.85972700  1
  O  O62  1  0.76265900  0.19011100  0.35972700  1
  O  O63  1  0.76265900  0.80988900  0.64027300  1
  O  O64  1  0.26429000  0.22301700  0.17503700  1
  O  O65  1  0.26429000  0.77698300  0.82496300  1
  O  O66  1  0.73571000  0.72301700  0.32496300  1
  O  O67  1  0.73571000  0.27698300  0.67503700  1
  O  O68  1  0.73571000  0.77698300  0.82496300  1
  O  O69  1  0.73571000  0.22301700  0.17503700  1
  O  O70  1  0.26429000  0.27698300  0.67503700  1
  O  O71  1  0.26429000  0.72301700  0.32496300  1
  O  O72  1  0.23734100  0.19011100  0.35972700  1
  O  O73  1  0.23734100  0.80988900  0.64027300  1
  O  O74  1  0.76265900  0.69011100  0.14027300  1
  O  O75  1  0.50000000  0.45879700  0.16744800  1
