# generated using pymatgen
data_CaCoP2O7
_symmetry_space_group_name_H-M   'P 1'
_cell_length_a   6.25114327
_cell_length_b   12.31105925
_cell_length_c   7.17073493
_cell_angle_alpha   82.98199675
_cell_angle_beta   89.30112883
_cell_angle_gamma   96.09511545
_symmetry_Int_Tables_number   1
_chemical_formula_structural   CaCoP2O7
_chemical_formula_sum   'Ca4 Co4 P8 O28'
_cell_volume   544.43889797
_cell_formula_units_Z   4
loop_
 _symmetry_equiv_pos_site_id
 _symmetry_equiv_pos_as_xyz
  1  'x, y, z'
loop_
 _atom_site_type_symbol
 _atom_site_label
 _atom_site_symmetry_multiplicity
 _atom_site_fract_x
 _atom_site_fract_y
 _atom_site_fract_z
 _atom_site_occupancy
  Ca  Ca0  1  0.65954100  0.35830500  0.63541300  1
  Ca  Ca1  1  0.15968300  0.85841800  0.63509800  1
  Ca  Ca2  1  0.84047100  0.14168700  0.36459300  1
  Ca  Ca3  1  0.34030800  0.64158900  0.36490000  1
  Co  Co4  1  0.81677500  0.56740800  0.19438900  1
  Co  Co5  1  0.68321900  0.93259200  0.80561800  1
  Co  Co6  1  0.31718200  0.06739700  0.19430600  1
  Co  Co7  1  0.18282600  0.43260500  0.80568900  1
  P  P8  1  0.49551500  0.33029500  0.12178100  1
  P  P9  1  0.99560000  0.83023400  0.12206800  1
  P  P10  1  0.00449400  0.16970600  0.87821200  1
  P  P11  1  0.50439400  0.66976600  0.87794200  1
  P  P12  1  0.35126100  0.10928900  0.62150300  1
  P  P13  1  0.85141600  0.60930100  0.62175800  1
  P  P14  1  0.14874400  0.39071000  0.37849300  1
  P  P15  1  0.64857800  0.89070000  0.37824300  1
  O  O16  1  0.44798300  0.37016700  0.91527000  1
  O  O17  1  0.94874900  0.87015900  0.91544600  1
  O  O18  1  0.05202500  0.12982900  0.08472100  1
  O  O19  1  0.55124400  0.62984400  0.08456500  1
  O  O20  1  0.65555100  0.40822100  0.21170600  1
  O  O21  1  0.15514000  0.90813900  0.21266400  1
  O  O22  1  0.84445900  0.09178100  0.78828000  1
  O  O23  1  0.34484900  0.59186000  0.78735200  1
  O  O24  1  0.54490000  0.20976900  0.14584500  1
  O  O25  1  0.04487300  0.70968900  0.14631100  1
  O  O26  1  0.95510500  0.29023100  0.85415400  1
  O  O27  1  0.45512400  0.79031100  0.85369200  1
  O  O28  1  0.95369900  0.31268400  0.45219300  1
  O  O29  1  0.45348200  0.81273400  0.45185000  1
  O  O30  1  0.54630600  0.18731200  0.54779700  1
  O  O31  1  0.04651200  0.68727000  0.54815700  1
  O  O32  1  0.19222100  0.08039200  0.46679000  1
  O  O33  1  0.69252100  0.58038200  0.46692500  1
  O  O34  1  0.30778200  0.41960100  0.53321200  1
  O  O35  1  0.80747100  0.91962500  0.53307400  1
  O  O36  1  0.23624600  0.17476000  0.76649300  1
  O  O37  1  0.73651800  0.67478900  0.76678700  1
  O  O38  1  0.26376000  0.32524500  0.23349600  1
  O  O39  1  0.76347500  0.82520500  0.23322400  1
  O  O40  1  0.59446300  0.99953400  0.26820100  1
  O  O41  1  0.09433800  0.49949600  0.26863700  1
  O  O42  1  0.90553700  0.50046400  0.73178600  1
  O  O43  1  0.40566300  0.00050500  0.73137200  1
