# generated using pymatgen
data_Tm4Mo4O11
_symmetry_space_group_name_H-M   'P 1'
_cell_length_a   5.68532000
_cell_length_b   10.69336000
_cell_length_c   15.87272800
_cell_angle_alpha   90.00000000
_cell_angle_beta   90.00000000
_cell_angle_gamma   90.00000000
_symmetry_Int_Tables_number   1
_chemical_formula_structural   Tm4Mo4O11
_chemical_formula_sum   'Tm16 Mo16 O44'
_cell_volume   964.98525228
_cell_formula_units_Z   4
loop_
 _symmetry_equiv_pos_site_id
 _symmetry_equiv_pos_as_xyz
  1  'x, y, z'
loop_
 _atom_site_type_symbol
 _atom_site_label
 _atom_site_symmetry_multiplicity
 _atom_site_fract_x
 _atom_site_fract_y
 _atom_site_fract_z
 _atom_site_occupancy
  Tm  Tm0  1  0.00000000  0.61409200  0.57715900  1
  Tm  Tm1  1  0.00000000  0.38590800  0.42284100  1
  Tm  Tm2  1  0.00000000  0.11409200  0.92284100  1
  Tm  Tm3  1  0.00000000  0.88590800  0.07715900  1
  Tm  Tm4  1  0.00000000  0.40399200  0.73591400  1
  Tm  Tm5  1  0.00000000  0.59600800  0.26408600  1
  Tm  Tm6  1  0.00000000  0.90399200  0.76408600  1
  Tm  Tm7  1  0.00000000  0.09600800  0.23591400  1
  Tm  Tm8  1  0.50000000  0.42463300  0.59892800  1
  Tm  Tm9  1  0.50000000  0.57536700  0.40107300  1
  Tm  Tm10  1  0.50000000  0.92463300  0.90107200  1
  Tm  Tm11  1  0.50000000  0.07536700  0.09892800  1
  Tm  Tm12  1  0.50000000  0.18437800  0.77693000  1
  Tm  Tm13  1  0.50000000  0.81562200  0.22307000  1
  Tm  Tm14  1  0.50000000  0.68437800  0.72307000  1
  Tm  Tm15  1  0.50000000  0.31562200  0.27693000  1
  Mo  Mo16  1  0.00000000  0.91567700  0.56118300  1
  Mo  Mo17  1  0.00000000  0.08432300  0.43881700  1
  Mo  Mo18  1  0.00000000  0.41567700  0.93881700  1
  Mo  Mo19  1  0.00000000  0.58432300  0.06118300  1
  Mo  Mo20  1  0.50000000  0.90350200  0.57153500  1
  Mo  Mo21  1  0.50000000  0.09649800  0.42846500  1
  Mo  Mo22  1  0.50000000  0.40350200  0.92846500  1
  Mo  Mo23  1  0.50000000  0.59649800  0.07153500  1
  Mo  Mo24  1  0.27452100  0.86313300  0.41386800  1
  Mo  Mo25  1  0.27452100  0.13686700  0.58613200  1
  Mo  Mo26  1  0.72547900  0.36313300  0.08613200  1
  Mo  Mo27  1  0.72547900  0.63686700  0.91386800  1
  Mo  Mo28  1  0.72547900  0.13686700  0.58613200  1
  Mo  Mo29  1  0.72547900  0.86313300  0.41386800  1
  Mo  Mo30  1  0.27452100  0.63686700  0.91386800  1
  Mo  Mo31  1  0.27452100  0.36313300  0.08613200  1
  O  O32  1  0.24575100  0.00000000  0.00000000  1
  O  O33  1  0.75424900  0.50000000  0.50000000  1
  O  O34  1  0.75424900  0.00000000  0.00000000  1
  O  O35  1  0.24575100  0.50000000  0.50000000  1
  O  O36  1  0.00000000  0.23437100  0.52237100  1
  O  O37  1  0.00000000  0.76562900  0.47762900  1
  O  O38  1  0.00000000  0.73437100  0.97762900  1
  O  O39  1  0.00000000  0.26562900  0.02237100  1
  O  O40  1  0.00000000  0.04782200  0.65588300  1
  O  O41  1  0.00000000  0.95217800  0.34411700  1
  O  O42  1  0.00000000  0.54782200  0.84411700  1
  O  O43  1  0.00000000  0.45217800  0.15588300  1
  O  O44  1  0.50000000  0.24975200  0.51352300  1
  O  O45  1  0.50000000  0.75024800  0.48647700  1
  O  O46  1  0.50000000  0.74975200  0.98647700  1
  O  O47  1  0.50000000  0.25024800  0.01352300  1
  O  O48  1  0.50000000  0.04145500  0.66801300  1
  O  O49  1  0.50000000  0.95854500  0.33198700  1
  O  O50  1  0.76248500  0.30914300  0.85914900  1
  O  O51  1  0.50000000  0.54145500  0.83198700  1
  O  O52  1  0.24755100  0.95965700  0.17212500  1
  O  O53  1  0.24755100  0.04034300  0.82787500  1
  O  O54  1  0.75244900  0.45965700  0.32787500  1
  O  O55  1  0.75244900  0.54034300  0.67212500  1
  O  O56  1  0.75244900  0.04034300  0.82787500  1
  O  O57  1  0.75244900  0.95965700  0.17212500  1
  O  O58  1  0.24755100  0.54034300  0.67212500  1
  O  O59  1  0.24755100  0.45965700  0.32787500  1
  O  O60  1  0.23751500  0.69085700  0.14085100  1
  O  O61  1  0.23751500  0.30914300  0.85914900  1
  O  O62  1  0.76248500  0.19085700  0.35914900  1
  O  O63  1  0.76248500  0.80914300  0.64085100  1
  O  O64  1  0.26465200  0.22199500  0.17545000  1
  O  O65  1  0.26465200  0.77800500  0.82455000  1
  O  O66  1  0.73534800  0.72199500  0.32455000  1
  O  O67  1  0.73534800  0.27800500  0.67545000  1
  O  O68  1  0.73534800  0.77800500  0.82455000  1
  O  O69  1  0.73534800  0.22199500  0.17545000  1
  O  O70  1  0.26465200  0.27800500  0.67545000  1
  O  O71  1  0.26465200  0.72199500  0.32455000  1
  O  O72  1  0.23751500  0.19085700  0.35914900  1
  O  O73  1  0.23751500  0.80914300  0.64085100  1
  O  O74  1  0.76248500  0.69085700  0.14085100  1
  O  O75  1  0.50000000  0.45854500  0.16801300  1
