# generated using pymatgen
data_Li3Co2(CO3)4
_symmetry_space_group_name_H-M   'P 1'
_cell_length_a   5.41552152
_cell_length_b   6.34721315
_cell_length_c   16.16216876
_cell_angle_alpha   88.13544715
_cell_angle_beta   91.63464193
_cell_angle_gamma   114.81279541
_symmetry_Int_Tables_number   1
_chemical_formula_structural   Li3Co2(CO3)4
_chemical_formula_sum   'Li6 Co4 C8 O24'
_cell_volume   503.92884329
_cell_formula_units_Z   2
loop_
 _symmetry_equiv_pos_site_id
 _symmetry_equiv_pos_as_xyz
  1  'x, y, z'
loop_
 _atom_site_type_symbol
 _atom_site_label
 _atom_site_symmetry_multiplicity
 _atom_site_fract_x
 _atom_site_fract_y
 _atom_site_fract_z
 _atom_site_occupancy
  Li  Li0  1  0.62630900  0.95304600  0.15537600  1
  Li  Li1  1  0.13448600  0.95756100  0.65845500  1
  Li  Li2  1  0.17460000  0.05154500  0.33739900  1
  Li  Li3  1  0.67787800  0.05006900  0.83759600  1
  Li  Li4  1  0.16856500  0.52781200  0.42153700  1
  Li  Li5  1  0.66442600  0.52126600  0.92936700  1
  Co  Co6  1  0.63610300  0.00287100  0.50108300  1
  Co  Co7  1  0.12513600  0.51604900  0.73928500  1
  Co  Co8  1  0.13488800  0.99396500  0.00073400  1
  Co  Co9  1  0.58552800  0.50702700  0.24677200  1
  C  C10  1  0.77583100  0.61113300  0.10683400  1
  C  C11  1  0.28209500  0.61149900  0.60268400  1
  C  C12  1  0.22736000  0.12487500  0.14847700  1
  C  C13  1  0.74176700  0.12345200  0.64962600  1
  C  C14  1  0.61075100  0.88454500  0.34851200  1
  C  C15  1  0.11365000  0.87341600  0.84876200  1
  C  C16  1  0.66153700  0.39704100  0.39412800  1
  C  C17  1  0.13760900  0.38331100  0.89738700  1
  O  O18  1  0.87337200  0.65827500  0.03385800  1
  O  O19  1  0.36413700  0.66148000  0.52864900  1
  O  O20  1  0.54736700  0.61898600  0.12559300  1
  O  O21  1  0.05094200  0.60820300  0.62709000  1
  O  O22  1  0.99401100  0.08653600  0.11761500  1
  O  O23  1  0.50329200  0.08148600  0.62119500  1
  O  O24  1  0.39751900  0.08475500  0.10386400  1
  O  O25  1  0.90629400  0.08489600  0.60121000  1
  O  O26  1  0.29653900  0.19952500  0.22488700  1
  O  O27  1  0.82210400  0.19845300  0.72480600  1
  O  O28  1  0.89571000  0.55441700  0.16868100  1
  O  O29  1  0.41571300  0.56227400  0.66250200  1
  O  O30  1  0.61094900  0.81926300  0.27253300  1
  O  O31  1  0.12055500  0.81521800  0.77221900  1
  O  O32  1  0.42029800  0.38687300  0.37496400  1
  O  O33  1  0.89361200  0.36464800  0.88937500  1
  O  O34  1  0.82589400  0.94565600  0.39520600  1
  O  O35  1  0.32542600  0.93131100  0.89699000  1
  O  O36  1  0.84040100  0.47217400  0.33498300  1
  O  O37  1  0.30001600  0.45575300  0.83283400  1
  O  O38  1  0.39456300  0.88819100  0.37921300  1
  O  O39  1  0.89543300  0.87672000  0.87858100  1
  O  O40  1  0.73064200  0.33870000  0.46422400  1
  O  O41  1  0.24553600  0.33462400  0.96272900  1
