# generated using pymatgen
data_Ca3CoO6
_symmetry_space_group_name_H-M   'P 1'
_cell_length_a   6.34532399
_cell_length_b   9.13322730
_cell_length_c   8.93089424
_cell_angle_alpha   90.06271929
_cell_angle_beta   89.99477568
_cell_angle_gamma   85.72597063
_symmetry_Int_Tables_number   1
_chemical_formula_structural   Ca3CoO6
_chemical_formula_sum   'Ca12 Co4 O24'
_cell_volume   516.13498677
_cell_formula_units_Z   4
loop_
 _symmetry_equiv_pos_site_id
 _symmetry_equiv_pos_as_xyz
  1  'x, y, z'
loop_
 _atom_site_type_symbol
 _atom_site_label
 _atom_site_symmetry_multiplicity
 _atom_site_fract_x
 _atom_site_fract_y
 _atom_site_fract_z
 _atom_site_occupancy
  Ca  Ca0  1  0.09832900  0.56946600  0.82584900  1
  Ca  Ca1  1  0.09779000  0.06948100  0.32649300  1
  Ca  Ca2  1  0.75116600  0.25003600  0.85215200  1
  Ca  Ca3  1  0.74881100  0.74970300  0.35189400  1
  Ca  Ca4  1  0.59871200  0.56904500  0.67426100  1
  Ca  Ca5  1  0.59787700  0.06957900  0.17393500  1
  Ca  Ca6  1  0.90167600  0.43052600  0.17414900  1
  Ca  Ca7  1  0.90221700  0.93052300  0.67351100  1
  Ca  Ca8  1  0.24883500  0.74996300  0.14784300  1
  Ca  Ca9  1  0.25118800  0.25029400  0.64810900  1
  Ca  Ca10  1  0.40128400  0.43095000  0.32574100  1
  Ca  Ca11  1  0.40212000  0.93043100  0.82606100  1
  Co  Co12  1  0.99999900  0.50000100  0.49999600  1
  Co  Co13  1  0.50000200  0.00000000  0.49999600  1
  Co  Co14  1  0.99999800  0.99999800  0.00000400  1
  Co  Co15  1  0.50000200  0.50000300  0.00000200  1
  O  O16  1  0.77640200  0.50064300  0.92710700  1
  O  O17  1  0.77608800  0.00065400  0.42610600  1
  O  O18  1  0.72455600  0.49812800  0.42661300  1
  O  O19  1  0.72377100  0.99940200  0.92637700  1
  O  O20  1  0.57332900  0.60181400  0.16726300  1
  O  O21  1  0.57477000  0.10124300  0.66722400  1
  O  O22  1  0.57355200  0.31894000  0.10144100  1
  O  O23  1  0.57390100  0.81845200  0.60016500  1
  O  O24  1  0.92634200  0.18131300  0.10092200  1
  O  O25  1  0.92425200  0.68071800  0.60179000  1
  O  O26  1  0.42667800  0.39819100  0.83273900  1
  O  O27  1  0.42523100  0.89875800  0.33277300  1
  O  O28  1  0.42644600  0.68106100  0.89856500  1
  O  O29  1  0.42610200  0.18154600  0.39983000  1
  O  O30  1  0.92698200  0.39759200  0.66748400  1
  O  O31  1  0.92528300  0.89866000  0.16685200  1
  O  O32  1  0.07302000  0.60240700  0.33251300  1
  O  O33  1  0.07471000  0.10133700  0.83315300  1
  O  O34  1  0.27544300  0.50186700  0.57338100  1
  O  O35  1  0.27622300  0.00060100  0.07363000  1
  O  O36  1  0.07365600  0.81868700  0.89908500  1
  O  O37  1  0.07574200  0.31928300  0.39820600  1
  O  O38  1  0.22360400  0.49935500  0.07289800  1
  O  O39  1  0.22391300  0.99935000  0.57388800  1
