# generated using pymatgen
data_Dy4Mo4O11
_symmetry_space_group_name_H-M   'P 1'
_cell_length_a   10.86679500
_cell_length_b   16.12480800
_cell_length_c   5.75625800
_cell_angle_alpha   90.00000000
_cell_angle_beta   90.00000000
_cell_angle_gamma   90.00000000
_symmetry_Int_Tables_number   1
_chemical_formula_structural   Dy4Mo4O11
_chemical_formula_sum   'Dy16 Mo16 O44'
_cell_volume   1008.64020991
_cell_formula_units_Z   4
loop_
 _symmetry_equiv_pos_site_id
 _symmetry_equiv_pos_as_xyz
  1  'x, y, z'
loop_
 _atom_site_type_symbol
 _atom_site_label
 _atom_site_symmetry_multiplicity
 _atom_site_fract_x
 _atom_site_fract_y
 _atom_site_fract_z
 _atom_site_occupancy
  Dy  Dy0  1  0.61637400  0.57629800  0.00000000  1
  Dy  Dy1  1  0.38362600  0.42370200  0.00000000  1
  Dy  Dy2  1  0.11637400  0.92370200  0.00000000  1
  Dy  Dy3  1  0.88362600  0.07629800  0.00000000  1
  Dy  Dy4  1  0.40615500  0.73729800  0.00000000  1
  Dy  Dy5  1  0.59384500  0.26270200  0.00000000  1
  Dy  Dy6  1  0.90615500  0.76270200  0.00000000  1
  Dy  Dy7  1  0.09384500  0.23729800  0.00000000  1
  Dy  Dy8  1  0.42455200  0.59882500  0.50000000  1
  Dy  Dy9  1  0.57544800  0.40117500  0.50000000  1
  Dy  Dy10  1  0.92455200  0.90117500  0.50000000  1
  Dy  Dy11  1  0.07544800  0.09882500  0.50000000  1
  Dy  Dy12  1  0.18524800  0.77805900  0.50000000  1
  Dy  Dy13  1  0.81475200  0.22194100  0.50000000  1
  Dy  Dy14  1  0.68524800  0.72194100  0.50000000  1
  Dy  Dy15  1  0.31475200  0.27805900  0.50000000  1
  Mo  Mo16  1  0.91707200  0.55999000  0.00000000  1
  Mo  Mo17  1  0.08292800  0.44001000  0.00000000  1
  Mo  Mo18  1  0.41707200  0.94001000  0.00000000  1
  Mo  Mo19  1  0.58292800  0.05999000  0.00000000  1
  Mo  Mo20  1  0.90257100  0.57177700  0.50000000  1
  Mo  Mo21  1  0.09742900  0.42822300  0.50000000  1
  Mo  Mo22  1  0.40257100  0.92822300  0.50000000  1
  Mo  Mo23  1  0.59742900  0.07177700  0.50000000  1
  Mo  Mo24  1  0.85866100  0.41076900  0.27437100  1
  Mo  Mo25  1  0.14133900  0.58923100  0.27437100  1
  Mo  Mo26  1  0.35866100  0.08923100  0.72562900  1
  Mo  Mo27  1  0.64133900  0.91076900  0.72562900  1
  Mo  Mo28  1  0.14133900  0.58923100  0.72562900  1
  Mo  Mo29  1  0.85866100  0.41076900  0.72562900  1
  Mo  Mo30  1  0.64133900  0.91076900  0.27437100  1
  Mo  Mo31  1  0.35866100  0.08923100  0.27437100  1
  O  O32  1  0.00000000  0.00000000  0.24544700  1
  O  O33  1  0.50000000  0.50000000  0.75455300  1
  O  O34  1  0.00000000  0.00000000  0.75455300  1
  O  O35  1  0.50000000  0.50000000  0.24544700  1
  O  O36  1  0.23149000  0.52344400  0.00000000  1
  O  O37  1  0.76851000  0.47655600  0.00000000  1
  O  O38  1  0.73149000  0.97655600  0.00000000  1
  O  O39  1  0.26851000  0.02344400  0.00000000  1
  O  O40  1  0.04841700  0.65404500  0.00000000  1
  O  O41  1  0.95158300  0.34595500  0.00000000  1
  O  O42  1  0.54841700  0.84595500  0.00000000  1
  O  O43  1  0.45158300  0.15404500  0.00000000  1
  O  O44  1  0.24682700  0.51233500  0.50000000  1
  O  O45  1  0.75317300  0.48766500  0.50000000  1
  O  O46  1  0.74682700  0.98766500  0.50000000  1
  O  O47  1  0.25317300  0.01233500  0.50000000  1
  O  O48  1  0.03918600  0.66651400  0.50000000  1
  O  O49  1  0.96081400  0.33348600  0.50000000  1
  O  O50  1  0.31116300  0.86156600  0.76313500  1
  O  O51  1  0.46081400  0.16651400  0.50000000  1
  O  O52  1  0.95842400  0.17164200  0.24747800  1
  O  O53  1  0.04157600  0.82835800  0.24747800  1
  O  O54  1  0.45842400  0.32835800  0.75252200  1
  O  O55  1  0.54157600  0.67164200  0.75252200  1
  O  O56  1  0.04157600  0.82835800  0.75252200  1
  O  O57  1  0.95842400  0.17164200  0.75252200  1
  O  O58  1  0.54157600  0.67164200  0.24747800  1
  O  O59  1  0.45842400  0.32835800  0.24747800  1
  O  O60  1  0.68883700  0.13843400  0.23686500  1
  O  O61  1  0.31116300  0.86156600  0.23686500  1
  O  O62  1  0.18883700  0.36156600  0.76313500  1
  O  O63  1  0.81116300  0.63843400  0.76313500  1
  O  O64  1  0.22021100  0.17722300  0.26444900  1
  O  O65  1  0.77978900  0.82277700  0.26444900  1
  O  O66  1  0.72021100  0.32277700  0.73555100  1
  O  O67  1  0.27978900  0.67722300  0.73555100  1
  O  O68  1  0.77978900  0.82277700  0.73555100  1
  O  O69  1  0.22021100  0.17722300  0.73555100  1
  O  O70  1  0.27978900  0.67722300  0.26444900  1
  O  O71  1  0.72021100  0.32277700  0.26444900  1
  O  O72  1  0.18883700  0.36156600  0.23686500  1
  O  O73  1  0.81116300  0.63843400  0.23686500  1
  O  O74  1  0.68883700  0.13843400  0.76313500  1
  O  O75  1  0.53918600  0.83348600  0.50000000  1
