# generated using pymatgen
data_Mn4Zn(CuO4)3
_symmetry_space_group_name_H-M   'P 1'
_cell_length_a   6.37330438
_cell_length_b   6.37330438
_cell_length_c   6.37330438
_cell_angle_alpha   109.47122063
_cell_angle_beta   109.47122063
_cell_angle_gamma   109.47122063
_symmetry_Int_Tables_number   1
_chemical_formula_structural   Mn4Zn(CuO4)3
_chemical_formula_sum   'Mn4 Zn1 Cu3 O12'
_cell_volume   199.28384331
_cell_formula_units_Z   1
loop_
 _symmetry_equiv_pos_site_id
 _symmetry_equiv_pos_as_xyz
  1  'x, y, z'
loop_
 _atom_site_type_symbol
 _atom_site_label
 _atom_site_symmetry_multiplicity
 _atom_site_fract_x
 _atom_site_fract_y
 _atom_site_fract_z
 _atom_site_occupancy
  Mn  Mn0  1  0.00000000  0.50000000  0.00000000  1
  Mn  Mn1  1  0.50000000  0.00000000  0.00000000  1
  Mn  Mn2  1  0.50000000  0.50000000  0.50000000  1
  Mn  Mn3  1  0.00000000  0.00000000  0.50000000  1
  Zn  Zn4  1  0.00000000  0.00000000  0.00000000  1
  Cu  Cu5  1  0.50000000  0.00000000  0.50000000  1
  Cu  Cu6  1  0.50000000  0.50000000  0.00000000  1
  Cu  Cu7  1  0.00000000  0.50000000  0.50000000  1
  O  O8  1  0.30874600  0.13892500  0.83017900  1
  O  O9  1  0.69125400  0.86107500  0.16982100  1
  O  O10  1  0.69125400  0.52143400  0.83017900  1
  O  O11  1  0.47856600  0.16982100  0.30874600  1
  O  O12  1  0.16982100  0.30874600  0.47856600  1
  O  O13  1  0.83017900  0.30874600  0.13892500  1
  O  O14  1  0.86107500  0.16982100  0.69125400  1
  O  O15  1  0.83017900  0.69125400  0.52143400  1
  O  O16  1  0.30874600  0.47856600  0.16982100  1
  O  O17  1  0.52143400  0.83017900  0.69125400  1
  O  O18  1  0.16982100  0.69125400  0.86107500  1
  O  O19  1  0.13892500  0.83017900  0.30874600  1
