# generated using pymatgen
data_Co2O3F
_symmetry_space_group_name_H-M   'P 1'
_cell_length_a   6.02687303
_cell_length_b   6.47015574
_cell_length_c   6.78716488
_cell_angle_alpha   90.00088154
_cell_angle_beta   63.62946284
_cell_angle_gamma   90.00207803
_symmetry_Int_Tables_number   1
_chemical_formula_structural   Co2O3F
_chemical_formula_sum   'Co8 O12 F4'
_cell_volume   237.12330523
_cell_formula_units_Z   4
loop_
 _symmetry_equiv_pos_site_id
 _symmetry_equiv_pos_as_xyz
  1  'x, y, z'
loop_
 _atom_site_type_symbol
 _atom_site_label
 _atom_site_symmetry_multiplicity
 _atom_site_fract_x
 _atom_site_fract_y
 _atom_site_fract_z
 _atom_site_occupancy
  Co  Co0  1  0.99994000  0.00006500  0.50012300  1
  Co  Co1  1  0.75033500  0.49997200  0.99931100  1
  Co  Co2  1  0.25033300  0.50001800  0.99932800  1
  Co  Co3  1  0.49993100  0.99993600  0.50012300  1
  Co  Co4  1  0.75031200  0.46477300  0.49933200  1
  Co  Co5  1  0.25032600  0.53522600  0.49930800  1
  Co  Co6  1  0.99991600  0.97438200  0.00019400  1
  Co  Co7  1  0.49992700  0.02560600  0.00019500  1
  O  O8  1  0.15341400  0.99997100  0.19311300  1
  O  O9  1  0.65339000  0.00002700  0.19312500  1
  O  O10  1  0.10518000  0.49997200  0.28978500  1
  O  O11  1  0.60518400  0.50002900  0.28979800  1
  O  O12  1  0.50019700  0.30558400  0.99962200  1
  O  O13  1  0.74756500  0.18720400  0.50477300  1
  O  O14  1  0.00020100  0.69439100  0.99963800  1
  O  O15  1  0.24758400  0.81279800  0.50480000  1
  O  O16  1  0.34647800  0.00005400  0.80715700  1
  O  O17  1  0.84647200  0.99994900  0.80717700  1
  O  O18  1  0.39508400  0.50006600  0.70965300  1
  O  O19  1  0.89508100  0.49993600  0.70964900  1
  F  F20  1  0.99966900  0.27813700  0.00066300  1
  F  F21  1  0.25187800  0.21294700  0.49624400  1
  F  F22  1  0.49966300  0.72189700  0.00066500  1
  F  F23  1  0.75193900  0.78706000  0.49622700  1
