# generated using pymatgen
data_CaLaCrMoO6
_symmetry_space_group_name_H-M   'P 1'
_cell_length_a   5.53765342
_cell_length_b   5.73901742
_cell_length_c   7.85196890
_cell_angle_alpha   89.95501000
_cell_angle_beta   90.17259486
_cell_angle_gamma   89.78610851
_symmetry_Int_Tables_number   1
_chemical_formula_structural   CaLaCrMoO6
_chemical_formula_sum   'Ca2 La2 Cr2 Mo2 O12'
_cell_volume   249.53803526
_cell_formula_units_Z   2
loop_
 _symmetry_equiv_pos_site_id
 _symmetry_equiv_pos_as_xyz
  1  'x, y, z'
loop_
 _atom_site_type_symbol
 _atom_site_label
 _atom_site_symmetry_multiplicity
 _atom_site_fract_x
 _atom_site_fract_y
 _atom_site_fract_z
 _atom_site_occupancy
  Ca  Ca0  1  0.48613600  0.45206700  0.75072500  1
  Ca  Ca1  1  0.98488600  0.04839800  0.25072900  1
  La  La2  1  0.01377200  0.95817700  0.75011900  1
  La  La3  1  0.51263100  0.54139900  0.25019000  1
  Cr  Cr4  1  0.00034300  0.50052200  0.99888000  1
  Cr  Cr5  1  0.50064900  0.99926100  0.49923700  1
  Mo  Mo6  1  0.99993700  0.49785500  0.50052200  1
  Mo  Mo7  1  0.49958000  0.00215900  0.00090000  1
  O  O8  1  0.08755300  0.46819900  0.24924400  1
  O  O9  1  0.58830000  0.03261700  0.74953900  1
  O  O10  1  0.20805700  0.21505900  0.95321600  1
  O  O11  1  0.70749900  0.28404400  0.45288400  1
  O  O12  1  0.21122200  0.20166000  0.54595600  1
  O  O13  1  0.71229300  0.29850100  0.04577400  1
  O  O14  1  0.29191700  0.70135500  0.95255400  1
  O  O15  1  0.79354700  0.79846200  0.45271800  1
  O  O16  1  0.29595700  0.70874400  0.54893000  1
  O  O17  1  0.79544200  0.79244800  0.04807500  1
  O  O18  1  0.40501600  0.97025600  0.25013900  1
  O  O19  1  0.90525900  0.52881700  0.74966800  1
