# generated using pymatgen
data_Sr6Ti3FeO14
_symmetry_space_group_name_H-M   'P 1'
_cell_length_a   5.58104957
_cell_length_b   5.58109554
_cell_length_c   20.37150500
_cell_angle_alpha   90.00003644
_cell_angle_beta   89.99999602
_cell_angle_gamma   90.00050089
_symmetry_Int_Tables_number   1
_chemical_formula_structural   Sr6Ti3FeO14
_chemical_formula_sum   'Sr12 Ti6 Fe2 O28'
_cell_volume   634.53919280
_cell_formula_units_Z   2
loop_
 _symmetry_equiv_pos_site_id
 _symmetry_equiv_pos_as_xyz
  1  'x, y, z'
loop_
 _atom_site_type_symbol
 _atom_site_label
 _atom_site_symmetry_multiplicity
 _atom_site_fract_x
 _atom_site_fract_y
 _atom_site_fract_z
 _atom_site_occupancy
  Sr  Sr0  1  0.49999800  0.99999700  0.18630200  1
  Sr  Sr1  1  0.00000300  0.50000000  0.18628700  1
  Sr  Sr2  1  0.00000100  0.00000100  0.68237000  1
  Sr  Sr3  1  0.50000000  0.50000300  0.68236700  1
  Sr  Sr4  1  0.00000400  0.00000500  0.31938900  1
  Sr  Sr5  1  0.50000000  0.50000100  0.31938900  1
  Sr  Sr6  1  0.49999900  0.99999600  0.81512800  1
  Sr  Sr7  1  0.99999700  0.49999900  0.81512800  1
  Sr  Sr8  1  0.49999600  0.99999800  0.00076200  1
  Sr  Sr9  1  0.99999700  0.49999300  0.00076900  1
  Sr  Sr10  1  0.00000000  0.00000000  0.49626400  1
  Sr  Sr11  1  0.50000300  0.49999800  0.49626500  1
  Ti  Ti12  1  0.99999700  0.99999100  0.90219900  1
  Ti  Ti13  1  0.49999400  0.49999500  0.90219900  1
  Ti  Ti14  1  0.99999800  0.99999600  0.09944900  1
  Ti  Ti15  1  0.49999400  0.49999800  0.09944900  1
  Ti  Ti16  1  0.49999900  0.00000000  0.59595200  1
  Ti  Ti17  1  0.00000100  0.50000200  0.59591600  1
  Fe  Fe18  1  0.99999600  0.49999400  0.40246300  1
  Fe  Fe19  1  0.50001600  0.99997800  0.40249400  1
  O  O20  1  0.50000000  0.00000600  0.30770900  1
  O  O21  1  0.00000700  0.49999300  0.30766300  1
  O  O22  1  0.99999800  0.00000200  0.80530300  1
  O  O23  1  0.50000200  0.50000100  0.80530200  1
  O  O24  1  0.99999600  0.00000400  0.19563100  1
  O  O25  1  0.50000100  0.50000500  0.19563100  1
  O  O26  1  0.50000200  0.00000100  0.69209000  1
  O  O27  1  0.99999600  0.50000300  0.69208600  1
  O  O28  1  0.00000600  0.99999600  0.00057500  1
  O  O29  1  0.49999700  0.50000700  0.00057600  1
  O  O30  1  0.50000100  0.00000500  0.49785400  1
  O  O31  1  0.00000100  0.50000300  0.49787100  1
  O  O32  1  0.23717800  0.26284300  0.40423600  1
  O  O33  1  0.76282300  0.73715900  0.40423600  1
  O  O34  1  0.26278100  0.76280400  0.40423300  1
  O  O35  1  0.73721700  0.23720200  0.40423300  1
  O  O36  1  0.25001400  0.75001500  0.90340500  1
  O  O37  1  0.74998800  0.24998900  0.90340600  1
  O  O38  1  0.24999600  0.25000600  0.90340600  1
  O  O39  1  0.75000400  0.74999800  0.90340600  1
  O  O40  1  0.24999100  0.74999500  0.09787600  1
  O  O41  1  0.75001100  0.25001100  0.09787500  1
  O  O42  1  0.25001500  0.24998800  0.09787600  1
  O  O43  1  0.74998600  0.75001700  0.09787600  1
  O  O44  1  0.25032200  0.24967700  0.59477500  1
  O  O45  1  0.74967600  0.75032200  0.59477500  1
  O  O46  1  0.24970200  0.74970900  0.59477800  1
  O  O47  1  0.75029700  0.25029600  0.59477900  1
