# generated using pymatgen
data_YFe(WO4)2
_symmetry_space_group_name_H-M   'P 1'
_cell_length_a   5.23184132
_cell_length_b   5.85307739
_cell_length_c   10.04767936
_cell_angle_alpha   89.67946671
_cell_angle_beta   93.72360202
_cell_angle_gamma   91.10928325
_symmetry_Int_Tables_number   1
_chemical_formula_structural   YFe(WO4)2
_chemical_formula_sum   'Y2 Fe2 W4 O16'
_cell_volume   306.97379864
_cell_formula_units_Z   2
loop_
 _symmetry_equiv_pos_site_id
 _symmetry_equiv_pos_as_xyz
  1  'x, y, z'
loop_
 _atom_site_type_symbol
 _atom_site_label
 _atom_site_symmetry_multiplicity
 _atom_site_fract_x
 _atom_site_fract_y
 _atom_site_fract_z
 _atom_site_occupancy
  Y  Y0  1  0.25146500  0.67252400  0.25947100  1
  Y  Y1  1  0.74690300  0.32096000  0.74052200  1
  Fe  Fe2  1  0.25019200  0.68915600  0.73724500  1
  Fe  Fe3  1  0.74449000  0.31263500  0.26361400  1
  W  W4  1  0.25987200  0.16498200  0.49577300  1
  W  W5  1  0.74673000  0.83673900  0.50441800  1
  W  W6  1  0.24854800  0.16789900  0.00541000  1
  W  W7  1  0.74590200  0.83114400  0.99476600  1
  O  O8  1  0.40466000  0.36281500  0.12876700  1
  O  O9  1  0.58907000  0.63926100  0.86864300  1
  O  O10  1  0.10108900  0.36320800  0.35699700  1
  O  O11  1  0.90407600  0.63281400  0.64348200  1
  O  O12  1  0.45615000  0.91429400  0.61618900  1
  O  O13  1  0.55751800  0.09245700  0.38538200  1
  O  O14  1  0.04325300  0.90220700  0.89407400  1
  O  O15  1  0.94918200  0.09683700  0.10596300  1
  O  O16  1  0.88003800  0.62438800  0.11748400  1
  O  O17  1  0.11201200  0.37275300  0.88312300  1
  O  O18  1  0.62523900  0.61732600  0.37734600  1
  O  O19  1  0.38053300  0.38728200  0.62061700  1
  O  O20  1  0.44079400  0.88741700  0.09719500  1
  O  O21  1  0.55342900  0.11096400  0.90282700  1
  O  O22  1  0.07844200  0.88621500  0.40516400  1
  O  O23  1  0.93041200  0.11372200  0.59552600  1
