# generated using pymatgen
data_LaMgTaFeO6
_symmetry_space_group_name_H-M   'P 1'
_cell_length_a   5.45434584
_cell_length_b   8.03279614
_cell_length_c   5.61878115
_cell_angle_alpha   89.97350794
_cell_angle_beta   90.00370248
_cell_angle_gamma   90.28217489
_symmetry_Int_Tables_number   1
_chemical_formula_structural   LaMgTaFeO6
_chemical_formula_sum   'La2 Mg2 Ta2 Fe2 O12'
_cell_volume   246.17628824
_cell_formula_units_Z   2
loop_
 _symmetry_equiv_pos_site_id
 _symmetry_equiv_pos_as_xyz
  1  'x, y, z'
loop_
 _atom_site_type_symbol
 _atom_site_label
 _atom_site_symmetry_multiplicity
 _atom_site_fract_x
 _atom_site_fract_y
 _atom_site_fract_z
 _atom_site_occupancy
  La  La0  1  0.99217200  0.24985600  0.04894100  1
  La  La1  1  0.49205600  0.74977200  0.45132900  1
  Mg  Mg2  1  0.52592400  0.25695200  0.55377200  1
  Mg  Mg3  1  0.02582500  0.75713600  0.94645300  1
  Ta  Ta4  1  0.00265900  0.49809100  0.50970700  1
  Ta  Ta5  1  0.50279100  0.99814000  0.99026400  1
  Fe  Fe6  1  0.49900500  0.49911400  0.00438700  1
  Fe  Fe7  1  0.99882100  0.99891600  0.49552500  1
  O  O8  1  0.64729300  0.76933100  0.03518200  1
  O  O9  1  0.14675100  0.26916500  0.46518700  1
  O  O10  1  0.19460400  0.93862500  0.18364000  1
  O  O11  1  0.69433100  0.43881800  0.31628200  1
  O  O12  1  0.16421600  0.57087700  0.20346100  1
  O  O13  1  0.66439700  0.07097600  0.29635600  1
  O  O14  1  0.90205100  0.73434600  0.56661900  1
  O  O15  1  0.40169400  0.23417200  0.93293800  1
  O  O16  1  0.28185100  0.55724200  0.71631400  1
  O  O17  1  0.78203000  0.05770000  0.78373200  1
  O  O18  1  0.29095200  0.92529200  0.72481000  1
  O  O19  1  0.79057300  0.42548400  0.77510000  1
