# generated using pymatgen
data_Li7Mn4CoO12
_symmetry_space_group_name_H-M   'P 1'
_cell_length_a   2.93079825
_cell_length_b   5.94742996
_cell_length_c   24.69772499
_cell_angle_alpha   89.68227041
_cell_angle_beta   89.56261536
_cell_angle_gamma   91.75167112
_symmetry_Int_Tables_number   1
_chemical_formula_structural   Li7Mn4CoO12
_chemical_formula_sum   'Li14 Mn8 Co2 O24'
_cell_volume   430.27816114
_cell_formula_units_Z   2
loop_
 _symmetry_equiv_pos_site_id
 _symmetry_equiv_pos_as_xyz
  1  'x, y, z'
loop_
 _atom_site_type_symbol
 _atom_site_label
 _atom_site_symmetry_multiplicity
 _atom_site_fract_x
 _atom_site_fract_y
 _atom_site_fract_z
 _atom_site_occupancy
  Li  Li0  1  0.50056300  0.24850900  0.41640200  1
  Li  Li1  1  0.49945500  0.75145100  0.91693600  1
  Li  Li2  1  0.00003100  0.99999100  0.16665200  1
  Li  Li3  1  0.00000500  0.50002700  0.66668400  1
  Li  Li4  1  0.50139800  0.75151900  0.41657300  1
  Li  Li5  1  0.49862900  0.24849000  0.91676600  1
  Li  Li6  1  0.00639100  0.98924000  0.49285500  1
  Li  Li7  1  0.00649300  0.48857500  0.99111700  1
  Li  Li8  1  0.99352700  0.51140800  0.34223200  1
  Li  Li9  1  0.99360000  0.01074100  0.84048200  1
  Li  Li10  1  0.50052300  0.25072400  0.08375000  1
  Li  Li11  1  0.50144600  0.75201100  0.58356400  1
  Li  Li12  1  0.49949900  0.74926600  0.24956600  1
  Li  Li13  1  0.49857300  0.24799100  0.74981300  1
  Mn  Mn14  1  0.98605800  0.00508800  0.99654700  1
  Mn  Mn15  1  0.01395600  0.99490000  0.33679200  1
  Mn  Mn16  1  0.49890000  0.24873600  0.58278900  1
  Mn  Mn17  1  0.50100500  0.75130100  0.75056000  1
  Mn  Mn18  1  0.99458200  0.50637500  0.49579300  1
  Mn  Mn19  1  0.00550400  0.49359900  0.83755200  1
  Mn  Mn20  1  0.49743600  0.74558400  0.08375200  1
  Mn  Mn21  1  0.50259800  0.25443900  0.24956700  1
  Co  Co22  1  0.00001200  0.49998800  0.16665400  1
  Co  Co23  1  0.99990800  0.99996300  0.66667000  1
  O  O24  1  0.49961300  0.22029100  0.00011900  1
  O  O25  1  0.50726800  0.71970600  0.49982600  1
  O  O26  1  0.50042400  0.77968700  0.33321300  1
  O  O27  1  0.49277400  0.28028400  0.83352500  1
  O  O28  1  0.95648600  0.98661400  0.07991500  1
  O  O29  1  0.98293800  0.48533000  0.57878200  1
  O  O30  1  0.04352400  0.01340200  0.25342300  1
  O  O31  1  0.01709800  0.51469500  0.75454400  1
  O  O32  1  0.00295800  0.00116300  0.41027600  1
  O  O33  1  0.99996800  0.50193900  0.91065300  1
  O  O34  1  0.00005800  0.49806700  0.42269200  1
  O  O35  1  0.99707700  0.99881300  0.92306200  1
  O  O36  1  0.52295400  0.22399300  0.33188700  1
  O  O37  1  0.51331400  0.72143300  0.83162500  1
  O  O38  1  0.47708600  0.77600500  0.00144900  1
  O  O39  1  0.48670900  0.27857400  0.50171800  1
  O  O40  1  0.96199600  0.49305800  0.24597300  1
  O  O41  1  0.98289900  0.98163100  0.75346800  1
  O  O42  1  0.03804600  0.50693600  0.08734000  1
  O  O43  1  0.01677700  0.01844500  0.57983700  1
  O  O44  1  0.51453700  0.72202200  0.16488000  1
  O  O45  1  0.50420400  0.24451400  0.66077600  1
  O  O46  1  0.48547400  0.27795400  0.16843600  1
  O  O47  1  0.49572800  0.75552300  0.67251400  1
