# generated using pymatgen
data_Ba2SrUO6
_symmetry_space_group_name_H-M   'P 1'
_cell_length_a   6.27733251
_cell_length_b   6.27733251
_cell_length_c   6.27733272
_cell_angle_alpha   61.23889599
_cell_angle_beta   61.23889599
_cell_angle_gamma   61.23889496
_symmetry_Int_Tables_number   1
_chemical_formula_structural   Ba2SrUO6
_chemical_formula_sum   'Ba2 Sr1 U1 O6'
_cell_volume   179.78133328
_cell_formula_units_Z   1
loop_
 _symmetry_equiv_pos_site_id
 _symmetry_equiv_pos_as_xyz
  1  'x, y, z'
loop_
 _atom_site_type_symbol
 _atom_site_label
 _atom_site_symmetry_multiplicity
 _atom_site_fract_x
 _atom_site_fract_y
 _atom_site_fract_z
 _atom_site_occupancy
  Ba  Ba0  1  0.74659500  0.74659500  0.74659500  1
  Ba  Ba1  1  0.25340500  0.25340500  0.25340500  1
  Sr  Sr2  1  0.00000000  0.00000000  0.00000000  1
  U  U3  1  0.50000000  0.50000000  0.50000000  1
  O  O4  1  0.72130900  0.34742800  0.19570700  1
  O  O5  1  0.19570700  0.72130900  0.34742800  1
  O  O6  1  0.34742800  0.19570700  0.72130900  1
  O  O7  1  0.27869100  0.65257200  0.80429300  1
  O  O8  1  0.80429300  0.27869100  0.65257200  1
  O  O9  1  0.65257200  0.80429300  0.27869100  1
