# generated using pymatgen
data_Li4CrTe(WO6)2
_symmetry_space_group_name_H-M   'P 1'
_cell_length_a   5.18456961
_cell_length_b   15.15470599
_cell_length_c   5.49498322
_cell_angle_alpha   85.49252906
_cell_angle_beta   89.97789200
_cell_angle_gamma   89.82239045
_symmetry_Int_Tables_number   1
_chemical_formula_structural   Li4CrTe(WO6)2
_chemical_formula_sum   'Li8 Cr2 Te2 W4 O24'
_cell_volume   430.40686635
_cell_formula_units_Z   2
loop_
 _symmetry_equiv_pos_site_id
 _symmetry_equiv_pos_as_xyz
  1  'x, y, z'
loop_
 _atom_site_type_symbol
 _atom_site_label
 _atom_site_symmetry_multiplicity
 _atom_site_fract_x
 _atom_site_fract_y
 _atom_site_fract_z
 _atom_site_occupancy
  Li  Li0  1  0.00820300  0.63488200  0.59841500  1
  Li  Li1  1  0.00414000  0.13173500  0.56965300  1
  Li  Li2  1  0.49331800  0.89741000  0.03463900  1
  Li  Li3  1  0.49811400  0.40567100  0.06588500  1
  Li  Li4  1  0.99616400  0.40416800  0.58151700  1
  Li  Li5  1  0.99226500  0.90204300  0.60124100  1
  Li  Li6  1  0.50564600  0.09897500  0.93177400  1
  Li  Li7  1  0.50367800  0.61691300  0.00277400  1
  Cr  Cr8  1  0.00536800  0.99966300  0.01049800  1
  Cr  Cr9  1  0.00006900  0.50015300  0.00176000  1
  Te  Te10  1  0.50458500  0.75335600  0.51845100  1
  Te  Te11  1  0.49650400  0.25192300  0.50218700  1
  W  W12  1  0.99494500  0.25004100  0.00744700  1
  W  W13  1  0.99185400  0.75005000  0.01498600  1
  W  W14  1  0.49788500  0.00036200  0.49710000  1
  W  W15  1  0.51162300  0.50269500  0.49775100  1
  O  O16  1  0.31191000  0.71244200  0.81890700  1
  O  O17  1  0.29978100  0.21446000  0.80002400  1
  O  O18  1  0.12450300  0.87105900  0.99035400  1
  O  O19  1  0.11601800  0.36682800  0.98918500  1
  O  O20  1  0.32305700  0.03001400  0.19695000  1
  O  O21  1  0.31922300  0.52037000  0.19306700  1
  O  O22  1  0.13935000  0.70887900  0.30602600  1
  O  O23  1  0.19005500  0.21575900  0.31008600  1
  O  O24  1  0.80305300  0.97341700  0.32119800  1
  O  O25  1  0.79548900  0.46388000  0.30338900  1
  O  O26  1  0.36228500  0.88420900  0.51037700  1
  O  O27  1  0.36721000  0.36933200  0.48783300  1
  O  O28  1  0.62645600  0.13240800  0.51012500  1
  O  O29  1  0.63855900  0.61794500  0.49355900  1
  O  O30  1  0.20845200  0.03298200  0.69791600  1
  O  O31  1  0.20309100  0.52119200  0.68293500  1
  O  O32  1  0.80666600  0.28182200  0.68978800  1
  O  O33  1  0.83467200  0.78220600  0.66807200  1
  O  O34  1  0.69650300  0.97872000  0.80054100  1
  O  O35  1  0.69617900  0.46443200  0.79146600  1
  O  O36  1  0.88809700  0.13065400  0.99760100  1
  O  O37  1  0.87894500  0.62786100  0.96253600  1
  O  O38  1  0.68599100  0.28213000  0.19168900  1
  O  O39  1  0.68010400  0.78816200  0.13510100  1
