# generated using pymatgen
data_Li7Mn4CoO12
_symmetry_space_group_name_H-M   'P 1'
_cell_length_a   5.16615416
_cell_length_b   10.66903358
_cell_length_c   8.60998022
_cell_angle_alpha   66.20012970
_cell_angle_beta   89.99716401
_cell_angle_gamma   96.53237660
_symmetry_Int_Tables_number   1
_chemical_formula_structural   Li7Mn4CoO12
_chemical_formula_sum   'Li14 Mn8 Co2 O24'
_cell_volume   430.83647405
_cell_formula_units_Z   2
loop_
 _symmetry_equiv_pos_site_id
 _symmetry_equiv_pos_as_xyz
  1  'x, y, z'
loop_
 _atom_site_type_symbol
 _atom_site_label
 _atom_site_symmetry_multiplicity
 _atom_site_fract_x
 _atom_site_fract_y
 _atom_site_fract_z
 _atom_site_occupancy
  Li  Li0  1  0.00017100  0.99998000  0.33331800  1
  Li  Li1  1  0.49983600  0.00001700  0.83330500  1
  Li  Li2  1  0.38422300  0.24451000  0.21106100  1
  Li  Li3  1  0.87558900  0.24540500  0.71062600  1
  Li  Li4  1  0.11576800  0.75549400  0.95563900  1
  Li  Li5  1  0.62441500  0.75459900  0.45603800  1
  Li  Li6  1  0.37749900  0.24861200  0.54730300  1
  Li  Li7  1  0.87010400  0.24838200  0.04719300  1
  Li  Li8  1  0.12249300  0.75137800  0.29590300  1
  Li  Li9  1  0.62986400  0.75163000  0.79560300  1
  Li  Li10  1  0.87013000  0.24836800  0.37107500  1
  Li  Li11  1  0.37750200  0.24861200  0.87077300  1
  Li  Li12  1  0.62989400  0.75162700  0.11948200  1
  Li  Li13  1  0.12250100  0.75138800  0.61940200  1
  Mn  Mn14  1  0.00004300  0.00019100  0.00115900  1
  Mn  Mn15  1  0.49996800  0.99980900  0.50135000  1
  Mn  Mn16  1  0.49996500  0.99981000  0.16549600  1
  Mn  Mn17  1  0.00004200  0.00018900  0.66529600  1
  Mn  Mn18  1  0.24996100  0.49992000  0.25243900  1
  Mn  Mn19  1  0.74996300  0.49998800  0.75175100  1
  Mn  Mn20  1  0.25003100  0.50007200  0.91423700  1
  Mn  Mn21  1  0.75003900  0.50001200  0.41492100  1
  Co  Co22  1  0.24999300  0.50000100  0.58333400  1
  Co  Co23  1  0.74998900  0.49999900  0.08334400  1
  O  O24  1  0.16392400  0.11141700  0.77760300  1
  O  O25  1  0.66433700  0.11129300  0.27767100  1
  O  O26  1  0.33606100  0.88858100  0.38905500  1
  O  O27  1  0.83565100  0.88870400  0.88899400  1
  O  O28  1  0.44321700  0.60791900  0.02941200  1
  O  O29  1  0.91436700  0.61800500  0.52433900  1
  O  O30  1  0.05677900  0.39207700  0.13728100  1
  O  O31  1  0.58562900  0.38199300  0.64233300  1
  O  O32  1  0.20733600  0.11048000  0.09982700  1
  O  O33  1  0.70727900  0.10997400  0.59995500  1
  O  O34  1  0.20734900  0.11048400  0.45632000  1
  O  O35  1  0.70726800  0.10997800  0.95669500  1
  O  O36  1  0.29267400  0.88952100  0.71031800  1
  O  O37  1  0.79274800  0.89003200  0.20994700  1
  O  O38  1  0.29268500  0.88953000  0.06680700  1
  O  O39  1  0.79275800  0.89002900  0.56667400  1
  O  O40  1  0.40738200  0.61628300  0.36120200  1
  O  O41  1  0.91133600  0.61729700  0.85978900  1
  O  O42  1  0.91138200  0.61728600  0.18955300  1
  O  O43  1  0.40738200  0.61631000  0.68919000  1
  O  O44  1  0.09260800  0.38368400  0.47748500  1
  O  O45  1  0.58861600  0.38271700  0.97713200  1
  O  O46  1  0.58864100  0.38269800  0.30689900  1
  O  O47  1  0.09260700  0.38371500  0.80546700  1
