# generated using pymatgen
data_ScCoO3
_symmetry_space_group_name_H-M   'P 1'
_cell_length_a   5.01145432
_cell_length_b   5.44605869
_cell_length_c   7.41955288
_cell_angle_alpha   90.00222741
_cell_angle_beta   88.92155958
_cell_angle_gamma   89.99745961
_symmetry_Int_Tables_number   1
_chemical_formula_structural   ScCoO3
_chemical_formula_sum   'Sc4 Co4 O12'
_cell_volume   202.46357062
_cell_formula_units_Z   4
loop_
 _symmetry_equiv_pos_site_id
 _symmetry_equiv_pos_as_xyz
  1  'x, y, z'
loop_
 _atom_site_type_symbol
 _atom_site_label
 _atom_site_symmetry_multiplicity
 _atom_site_fract_x
 _atom_site_fract_y
 _atom_site_fract_z
 _atom_site_occupancy
  Sc  Sc0  1  0.02899182  0.91556412  0.75225951  1
  Sc  Sc1  1  0.47101027  0.41556578  0.74772382  1
  Sc  Sc2  1  0.52898898  0.58443404  0.25227618  1
  Sc  Sc3  1  0.97100838  0.08443849  0.24773865  1
  Co  Co4  1  0.00000080  0.49999951  0.49999991  1
  Co  Co5  1  0.49999925  0.00000011  0.00000025  1
  Co  Co6  1  0.00000034  0.49999907  0.00000064  1
  Co  Co7  1  0.49999905  0.00000037  0.50000016  1
  O  O8  1  0.14273598  0.44409985  0.25917955  1
  O  O9  1  0.35725512  0.94409625  0.24082497  1
  O  O10  1  0.64274548  0.05590298  0.75917527  1
  O  O11  1  0.85726499  0.55590001  0.74082069  1
  O  O12  1  0.19395545  0.17881765  0.57125779  1
  O  O13  1  0.19225694  0.18088618  0.93038665  1
  O  O14  1  0.30602654  0.67881394  0.92875392  1
  O  O15  1  0.30775406  0.68089701  0.56961289  1
  O  O16  1  0.69224601  0.31910307  0.43038792  1
  O  O17  1  0.69397391  0.32118602  0.07124538  1
  O  O18  1  0.80774204  0.81911265  0.06961360  1
  O  O19  1  0.80604456  0.82118290  0.42874224  1
