# generated using pymatgen
data_Na2VBPO7
_symmetry_space_group_name_H-M   'P 1'
_cell_length_a   8.45577913
_cell_length_b   8.48243856
_cell_length_c   10.43063697
_cell_angle_alpha   107.41810464
_cell_angle_beta   107.49745757
_cell_angle_gamma   99.90607128
_symmetry_Int_Tables_number   1
_chemical_formula_structural   Na2VBPO7
_chemical_formula_sum   'Na8 V4 B4 P4 O28'
_cell_volume   651.97374295
_cell_formula_units_Z   4
loop_
 _symmetry_equiv_pos_site_id
 _symmetry_equiv_pos_as_xyz
  1  'x, y, z'
loop_
 _atom_site_type_symbol
 _atom_site_label
 _atom_site_symmetry_multiplicity
 _atom_site_fract_x
 _atom_site_fract_y
 _atom_site_fract_z
 _atom_site_occupancy
  Na  Na0  1  0.72008600  0.71906100  0.20523300  1
  Na  Na1  1  0.21998400  0.22224400  0.20794900  1
  Na  Na2  1  0.47170300  0.96891000  0.20699000  1
  Na  Na3  1  0.96926400  0.46853600  0.20358200  1
  Na  Na4  1  0.02423800  0.53107200  0.79434400  1
  Na  Na5  1  0.53258800  0.03408000  0.79825700  1
  Na  Na6  1  0.77900500  0.77370600  0.79192400  1
  Na  Na7  1  0.28241900  0.28173400  0.79775700  1
  V  V8  1  0.43696700  0.68650200  0.34419900  1
  V  V9  1  0.06729200  0.81656100  0.66065600  1
  V  V10  1  0.93410900  0.18772500  0.34311900  1
  V  V11  1  0.55905000  0.30960500  0.65369900  1
  B  B12  1  0.78481700  0.03145100  0.08382900  1
  B  B13  1  0.28320500  0.53564800  0.08455700  1
  B  B14  1  0.71509000  0.46555400  0.91373200  1
  B  B15  1  0.22247900  0.97267300  0.91658500  1
  P  P16  1  0.71200900  0.46254900  0.43957500  1
  P  P17  1  0.21201800  0.96313200  0.43866300  1
  P  P18  1  0.78711300  0.03538000  0.56075800  1
  P  P19  1  0.28539000  0.53661500  0.56030700  1
  O  O20  1  0.30957000  0.05980400  0.05471100  1
  O  O21  1  0.81083400  0.56084800  0.04905700  1
  O  O22  1  0.18817800  0.44303800  0.94853500  1
  O  O23  1  0.69278300  0.93721100  0.94766400  1
  O  O24  1  0.92853600  0.17794600  0.15002400  1
  O  O25  1  0.42951000  0.67891800  0.15043100  1
  O  O26  1  0.57075900  0.32095000  0.84979900  1
  O  O27  1  0.07410800  0.82429900  0.84710000  1
  O  O28  1  0.75272200  0.99916200  0.20667500  1
  O  O29  1  0.25137000  0.50321300  0.20766300  1
  O  O30  1  0.74429000  0.49524900  0.78883200  1
  O  O31  1  0.25643600  0.00664400  0.79776700  1
  O  O32  1  0.64438700  0.89095000  0.42314200  1
  O  O33  1  0.14014100  0.39601700  0.42244700  1
  O  O34  1  0.85331800  0.60205800  0.57898400  1
  O  O35  1  0.35686000  0.10661600  0.57806100  1
  O  O36  1  0.59124800  0.34228100  0.48079600  1
  O  O37  1  0.09131000  0.84365800  0.47921900  1
  O  O38  1  0.90482700  0.15250700  0.51640000  1
  O  O39  1  0.40623200  0.65167500  0.51676000  1
  O  O40  1  0.60602400  0.54686100  0.34493600  1
  O  O41  1  0.10869600  0.05155700  0.34696100  1
  O  O42  1  0.79667800  0.35458400  0.34565400  1
  O  O43  1  0.30076600  0.85860600  0.34785400  1
  O  O44  1  0.70280400  0.14036100  0.65502000  1
  O  O45  1  0.20231400  0.65044200  0.65214300  1
  O  O46  1  0.89861500  0.95083300  0.65268500  1
  O  O47  1  0.38786000  0.45097200  0.65496600  1
