# generated using pymatgen
data_YbTlS2
_symmetry_space_group_name_H-M   'P 1'
_cell_length_a   7.15392192
_cell_length_b   7.15392192
_cell_length_c   7.15392233
_cell_angle_alpha   33.23434746
_cell_angle_beta   33.23434746
_cell_angle_gamma   33.23434550
_symmetry_Int_Tables_number   1
_chemical_formula_structural   YbTlS2
_chemical_formula_sum   'Yb1 Tl1 S2'
_cell_volume   97.90607051
_cell_formula_units_Z   1
loop_
 _symmetry_equiv_pos_site_id
 _symmetry_equiv_pos_as_xyz
  1  'x, y, z'
loop_
 _atom_site_type_symbol
 _atom_site_label
 _atom_site_symmetry_multiplicity
 _atom_site_fract_x
 _atom_site_fract_y
 _atom_site_fract_z
 _atom_site_occupancy
  Yb  Yb0  1  0.00000000  0.00000000  0.00000000  1
  Tl  Tl1  1  0.50000000  0.50000000  0.50000000  1
  S  S2  1  0.74228800  0.74228800  0.74228800  1
  S  S3  1  0.25771200  0.25771200  0.25771200  1
