# generated using pymatgen
data_ZnCr(GeO3)2
_symmetry_space_group_name_H-M   'P 1'
_cell_length_a   6.86269145
_cell_length_b   7.86857692
_cell_length_c   10.05817042
_cell_angle_alpha   73.36614416
_cell_angle_beta   81.14139501
_cell_angle_gamma   95.86139420
_symmetry_Int_Tables_number   1
_chemical_formula_structural   ZnCr(GeO3)2
_chemical_formula_sum   'Zn4 Cr4 Ge8 O24'
_cell_volume   508.03257526
_cell_formula_units_Z   4
loop_
 _symmetry_equiv_pos_site_id
 _symmetry_equiv_pos_as_xyz
  1  'x, y, z'
loop_
 _atom_site_type_symbol
 _atom_site_label
 _atom_site_symmetry_multiplicity
 _atom_site_fract_x
 _atom_site_fract_y
 _atom_site_fract_z
 _atom_site_occupancy
  Zn  Zn0  1  0.25191700  0.00587000  0.75595900  1
  Zn  Zn1  1  0.25067800  0.50537500  0.25640500  1
  Zn  Zn2  1  0.74913600  0.99400300  0.24351700  1
  Zn  Zn3  1  0.74818200  0.49479900  0.74411100  1
  Cr  Cr4  1  0.90500200  0.17486000  0.92405100  1
  Cr  Cr5  1  0.09488700  0.82430300  0.07536700  1
  Cr  Cr6  1  0.90538800  0.67570600  0.42453400  1
  Cr  Cr7  1  0.09471800  0.32514300  0.57603200  1
  Ge  Ge8  1  0.38953300  0.73136900  0.48351500  1
  Ge  Ge9  1  0.38886300  0.23120800  0.98358200  1
  Ge  Ge10  1  0.78840100  0.92746900  0.68374900  1
  Ge  Ge11  1  0.78833200  0.42654000  0.18275800  1
  Ge  Ge12  1  0.61115800  0.26905600  0.51633500  1
  Ge  Ge13  1  0.61046000  0.76836400  0.01660200  1
  Ge  Ge14  1  0.21180500  0.07314900  0.31702900  1
  Ge  Ge15  1  0.21136100  0.57275400  0.81650500  1
  O  O16  1  0.30890400  0.94412100  0.46325000  1
  O  O17  1  0.30725900  0.44365800  0.96317900  1
  O  O18  1  0.58848200  0.86552800  0.83653600  1
  O  O19  1  0.58924600  0.36440400  0.33602900  1
  O  O20  1  0.69254900  0.05657100  0.53704700  1
  O  O21  1  0.69135500  0.55568100  0.03649300  1
  O  O22  1  0.41092100  0.13551900  0.16378700  1
  O  O23  1  0.41140700  0.63455900  0.66365800  1
  O  O24  1  0.14345600  0.26021100  0.36087400  1
  O  O25  1  0.14379000  0.76046600  0.85949300  1
  O  O26  1  0.37381200  0.23821100  0.62204600  1
  O  O27  1  0.37339000  0.73763200  0.12254500  1
  O  O28  1  0.85655500  0.74001400  0.64054300  1
  O  O29  1  0.85624800  0.23929600  0.13906400  1
  O  O30  1  0.62677100  0.76187900  0.37775100  1
  O  O31  1  0.62603600  0.26230000  0.87767300  1
  O  O32  1  0.20171900  0.58708600  0.44377200  1
  O  O33  1  0.20220100  0.08616300  0.94369200  1
  O  O34  1  0.97630400  0.07638500  0.71393700  1
  O  O35  1  0.97635500  0.57531800  0.21260000  1
  O  O36  1  0.79782300  0.41401200  0.55631100  1
  O  O37  1  0.79823700  0.91273300  0.05624300  1
  O  O38  1  0.02380000  0.92433900  0.28702400  1
  O  O39  1  0.02355800  0.42394400  0.78640200  1
