# generated using pymatgen
data_K2CoH4(I2O7)2
_symmetry_space_group_name_H-M   'P 1'
_cell_length_a   8.00105434
_cell_length_b   11.21958386
_cell_length_c   16.67784712
_cell_angle_alpha   89.22438647
_cell_angle_beta   89.97931584
_cell_angle_gamma   90.02336499
_symmetry_Int_Tables_number   1
_chemical_formula_structural   K2CoH4(I2O7)2
_chemical_formula_sum   'K8 Co4 H16 I16 O56'
_cell_volume   1497.00792112
_cell_formula_units_Z   4
loop_
 _symmetry_equiv_pos_site_id
 _symmetry_equiv_pos_as_xyz
  1  'x, y, z'
loop_
 _atom_site_type_symbol
 _atom_site_label
 _atom_site_symmetry_multiplicity
 _atom_site_fract_x
 _atom_site_fract_y
 _atom_site_fract_z
 _atom_site_occupancy
  K  K0  1  0.34533600  0.00040400  0.49997100  1
  K  K1  1  0.84565800  0.49971700  0.74979000  1
  K  K2  1  0.34533600  0.00008900  0.99965500  1
  K  K3  1  0.84519400  0.50001100  0.25026900  1
  K  K4  1  0.87002000  0.00047100  0.49993200  1
  K  K5  1  0.37005500  0.49969400  0.75018700  1
  K  K6  1  0.87003700  0.00032500  0.00004000  1
  K  K7  1  0.36987400  0.49977300  0.24983800  1
  Co  Co8  1  0.91967200  0.50165000  0.50032300  1
  Co  Co9  1  0.41918800  0.99787300  0.74959100  1
  Co  Co10  1  0.91918900  0.50224400  0.00043100  1
  Co  Co11  1  0.41910800  0.99754000  0.24957300  1
  H  H12  1  0.59662400  0.54757800  0.46140900  1
  H  H13  1  0.09606200  0.04898500  0.71178100  1
  H  H14  1  0.59604500  0.54884700  0.96194900  1
  H  H15  1  0.09599400  0.04904100  0.21185000  1
  H  H16  1  0.59659800  0.45117500  0.53861000  1
  H  H17  1  0.09599900  0.95099800  0.78801900  1
  H  H18  1  0.59580700  0.45083200  0.03816200  1
  H  H19  1  0.09582700  0.95123200  0.28814500  1
  H  H20  1  0.24567900  0.54639100  0.53987300  1
  H  H21  1  0.74584400  0.04619500  0.79032400  1
  H  H22  1  0.24707100  0.54698000  0.03859400  1
  H  H23  1  0.74516600  0.04620300  0.29079000  1
  H  H24  1  0.24504400  0.45437700  0.45979900  1
  H  H25  1  0.74684800  0.95306300  0.71099600  1
  H  H26  1  0.24544100  0.45382700  0.95931800  1
  H  H27  1  0.74690500  0.95312600  0.21148700  1
  I  I28  1  0.09938700  0.26408200  0.37719400  1
  I  I29  1  0.59847000  0.76407200  0.62712900  1
  I  I30  1  0.09906100  0.26334400  0.87747800  1
  I  I31  1  0.59859200  0.76410800  0.12716200  1
  I  I32  1  0.09841900  0.73609700  0.62278200  1
  I  I33  1  0.59934700  0.23650100  0.87256500  1
  I  I34  1  0.09860900  0.73601700  0.12279300  1
  I  I35  1  0.59882000  0.23678700  0.37248900  1
  I  I36  1  0.09168000  0.72211800  0.37966100  1
  I  I37  1  0.59093100  0.22151500  0.62994300  1
  I  I38  1  0.09252100  0.72207400  0.87986500  1
  I  I39  1  0.59030400  0.22142600  0.12972900  1
  I  I40  1  0.09115100  0.27822300  0.62050800  1
  I  I41  1  0.59263900  0.77818700  0.87003800  1
  I  I42  1  0.09022600  0.27842700  0.12018800  1
  I  I43  1  0.59211600  0.77782700  0.37018300  1
  O  O44  1  0.17892900  0.50108600  0.49970400  1
  O  O45  1  0.67988600  0.99775700  0.75128800  1
  O  O46  1  0.17981400  0.50278600  0.99813800  1
  O  O47  1  0.67958200  0.99701800  0.25207600  1
  O  O48  1  0.66555100  0.49927000  0.49988700  1
  O  O49  1  0.16499000  0.99938400  0.74954900  1
  O  O50  1  0.66487700  0.50036500  0.00040200  1
  O  O51  1  0.16490700  0.99958100  0.24968500  1
  O  O52  1  0.60457800  0.15547700  0.53007500  1
  O  O53  1  0.10496400  0.65554200  0.78010900  1
  O  O54  1  0.60424900  0.15528000  0.02989800  1
  O  O55  1  0.10511200  0.65592500  0.27984500  1
  O  O56  1  0.60483800  0.84443600  0.46990800  1
  O  O57  1  0.10516100  0.34431500  0.72035100  1
  O  O58  1  0.60508700  0.84465100  0.96980900  1
  O  O59  1  0.10423000  0.34484800  0.21992100  1
  O  O60  1  0.11044400  0.18085800  0.47260300  1
  O  O61  1  0.60932000  0.68125800  0.72267400  1
  O  O62  1  0.11094600  0.17984600  0.97275200  1
  O  O63  1  0.60915200  0.68125800  0.22269100  1
  O  O64  1  0.10953100  0.81889200  0.52722400  1
  O  O65  1  0.61124100  0.31996100  0.77727100  1
  O  O66  1  0.10941600  0.81882900  0.02723500  1
  O  O67  1  0.61063900  0.32015000  0.27717200  1
  O  O68  1  0.28644500  0.35927900  0.38711500  1
  O  O69  1  0.78664500  0.85796100  0.63656200  1
  O  O70  1  0.28619300  0.35846400  0.88720200  1
  O  O71  1  0.78702500  0.85771800  0.13668500  1
  O  O72  1  0.28653800  0.64212200  0.61329000  1
  O  O73  1  0.78641500  0.14142300  0.86282600  1
  O  O74  1  0.28704300  0.64246800  0.11331800  1
  O  O75  1  0.78607400  0.14187500  0.36275800  1
  O  O76  1  0.94014400  0.37793300  0.39849700  1
  O  O77  1  0.44034700  0.87958200  0.64789400  1
  O  O78  1  0.93961500  0.37681300  0.89945700  1
  O  O79  1  0.44079800  0.87986600  0.14787600  1
  O  O80  1  0.94015300  0.62074400  0.60206100  1
  O  O81  1  0.43985400  0.12302300  0.85057200  1
  O  O82  1  0.94080300  0.62017700  0.10212100  1
  O  O83  1  0.43938700  0.12320300  0.35060200  1
  O  O84  1  0.49688500  0.36641700  0.60691100  1
  O  O85  1  0.99736000  0.86653300  0.85672300  1
  O  O86  1  0.49575000  0.36606800  0.10653900  1
  O  O87  1  0.99686500  0.86670900  0.35666700  1
  O  O88  1  0.49733000  0.63316900  0.39341700  1
  O  O89  1  0.99634400  0.13353100  0.64354900  1
  O  O90  1  0.49761300  0.63363000  0.89319500  1
  O  O91  1  0.99566300  0.13377200  0.14354600  1
  O  O92  1  0.90079900  0.64216600  0.41382200  1
  O  O93  1  0.39978900  0.14247400  0.66447600  1
  O  O94  1  0.90170200  0.64255000  0.91463600  1
  O  O95  1  0.39953100  0.14213200  0.16439400  1
  O  O96  1  0.90047900  0.35761800  0.58609100  1
  O  O97  1  0.40177100  0.85757600  0.83536800  1
  O  O98  1  0.89943700  0.35756000  0.08553900  1
  O  O99  1  0.40114300  0.85722900  0.33561200  1
