# generated using pymatgen
data_Fe4OF6
_symmetry_space_group_name_H-M   'P 1'
_cell_length_a   5.17836936
_cell_length_b   7.13900568
_cell_length_c   7.20734726
_cell_angle_alpha   91.59163549
_cell_angle_beta   90.29356073
_cell_angle_gamma   89.79435402
_symmetry_Int_Tables_number   1
_chemical_formula_structural   Fe4OF6
_chemical_formula_sum   'Fe8 O2 F12'
_cell_volume   266.33627750
_cell_formula_units_Z   2
loop_
 _symmetry_equiv_pos_site_id
 _symmetry_equiv_pos_as_xyz
  1  'x, y, z'
loop_
 _atom_site_type_symbol
 _atom_site_label
 _atom_site_symmetry_multiplicity
 _atom_site_fract_x
 _atom_site_fract_y
 _atom_site_fract_z
 _atom_site_occupancy
  Fe  Fe0  1  0.44176599  0.50859093  0.74176047  1
  Fe  Fe1  1  0.94001859  0.74478801  0.51025186  1
  Fe  Fe2  1  0.96674423  0.74591778  0.02353440  1
  Fe  Fe3  1  0.46737143  0.02427167  0.74400071  1
  Fe  Fe4  1  0.53355850  0.97724280  0.25478066  1
  Fe  Fe5  1  0.06050396  0.25254770  0.48933151  1
  Fe  Fe6  1  0.03272534  0.25497489  0.97651051  1
  Fe  Fe7  1  0.56072271  0.49009935  0.25416574  1
  O  O8  1  0.25068265  0.25393961  0.75050721  1
  O  O9  1  0.75097900  0.74802603  0.25156338  1
  F  F10  1  0.88023333  0.28456788  0.23246540  1
  F  F11  1  0.38430459  0.23538561  0.29329057  1
  F  F12  1  0.11804923  0.71157937  0.76745718  1
  F  F13  1  0.61676747  0.76499280  0.70650073  1
  F  F14  1  0.75070965  0.03342090  0.95990513  1
  F  F15  1  0.75532431  0.05647370  0.52645727  1
  F  F16  1  0.75888275  0.46113340  0.53871104  1
  F  F17  1  0.73919197  0.47349446  0.94369928  1
  F  F18  1  0.25270727  0.52646483  0.06187301  1
  F  F19  1  0.25447243  0.53923470  0.46420396  1
  F  F20  1  0.24878015  0.96694287  0.03800940  1
  F  F21  1  0.23550544  0.94590769  0.47102158  1
