# generated using pymatgen
data_Ca3CoRhO6
_symmetry_space_group_name_H-M   'P 1'
_cell_length_a   6.49125616
_cell_length_b   9.03354119
_cell_length_c   9.24381459
_cell_angle_alpha   90.00167440
_cell_angle_beta   89.96273286
_cell_angle_gamma   91.65815669
_symmetry_Int_Tables_number   1
_chemical_formula_structural   Ca3CoRhO6
_chemical_formula_sum   'Ca12 Co4 Rh4 O24'
_cell_volume   541.82122744
_cell_formula_units_Z   4
loop_
 _symmetry_equiv_pos_site_id
 _symmetry_equiv_pos_as_xyz
  1  'x, y, z'
loop_
 _atom_site_type_symbol
 _atom_site_label
 _atom_site_symmetry_multiplicity
 _atom_site_fract_x
 _atom_site_fract_y
 _atom_site_fract_z
 _atom_site_occupancy
  Ca  Ca0  1  0.61176029  0.56663005  0.68012709  1
  Ca  Ca1  1  0.61357701  0.06960214  0.18362450  1
  Ca  Ca2  1  0.88778885  0.43119709  0.18297010  1
  Ca  Ca3  1  0.88648022  0.93308162  0.68056107  1
  Ca  Ca4  1  0.24916543  0.75027906  0.13824380  1
  Ca  Ca5  1  0.24992286  0.24977139  0.63473331  1
  Ca  Ca6  1  0.11183687  0.56655305  0.81948054  1
  Ca  Ca7  1  0.11346181  0.06979594  0.31652362  1
  Ca  Ca8  1  0.75078138  0.24969339  0.86513059  1
  Ca  Ca9  1  0.74880530  0.75018983  0.36175678  1
  Ca  Ca10  1  0.38766149  0.43154832  0.31774404  1
  Ca  Ca11  1  0.38689470  0.93283238  0.81891607  1
  Co  Co12  1  0.24597808  0.75194435  0.50325709  1
  Co  Co13  1  0.74683298  0.75155326  0.99653467  1
  Co  Co14  1  0.25174487  0.24918255  0.99295651  1
  Co  Co15  1  0.75013938  0.24994583  0.50713975  1
  Rh  Rh16  1  0.50031144  0.49954153  0.00090638  1
  Rh  Rh17  1  0.50010083  0.99996226  0.49900297  1
  Rh  Rh18  1  0.00005807  0.00004368  0.00067384  1
  Rh  Rh19  1  0.00058661  0.49964676  0.49947409  1
  O  O20  1  0.54975297  0.30982444  0.10534153  1
  O  O21  1  0.54404056  0.80649512  0.60130607  1
  O  O22  1  0.20401242  0.47684409  0.06668549  1
  O  O23  1  0.20442913  0.97424542  0.56603308  1
  O  O24  1  0.40879542  0.37188883  0.83025549  1
  O  O25  1  0.41167753  0.87561982  0.32891600  1
  O  O26  1  0.04397936  0.80662303  0.89852354  1
  O  O27  1  0.04884905  0.30902167  0.39541524  1
  O  O28  1  0.90898541  0.37283646  0.67058096  1
  O  O29  1  0.91209901  0.87557378  0.17093234  1
  O  O30  1  0.70386699  0.47660552  0.43306471  1
  O  O31  1  0.70400239  0.97407095  0.93410191  1
  O  O32  1  0.45555415  0.69164198  0.89699434  1
  O  O33  1  0.45223616  0.19184151  0.39632076  1
  O  O34  1  0.79475745  0.52266692  0.93347734  1
  O  O35  1  0.79710486  0.02521368  0.43339213  1
  O  O36  1  0.59177298  0.62718954  0.16859463  1
  O  O37  1  0.58882687  0.12475299  0.67180235  1
  O  O38  1  0.95238247  0.19191034  0.10350906  1
  O  O39  1  0.95615988  0.69219298  0.60308261  1
  O  O40  1  0.09236254  0.62697902  0.33140256  1
  O  O41  1  0.08761712  0.12443873  0.82745414  1
  O  O42  1  0.29528645  0.52227840  0.56718325  1
  O  O43  1  0.29756037  0.02625028  0.06587363  1
