# generated using pymatgen
data_Li13Mn2O9
_symmetry_space_group_name_H-M   'P 1'
_cell_length_a   5.68966177
_cell_length_b   10.03866050
_cell_length_c   8.22263768
_cell_angle_alpha   89.97964880
_cell_angle_beta   88.42229632
_cell_angle_gamma   89.99547037
_symmetry_Int_Tables_number   1
_chemical_formula_structural   Li13Mn2O9
_chemical_formula_sum   'Li26 Mn4 O18'
_cell_volume   469.47089459
_cell_formula_units_Z   2
loop_
 _symmetry_equiv_pos_site_id
 _symmetry_equiv_pos_as_xyz
  1  'x, y, z'
loop_
 _atom_site_type_symbol
 _atom_site_label
 _atom_site_symmetry_multiplicity
 _atom_site_fract_x
 _atom_site_fract_y
 _atom_site_fract_z
 _atom_site_occupancy
  Li  Li0  1  0.12777500  0.15220700  0.44236100  1
  Li  Li1  1  0.63876200  0.66395100  0.42370400  1
  Li  Li2  1  0.17601500  0.15141500  0.93975300  1
  Li  Li3  1  0.68468200  0.65687800  0.94498500  1
  Li  Li4  1  0.43616500  0.15294400  0.21689900  1
  Li  Li5  1  0.97042300  0.66739200  0.21514000  1
  Li  Li6  1  0.52084100  0.49564200  0.21335300  1
  Li  Li7  1  0.01732600  0.98246400  0.21591500  1
  Li  Li8  1  0.65122700  0.31044600  0.42114800  1
  Li  Li9  1  0.16383100  0.81516900  0.41720000  1
  Li  Li10  1  0.61952700  0.34607300  0.96471500  1
  Li  Li11  1  0.14577500  0.85498200  0.94453400  1
  Li  Li12  1  0.68238400  0.02443300  0.42861300  1
  Li  Li13  1  0.18699600  0.52435000  0.42193100  1
  Li  Li14  1  0.80694600  0.15201500  0.06800600  1
  Li  Li15  1  0.32218500  0.65870700  0.05952200  1
  Li  Li16  1  0.82179100  0.48413100  0.56991700  1
  Li  Li17  1  0.32102900  0.98571900  0.58626000  1
  Li  Li18  1  0.95407000  0.30822700  0.75088100  1
  Li  Li19  1  0.48577700  0.80908400  0.74666900  1
  Li  Li20  1  0.96926200  0.01255600  0.75116100  1
  Li  Li21  1  0.49349500  0.50822100  0.75126700  1
  Li  Li22  1  0.15055800  0.47255500  0.93635700  1
  Li  Li23  1  0.64816400  0.97058500  0.93410300  1
  Li  Li24  1  0.30242300  0.33512200  0.59058200  1
  Li  Li25  1  0.81547400  0.83810900  0.57411600  1
  Mn  Mn26  1  0.03600100  0.66261700  0.73487000  1
  Mn  Mn27  1  0.52118200  0.84952900  0.21736700  1
  Mn  Mn28  1  0.53224500  0.16326100  0.74230700  1
  Mn  Mn29  1  0.02393500  0.33869500  0.22365600  1
  O  O30  1  0.17447100  0.16249400  0.67575400  1
  O  O31  1  0.70694300  0.65974500  0.65444100  1
  O  O32  1  0.50058100  0.16163100  0.99102600  1
  O  O33  1  0.02133300  0.66167500  0.96741500  1
  O  O34  1  0.63818600  0.34422700  0.65546500  1
  O  O35  1  0.13625300  0.83566000  0.67170500  1
  O  O36  1  0.13126400  0.48648800  0.67736000  1
  O  O37  1  0.64380200  0.98065500  0.66481300  1
  O  O38  1  0.84861000  0.49186800  0.32711600  1
  O  O39  1  0.33071500  0.99772600  0.34878000  1
  O  O40  1  0.84783000  0.17476600  0.30704900  1
  O  O41  1  0.33774700  0.66795600  0.30693300  1
  O  O42  1  0.95951500  0.32069500  0.00204100  1
  O  O43  1  0.47987400  0.81328300  0.97889400  1
  O  O44  1  0.97050200  0.00626400  0.98753600  1
  O  O45  1  0.47485100  0.50655800  0.98583400  1
  O  O46  1  0.30113600  0.33317700  0.35095900  1
  O  O47  1  0.83583300  0.83030200  0.33971500  1
