# generated using pymatgen
data_Na3CoBSO7
_symmetry_space_group_name_H-M   'P 1'
_cell_length_a   5.27926152
_cell_length_b   8.99045477
_cell_length_c   6.85480123
_cell_angle_alpha   90.01565969
_cell_angle_beta   90.15300213
_cell_angle_gamma   88.58469118
_symmetry_Int_Tables_number   1
_chemical_formula_structural   Na3CoBSO7
_chemical_formula_sum   'Na6 Co2 B2 S2 O14'
_cell_volume   325.24874772
_cell_formula_units_Z   2
loop_
 _symmetry_equiv_pos_site_id
 _symmetry_equiv_pos_as_xyz
  1  'x, y, z'
loop_
 _atom_site_type_symbol
 _atom_site_label
 _atom_site_symmetry_multiplicity
 _atom_site_fract_x
 _atom_site_fract_y
 _atom_site_fract_z
 _atom_site_occupancy
  Na  Na0  1  0.74798100  0.06393700  0.24989100  1
  Na  Na1  1  0.25128600  0.93520900  0.75019000  1
  Na  Na2  1  0.24313700  0.23918700  0.99198700  1
  Na  Na3  1  0.24244700  0.23903000  0.50778100  1
  Na  Na4  1  0.75838900  0.76069600  0.49198900  1
  Na  Na5  1  0.75627900  0.75945000  0.00639100  1
  Co  Co6  1  0.23422300  0.66362800  0.25320500  1
  Co  Co7  1  0.76642100  0.33634700  0.74988400  1
  B  B8  1  0.73329100  0.06565600  0.74981300  1
  B  B9  1  0.26621100  0.93413900  0.24976200  1
  S  S10  1  0.71472400  0.41890100  0.24990100  1
  S  S11  1  0.28564500  0.58171400  0.75020100  1
  O  O12  1  0.28897200  0.08457800  0.24955800  1
  O  O13  1  0.71069500  0.91526600  0.74952500  1
  O  O14  1  0.96581000  0.13808900  0.75009900  1
  O  O15  1  0.03375300  0.86188600  0.25407000  1
  O  O16  1  0.52379300  0.16560300  0.74983800  1
  O  O17  1  0.47597800  0.83433600  0.24589700  1
  O  O18  1  0.43490800  0.45402500  0.25014700  1
  O  O19  1  0.56568800  0.54681100  0.74986500  1
  O  O20  1  0.14484700  0.44000700  0.74998700  1
  O  O21  1  0.85578300  0.56044500  0.25061700  1
  O  O22  1  0.78054900  0.32688100  0.07502400  1
  O  O23  1  0.78142600  0.32657900  0.42456600  1
  O  O24  1  0.21822800  0.67372200  0.57521000  1
  O  O25  1  0.21953500  0.67388100  0.92460100  1
