# generated using pymatgen
data_Li7Mn4CoO12
_symmetry_space_group_name_H-M   'P 1'
_cell_length_a   5.85792380
_cell_length_b   14.48068656
_cell_length_c   5.90144545
_cell_angle_alpha   88.27683256
_cell_angle_beta   119.29017053
_cell_angle_gamma   89.67957745
_symmetry_Int_Tables_number   1
_chemical_formula_structural   Li7Mn4CoO12
_chemical_formula_sum   'Li14 Mn8 Co2 O24'
_cell_volume   436.28450720
_cell_formula_units_Z   2
loop_
 _symmetry_equiv_pos_site_id
 _symmetry_equiv_pos_as_xyz
  1  'x, y, z'
loop_
 _atom_site_type_symbol
 _atom_site_label
 _atom_site_symmetry_multiplicity
 _atom_site_fract_x
 _atom_site_fract_y
 _atom_site_fract_z
 _atom_site_occupancy
  Li  Li0  1  0.16819500  0.33512400  0.32767000  1
  Li  Li1  1  0.16984400  0.34088000  0.83696900  1
  Li  Li2  1  0.67352200  0.82785700  0.33358700  1
  Li  Li3  1  0.67131100  0.82969900  0.83639100  1
  Li  Li4  1  0.16572700  0.83254600  0.83347300  1
  Li  Li5  1  0.16442800  0.83222200  0.33318200  1
  Li  Li6  1  0.34792600  0.17198400  0.18294300  1
  Li  Li7  1  0.34493100  0.16936900  0.67860500  1
  Li  Li8  1  0.98744000  0.49697000  0.48403800  1
  Li  Li9  1  0.98805700  0.49828800  0.98275300  1
  Li  Li10  1  0.84133700  0.67357700  0.17933100  1
  Li  Li11  1  0.83909100  0.67276300  0.67764200  1
  Li  Li12  1  0.49290500  0.99323400  0.99214400  1
  Li  Li13  1  0.48673700  0.98861200  0.48180700  1
  Mn  Mn14  1  0.00939300  0.99348900  0.00119200  1
  Mn  Mn15  1  0.00628600  0.99377900  0.49843500  1
  Mn  Mn16  1  0.32218400  0.67391800  0.17148800  1
  Mn  Mn17  1  0.32180000  0.67411400  0.67018400  1
  Mn  Mn18  1  0.83531100  0.16596500  0.66634100  1
  Mn  Mn19  1  0.83566900  0.16520800  0.16531200  1
  Mn  Mn20  1  0.49591900  0.49984000  0.49775900  1
  Mn  Mn21  1  0.49557100  0.50132800  0.99775400  1
  Co  Co22  1  0.66760600  0.33459000  0.32982100  1
  Co  Co23  1  0.67437700  0.33477300  0.83373400  1
  O  O24  1  0.13763800  0.07649100  0.30943500  1
  O  O25  1  0.13275800  0.07536700  0.80548300  1
  O  O26  1  0.19172700  0.59366600  0.86194600  1
  O  O27  1  0.18843500  0.59436900  0.36132700  1
  O  O28  1  0.98293500  0.23632300  0.47955300  1
  O  O29  1  0.99881400  0.24533700  0.01907600  1
  O  O30  1  0.34071400  0.42129000  0.15224800  1
  O  O31  1  0.34007900  0.41729100  0.64854900  1
  O  O32  1  0.82264600  0.41491300  0.66208800  1
  O  O33  1  0.81189900  0.41561500  0.13755900  1
  O  O34  1  0.53000400  0.24780200  0.52616300  1
  O  O35  1  0.52909400  0.24409500  0.00666600  1
  O  O36  1  0.63827200  0.58299600  0.34312600  1
  O  O37  1  0.63442300  0.58356500  0.83597300  1
  O  O38  1  0.68915100  0.08290000  0.32014300  1
  O  O39  1  0.70235600  0.08964900  0.85745700  1
  O  O40  1  0.48132700  0.74129000  0.99500400  1
  O  O41  1  0.47959300  0.74174300  0.49346400  1
  O  O42  1  0.85405800  0.92622900  0.17770900  1
  O  O43  1  0.84861300  0.92860800  0.67789900  1
  O  O44  1  0.30799600  0.92462200  0.15062300  1
  O  O45  1  0.31001400  0.92632300  0.65354300  1
  O  O46  1  0.02114700  0.74435400  0.01563900  1
  O  O47  1  0.02074100  0.74503400  0.51677300  1
