# generated using pymatgen
data_Mg2MnNb2O8
_symmetry_space_group_name_H-M   'P 1'
_cell_length_a   10.18299297
_cell_length_b   10.18299297
_cell_length_c   5.22786378
_cell_angle_alpha   89.69594643
_cell_angle_beta   89.69594643
_cell_angle_gamma   34.65957052
_symmetry_Int_Tables_number   1
_chemical_formula_structural   Mg2MnNb2O8
_chemical_formula_sum   'Mg4 Mn2 Nb4 O16'
_cell_volume   308.28408047
_cell_formula_units_Z   2
loop_
 _symmetry_equiv_pos_site_id
 _symmetry_equiv_pos_as_xyz
  1  'x, y, z'
loop_
 _atom_site_type_symbol
 _atom_site_label
 _atom_site_symmetry_multiplicity
 _atom_site_fract_x
 _atom_site_fract_y
 _atom_site_fract_z
 _atom_site_occupancy
  Mg  Mg0  1  0.58752400  0.87010900  0.24553500  1
  Mg  Mg1  1  0.12989100  0.41247600  0.25446500  1
  Mg  Mg2  1  0.41247600  0.12989100  0.75446500  1
  Mg  Mg3  1  0.87010900  0.58752400  0.74553500  1
  Mn  Mn4  1  0.33981400  0.66018600  0.25000000  1
  Mn  Mn5  1  0.66018600  0.33981400  0.75000000  1
  Nb  Nb6  1  0.71419400  0.04998200  0.25865200  1
  Nb  Nb7  1  0.95001800  0.28580600  0.24134800  1
  Nb  Nb8  1  0.28580600  0.95001800  0.74134800  1
  Nb  Nb9  1  0.04998200  0.71419400  0.75865200  1
  O  O10  1  0.81817700  0.03563000  0.92486600  1
  O  O11  1  0.96437000  0.18182400  0.57513400  1
  O  O12  1  0.18182400  0.96437000  0.07513400  1
  O  O13  1  0.03563000  0.81817600  0.42486600  1
  O  O14  1  0.56526000  0.31309100  0.40811900  1
  O  O15  1  0.68690900  0.43474000  0.09188100  1
  O  O16  1  0.43474000  0.68690900  0.59188100  1
  O  O17  1  0.31309100  0.56526000  0.90811900  1
  O  O18  1  0.70606400  0.91727000  0.54411700  1
  O  O19  1  0.08273000  0.29393600  0.95588300  1
  O  O20  1  0.16345300  0.45395700  0.61705400  1
  O  O21  1  0.54604300  0.83654700  0.88294600  1
  O  O22  1  0.83654700  0.54604300  0.38294600  1
  O  O23  1  0.45395700  0.16345300  0.11705400  1
  O  O24  1  0.91727000  0.70606400  0.04411700  1
  O  O25  1  0.29393600  0.08273000  0.45588300  1
