# generated using pymatgen
data_Sr2YAlCr2O7
_symmetry_space_group_name_H-M   'P 1'
_cell_length_a   5.56999700
_cell_length_b   12.00242635
_cell_length_c   5.73721100
_cell_angle_alpha   76.17234221
_cell_angle_beta   89.99997973
_cell_angle_gamma   76.58287007
_symmetry_Int_Tables_number   1
_chemical_formula_structural   Sr2YAlCr2O7
_chemical_formula_sum   'Sr4 Y2 Al2 Cr4 O14'
_cell_volume   361.64670223
_cell_formula_units_Z   2
loop_
 _symmetry_equiv_pos_site_id
 _symmetry_equiv_pos_as_xyz
  1  'x, y, z'
loop_
 _atom_site_type_symbol
 _atom_site_label
 _atom_site_symmetry_multiplicity
 _atom_site_fract_x
 _atom_site_fract_y
 _atom_site_fract_z
 _atom_site_occupancy
  Sr  Sr0  1  0.16568800  0.68783300  0.18082800  1
  Sr  Sr1  1  0.85352300  0.31215500  0.81918800  1
  Sr  Sr2  1  0.35353200  0.31216000  0.36865900  1
  Sr  Sr3  1  0.66569300  0.68784000  0.63133800  1
  Y  Y4  1  0.50999900  0.99999400  0.50000200  1
  Y  Y5  1  0.00996400  0.99999600  0.00000700  1
  Al  Al6  1  0.24413100  0.50000200  0.82498900  1
  Al  Al7  1  0.74415300  0.49999500  0.17501800  1
  Cr  Cr8  1  0.94150100  0.15242000  0.42202300  1
  Cr  Cr9  1  0.09390900  0.84764500  0.57794100  1
  Cr  Cr10  1  0.59391600  0.84759500  0.07449400  1
  Cr  Cr11  1  0.44149500  0.15237700  0.92553000  1
  O  O12  1  0.43117000  0.49999400  0.08476300  1
  O  O13  1  0.93116600  0.49999700  0.91523600  1
  O  O14  1  0.29581200  0.87121700  0.27856800  1
  O  O15  1  0.16703200  0.12877300  0.72143300  1
  O  O16  1  0.66702900  0.12878000  0.64977700  1
  O  O17  1  0.79580800  0.87121600  0.35021000  1
  O  O18  1  0.88032000  0.85988500  0.86093700  1
  O  O19  1  0.74021700  0.14011300  0.13906800  1
  O  O20  1  0.24021100  0.14011300  0.22078200  1
  O  O21  1  0.38031400  0.85988400  0.77921600  1
  O  O22  1  0.22993900  0.63678100  0.61973900  1
  O  O23  1  0.86677600  0.36322000  0.38026800  1
  O  O24  1  0.36677700  0.36322400  0.75654500  1
  O  O25  1  0.72992700  0.63677900  0.24345200  1
