# generated using pymatgen
data_Mg2Nb2VO8
_symmetry_space_group_name_H-M   'P 1'
_cell_length_a   10.09446643
_cell_length_b   10.09446643
_cell_length_c   5.23439874
_cell_angle_alpha   89.52124993
_cell_angle_beta   89.52124993
_cell_angle_gamma   34.86170841
_symmetry_Int_Tables_number   1
_chemical_formula_structural   Mg2Nb2VO8
_chemical_formula_sum   'Mg4 Nb4 V2 O16'
_cell_volume   304.86481207
_cell_formula_units_Z   2
loop_
 _symmetry_equiv_pos_site_id
 _symmetry_equiv_pos_as_xyz
  1  'x, y, z'
loop_
 _atom_site_type_symbol
 _atom_site_label
 _atom_site_symmetry_multiplicity
 _atom_site_fract_x
 _atom_site_fract_y
 _atom_site_fract_z
 _atom_site_occupancy
  Mg  Mg0  1  0.58533000  0.87066300  0.74666400  1
  Mg  Mg1  1  0.12933700  0.41467000  0.75333600  1
  Mg  Mg2  1  0.41467000  0.12933700  0.25333600  1
  Mg  Mg3  1  0.87066300  0.58533000  0.24666400  1
  Nb  Nb4  1  0.71569500  0.05079600  0.75478000  1
  Nb  Nb5  1  0.94920400  0.28430500  0.74522000  1
  Nb  Nb6  1  0.28430500  0.94920400  0.24522000  1
  Nb  Nb7  1  0.05079600  0.71569500  0.25478000  1
  V  V8  1  0.35101800  0.64898200  0.75000000  1
  V  V9  1  0.64898200  0.35101800  0.25000000  1
  O  O10  1  0.81626400  0.03974600  0.41856500  1
  O  O11  1  0.96025400  0.18373600  0.08143500  1
  O  O12  1  0.18373600  0.96025400  0.58143500  1
  O  O13  1  0.03974600  0.81626400  0.91856500  1
  O  O14  1  0.56689600  0.31501400  0.90633000  1
  O  O15  1  0.68498600  0.43310400  0.59367000  1
  O  O16  1  0.43310400  0.68498600  0.09367000  1
  O  O17  1  0.31501400  0.56689600  0.40633000  1
  O  O18  1  0.70711600  0.91742800  0.04208600  1
  O  O19  1  0.08257200  0.29288400  0.45791400  1
  O  O20  1  0.16248600  0.45407400  0.11572200  1
  O  O21  1  0.54592600  0.83751400  0.38427800  1
  O  O22  1  0.83751400  0.54592600  0.88427800  1
  O  O23  1  0.45407400  0.16248600  0.61572200  1
  O  O24  1  0.91742800  0.70711600  0.54208600  1
  O  O25  1  0.29288400  0.08257200  0.95791400  1
