# generated using pymatgen
data_Ta2O3
_symmetry_space_group_name_H-M   'P 1'
_cell_length_a   6.12729833
_cell_length_b   6.12729833
_cell_length_c   7.59566124
_cell_angle_alpha   66.85333652
_cell_angle_beta   66.85333652
_cell_angle_gamma   26.77989967
_symmetry_Int_Tables_number   1
_chemical_formula_structural   Ta2O3
_chemical_formula_sum   'Ta4 O6'
_cell_volume   117.53100921
_cell_formula_units_Z   2
loop_
 _symmetry_equiv_pos_site_id
 _symmetry_equiv_pos_as_xyz
  1  'x, y, z'
loop_
 _atom_site_type_symbol
 _atom_site_label
 _atom_site_symmetry_multiplicity
 _atom_site_fract_x
 _atom_site_fract_y
 _atom_site_fract_z
 _atom_site_occupancy
  Ta  Ta0  1  0.16400700  0.16400700  0.15549800  1
  Ta  Ta1  1  0.83599300  0.83599300  0.84450200  1
  Ta  Ta2  1  0.34031800  0.34031800  0.35719200  1
  Ta  Ta3  1  0.65968200  0.65968200  0.64280800  1
  O  O4  1  0.13828500  0.13828500  0.44459000  1
  O  O5  1  0.86171500  0.86171500  0.55541000  1
  O  O6  1  0.18675200  0.18675200  0.84649500  1
  O  O7  1  0.81324800  0.81324800  0.15350500  1
  O  O8  1  0.47345300  0.47345300  0.79217800  1
  O  O9  1  0.52654700  0.52654700  0.20782200  1
