# generated using pymatgen
data_SrMgMn(PO4)2
_symmetry_space_group_name_H-M   'P 1'
_cell_length_a   6.98920258
_cell_length_b   11.13012950
_cell_length_c   9.53499843
_cell_angle_alpha   106.50661806
_cell_angle_beta   72.70309870
_cell_angle_gamma   82.07607735
_symmetry_Int_Tables_number   1
_chemical_formula_structural   SrMgMn(PO4)2
_chemical_formula_sum   'Sr4 Mg4 Mn4 P8 O32'
_cell_volume   658.67302168
_cell_formula_units_Z   4
loop_
 _symmetry_equiv_pos_site_id
 _symmetry_equiv_pos_as_xyz
  1  'x, y, z'
loop_
 _atom_site_type_symbol
 _atom_site_label
 _atom_site_symmetry_multiplicity
 _atom_site_fract_x
 _atom_site_fract_y
 _atom_site_fract_z
 _atom_site_occupancy
  Sr  Sr0  1  0.75276100  0.39992900  0.04924800  1
  Sr  Sr1  1  0.75278400  0.89991200  0.04925000  1
  Sr  Sr2  1  0.24722900  0.60008000  0.95074800  1
  Sr  Sr3  1  0.24723400  0.10007900  0.95074700  1
  Mg  Mg4  1  0.73081800  0.33042300  0.65389500  1
  Mg  Mg5  1  0.73081400  0.83042600  0.65390100  1
  Mg  Mg6  1  0.26918100  0.66957200  0.34610200  1
  Mg  Mg7  1  0.26918500  0.16957600  0.34610300  1
  Mn  Mn8  1  0.27878800  0.46436000  0.55855700  1
  Mn  Mn9  1  0.72124900  0.03562300  0.44143300  1
  Mn  Mn10  1  0.27876200  0.96437200  0.55853800  1
  Mn  Mn11  1  0.72122300  0.53566200  0.44144300  1
  P  P12  1  0.19179500  0.42053000  0.22842300  1
  P  P13  1  0.19180300  0.92052900  0.22842100  1
  P  P14  1  0.80819800  0.57946900  0.77157800  1
  P  P15  1  0.80820300  0.07946900  0.77158000  1
  P  P16  1  0.72120800  0.23038300  0.30076400  1
  P  P17  1  0.72120700  0.73037600  0.30076200  1
  P  P18  1  0.27879100  0.76962500  0.69923800  1
  P  P19  1  0.27879300  0.26961500  0.69923700  1
  O  O20  1  0.65500000  0.53626000  0.89130900  1
  O  O21  1  0.65500800  0.03625700  0.89130700  1
  O  O22  1  0.34499100  0.46374300  0.10869600  1
  O  O23  1  0.34499300  0.96374400  0.10869700  1
  O  O24  1  0.26366200  0.27651500  0.20959800  1
  O  O25  1  0.26366400  0.77651900  0.20960300  1
  O  O26  1  0.73633200  0.72348200  0.79039800  1
  O  O27  1  0.73633900  0.22348500  0.79040100  1
  O  O28  1  0.02702300  0.55278100  0.77836300  1
  O  O29  1  0.02702800  0.05277400  0.77835700  1
  O  O30  1  0.97297000  0.44722400  0.22164500  1
  O  O31  1  0.97297900  0.94722100  0.22163800  1
  O  O32  1  0.42330000  0.36684400  0.69578400  1
  O  O33  1  0.42329700  0.86684800  0.69578500  1
  O  O34  1  0.57669800  0.63315300  0.30421700  1
  O  O35  1  0.57670100  0.13315300  0.30421800  1
  O  O36  1  0.17444300  0.78195900  0.57645200  1
  O  O37  1  0.17444500  0.28195900  0.57645100  1
  O  O38  1  0.82555700  0.21803900  0.42354900  1
  O  O39  1  0.82555200  0.71804000  0.42355000  1
  O  O40  1  0.12779600  0.80456300  0.86564700  1
  O  O41  1  0.12779500  0.30455900  0.86564500  1
  O  O42  1  0.87220600  0.19544100  0.13435600  1
  O  O43  1  0.87220400  0.69543500  0.13435700  1
  O  O44  1  0.18443400  0.51331100  0.39068900  1
  O  O45  1  0.18442800  0.01331200  0.39069000  1
  O  O46  1  0.81556700  0.48668800  0.60931100  1
  O  O47  1  0.81556700  0.98668700  0.60931300  1
  O  O48  1  0.58737400  0.37212800  0.35965900  1
  O  O49  1  0.58736700  0.87212500  0.35966000  1
  O  O50  1  0.41263300  0.62787300  0.64034100  1
  O  O51  1  0.41262400  0.12787100  0.64034200  1
