# generated using pymatgen
data_Mg2Ta2CrO8
_symmetry_space_group_name_H-M   'P 1'
_cell_length_a   5.21929306
_cell_length_b   6.05647959
_cell_length_c   10.15102840
_cell_angle_alpha   106.94092259
_cell_angle_beta   91.47626226
_cell_angle_gamma   90.19825278
_symmetry_Int_Tables_number   1
_chemical_formula_structural   Mg2Ta2CrO8
_chemical_formula_sum   'Mg4 Ta4 Cr2 O16'
_cell_volume   306.83310719
_cell_formula_units_Z   2
loop_
 _symmetry_equiv_pos_site_id
 _symmetry_equiv_pos_as_xyz
  1  'x, y, z'
loop_
 _atom_site_type_symbol
 _atom_site_label
 _atom_site_symmetry_multiplicity
 _atom_site_fract_x
 _atom_site_fract_y
 _atom_site_fract_z
 _atom_site_occupancy
  Mg  Mg0  1  0.75619400  0.41777400  0.54553300  1
  Mg  Mg1  1  0.74367700  0.87072900  0.45302100  1
  Mg  Mg2  1  0.24411500  0.58328600  0.45240000  1
  Mg  Mg3  1  0.25659500  0.13043800  0.54470700  1
  Ta  Ta4  1  0.73652100  0.28000100  0.23613700  1
  Ta  Ta5  1  0.76476400  0.04219700  0.76213300  1
  Ta  Ta6  1  0.26386800  0.72007600  0.76209900  1
  Ta  Ta7  1  0.23571800  0.95993600  0.23595500  1
  Cr  Cr8  1  0.24751500  0.34952800  0.99969100  1
  Cr  Cr9  1  0.74758600  0.65193700  0.99937800  1
  O  O10  1  0.06646300  0.18890100  0.14781600  1
  O  O11  1  0.43603300  0.03147500  0.84899100  1
  O  O12  1  0.93477100  0.81441300  0.84952300  1
  O  O13  1  0.56535400  0.96640400  0.14853100  1
  O  O14  1  0.57887100  0.42453900  0.11843400  1
  O  O15  1  0.91792000  0.30484800  0.87984200  1
  O  O16  1  0.41526900  0.57277800  0.88081300  1
  O  O17  1  0.07600500  0.70098300  0.11927700  1
  O  O18  1  0.44934200  0.29120200  0.37352100  1
  O  O19  1  0.05053000  0.91690600  0.62459100  1
  O  O20  1  0.94931400  0.08526000  0.37312100  1
  O  O21  1  0.55028400  0.70859500  0.62414500  1
  O  O22  1  0.37378100  0.83958000  0.38343900  1
  O  O23  1  0.12582000  0.45424900  0.61436700  1
  O  O24  1  0.62593500  0.16127200  0.61422900  1
  O  O25  1  0.87396900  0.54678100  0.38335100  1
