# generated using pymatgen
data_Ca2Ta2VO8
_symmetry_space_group_name_H-M   'P 1'
_cell_length_a   5.52683021
_cell_length_b   10.06932837
_cell_length_c   12.67253511
_cell_angle_alpha   108.32853889
_cell_angle_beta   89.99994488
_cell_angle_gamma   91.42733707
_symmetry_Int_Tables_number   1
_chemical_formula_structural   Ca2Ta2VO8
_chemical_formula_sum   'Ca8 Ta8 V4 O32'
_cell_volume   669.23684627
_cell_formula_units_Z   4
loop_
 _symmetry_equiv_pos_site_id
 _symmetry_equiv_pos_as_xyz
  1  'x, y, z'
loop_
 _atom_site_type_symbol
 _atom_site_label
 _atom_site_symmetry_multiplicity
 _atom_site_fract_x
 _atom_site_fract_y
 _atom_site_fract_z
 _atom_site_occupancy
  Ca  Ca0  1  0.75545900  0.58298700  0.55582300  1
  Ca  Ca1  1  0.75545900  0.58298200  0.05582000  1
  Ca  Ca2  1  0.74218700  0.41652000  0.26414900  1
  Ca  Ca3  1  0.74218400  0.41651500  0.76414700  1
  Ca  Ca4  1  0.24224600  0.41680100  0.44481100  1
  Ca  Ca5  1  0.24224500  0.41680000  0.94480700  1
  Ca  Ca6  1  0.25541100  0.58315300  0.73645800  1
  Ca  Ca7  1  0.25540600  0.58314700  0.23645600  1
  Ta  Ta8  1  0.75793500  0.22439800  0.48180400  1
  Ta  Ta9  1  0.75794000  0.22439000  0.98179800  1
  Ta  Ta10  1  0.73968300  0.77526300  0.86957400  1
  Ta  Ta11  1  0.73969100  0.77526500  0.36957500  1
  Ta  Ta12  1  0.23968200  0.77540100  0.51888700  1
  Ta  Ta13  1  0.23968800  0.77539600  0.01888300  1
  Ta  Ta14  1  0.25790100  0.22439300  0.13111400  1
  Ta  Ta15  1  0.25791100  0.22439400  0.63111700  1
  V  V16  1  0.74879700  0.99988500  0.68345300  1
  V  V17  1  0.24875000  0.99987300  0.81733500  1
  V  V18  1  0.74879200  0.99989000  0.18344100  1
  V  V19  1  0.24875800  0.99986800  0.31734500  1
  O  O20  1  0.09062300  0.14168700  0.47308900  1
  O  O21  1  0.09061700  0.14168500  0.97308900  1
  O  O22  1  0.40687200  0.85790600  0.90207200  1
  O  O23  1  0.40686800  0.85790600  0.40207300  1
  O  O24  1  0.90683300  0.85789900  0.52770100  1
  O  O25  1  0.90682800  0.85789800  0.02770000  1
  O  O26  1  0.59074900  0.14192000  0.09874800  1
  O  O27  1  0.59075100  0.14192100  0.59875000  1
  O  O28  1  0.59586600  0.11479100  0.35223000  1
  O  O29  1  0.59587800  0.11479300  0.85223700  1
  O  O30  1  0.90161200  0.88492200  0.79476900  1
  O  O31  1  0.90161900  0.88492500  0.29476700  1
  O  O32  1  0.40157400  0.88497600  0.64851200  1
  O  O33  1  0.40158900  0.88497700  0.14851900  1
  O  O34  1  0.09591000  0.11488100  0.20603200  1
  O  O35  1  0.09591800  0.11488400  0.70602800  1
  O  O36  1  0.50116600  0.36207800  0.55988300  1
  O  O37  1  0.50116200  0.36208000  0.05988600  1
  O  O38  1  0.99648400  0.63763000  0.37889000  1
  O  O39  1  0.99648700  0.63763000  0.87889000  1
  O  O40  1  0.00115300  0.36211200  0.62175400  1
  O  O41  1  0.00115300  0.36211200  0.12175600  1
  O  O42  1  0.49645500  0.63764600  0.44075200  1
  O  O43  1  0.49645500  0.63764800  0.94075600  1
  O  O44  1  0.34389800  0.37030400  0.26680100  1
  O  O45  1  0.34389500  0.37030700  0.76679700  1
  O  O46  1  0.15367500  0.62951500  0.58166200  1
  O  O47  1  0.15366900  0.62951700  0.08166500  1
  O  O48  1  0.65374400  0.62946300  0.73384500  1
  O  O49  1  0.65374000  0.62946200  0.23384100  1
  O  O50  1  0.84403600  0.37015600  0.41895400  1
  O  O51  1  0.84403300  0.37015500  0.91895700  1
