# generated using pymatgen
data_Mg2Ta2NiO8
_symmetry_space_group_name_H-M   'P 1'
_cell_length_a   5.19580993
_cell_length_b   5.98088990
_cell_length_c   19.00262215
_cell_angle_alpha   89.99543856
_cell_angle_beta   90.20608866
_cell_angle_gamma   90.00391740
_symmetry_Int_Tables_number   1
_chemical_formula_structural   Mg2Ta2NiO8
_chemical_formula_sum   'Mg8 Ta8 Ni4 O32'
_cell_volume   590.51343740
_cell_formula_units_Z   4
loop_
 _symmetry_equiv_pos_site_id
 _symmetry_equiv_pos_as_xyz
  1  'x, y, z'
loop_
 _atom_site_type_symbol
 _atom_site_label
 _atom_site_symmetry_multiplicity
 _atom_site_fract_x
 _atom_site_fract_y
 _atom_site_fract_z
 _atom_site_occupancy
  Mg  Mg0  1  0.75536000  0.14370100  0.27223700  1
  Mg  Mg1  1  0.75536200  0.64371800  0.77223000  1
  Mg  Mg2  1  0.74548600  0.64383100  0.22686500  1
  Mg  Mg3  1  0.74548700  0.14381500  0.72685700  1
  Mg  Mg4  1  0.24551300  0.35674300  0.22686500  1
  Mg  Mg5  1  0.24551300  0.85675900  0.72685700  1
  Mg  Mg6  1  0.25536700  0.85661200  0.27230300  1
  Mg  Mg7  1  0.25536800  0.35659700  0.77229600  1
  Ta  Ta8  1  0.74332900  0.16487500  0.11444000  1
  Ta  Ta9  1  0.74332600  0.66486800  0.61441800  1
  Ta  Ta10  1  0.75735100  0.66451100  0.38473200  1
  Ta  Ta11  1  0.75735000  0.16451900  0.88471100  1
  Ta  Ta12  1  0.25735000  0.33576500  0.38469500  1
  Ta  Ta13  1  0.25734500  0.83576000  0.88467400  1
  Ta  Ta14  1  0.24334300  0.83601800  0.11446100  1
  Ta  Ta15  1  0.24333900  0.33602500  0.61443900  1
  Ni  Ni16  1  0.75025900  0.64211000  0.99954900  1
  Ni  Ni17  1  0.25029900  0.35859400  0.99960600  1
  Ni  Ni18  1  0.75026000  0.14215900  0.49954800  1
  Ni  Ni19  1  0.25029800  0.85856300  0.49960700  1
  O  O20  1  0.08081500  0.11405000  0.06976700  1
  O  O21  1  0.08082200  0.61407000  0.56976500  1
  O  O22  1  0.41988900  0.61371200  0.42940400  1
  O  O23  1  0.41989400  0.11369800  0.92940100  1
  O  O24  1  0.91980800  0.38643900  0.42936500  1
  O  O25  1  0.91981000  0.88645800  0.92936200  1
  O  O26  1  0.58075200  0.88699000  0.06972700  1
  O  O27  1  0.58075400  0.38697600  0.56972400  1
  O  O28  1  0.58636300  0.37647000  0.05767200  1
  O  O29  1  0.58636200  0.87649000  0.55766300  1
  O  O30  1  0.91419300  0.87597700  0.44156000  1
  O  O31  1  0.91419400  0.37596100  0.94155000  1
  O  O32  1  0.41419900  0.12422500  0.44150400  1
  O  O33  1  0.41419700  0.62425100  0.94149600  1
  O  O34  1  0.08637100  0.62463300  0.05763000  1
  O  O35  1  0.08637200  0.12461100  0.55762000  1
  O  O36  1  0.45579200  0.10313800  0.18526200  1
  O  O37  1  0.45576800  0.60313600  0.68523200  1
  O  O38  1  0.04515900  0.60293200  0.31395200  1
  O  O39  1  0.04513600  0.10293100  0.81392200  1
  O  O40  1  0.95572200  0.89757500  0.18526800  1
  O  O41  1  0.95570000  0.39757600  0.68523700  1
  O  O42  1  0.54507100  0.39736400  0.31390800  1
  O  O43  1  0.54504800  0.89736300  0.81387900  1
  O  O44  1  0.38040100  0.64610000  0.19037500  1
  O  O45  1  0.38041100  0.14608500  0.69035400  1
  O  O46  1  0.12040800  0.14588200  0.30875900  1
  O  O47  1  0.12041800  0.64589700  0.80873900  1
  O  O48  1  0.62048200  0.85441200  0.30877900  1
  O  O49  1  0.62049200  0.35439600  0.80875800  1
  O  O50  1  0.88045300  0.35460800  0.19038000  1
  O  O51  1  0.88046200  0.85462400  0.69036100  1
