# generated using pymatgen
data_Mg2V3O8
_symmetry_space_group_name_H-M   'P 1'
_cell_length_a   5.91393245
_cell_length_b   5.91862155
_cell_length_c   9.51664313
_cell_angle_alpha   89.92395146
_cell_angle_beta   90.04501150
_cell_angle_gamma   119.97896470
_symmetry_Int_Tables_number   1
_chemical_formula_structural   Mg2V3O8
_chemical_formula_sum   'Mg4 V6 O16'
_cell_volume   288.53797230
_cell_formula_units_Z   2
loop_
 _symmetry_equiv_pos_site_id
 _symmetry_equiv_pos_as_xyz
  1  'x, y, z'
loop_
 _atom_site_type_symbol
 _atom_site_label
 _atom_site_symmetry_multiplicity
 _atom_site_fract_x
 _atom_site_fract_y
 _atom_site_fract_z
 _atom_site_occupancy
  Mg  Mg0  1  0.66717000  0.33410600  0.02177200  1
  Mg  Mg1  1  0.33295900  0.66593500  0.52270500  1
  Mg  Mg2  1  0.66665700  0.33258800  0.42099600  1
  Mg  Mg3  1  0.33304500  0.66587800  0.92155400  1
  V  V4  1  0.16396600  0.32661200  0.24390100  1
  V  V5  1  0.83501500  0.67324200  0.74394900  1
  V  V6  1  0.16203300  0.83620000  0.24449900  1
  V  V7  1  0.67371700  0.83797500  0.24463800  1
  V  V8  1  0.83786400  0.16410000  0.74458100  1
  V  V9  1  0.32562800  0.16081900  0.74422900  1
  O  O10  1  0.00070600  0.00069600  0.35276500  1
  O  O11  1  0.99962200  0.99889700  0.85326100  1
  O  O12  1  0.33349500  0.66734100  0.13182800  1
  O  O13  1  0.66635200  0.33306900  0.63153800  1
  O  O14  1  0.82229500  0.14994000  0.14622700  1
  O  O15  1  0.67255900  0.82229300  0.64615400  1
  O  O16  1  0.14911700  0.32632300  0.64618800  1
  O  O17  1  0.85228800  0.67566400  0.14492700  1
  O  O18  1  0.32797800  0.17950000  0.14630000  1
  O  O19  1  0.17718000  0.84971100  0.64616200  1
  O  O20  1  0.50623800  0.46883800  0.86449800  1
  O  O21  1  0.03754700  0.50655500  0.36488000  1
  O  O22  1  0.46856100  0.96205700  0.36514800  1
  O  O23  1  0.53056000  0.03685900  0.86478000  1
  O  O24  1  0.96270900  0.49289100  0.86462500  1
  O  O25  1  0.49474200  0.53191500  0.36489700  1
