# generated using pymatgen
data_V3Zn2O8
_symmetry_space_group_name_H-M   'P 1'
_cell_length_a   5.91271100
_cell_length_b   5.91280860
_cell_length_c   9.54149700
_cell_angle_alpha   90.00011513
_cell_angle_beta   90.00008080
_cell_angle_gamma   119.99913669
_symmetry_Int_Tables_number   1
_chemical_formula_structural   V3Zn2O8
_chemical_formula_sum   'V6 Zn4 O16'
_cell_volume   288.88926292
_cell_formula_units_Z   2
loop_
 _symmetry_equiv_pos_site_id
 _symmetry_equiv_pos_as_xyz
  1  'x, y, z'
loop_
 _atom_site_type_symbol
 _atom_site_label
 _atom_site_symmetry_multiplicity
 _atom_site_fract_x
 _atom_site_fract_y
 _atom_site_fract_z
 _atom_site_occupancy
  V  V0  1  0.83821400  0.16251500  0.74343700  1
  V  V1  1  0.83748500  0.67569100  0.74341400  1
  V  V2  1  0.32428400  0.16178200  0.74342400  1
  V  V3  1  0.67549700  0.83708700  0.24342500  1
  V  V4  1  0.16157700  0.32451400  0.24341800  1
  V  V5  1  0.16293000  0.83842700  0.24342500  1
  Zn  Zn6  1  0.66668500  0.33335400  0.02647700  1
  Zn  Zn7  1  0.33331200  0.66663800  0.52646100  1
  Zn  Zn8  1  0.66667100  0.33334100  0.42324500  1
  Zn  Zn9  1  0.33332000  0.66664600  0.92329700  1
  O  O10  1  0.00000800  0.00001300  0.35385200  1
  O  O11  1  0.99999200  0.99998700  0.85380200  1
  O  O12  1  0.33333000  0.66667000  0.13320300  1
  O  O13  1  0.66667400  0.33333100  0.63316900  1
  O  O14  1  0.84061700  0.16696300  0.14639900  1
  O  O15  1  0.67365300  0.83439700  0.64647000  1
  O  O16  1  0.16074500  0.32632500  0.64648000  1
  O  O17  1  0.83305500  0.67367100  0.14639800  1
  O  O18  1  0.32634400  0.15940300  0.14639300  1
  O  O19  1  0.16560000  0.83925800  0.64647900  1
  O  O20  1  0.51526400  0.48089300  0.86240900  1
  O  O21  1  0.03439400  0.52016400  0.36237200  1
  O  O22  1  0.48576400  0.96561800  0.36237800  1
  O  O23  1  0.51910900  0.03434900  0.86240800  1
  O  O24  1  0.96562900  0.48472100  0.86239900  1
  O  O25  1  0.47985000  0.51424800  0.36237700  1
