# generated using pymatgen
data_Tl3Co3O8
_symmetry_space_group_name_H-M   'P 1'
_cell_length_a   5.58116726
_cell_length_b   11.32911567
_cell_length_c   5.56870181
_cell_angle_alpha   90.00850724
_cell_angle_beta   90.69301103
_cell_angle_gamma   89.99994594
_symmetry_Int_Tables_number   1
_chemical_formula_structural   Tl3Co3O8
_chemical_formula_sum   'Tl6 Co6 O16'
_cell_volume   352.08152667
_cell_formula_units_Z   2
loop_
 _symmetry_equiv_pos_site_id
 _symmetry_equiv_pos_as_xyz
  1  'x, y, z'
loop_
 _atom_site_type_symbol
 _atom_site_label
 _atom_site_symmetry_multiplicity
 _atom_site_fract_x
 _atom_site_fract_y
 _atom_site_fract_z
 _atom_site_occupancy
  Tl  Tl0  1  0.80451500  0.50249600  0.27358900  1
  Tl  Tl1  1  0.29763900  0.49891500  0.73513400  1
  Tl  Tl2  1  0.69713200  0.17876700  0.26392800  1
  Tl  Tl3  1  0.19936500  0.82055400  0.73249000  1
  Tl  Tl4  1  0.69655100  0.82037800  0.26361100  1
  Tl  Tl5  1  0.19863200  0.17893400  0.73336000  1
  Co  Co6  1  0.69163200  0.99761900  0.79918400  1
  Co  Co7  1  0.24790500  0.33037400  0.23989800  1
  Co  Co8  1  0.25128200  0.67095700  0.24306600  1
  Co  Co9  1  0.19199100  0.00153100  0.19902600  1
  Co  Co10  1  0.74835700  0.66692900  0.76519900  1
  Co  Co11  1  0.75063200  0.32903000  0.75580900  1
  O  O12  1  0.96508200  0.27850500  0.05636100  1
  O  O13  1  0.46168300  0.72308000  0.94980300  1
  O  O14  1  0.45687600  0.28259500  0.95057700  1
  O  O15  1  0.95345000  0.71906400  0.04441800  1
  O  O16  1  0.83823700  0.99966800  0.12969400  1
  O  O17  1  0.33875500  0.00098800  0.87066500  1
  O  O18  1  0.18746000  0.49681100  0.13046400  1
  O  O19  1  0.68930100  0.50529300  0.86783400  1
  O  O20  1  0.30141500  0.14973300  0.34834200  1
  O  O21  1  0.79984200  0.84853800  0.65164900  1
  O  O22  1  0.30280200  0.85580200  0.35175700  1
  O  O23  1  0.80347400  0.14437900  0.64917100  1
  O  O24  1  0.54638800  0.36723100  0.43150400  1
  O  O25  1  0.05242600  0.63204600  0.56289900  1
  O  O26  1  0.05396500  0.36500700  0.55046300  1
  O  O27  1  0.55961400  0.63477500  0.45010700  1
