# generated using pymatgen
data_Li2Fe2P4H3O16
_symmetry_space_group_name_H-M   'P 1'
_cell_length_a   7.90750459
_cell_length_b   8.24604054
_cell_length_c   9.97419005
_cell_angle_alpha   92.02663806
_cell_angle_beta   113.87098756
_cell_angle_gamma   89.10293566
_symmetry_Int_Tables_number   1
_chemical_formula_structural   Li2Fe2P4H3O16
_chemical_formula_sum   'Li4 Fe4 P8 H6 O32'
_cell_volume   594.36685145
_cell_formula_units_Z   2
loop_
 _symmetry_equiv_pos_site_id
 _symmetry_equiv_pos_as_xyz
  1  'x, y, z'
loop_
 _atom_site_type_symbol
 _atom_site_label
 _atom_site_symmetry_multiplicity
 _atom_site_fract_x
 _atom_site_fract_y
 _atom_site_fract_z
 _atom_site_occupancy
  Li  Li0  1  0.83295100  0.84824800  0.74019000  1
  Li  Li1  1  0.83413400  0.84350200  0.24398900  1
  Li  Li2  1  0.17207100  0.15715900  0.26406900  1
  Li  Li3  1  0.16828100  0.14569700  0.77014900  1
  Fe  Fe4  1  0.00043000  0.49944800  0.75210900  1
  Fe  Fe5  1  0.49948000  0.99841800  0.24633700  1
  Fe  Fe6  1  0.00097300  0.49767400  0.25274300  1
  Fe  Fe7  1  0.50042700  0.00014500  0.75209900  1
  P  P8  1  0.26087200  0.34216900  0.57253600  1
  P  P9  1  0.26060800  0.34038400  0.06893800  1
  P  P10  1  0.23396200  0.84684400  0.42121300  1
  P  P11  1  0.23576800  0.84382500  0.92222000  1
  P  P12  1  0.75491100  0.15684600  0.57550300  1
  P  P13  1  0.76149800  0.15350400  0.07935200  1
  P  P14  1  0.74059600  0.65951000  0.43484000  1
  P  P15  1  0.74236400  0.65719300  0.93518400  1
  H  H16  1  0.55417800  0.40408000  0.61432900  1
  H  H17  1  0.51536200  0.43489100  0.05494700  1
  H  H18  1  0.44524800  0.60093200  0.38901100  1
  H  H19  1  0.44219700  0.60340600  0.87411700  1
  H  H20  1  0.97613000  0.01820600  0.51180900  1
  H  H21  1  0.97841700  0.01210600  0.01251700  1
  O  O22  1  0.67951600  0.82712700  0.36766400  1
  O  O23  1  0.67874400  0.82135300  0.86198100  1
  O  O24  1  0.85844800  0.56576900  0.86652900  1
  O  O25  1  0.85865400  0.57342000  0.36493200  1
  O  O26  1  0.38768400  0.84542200  0.57876600  1
  O  O27  1  0.38229900  0.83880800  0.08183100  1
  O  O28  1  0.43568000  0.45261400  0.60797300  1
  O  O29  1  0.43497200  0.45102300  0.10822500  1
  O  O30  1  0.68891800  0.04848600  0.66853500  1
  O  O31  1  0.69377300  0.04521200  0.17141400  1
  O  O32  1  0.79258000  0.32979600  0.64289900  1
  O  O33  1  0.80695200  0.32488100  0.14726600  1
  O  O34  1  0.05108900  0.92084100  0.41023800  1
  O  O35  1  0.05131600  0.91976400  0.90638200  1
  O  O36  1  0.15465800  0.32327500  0.40369400  1
  O  O37  1  0.15194900  0.32494100  0.89986300  1
  O  O38  1  0.85218600  0.67567600  0.60398700  1
  O  O39  1  0.85363300  0.67553200  0.10325600  1
  O  O40  1  0.94803200  0.08165200  0.59154300  1
  O  O41  1  0.95228100  0.07368900  0.09369500  1
  O  O42  1  0.21142500  0.66994300  0.35779300  1
  O  O43  1  0.21138200  0.66638400  0.85770100  1
  O  O44  1  0.31210100  0.95349100  0.33213100  1
  O  O45  1  0.31447300  0.94689400  0.83200600  1
  O  O46  1  0.56704800  0.55024100  0.40576200  1
  O  O47  1  0.56569100  0.54964700  0.90893300  1
  O  O48  1  0.61261300  0.15720500  0.41666600  1
  O  O49  1  0.61987400  0.15604500  0.92010600  1
  O  O50  1  0.14568700  0.42266200  0.14300700  1
  O  O51  1  0.13938600  0.43309200  0.63606300  1
  O  O52  1  0.32009900  0.17623500  0.64350200  1
  O  O53  1  0.31997200  0.17074500  0.13327900  1
