# generated using pymatgen
data_CoSb(PO4)2
_symmetry_space_group_name_H-M   'P 1'
_cell_length_a   4.93989627
_cell_length_b   11.95993746
_cell_length_c   11.89861968
_cell_angle_alpha   114.44519801
_cell_angle_beta   94.89389907
_cell_angle_gamma   85.32639985
_symmetry_Int_Tables_number   1
_chemical_formula_structural   CoSb(PO4)2
_chemical_formula_sum   'Co4 Sb4 P8 O32'
_cell_volume   636.80377996
_cell_formula_units_Z   4
loop_
 _symmetry_equiv_pos_site_id
 _symmetry_equiv_pos_as_xyz
  1  'x, y, z'
loop_
 _atom_site_type_symbol
 _atom_site_label
 _atom_site_symmetry_multiplicity
 _atom_site_fract_x
 _atom_site_fract_y
 _atom_site_fract_z
 _atom_site_occupancy
  Co  Co0  1  0.42438400  0.95063800  0.73299000  1
  Co  Co1  1  0.60185000  0.99509500  0.21678900  1
  Co  Co2  1  0.39404800  0.49463900  0.27401700  1
  Co  Co3  1  0.57694800  0.54682400  0.76323800  1
  Sb  Sb4  1  0.96202600  0.27076800  0.97939800  1
  Sb  Sb5  1  0.91203000  0.76816100  0.46805000  1
  Sb  Sb6  1  0.09229200  0.72842900  0.02899600  1
  Sb  Sb7  1  0.03596800  0.23051900  0.52192200  1
  P  P8  1  0.41901400  0.18391900  0.07817100  1
  P  P9  1  0.38225200  0.66789300  0.57029700  1
  P  P10  1  0.62275000  0.82952900  0.92601000  1
  P  P11  1  0.58086100  0.31905500  0.42656100  1
  P  P12  1  0.84607500  0.56367500  0.15105500  1
  P  P13  1  0.87728500  0.09137500  0.68930300  1
  P  P14  1  0.12335100  0.40876400  0.81213800  1
  P  P15  1  0.14928300  0.93851100  0.34897200  1
  O  O16  1  0.59144600  0.38881900  0.34768300  1
  O  O17  1  0.64464600  0.90864700  0.85569000  1
  O  O18  1  0.35597700  0.58940000  0.64102200  1
  O  O19  1  0.41027800  0.11415000  0.15730300  1
  O  O20  1  0.71969600  0.19737900  0.05782300  1
  O  O21  1  0.68181000  0.68590300  0.56003400  1
  O  O22  1  0.32428500  0.81164900  0.93882800  1
  O  O23  1  0.27918600  0.30492200  0.44517600  1
  O  O24  1  0.15547700  0.56398200  0.17150300  1
  O  O25  1  0.18280700  0.07267300  0.70024700  1
  O  O26  1  0.81787100  0.42814400  0.80303200  1
  O  O27  1  0.83913000  0.94008800  0.32914800  1
  O  O28  1  0.20258100  0.34219400  0.90150400  1
  O  O29  1  0.24854400  0.85381500  0.41371200  1
  O  O30  1  0.74651100  0.64710500  0.08482200  1
  O  O31  1  0.79882800  0.15878900  0.60090600  1
  O  O32  1  0.23966300  0.12651600  0.95168700  1
  O  O33  1  0.21724200  0.61574400  0.43897600  1
  O  O34  1  0.24927700  0.31438300  0.13055200  1
  O  O35  1  0.21541100  0.79715300  0.62788700  1
  O  O36  1  0.78969900  0.70051700  0.86849000  1
  O  O37  1  0.75203000  0.18979100  0.37394700  1
  O  O38  1  0.78911900  0.88290500  0.05676900  1
  O  O39  1  0.75717000  0.37652900  0.55416600  1
  O  O40  1  0.70704800  0.59705800  0.27380300  1
  O  O41  1  0.75690600  0.17783800  0.81990500  1
  O  O42  1  0.74929500  0.42581300  0.06504900  1
  O  O43  1  0.72535600  0.97171600  0.64031500  1
  O  O44  1  0.24243600  0.32176500  0.68182900  1
  O  O45  1  0.28506000  0.90357500  0.22492000  1
  O  O46  1  0.27665500  0.52818400  0.85956300  1
  O  O47  1  0.24814500  0.07506100  0.43580300  1
