# generated using pymatgen
data_CaLaCrSbO6
_symmetry_space_group_name_H-M   'P 1'
_cell_length_a   5.71561265
_cell_length_b   5.91880619
_cell_length_c   7.85117768
_cell_angle_alpha   90.26687161
_cell_angle_beta   89.99696136
_cell_angle_gamma   85.21729905
_symmetry_Int_Tables_number   1
_chemical_formula_structural   CaLaCrSbO6
_chemical_formula_sum   'Ca2 La2 Cr2 Sb2 O12'
_cell_volume   264.67452486
_cell_formula_units_Z   2
loop_
 _symmetry_equiv_pos_site_id
 _symmetry_equiv_pos_as_xyz
  1  'x, y, z'
loop_
 _atom_site_type_symbol
 _atom_site_label
 _atom_site_symmetry_multiplicity
 _atom_site_fract_x
 _atom_site_fract_y
 _atom_site_fract_z
 _atom_site_occupancy
  Ca  Ca0  1  0.50473000  0.44802200  0.75091200  1
  Ca  Ca1  1  0.98315500  0.05627800  0.25068500  1
  La  La2  1  0.01792600  0.94549100  0.74970400  1
  La  La3  1  0.49847000  0.55506400  0.25250300  1
  Cr  Cr4  1  0.50271300  0.00559500  0.49867800  1
  Cr  Cr5  1  0.99793800  0.49783800  0.99988200  1
  Sb  Sb6  1  0.50147800  0.00342400  0.00019600  1
  Sb  Sb7  1  0.99895000  0.49547500  0.50124400  1
  O  O8  1  0.09603300  0.45841700  0.25372000  1
  O  O9  1  0.19803300  0.19229500  0.95088700  1
  O  O10  1  0.18486500  0.19479000  0.54672500  1
  O  O11  1  0.33612300  0.72643700  0.94178600  1
  O  O12  1  0.27960800  0.66591100  0.54868900  1
  O  O13  1  0.39647400  0.96287100  0.24538100  1
  O  O14  1  0.59992300  0.04595500  0.75398500  1
  O  O15  1  0.72012000  0.32321000  0.45455800  1
  O  O16  1  0.66872000  0.27746200  0.05646200  1
  O  O17  1  0.81095200  0.79623300  0.44835500  1
  O  O18  1  0.80515800  0.81235700  0.04873900  1
  O  O19  1  0.89863100  0.53687600  0.74691000  1
