# generated using pymatgen
data_La2MnCrO6
_symmetry_space_group_name_H-M   'P 1'
_cell_length_a   5.63088313
_cell_length_b   7.76322092
_cell_length_c   5.72190666
_cell_angle_alpha   89.53858595
_cell_angle_beta   86.78795084
_cell_angle_gamma   89.54858032
_symmetry_Int_Tables_number   1
_chemical_formula_structural   La2MnCrO6
_chemical_formula_sum   'La4 Mn2 Cr2 O12'
_cell_volume   249.71826839
_cell_formula_units_Z   2
loop_
 _symmetry_equiv_pos_site_id
 _symmetry_equiv_pos_as_xyz
  1  'x, y, z'
loop_
 _atom_site_type_symbol
 _atom_site_label
 _atom_site_symmetry_multiplicity
 _atom_site_fract_x
 _atom_site_fract_y
 _atom_site_fract_z
 _atom_site_occupancy
  La  La0  1  0.48751700  0.74957100  0.54318800  1
  La  La1  1  0.00546900  0.75014700  0.04342900  1
  La  La2  1  0.51252300  0.25042600  0.45672500  1
  La  La3  1  0.99462700  0.24989500  0.95658300  1
  Mn  Mn4  1  0.00007700  0.50003300  0.50005800  1
  Mn  Mn5  1  0.49995100  0.99999400  0.00006600  1
  Cr  Cr6  1  0.50001300  0.50003400  0.00001500  1
  Cr  Cr7  1  0.99989700  0.99993500  0.50015500  1
  O  O8  1  0.70448800  0.04511100  0.71304900  1
  O  O9  1  0.77816500  0.45594000  0.19608600  1
  O  O10  1  0.29547800  0.95484500  0.28695600  1
  O  O11  1  0.22184600  0.54406800  0.80385300  1
  O  O12  1  0.28815700  0.54174200  0.29662400  1
  O  O13  1  0.19892900  0.95449500  0.77758600  1
  O  O14  1  0.71187800  0.45822500  0.70335600  1
  O  O15  1  0.80110300  0.04550900  0.22242200  1
  O  O16  1  0.91740400  0.74650800  0.47801700  1
  O  O17  1  0.58387000  0.75408000  0.97628700  1
  O  O18  1  0.08244300  0.25350700  0.52182300  1
  O  O19  1  0.41616600  0.24593900  0.02372100  1
