# generated using pymatgen
data_Sr4LaMn5O13
_symmetry_space_group_name_H-M   'P 1'
_cell_length_a   7.65894001
_cell_length_b   8.88628219
_cell_length_c   9.64633379
_cell_angle_alpha   90.33543170
_cell_angle_beta   66.61012276
_cell_angle_gamma   89.99549139
_symmetry_Int_Tables_number   1
_chemical_formula_structural   Sr4LaMn5O13
_chemical_formula_sum   'Sr8 La2 Mn10 O26'
_cell_volume   602.56222310
_cell_formula_units_Z   2
loop_
 _symmetry_equiv_pos_site_id
 _symmetry_equiv_pos_as_xyz
  1  'x, y, z'
loop_
 _atom_site_type_symbol
 _atom_site_label
 _atom_site_symmetry_multiplicity
 _atom_site_fract_x
 _atom_site_fract_y
 _atom_site_fract_z
 _atom_site_occupancy
  Sr  Sr0  1  0.79791900  0.31754600  0.89730300  1
  Sr  Sr1  1  0.30480000  0.31752900  0.89728800  1
  Sr  Sr2  1  0.20181900  0.68457100  0.09947200  1
  Sr  Sr3  1  0.69870600  0.68457800  0.09948600  1
  Sr  Sr4  1  0.89634000  0.88761700  0.70642100  1
  Sr  Sr5  1  0.39719300  0.88762300  0.70641200  1
  Sr  Sr6  1  0.10240600  0.11244200  0.29670100  1
  Sr  Sr7  1  0.60090200  0.11245700  0.29672500  1
  La  La8  1  0.99754900  0.49837600  0.50302900  1
  La  La9  1  0.49942400  0.49828900  0.50306100  1
  Mn  Mn10  1  0.09972700  0.60522900  0.80056800  1
  Mn  Mn11  1  0.90097700  0.39369500  0.19807100  1
  Mn  Mn12  1  0.69794900  0.19197500  0.60419400  1
  Mn  Mn13  1  0.30275400  0.80414400  0.39443800  1
  Mn  Mn14  1  0.80302100  0.80179000  0.39386500  1
  Mn  Mn15  1  0.49882300  0.00563800  0.00238200  1
  Mn  Mn16  1  0.99955700  0.99913400  0.00086100  1
  Mn  Mn17  1  0.60029500  0.60703600  0.79940300  1
  Mn  Mn18  1  0.39989100  0.39691800  0.20022800  1
  Mn  Mn19  1  0.19625600  0.19305000  0.60752200  1
  O  O20  1  0.50513300  0.50753400  0.98975700  1
  O  O21  1  0.00328000  0.50263100  0.99350100  1
  O  O22  1  0.15686700  0.41866600  0.68643200  1
  O  O23  1  0.66300800  0.40879200  0.67393500  1
  O  O24  1  0.34248500  0.58319700  0.31490700  1
  O  O25  1  0.84264800  0.58142500  0.31466300  1
  O  O26  1  0.95663900  0.16010800  0.58957700  1
  O  O27  1  0.45387200  0.16018400  0.58954900  1
  O  O28  1  0.04118900  0.83565800  0.41366800  1
  O  O29  1  0.54504500  0.83571900  0.41369900  1
  O  O30  1  0.09941900  0.08094300  0.80126900  1
  O  O31  1  0.59873200  0.09102400  0.80261200  1
  O  O32  1  0.39886600  0.92047900  0.20218000  1
  O  O33  1  0.89999600  0.91296300  0.19986100  1
  O  O34  1  0.04312200  0.80114100  0.91357400  1
  O  O35  1  0.54180600  0.81393900  0.91644100  1
  O  O36  1  0.45611600  0.20486000  0.08791500  1
  O  O37  1  0.95805000  0.19624600  0.08394400  1
  O  O38  1  0.20130700  0.71523000  0.59733900  1
  O  O39  1  0.70155800  0.71405100  0.59685900  1
  O  O40  1  0.29406100  0.28106200  0.41178800  1
  O  O41  1  0.79794900  0.27125000  0.40414200  1
  O  O42  1  0.85927300  0.60263400  0.79039700  1
  O  O43  1  0.35029900  0.60273800  0.79046700  1
  O  O44  1  0.14624500  0.39893600  0.20702000  1
  O  O45  1  0.64672800  0.39895100  0.20707500  1
