# generated using pymatgen
data_Ca3CoO6
_symmetry_space_group_name_H-M   'P 1'
_cell_length_a   8.81330215
_cell_length_b   8.85479463
_cell_length_c   9.21146830
_cell_angle_alpha   61.24000624
_cell_angle_beta   90.45491812
_cell_angle_gamma   120.17593393
_symmetry_Int_Tables_number   1
_chemical_formula_structural   Ca3CoO6
_chemical_formula_sum   'Ca12 Co4 O24'
_cell_volume   518.18797533
_cell_formula_units_Z   4
loop_
 _symmetry_equiv_pos_site_id
 _symmetry_equiv_pos_as_xyz
  1  'x, y, z'
loop_
 _atom_site_type_symbol
 _atom_site_label
 _atom_site_symmetry_multiplicity
 _atom_site_fract_x
 _atom_site_fract_y
 _atom_site_fract_z
 _atom_site_occupancy
  Ca  Ca0  1  0.77820000  0.25311400  0.62632300  1
  Ca  Ca1  1  0.27036500  0.25131300  0.12410200  1
  Ca  Ca2  1  0.47296500  0.60178900  0.62311200  1
  Ca  Ca3  1  0.97841300  0.60417300  0.12690600  1
  Ca  Ca4  1  0.37288200  0.10045400  0.87400700  1
  Ca  Ca5  1  0.87741100  0.10244500  0.37603000  1
  Ca  Ca6  1  0.72414900  0.74705100  0.87672800  1
  Ca  Ca7  1  0.22459800  0.75060600  0.37518400  1
  Ca  Ca8  1  0.02647300  0.40187700  0.87448400  1
  Ca  Ca9  1  0.52472100  0.39900800  0.37316500  1
  Ca  Ca10  1  0.12462800  0.88851300  0.62495800  1
  Ca  Ca11  1  0.62552900  0.90100900  0.12475700  1
  Co  Co12  1  0.50543100  0.99892100  0.50780200  1
  Co  Co13  1  0.25652300  0.50510700  0.24213600  1
  Co  Co14  1  0.99357400  0.99000500  0.00768100  1
  Co  Co15  1  0.74435500  0.50069300  0.74236600  1
  O  O16  1  0.52600300  0.41888300  0.89181200  1
  O  O17  1  0.03615300  0.41890100  0.39719100  1
  O  O18  1  0.06108800  0.91942300  0.85674300  1
  O  O19  1  0.56292200  0.93901900  0.35998100  1
  O  O20  1  0.88193100  0.56717900  0.89849300  1
  O  O21  1  0.37670600  0.56487100  0.38886500  1
  O  O22  1  0.81313900  0.76533900  0.61595700  1
  O  O23  1  0.31828700  0.78055200  0.11171300  1
  O  O24  1  0.64472600  0.92993900  0.63877900  1
  O  O25  1  0.13514100  0.93371100  0.13313700  1
  O  O26  1  0.60637500  0.42380200  0.61038000  1
  O  O27  1  0.11450800  0.43205800  0.11670800  1
  O  O28  1  0.68722600  0.23623800  0.88972800  1
  O  O29  1  0.18823600  0.21594000  0.39400800  1
  O  O30  1  0.21471500  0.27971600  0.85205000  1
  O  O31  1  0.72198800  0.28399200  0.35780000  1
  O  O32  1  0.29255200  0.72392300  0.63822300  1
  O  O33  1  0.78752400  0.72257200  0.14096700  1
  O  O34  1  0.43627600  0.06781900  0.63475000  1
  O  O35  1  0.93295500  0.07433400  0.13838800  1
  O  O36  1  0.87482200  0.07751400  0.86068400  1
  O  O37  1  0.36633200  0.08218700  0.35279200  1
  O  O38  1  0.95846200  0.57024700  0.61249800  1
  O  O39  1  0.46171600  0.57576200  0.10861100  1
