# generated using pymatgen
data_KC10
_symmetry_space_group_name_H-M   'P 1'
_cell_length_a   9.99436617
_cell_length_b   9.99436617
_cell_length_c   9.99436617
_cell_angle_alpha   109.47122063
_cell_angle_beta   109.47122063
_cell_angle_gamma   109.47122063
_symmetry_Int_Tables_number   1
_chemical_formula_structural   KC10
_chemical_formula_sum   'K6 C60'
_cell_volume   768.50001503
_cell_formula_units_Z   6
loop_
 _symmetry_equiv_pos_site_id
 _symmetry_equiv_pos_as_xyz
  1  'x, y, z'
loop_
 _atom_site_type_symbol
 _atom_site_label
 _atom_site_symmetry_multiplicity
 _atom_site_fract_x
 _atom_site_fract_y
 _atom_site_fract_z
 _atom_site_occupancy
  K  K0  1  0.27951600  0.50000000  0.77951600  1
  K  K1  1  0.50000000  0.77951600  0.27951600  1
  K  K2  1  0.22048400  0.72048400  0.50000000  1
  K  K3  1  0.50000000  0.22048400  0.72048400  1
  K  K4  1  0.77951600  0.27951600  0.50000000  1
  K  K5  1  0.72048400  0.50000000  0.22048400  1
  C  C6  1  0.36554400  0.06203200  0.30351200  1
  C  C7  1  0.93796800  0.30351200  0.24148000  1
  C  C8  1  0.69648800  0.63445600  0.93796800  1
  C  C9  1  0.06203200  0.69648800  0.75852000  1
  C  C10  1  0.30351200  0.24148000  0.93796800  1
  C  C11  1  0.93796800  0.69648800  0.63445600  1
  C  C12  1  0.69648800  0.75852000  0.06203200  1
  C  C13  1  0.30351200  0.36554400  0.06203200  1
  C  C14  1  0.06203200  0.30351200  0.36554400  1
  C  C15  1  0.24148000  0.93796800  0.30351200  1
  C  C16  1  0.63445600  0.93796800  0.69648800  1
  C  C17  1  0.75852000  0.06203200  0.69648800  1
  C  C18  1  0.38881100  0.22611700  0.36575500  1
  C  C19  1  0.77388300  0.16269400  0.13963800  1
  C  C20  1  0.83730600  0.61118900  0.97694400  1
  C  C21  1  0.02305600  0.63424500  0.86036200  1
  C  C22  1  0.16269400  0.13963800  0.77388300  1
  C  C23  1  0.97694400  0.83730600  0.61118900  1
  C  C24  1  0.63424500  0.86036200  0.02305600  1
  C  C25  1  0.36575500  0.38881100  0.22611700  1
  C  C26  1  0.22611700  0.36575500  0.38881100  1
  C  C27  1  0.13963800  0.77388300  0.16269400  1
  C  C28  1  0.61118900  0.97694400  0.83730600  1
  C  C29  1  0.86036200  0.02305600  0.63424500  1
  C  C30  1  0.61118900  0.77388300  0.63424500  1
  C  C31  1  0.22611700  0.83730600  0.86036200  1
  C  C32  1  0.16269400  0.38881100  0.02305600  1
  C  C33  1  0.97694400  0.36575500  0.13963800  1
  C  C34  1  0.83730600  0.86036200  0.22611700  1
  C  C35  1  0.02305600  0.16269400  0.38881100  1
  C  C36  1  0.36575500  0.13963800  0.97694400  1
  C  C37  1  0.63424500  0.61118900  0.77388300  1
  C  C38  1  0.77388300  0.63424500  0.61118900  1
  C  C39  1  0.86036200  0.22611700  0.83730600  1
  C  C40  1  0.38881100  0.02305600  0.16269400  1
  C  C41  1  0.13963800  0.97694400  0.36575500  1
  C  C42  1  0.28816800  0.26379000  0.42669800  1
  C  C43  1  0.73621000  0.02437800  0.16290900  1
  C  C44  1  0.97562200  0.71183200  0.13853100  1
  C  C45  1  0.86146900  0.57330200  0.83709100  1
  C  C46  1  0.02437800  0.16290900  0.73621000  1
  C  C47  1  0.13853100  0.97562200  0.71183200  1
  C  C48  1  0.57330200  0.83709100  0.86146900  1
  C  C49  1  0.42669800  0.28816800  0.26379000  1
  C  C50  1  0.26379000  0.42669800  0.28816800  1
  C  C51  1  0.16290900  0.73621000  0.02437800  1
  C  C52  1  0.71183200  0.13853100  0.97562200  1
  C  C53  1  0.83709100  0.86146900  0.57330200  1
  C  C54  1  0.71183200  0.73621000  0.57330200  1
  C  C55  1  0.26379000  0.97562200  0.83709100  1
  C  C56  1  0.02437800  0.28816800  0.86146900  1
  C  C57  1  0.13853100  0.42669800  0.16290900  1
  C  C58  1  0.97562200  0.83709100  0.26379000  1
  C  C59  1  0.86146900  0.02437800  0.28816800  1
  C  C60  1  0.42669800  0.16290900  0.13853100  1
  C  C61  1  0.57330200  0.71183200  0.73621000  1
  C  C62  1  0.73621000  0.57330200  0.71183200  1
  C  C63  1  0.83709100  0.26379000  0.97562200  1
  C  C64  1  0.28816800  0.86146900  0.02437800  1
  C  C65  1  0.16290900  0.13853100  0.42669800  1
