# generated using pymatgen
data_Yb2S3
_symmetry_space_group_name_H-M   'P 1'
_cell_length_a   4.08589100
_cell_length_b   11.47808600
_cell_length_c   15.73498109
_cell_angle_alpha   73.42471162
_cell_angle_beta   90.00000000
_cell_angle_gamma   90.00000000
_symmetry_Int_Tables_number   1
_chemical_formula_structural   Yb2S3
_chemical_formula_sum   'Yb12 S18'
_cell_volume   707.27774142
_cell_formula_units_Z   6
loop_
 _symmetry_equiv_pos_site_id
 _symmetry_equiv_pos_as_xyz
  1  'x, y, z'
loop_
 _atom_site_type_symbol
 _atom_site_label
 _atom_site_symmetry_multiplicity
 _atom_site_fract_x
 _atom_site_fract_y
 _atom_site_fract_z
 _atom_site_occupancy
  Yb  Yb0  1  0.75000000  0.51230700  0.88754000  1
  Yb  Yb1  1  0.25000000  0.48769300  0.11246000  1
  Yb  Yb2  1  0.75000000  0.50648500  0.62347500  1
  Yb  Yb3  1  0.25000000  0.49351500  0.37652500  1
  Yb  Yb4  1  0.75000000  0.08909100  0.32626500  1
  Yb  Yb5  1  0.25000000  0.91090900  0.67373500  1
  Yb  Yb6  1  0.75000000  0.79797100  0.24410300  1
  Yb  Yb7  1  0.25000000  0.20202900  0.75589700  1
  Yb  Yb8  1  0.75000000  0.21037600  0.54625100  1
  Yb  Yb9  1  0.25000000  0.78962400  0.45374900  1
  Yb  Yb10  1  0.75000000  0.21923500  0.98743100  1
  Yb  Yb11  1  0.25000000  0.78076500  0.01256900  1
  S  S12  1  0.75000000  0.97386300  0.02966800  1
  S  S13  1  0.25000000  0.02613700  0.97033200  1
  S  S14  1  0.75000000  0.62823800  0.01657500  1
  S  S15  1  0.25000000  0.37176200  0.98342500  1
  S  S16  1  0.75000000  0.32005200  0.36803600  1
  S  S17  1  0.25000000  0.67994800  0.63196400  1
  S  S18  1  0.75000000  0.71326700  0.74659100  1
  S  S19  1  0.25000000  0.28673300  0.25340900  1
  S  S20  1  0.75000000  0.27944800  0.17012700  1
  S  S21  1  0.25000000  0.72055200  0.82987300  1
  S  S22  1  0.75000000  0.95945000  0.51123500  1
  S  S23  1  0.25000000  0.04055000  0.48876500  1
  S  S24  1  0.25000000  0.94669600  0.28623400  1
  S  S25  1  0.75000000  0.05330400  0.71376600  1
  S  S26  1  0.25000000  0.35798600  0.57561700  1
  S  S27  1  0.75000000  0.64201400  0.42438300  1
  S  S28  1  0.25000000  0.66448100  0.20220400  1
  S  S29  1  0.75000000  0.33551900  0.79779600  1
