# generated using pymatgen
data_CaCo3(P2O7)2
_symmetry_space_group_name_H-M   'P 1'
_cell_length_a   7.72115800
_cell_length_b   7.45391800
_cell_length_c   9.52993175
_cell_angle_alpha   68.16270491
_cell_angle_beta   90.00000000
_cell_angle_gamma   90.00000000
_symmetry_Int_Tables_number   1
_chemical_formula_structural   CaCo3(P2O7)2
_chemical_formula_sum   'Ca2 Co6 P8 O28'
_cell_volume   509.11857691
_cell_formula_units_Z   2
loop_
 _symmetry_equiv_pos_site_id
 _symmetry_equiv_pos_as_xyz
  1  'x, y, z'
loop_
 _atom_site_type_symbol
 _atom_site_label
 _atom_site_symmetry_multiplicity
 _atom_site_fract_x
 _atom_site_fract_y
 _atom_site_fract_z
 _atom_site_occupancy
  Ca  Ca0  1  0.00000000  0.50000000  0.00000000  1
  Ca  Ca1  1  0.50000000  0.50000000  0.50000000  1
  Co  Co2  1  0.12702400  0.81448300  0.52501000  1
  Co  Co3  1  0.62702400  0.18551700  0.97499000  1
  Co  Co4  1  0.87297600  0.18551700  0.47499000  1
  Co  Co5  1  0.37297600  0.81448300  0.02501000  1
  Co  Co6  1  0.00000000  0.00000000  0.00000000  1
  Co  Co7  1  0.50000000  0.00000000  0.50000000  1
  P  P8  1  0.93476800  0.40191700  0.70351300  1
  P  P9  1  0.43476800  0.59808300  0.79648700  1
  P  P10  1  0.06523200  0.59808300  0.29648700  1
  P  P11  1  0.56523200  0.40191700  0.20351300  1
  P  P12  1  0.20361900  0.11958200  0.69103800  1
  P  P13  1  0.70361900  0.88041800  0.80896200  1
  P  P14  1  0.79638100  0.88041800  0.30896200  1
  P  P15  1  0.29638100  0.11958200  0.19103800  1
  O  O16  1  0.37654900  0.16992000  0.60707000  1
  O  O17  1  0.87654900  0.83008000  0.89293000  1
  O  O18  1  0.62345100  0.83008000  0.39293000  1
  O  O19  1  0.12345100  0.16992000  0.10707000  1
  O  O20  1  0.38216700  0.72443000  0.63119600  1
  O  O21  1  0.88216700  0.27557000  0.86880400  1
  O  O22  1  0.61783300  0.27557000  0.36880400  1
  O  O23  1  0.11783300  0.72443000  0.13119600  1
  O  O24  1  0.80810800  0.37951900  0.58814700  1
  O  O25  1  0.30810800  0.62048100  0.91185300  1
  O  O26  1  0.19189200  0.62048100  0.41185300  1
  O  O27  1  0.69189200  0.37951900  0.08814700  1
  O  O28  1  0.12239700  0.32463000  0.67545200  1
  O  O29  1  0.62239700  0.67537000  0.82454800  1
  O  O30  1  0.87760300  0.67537000  0.32454800  1
  O  O31  1  0.37760300  0.32463000  0.17545200  1
  O  O32  1  0.52332600  0.60560600  0.19536100  1
  O  O33  1  0.02332600  0.39439400  0.30463900  1
  O  O34  1  0.47667400  0.39439400  0.80463900  1
  O  O35  1  0.97667400  0.60560600  0.69536100  1
  O  O36  1  0.78786300  0.99175400  0.13712800  1
  O  O37  1  0.28786300  0.00824600  0.36287200  1
  O  O38  1  0.21213700  0.00824600  0.86287200  1
  O  O39  1  0.71213700  0.99175400  0.63712800  1
  O  O40  1  0.42191000  0.02858500  0.11210700  1
  O  O41  1  0.92191000  0.97141500  0.38789300  1
  O  O42  1  0.57809000  0.97141500  0.88789300  1
  O  O43  1  0.07809000  0.02858500  0.61210700  1
