# generated using pymatgen
data_Na6Sn2Se7
_symmetry_space_group_name_H-M   'P 1'
_cell_length_a   7.50481066
_cell_length_b   7.50481066
_cell_length_c   16.23140687
_cell_angle_alpha   80.56137281
_cell_angle_beta   80.56137281
_cell_angle_gamma   98.18579460
_symmetry_Int_Tables_number   1
_chemical_formula_structural   Na6Sn2Se7
_chemical_formula_sum   'Na12 Sn4 Se14'
_cell_volume   876.03974275
_cell_formula_units_Z   2
loop_
 _symmetry_equiv_pos_site_id
 _symmetry_equiv_pos_as_xyz
  1  'x, y, z'
loop_
 _atom_site_type_symbol
 _atom_site_label
 _atom_site_symmetry_multiplicity
 _atom_site_fract_x
 _atom_site_fract_y
 _atom_site_fract_z
 _atom_site_occupancy
  Na  Na0  1  0.57272800  0.42727200  0.75000000  1
  Na  Na1  1  0.75124700  0.04215500  0.07066600  1
  Na  Na2  1  0.95784500  0.24875300  0.42933400  1
  Na  Na3  1  0.50036300  0.95811600  0.63880200  1
  Na  Na4  1  0.04188400  0.49963700  0.86119800  1
  Na  Na5  1  0.49963700  0.04188400  0.36119800  1
  Na  Na6  1  0.95811600  0.50036300  0.13880200  1
  Na  Na7  1  0.50000000  0.50000000  0.50000000  1
  Na  Na8  1  0.50000000  0.50000000  0.00000000  1
  Na  Na9  1  0.24875300  0.95784500  0.92933400  1
  Na  Na10  1  0.42727200  0.57272800  0.25000000  1
  Na  Na11  1  0.04215500  0.75124700  0.57066600  1
  Sn  Sn12  1  0.75278900  0.92721200  0.86265600  1
  Sn  Sn13  1  0.07278800  0.24721100  0.63734400  1
  Sn  Sn14  1  0.92721200  0.75278900  0.36265600  1
  Sn  Sn15  1  0.24721100  0.07278800  0.13734400  1
  Se  Se16  1  0.68570500  0.23068000  0.89720500  1
  Se  Se17  1  0.04860600  0.95139400  0.75000000  1
  Se  Se18  1  0.76932000  0.31429500  0.60279500  1
  Se  Se19  1  0.75193400  0.47961400  0.31911200  1
  Se  Se20  1  0.23068000  0.68570500  0.39720500  1
  Se  Se21  1  0.86390600  0.73074700  0.98172900  1
  Se  Se22  1  0.26925300  0.13609400  0.51827100  1
  Se  Se23  1  0.13609400  0.26925300  0.01827100  1
  Se  Se24  1  0.73074700  0.86390600  0.48172900  1
  Se  Se25  1  0.47961400  0.75193400  0.81911200  1
  Se  Se26  1  0.24806600  0.52038600  0.68088800  1
  Se  Se27  1  0.52038600  0.24806600  0.18088800  1
  Se  Se28  1  0.95139400  0.04860600  0.25000000  1
  Se  Se29  1  0.31429500  0.76932000  0.10279500  1
