# generated using pymatgen
data_Cr7(PO4)6
_symmetry_space_group_name_H-M   'P 1'
_cell_length_a   6.36349300
_cell_length_b   8.16204154
_cell_length_c   9.46135607
_cell_angle_alpha   106.87215113
_cell_angle_beta   108.52590045
_cell_angle_gamma   100.59752496
_symmetry_Int_Tables_number   1
_chemical_formula_structural   Cr7(PO4)6
_chemical_formula_sum   'Cr7 P6 O24'
_cell_volume   424.74401266
_cell_formula_units_Z   1
loop_
 _symmetry_equiv_pos_site_id
 _symmetry_equiv_pos_as_xyz
  1  'x, y, z'
loop_
 _atom_site_type_symbol
 _atom_site_label
 _atom_site_symmetry_multiplicity
 _atom_site_fract_x
 _atom_site_fract_y
 _atom_site_fract_z
 _atom_site_occupancy
  Cr  Cr0  1  0.28322300  0.32235200  0.79592800  1
  Cr  Cr1  1  0.71677700  0.67764800  0.20407200  1
  Cr  Cr2  1  0.61904000  0.03971200  0.39032100  1
  Cr  Cr3  1  0.38096000  0.96028800  0.60967900  1
  Cr  Cr4  1  0.00000000  0.50000000  0.50000000  1
  Cr  Cr5  1  0.04801900  0.21390100  0.02615800  1
  Cr  Cr6  1  0.95198100  0.78609900  0.97384200  1
  P  P7  1  0.09562400  0.09714900  0.33432000  1
  P  P8  1  0.90437600  0.90285100  0.66568000  1
  P  P9  1  0.77351000  0.35287700  0.73627200  1
  P  P10  1  0.22649000  0.64712300  0.26372800  1
  P  P11  1  0.60439000  0.25827800  0.13541600  1
  P  P12  1  0.39561000  0.74172200  0.86458400  1
  O  O13  1  0.27177500  0.54597900  0.73483900  1
  O  O14  1  0.72822500  0.45402100  0.26516100  1
  O  O15  1  0.74696400  0.20832100  0.03583600  1
  O  O16  1  0.25303600  0.79167900  0.96416400  1
  O  O17  1  0.55620800  0.13051700  0.21926300  1
  O  O18  1  0.44379200  0.86948300  0.78073700  1
  O  O19  1  0.77280700  0.29004600  0.56360500  1
  O  O20  1  0.22719300  0.70995400  0.43639500  1
  O  O21  1  0.12464900  0.29127400  0.41829800  1
  O  O22  1  0.87535100  0.70872600  0.58170200  1
  O  O23  1  0.07209700  0.04833700  0.15526400  1
  O  O24  1  0.92790300  0.95166300  0.84473600  1
  O  O25  1  0.20483100  0.44909900  0.20529500  1
  O  O26  1  0.68526400  0.95786100  0.58137600  1
  O  O27  1  0.31473600  0.04213900  0.41862400  1
  O  O28  1  0.45473100  0.75863900  0.26342400  1
  O  O29  1  0.54526900  0.24136100  0.73657600  1
  O  O30  1  0.88283300  0.97193900  0.33926600  1
  O  O31  1  0.79516900  0.55090100  0.79470500  1
  O  O32  1  0.63523200  0.75070400  0.98861700  1
  O  O33  1  0.36476800  0.24929600  0.01138300  1
  O  O34  1  0.01107400  0.68264000  0.15072800  1
  O  O35  1  0.98892600  0.31736000  0.84927200  1
  O  O36  1  0.11716700  0.02806100  0.66073400  1
