# generated using pymatgen
data_Yb2CuGe6
_symmetry_space_group_name_H-M   'P 1'
_cell_length_a   11.21437079
_cell_length_b   11.21437079
_cell_length_c   4.09698400
_cell_angle_alpha   90.00000000
_cell_angle_beta   90.00000000
_cell_angle_gamma   159.45833698
_symmetry_Int_Tables_number   1
_chemical_formula_structural   Yb2CuGe6
_chemical_formula_sum   'Yb2 Cu1 Ge6'
_cell_volume   180.79361871
_cell_formula_units_Z   1
loop_
 _symmetry_equiv_pos_site_id
 _symmetry_equiv_pos_as_xyz
  1  'x, y, z'
loop_
 _atom_site_type_symbol
 _atom_site_label
 _atom_site_symmetry_multiplicity
 _atom_site_fract_x
 _atom_site_fract_y
 _atom_site_fract_z
 _atom_site_occupancy
  Yb  Yb0  1  0.00311100  0.99688900  0.00000000  1
  Yb  Yb1  1  0.66996700  0.33003300  0.00000000  1
  Cu  Cu2  1  0.22361900  0.77638100  0.50000000  1
  Ge  Ge3  1  0.28408600  0.71591400  0.00000000  1
  Ge  Ge4  1  0.39705300  0.60294700  0.00000000  1
  Ge  Ge5  1  0.55044600  0.44955400  0.50000000  1
  Ge  Ge6  1  0.11730300  0.88269700  0.50000000  1
  Ge  Ge7  1  0.89916700  0.10083300  0.50000000  1
  Ge  Ge8  1  0.78624700  0.21375300  0.50000000  1
