# generated using pymatgen
data_RbC10
_symmetry_space_group_name_H-M   'P 1'
_cell_length_a   10.16922190
_cell_length_b   10.16922190
_cell_length_c   10.16922190
_cell_angle_alpha   109.47122063
_cell_angle_beta   109.47122063
_cell_angle_gamma   109.47122063
_symmetry_Int_Tables_number   1
_chemical_formula_structural   RbC10
_chemical_formula_sum   'Rb6 C60'
_cell_volume   809.54553376
_cell_formula_units_Z   6
loop_
 _symmetry_equiv_pos_site_id
 _symmetry_equiv_pos_as_xyz
  1  'x, y, z'
loop_
 _atom_site_type_symbol
 _atom_site_label
 _atom_site_symmetry_multiplicity
 _atom_site_fract_x
 _atom_site_fract_y
 _atom_site_fract_z
 _atom_site_occupancy
  Rb  Rb0  1  0.27852700  0.50000000  0.77852700  1
  Rb  Rb1  1  0.50000000  0.77852700  0.27852700  1
  Rb  Rb2  1  0.22147300  0.72147300  0.50000000  1
  Rb  Rb3  1  0.50000000  0.22147300  0.72147300  1
  Rb  Rb4  1  0.77852700  0.27852700  0.50000000  1
  Rb  Rb5  1  0.72147300  0.50000000  0.22147300  1
  C  C6  1  0.35930300  0.06097400  0.29832900  1
  C  C7  1  0.93902600  0.29832900  0.23735600  1
  C  C8  1  0.70167100  0.64069700  0.93902600  1
  C  C9  1  0.06097400  0.70167100  0.76264400  1
  C  C10  1  0.29832900  0.23735600  0.93902600  1
  C  C11  1  0.93902600  0.70167100  0.64069700  1
  C  C12  1  0.70167100  0.76264400  0.06097400  1
  C  C13  1  0.29832900  0.35930300  0.06097400  1
  C  C14  1  0.06097400  0.29832900  0.35930300  1
  C  C15  1  0.23735600  0.93902600  0.29832900  1
  C  C16  1  0.64069700  0.93902600  0.70167100  1
  C  C17  1  0.76264400  0.06097400  0.70167100  1
  C  C18  1  0.38222400  0.22230800  0.35958000  1
  C  C19  1  0.77769200  0.15991600  0.13727300  1
  C  C20  1  0.84008400  0.61777600  0.97735600  1
  C  C21  1  0.02264400  0.64042000  0.86272800  1
  C  C22  1  0.15991600  0.13727200  0.77769200  1
  C  C23  1  0.97735600  0.84008400  0.61777600  1
  C  C24  1  0.64042000  0.86272700  0.02264400  1
  C  C25  1  0.35958000  0.38222400  0.22230800  1
  C  C26  1  0.22230800  0.35958000  0.38222400  1
  C  C27  1  0.13727200  0.77769200  0.15991600  1
  C  C28  1  0.61777600  0.97735600  0.84008400  1
  C  C29  1  0.86272800  0.02264400  0.64042000  1
  C  C30  1  0.61777600  0.77769200  0.64042000  1
  C  C31  1  0.22230800  0.84008400  0.86272800  1
  C  C32  1  0.15991600  0.38222400  0.02264400  1
  C  C33  1  0.97735600  0.35958000  0.13727300  1
  C  C34  1  0.84008400  0.86272700  0.22230800  1
  C  C35  1  0.02264400  0.15991600  0.38222400  1
  C  C36  1  0.35958000  0.13727200  0.97735600  1
  C  C37  1  0.64042000  0.61777600  0.77769200  1
  C  C38  1  0.77769200  0.64042000  0.61777600  1
  C  C39  1  0.86272800  0.22230800  0.84008400  1
  C  C40  1  0.38222400  0.02264400  0.15991600  1
  C  C41  1  0.13727200  0.97735600  0.35958000  1
  C  C42  1  0.28330000  0.25938100  0.41950800  1
  C  C43  1  0.74061900  0.02391900  0.16012700  1
  C  C44  1  0.97608100  0.71670000  0.13620800  1
  C  C45  1  0.86379200  0.58049200  0.83987300  1
  C  C46  1  0.02391900  0.16012700  0.74061900  1
  C  C47  1  0.13620800  0.97608100  0.71670000  1
  C  C48  1  0.58049200  0.83987300  0.86379200  1
  C  C49  1  0.41950800  0.28330000  0.25938100  1
  C  C50  1  0.25938100  0.41950800  0.28330000  1
  C  C51  1  0.16012700  0.74061900  0.02391900  1
  C  C52  1  0.71670000  0.13620800  0.97608100  1
  C  C53  1  0.83987300  0.86379200  0.58049200  1
  C  C54  1  0.71670000  0.74061900  0.58049200  1
  C  C55  1  0.25938100  0.97608100  0.83987300  1
  C  C56  1  0.02391900  0.28330000  0.86379200  1
  C  C57  1  0.13620800  0.41950800  0.16012700  1
  C  C58  1  0.97608100  0.83987300  0.25938100  1
  C  C59  1  0.86379200  0.02391900  0.28330000  1
  C  C60  1  0.41950800  0.16012700  0.13620800  1
  C  C61  1  0.58049200  0.71670000  0.74061900  1
  C  C62  1  0.74061900  0.58049200  0.71670000  1
  C  C63  1  0.83987300  0.25938100  0.97608100  1
  C  C64  1  0.28330000  0.86379200  0.02391900  1
  C  C65  1  0.16012700  0.13620800  0.41950800  1
