# generated using pymatgen
data_Ta5Ge3
_symmetry_space_group_name_H-M   'P 1'
_cell_length_a   7.65459052
_cell_length_b   7.65459052
_cell_length_c   5.34656800
_cell_angle_alpha   90.00000000
_cell_angle_beta   90.00000000
_cell_angle_gamma   120.00000452
_symmetry_Int_Tables_number   1
_chemical_formula_structural   Ta5Ge3
_chemical_formula_sum   'Ta10 Ge6'
_cell_volume   271.29989985
_cell_formula_units_Z   2
loop_
 _symmetry_equiv_pos_site_id
 _symmetry_equiv_pos_as_xyz
  1  'x, y, z'
loop_
 _atom_site_type_symbol
 _atom_site_label
 _atom_site_symmetry_multiplicity
 _atom_site_fract_x
 _atom_site_fract_y
 _atom_site_fract_z
 _atom_site_occupancy
  Ta  Ta0  1  0.00000000  0.76250600  0.75000000  1
  Ta  Ta1  1  0.00000000  0.23749400  0.25000000  1
  Ta  Ta2  1  0.76250600  0.76250600  0.25000000  1
  Ta  Ta3  1  0.76250600  0.00000000  0.75000000  1
  Ta  Ta4  1  0.23749400  0.23749400  0.75000000  1
  Ta  Ta5  1  0.23749400  0.00000000  0.25000000  1
  Ta  Ta6  1  0.33333300  0.66666700  0.50000000  1
  Ta  Ta7  1  0.66666700  0.33333300  0.00000000  1
  Ta  Ta8  1  0.66666700  0.33333300  0.50000000  1
  Ta  Ta9  1  0.33333300  0.66666700  0.00000000  1
  Ge  Ge10  1  0.39704000  0.00000000  0.75000000  1
  Ge  Ge11  1  0.39704000  0.39704000  0.25000000  1
  Ge  Ge12  1  0.00000000  0.60296000  0.25000000  1
  Ge  Ge13  1  0.00000000  0.39704000  0.75000000  1
  Ge  Ge14  1  0.60296000  0.60296000  0.75000000  1
  Ge  Ge15  1  0.60296000  0.00000000  0.25000000  1
