# generated using pymatgen
data_Sm2Ru2O7
_symmetry_space_group_name_H-M   'P 1'
_cell_length_a   7.32420638
_cell_length_b   7.32420638
_cell_length_c   7.32420638
_cell_angle_alpha   60.00000000
_cell_angle_beta   60.00000000
_cell_angle_gamma   60.00000000
_symmetry_Int_Tables_number   1
_chemical_formula_structural   Sm2Ru2O7
_chemical_formula_sum   'Sm4 Ru4 O14'
_cell_volume   277.82205695
_cell_formula_units_Z   2
loop_
 _symmetry_equiv_pos_site_id
 _symmetry_equiv_pos_as_xyz
  1  'x, y, z'
loop_
 _atom_site_type_symbol
 _atom_site_label
 _atom_site_symmetry_multiplicity
 _atom_site_fract_x
 _atom_site_fract_y
 _atom_site_fract_z
 _atom_site_occupancy
  Sm  Sm0  1  0.62500000  0.62500000  0.62500000  1
  Sm  Sm1  1  0.12500000  0.62500000  0.62500000  1
  Sm  Sm2  1  0.62500000  0.62500000  0.12500000  1
  Sm  Sm3  1  0.62500000  0.12500000  0.62500000  1
  Ru  Ru4  1  0.12500000  0.12500000  0.12500000  1
  Ru  Ru5  1  0.62500000  0.12500000  0.12500000  1
  Ru  Ru6  1  0.12500000  0.12500000  0.62500000  1
  Ru  Ru7  1  0.12500000  0.62500000  0.12500000  1
  O  O8  1  0.50000000  0.50000000  0.50000000  1
  O  O9  1  0.75000000  0.75000000  0.75000000  1
  O  O10  1  0.04368900  0.04368900  0.45631100  1
  O  O11  1  0.79368900  0.79368900  0.20631100  1
  O  O12  1  0.45631100  0.04368900  0.45631100  1
  O  O13  1  0.45631100  0.04368900  0.04368900  1
  O  O14  1  0.04368900  0.45631100  0.45631100  1
  O  O15  1  0.04368900  0.45631100  0.04368900  1
  O  O16  1  0.45631100  0.45631100  0.04368900  1
  O  O17  1  0.20631100  0.79368900  0.79368900  1
  O  O18  1  0.79368900  0.20631100  0.20631100  1
  O  O19  1  0.20631100  0.20631100  0.79368900  1
  O  O20  1  0.20631100  0.79368900  0.20631100  1
  O  O21  1  0.79368900  0.20631100  0.79368900  1
