# generated using pymatgen
data_CsC10
_symmetry_space_group_name_H-M   'P 1'
_cell_length_a   10.40757114
_cell_length_b   10.40757114
_cell_length_c   10.40757114
_cell_angle_alpha   109.47122063
_cell_angle_beta   109.47122063
_cell_angle_gamma   109.47122063
_symmetry_Int_Tables_number   1
_chemical_formula_structural   CsC10
_chemical_formula_sum   'Cs6 C60'
_cell_volume   867.81324417
_cell_formula_units_Z   6
loop_
 _symmetry_equiv_pos_site_id
 _symmetry_equiv_pos_as_xyz
  1  'x, y, z'
loop_
 _atom_site_type_symbol
 _atom_site_label
 _atom_site_symmetry_multiplicity
 _atom_site_fract_x
 _atom_site_fract_y
 _atom_site_fract_z
 _atom_site_occupancy
  Cs  Cs0  1  0.77730700  0.27730700  0.50000000  1
  Cs  Cs1  1  0.72269300  0.50000000  0.22269300  1
  Cs  Cs2  1  0.50000000  0.22269300  0.72269300  1
  Cs  Cs3  1  0.27730700  0.50000000  0.77730700  1
  Cs  Cs4  1  0.50000000  0.77730700  0.27730700  1
  Cs  Cs5  1  0.22269300  0.72269300  0.50000000  1
  C  C6  1  0.05954000  0.29133900  0.35087800  1
  C  C7  1  0.70866100  0.76820100  0.05954000  1
  C  C8  1  0.23179900  0.94046000  0.29133900  1
  C  C9  1  0.70866100  0.64912200  0.94046000  1
  C  C10  1  0.76820100  0.05954000  0.70866100  1
  C  C11  1  0.29133900  0.23179900  0.94046000  1
  C  C12  1  0.64912200  0.94046000  0.70866100  1
  C  C13  1  0.35087800  0.05954000  0.29133900  1
  C  C14  1  0.29133900  0.35087800  0.05954000  1
  C  C15  1  0.05954000  0.70866100  0.76820100  1
  C  C16  1  0.94046000  0.29133900  0.23179900  1
  C  C17  1  0.94046000  0.70866100  0.64912200  1
  C  C18  1  0.37352200  0.21727400  0.35139400  1
  C  C19  1  0.78272600  0.15624800  0.13412000  1
  C  C20  1  0.84375200  0.62647800  0.97787200  1
  C  C21  1  0.02212800  0.64860600  0.86588000  1
  C  C22  1  0.15624800  0.13412000  0.78272600  1
  C  C23  1  0.97787200  0.84375200  0.62647800  1
  C  C24  1  0.64860600  0.86588000  0.02212800  1
  C  C25  1  0.35139400  0.37352200  0.21727400  1
  C  C26  1  0.21727400  0.35139400  0.37352200  1
  C  C27  1  0.13412000  0.78272600  0.15624800  1
  C  C28  1  0.62647800  0.97787200  0.84375200  1
  C  C29  1  0.86588000  0.02212800  0.64860600  1
  C  C30  1  0.62647800  0.78272600  0.64860600  1
  C  C31  1  0.21727400  0.84375200  0.86588000  1
  C  C32  1  0.15624800  0.37352200  0.02212800  1
  C  C33  1  0.97787200  0.35139400  0.13412000  1
  C  C34  1  0.84375200  0.86588000  0.21727400  1
  C  C35  1  0.02212800  0.15624800  0.37352200  1
  C  C36  1  0.35139400  0.13412000  0.97787200  1
  C  C37  1  0.64860600  0.62647800  0.78272600  1
  C  C38  1  0.78272600  0.64860600  0.62647800  1
  C  C39  1  0.86588000  0.21727400  0.84375200  1
  C  C40  1  0.37352200  0.02212800  0.15624800  1
  C  C41  1  0.13412000  0.97787200  0.35139400  1
  C  C42  1  0.27696400  0.25357300  0.41011400  1
  C  C43  1  0.74642700  0.02339100  0.15654100  1
  C  C44  1  0.97660900  0.72303600  0.13315000  1
  C  C45  1  0.86685000  0.58988600  0.84345900  1
  C  C46  1  0.02339100  0.15654100  0.74642700  1
  C  C47  1  0.13315000  0.97660900  0.72303600  1
  C  C48  1  0.58988600  0.84345900  0.86685000  1
  C  C49  1  0.41011400  0.27696400  0.25357300  1
  C  C50  1  0.25357300  0.41011400  0.27696400  1
  C  C51  1  0.15654100  0.74642700  0.02339100  1
  C  C52  1  0.72303600  0.13315000  0.97660900  1
  C  C53  1  0.84345900  0.86685000  0.58988600  1
  C  C54  1  0.72303600  0.74642700  0.58988600  1
  C  C55  1  0.25357300  0.97660900  0.84345900  1
  C  C56  1  0.02339100  0.27696400  0.86685000  1
  C  C57  1  0.13315000  0.41011400  0.15654100  1
  C  C58  1  0.97660900  0.84345900  0.25357300  1
  C  C59  1  0.86685000  0.02339100  0.27696400  1
  C  C60  1  0.41011400  0.15654100  0.13315000  1
  C  C61  1  0.58988600  0.72303600  0.74642700  1
  C  C62  1  0.74642700  0.58988600  0.72303600  1
  C  C63  1  0.84345900  0.25357300  0.97660900  1
  C  C64  1  0.27696400  0.86685000  0.02339100  1
  C  C65  1  0.15654100  0.13315000  0.41011400  1
