# generated using pymatgen
data_KV6O11
_symmetry_space_group_name_H-M   'P 1'
_cell_length_a   5.88747842
_cell_length_b   5.88747842
_cell_length_c   13.61907000
_cell_angle_alpha   90.00000000
_cell_angle_beta   90.00000000
_cell_angle_gamma   120.00000475
_symmetry_Int_Tables_number   1
_chemical_formula_structural   KV6O11
_chemical_formula_sum   'K2 V12 O22'
_cell_volume   408.82431705
_cell_formula_units_Z   2
loop_
 _symmetry_equiv_pos_site_id
 _symmetry_equiv_pos_as_xyz
  1  'x, y, z'
loop_
 _atom_site_type_symbol
 _atom_site_label
 _atom_site_symmetry_multiplicity
 _atom_site_fract_x
 _atom_site_fract_y
 _atom_site_fract_z
 _atom_site_occupancy
  K  K0  1  0.33333300  0.66666700  0.25000000  1
  K  K1  1  0.66666700  0.33333300  0.75000000  1
  V  V2  1  0.50000000  0.50000000  0.00000000  1
  V  V3  1  0.00000000  0.00000000  0.35097800  1
  V  V4  1  0.00000000  0.00000000  0.64902200  1
  V  V5  1  0.00000000  0.00000000  0.14902200  1
  V  V6  1  0.50000000  0.00000000  0.50000000  1
  V  V7  1  0.00000000  0.00000000  0.85097800  1
  V  V8  1  0.00000000  0.50000000  0.00000000  1
  V  V9  1  0.00000000  0.50000000  0.50000000  1
  V  V10  1  0.50000000  0.50000000  0.50000000  1
  V  V11  1  0.50000000  0.00000000  0.00000000  1
  V  V12  1  0.33333300  0.66666700  0.75000000  1
  V  V13  1  0.66666700  0.33333300  0.25000000  1
  O  O14  1  0.66666700  0.33333300  0.41697000  1
  O  O15  1  0.33333300  0.66666700  0.91697000  1
  O  O16  1  0.66666700  0.33333300  0.08303000  1
  O  O17  1  0.33333300  0.66666700  0.58303000  1
  O  O18  1  0.85230600  0.70461300  0.25000000  1
  O  O19  1  0.14769400  0.85230600  0.75000000  1
  O  O20  1  0.70461300  0.85230600  0.75000000  1
  O  O21  1  0.29538700  0.14769400  0.25000000  1
  O  O22  1  0.85230600  0.14769400  0.25000000  1
  O  O23  1  0.14769400  0.29538700  0.75000000  1
  O  O24  1  0.82625400  0.65250800  0.92593100  1
  O  O25  1  0.17374600  0.82625400  0.42593100  1
  O  O26  1  0.65250800  0.82625400  0.42593100  1
  O  O27  1  0.34749200  0.17374600  0.92593100  1
  O  O28  1  0.17374600  0.34749200  0.07406900  1
  O  O29  1  0.82625400  0.17374600  0.57406900  1
  O  O30  1  0.34749200  0.17374600  0.57406900  1
  O  O31  1  0.65250800  0.82625400  0.07406900  1
  O  O32  1  0.82625400  0.17374600  0.92593100  1
  O  O33  1  0.82625400  0.65250800  0.57406900  1
  O  O34  1  0.17374600  0.34749200  0.42593100  1
  O  O35  1  0.17374600  0.82625400  0.07406900  1
