# generated using pymatgen
data_Er2WO6
_symmetry_space_group_name_H-M   'P 1'
_cell_length_a   5.23895000
_cell_length_b   9.10376000
_cell_length_c   9.92868500
_cell_angle_alpha   90.00000000
_cell_angle_beta   90.00000000
_cell_angle_gamma   90.00000000
_symmetry_Int_Tables_number   1
_chemical_formula_structural   Er2WO6
_chemical_formula_sum   'Er8 W4 O24'
_cell_volume   473.54012668
_cell_formula_units_Z   4
loop_
 _symmetry_equiv_pos_site_id
 _symmetry_equiv_pos_as_xyz
  1  'x, y, z'
loop_
 _atom_site_type_symbol
 _atom_site_label
 _atom_site_symmetry_multiplicity
 _atom_site_fract_x
 _atom_site_fract_y
 _atom_site_fract_z
 _atom_site_occupancy
  Er  Er0  1  0.48507000  0.60380400  0.53455100  1
  Er  Er1  1  0.98507000  0.89619600  0.46544900  1
  Er  Er2  1  0.51493000  0.10380400  0.96544900  1
  Er  Er3  1  0.01493000  0.39619600  0.03455100  1
  Er  Er4  1  0.95863600  0.78127200  0.87134200  1
  Er  Er5  1  0.45863600  0.71872800  0.12865800  1
  Er  Er6  1  0.04136400  0.28127200  0.62865800  1
  Er  Er7  1  0.54136400  0.21872800  0.37134200  1
  W  W8  1  0.46283500  0.99563000  0.65226900  1
  W  W9  1  0.96283500  0.50437000  0.34773100  1
  W  W10  1  0.53716500  0.49563000  0.84773100  1
  W  W11  1  0.03716500  0.00437000  0.15226900  1
  O  O12  1  0.25436600  0.08854400  0.50403500  1
  O  O13  1  0.75436600  0.41145600  0.49596500  1
  O  O14  1  0.74563400  0.58854400  0.99596500  1
  O  O15  1  0.24563400  0.91145600  0.00403500  1
  O  O16  1  0.73508900  0.11682900  0.56882300  1
  O  O17  1  0.23508900  0.38317100  0.43117700  1
  O  O18  1  0.26491100  0.61682900  0.93117700  1
  O  O19  1  0.76491100  0.88317100  0.06882300  1
  O  O20  1  0.59294000  0.84217300  0.53184300  1
  O  O21  1  0.09294000  0.65782700  0.46815700  1
  O  O22  1  0.40706000  0.34217300  0.96815700  1
  O  O23  1  0.90706000  0.15782700  0.03184300  1
  O  O24  1  0.19367400  0.85755400  0.26434200  1
  O  O25  1  0.69367400  0.64244600  0.73565800  1
  O  O26  1  0.80632600  0.35755400  0.23565800  1
  O  O27  1  0.30632600  0.14244600  0.76434200  1
  O  O28  1  0.82470400  0.04635300  0.30161400  1
  O  O29  1  0.32470400  0.45364700  0.69838600  1
  O  O30  1  0.17529600  0.54635300  0.19838600  1
  O  O31  1  0.67529600  0.95364700  0.80161400  1
  O  O32  1  0.32196100  0.13742600  0.18116900  1
  O  O33  1  0.82196100  0.36257400  0.81883100  1
  O  O34  1  0.67803900  0.63742600  0.31883100  1
  O  O35  1  0.17803900  0.86257400  0.68116900  1
