# generated using pymatgen
data_NaVP2O7
_symmetry_space_group_name_H-M   'P 1'
_cell_length_a   8.10416700
_cell_length_b   7.43929900
_cell_length_c   9.71148436
_cell_angle_alpha   68.15696234
_cell_angle_beta   90.00000000
_cell_angle_gamma   90.00000000
_symmetry_Int_Tables_number   1
_chemical_formula_structural   NaVP2O7
_chemical_formula_sum   'Na4 V4 P8 O28'
_cell_volume   543.46386001
_cell_formula_units_Z   4
loop_
 _symmetry_equiv_pos_site_id
 _symmetry_equiv_pos_as_xyz
  1  'x, y, z'
loop_
 _atom_site_type_symbol
 _atom_site_label
 _atom_site_symmetry_multiplicity
 _atom_site_fract_x
 _atom_site_fract_y
 _atom_site_fract_z
 _atom_site_occupancy
  Na  Na0  1  0.47178000  0.78671100  0.70894200  1
  Na  Na1  1  0.97178000  0.21328900  0.79105800  1
  Na  Na2  1  0.52822000  0.21328900  0.29105800  1
  Na  Na3  1  0.02822000  0.78671100  0.20894200  1
  V  V4  1  0.00799400  0.76011400  0.75084200  1
  V  V5  1  0.50799400  0.23988600  0.74915800  1
  V  V6  1  0.99200600  0.23988600  0.24915800  1
  V  V7  1  0.49200600  0.76011400  0.25084200  1
  P  P8  1  0.75637400  0.42736300  0.95484300  1
  P  P9  1  0.25637400  0.57263700  0.54515700  1
  P  P10  1  0.24362600  0.57263700  0.04515700  1
  P  P11  1  0.74362600  0.42736300  0.45484300  1
  P  P12  1  0.71065600  0.82704200  0.95283600  1
  P  P13  1  0.21065600  0.17295800  0.54716400  1
  P  P14  1  0.28934400  0.17295800  0.04716400  1
  P  P15  1  0.78934400  0.82704200  0.45283600  1
  O  O16  1  0.63957600  0.31252400  0.89879800  1
  O  O17  1  0.13957600  0.68747600  0.60120200  1
  O  O18  1  0.36042400  0.68747600  0.10120200  1
  O  O19  1  0.86042400  0.31252400  0.39879800  1
  O  O20  1  0.89040600  0.86612700  0.90008300  1
  O  O21  1  0.39040600  0.13387300  0.59991700  1
  O  O22  1  0.10959400  0.13387300  0.09991700  1
  O  O23  1  0.60959400  0.86612700  0.40008300  1
  O  O24  1  0.58774300  0.96588700  0.84609200  1
  O  O25  1  0.08774300  0.03411300  0.65390800  1
  O  O26  1  0.41225700  0.03411300  0.15390800  1
  O  O27  1  0.91225700  0.96588700  0.34609200  1
  O  O28  1  0.65573900  0.62395900  0.93769200  1
  O  O29  1  0.15573900  0.37604100  0.56230800  1
  O  O30  1  0.34426100  0.37604100  0.06230800  1
  O  O31  1  0.84426100  0.62395900  0.43769200  1
  O  O32  1  0.91433400  0.48790600  0.86088100  1
  O  O33  1  0.41433400  0.51209400  0.63911900  1
  O  O34  1  0.08566600  0.51209400  0.13911900  1
  O  O35  1  0.58566600  0.48790600  0.36088100  1
  O  O36  1  0.80440300  0.80689800  0.61500600  1
  O  O37  1  0.30440300  0.19310200  0.88499400  1
  O  O38  1  0.19559700  0.19310200  0.38499400  1
  O  O39  1  0.69559700  0.80689800  0.11500600  1
  O  O40  1  0.21076200  0.67988700  0.87886500  1
  O  O41  1  0.71076200  0.32011300  0.62113500  1
  O  O42  1  0.78923800  0.32011300  0.12113500  1
  O  O43  1  0.28923800  0.67988700  0.37886500  1
