# generated using pymatgen
data_Pt(NCl)2
_symmetry_space_group_name_H-M   'P 1'
_cell_length_a   8.08179600
_cell_length_b   8.08179600
_cell_length_c   5.15539500
_cell_angle_alpha   90.00000000
_cell_angle_beta   90.00000000
_cell_angle_gamma   90.00000000
_symmetry_Int_Tables_number   1
_chemical_formula_structural   Pt(NCl)2
_chemical_formula_sum   'Pt2 N4 Cl4'
_cell_volume   336.72682364
_cell_formula_units_Z   2
loop_
 _symmetry_equiv_pos_site_id
 _symmetry_equiv_pos_as_xyz
  1  'x, y, z'
loop_
 _atom_site_type_symbol
 _atom_site_label
 _atom_site_symmetry_multiplicity
 _atom_site_fract_x
 _atom_site_fract_y
 _atom_site_fract_z
 _atom_site_occupancy
  Pt  Pt0  1  0.00000000  0.00000000  0.00000000  1
  Pt  Pt1  1  0.00000000  0.00000000  0.50000000  1
  N  N2  1  0.39777900  0.83157800  0.00000000  1
  N  N3  1  0.60222100  0.16842200  0.00000000  1
  N  N4  1  0.16842200  0.39777900  0.00000000  1
  N  N5  1  0.83157800  0.60222100  0.00000000  1
  Cl  Cl6  1  0.21017700  0.77793300  0.00000000  1
  Cl  Cl7  1  0.78982300  0.22206700  0.00000000  1
  Cl  Cl8  1  0.22206700  0.21017700  0.00000000  1
  Cl  Cl9  1  0.77793300  0.78982300  0.00000000  1
