# generated using pymatgen
data_K2Ti(Si2O5)3
_symmetry_space_group_name_H-M   'P 1'
_cell_length_a   7.37116576
_cell_length_b   7.37116576
_cell_length_c   15.37372768
_cell_angle_alpha   75.89779911
_cell_angle_beta   75.89779911
_cell_angle_gamma   60.16221883
_symmetry_Int_Tables_number   1
_chemical_formula_structural   K2Ti(Si2O5)3
_chemical_formula_sum   'K4 Ti2 Si12 O30'
_cell_volume   695.26822779
_cell_formula_units_Z   2
loop_
 _symmetry_equiv_pos_site_id
 _symmetry_equiv_pos_as_xyz
  1  'x, y, z'
loop_
 _atom_site_type_symbol
 _atom_site_label
 _atom_site_symmetry_multiplicity
 _atom_site_fract_x
 _atom_site_fract_y
 _atom_site_fract_z
 _atom_site_occupancy
  K  K0  1  0.82935200  0.68045200  0.52460200  1
  K  K1  1  0.68045200  0.82935200  0.02460200  1
  K  K2  1  0.46142500  0.11871300  0.70644400  1
  K  K3  1  0.11871300  0.46142500  0.20644400  1
  Ti  Ti4  1  0.29929200  0.79162900  0.63300600  1
  Ti  Ti5  1  0.79162900  0.29929200  0.13300600  1
  Si  Si6  1  0.50381500  0.45691000  0.47347500  1
  Si  Si7  1  0.45691000  0.50381500  0.97347500  1
  Si  Si8  1  0.59781500  0.02775000  0.28793700  1
  Si  Si9  1  0.02775000  0.59781500  0.78793700  1
  Si  Si10  1  0.30899900  0.18877700  0.47617400  1
  Si  Si11  1  0.18877700  0.30899900  0.97617400  1
  Si  Si12  1  0.49791200  0.67383700  0.26969600  1
  Si  Si13  1  0.67383700  0.49791200  0.76969600  1
  Si  Si14  1  0.08986600  0.96261100  0.98697000  1
  Si  Si15  1  0.96261100  0.08986600  0.48697000  1
  Si  Si16  1  0.02690000  0.93743700  0.29827500  1
  Si  Si17  1  0.93743700  0.02690000  0.79827500  1
  O  O18  1  0.01182700  0.38285000  0.06302400  1
  O  O19  1  0.38285000  0.01182700  0.56302400  1
  O  O20  1  0.66280700  0.56419000  0.18547800  1
  O  O21  1  0.56419000  0.66280700  0.68547800  1
  O  O22  1  0.97618600  0.15330800  0.22950200  1
  O  O23  1  0.15330800  0.97618600  0.72950200  1
  O  O24  1  0.62477900  0.45970400  0.03498000  1
  O  O25  1  0.45970400  0.62477900  0.53498000  1
  O  O26  1  0.70436100  0.22783100  0.50423500  1
  O  O27  1  0.22783100  0.70436100  0.00423500  1
  O  O28  1  0.57922500  0.22177900  0.20812800  1
  O  O29  1  0.22177900  0.57922500  0.70812800  1
  O  O30  1  0.84555800  0.86041200  0.30476800  1
  O  O31  1  0.86041200  0.84555800  0.80476800  1
  O  O32  1  0.29925200  0.41050300  0.48804000  1
  O  O33  1  0.41050300  0.29925200  0.98804000  1
  O  O34  1  0.46983200  0.11329800  0.38388900  1
  O  O35  1  0.11329800  0.46983200  0.88388900  1
  O  O36  1  0.92399500  0.04062600  0.07648600  1
  O  O37  1  0.04062600  0.92399500  0.57648600  1
  O  O38  1  0.73183000  0.25127600  0.76742900  1
  O  O39  1  0.25127600  0.73183000  0.26742900  1
  O  O40  1  0.52906000  0.56888700  0.86637500  1
  O  O41  1  0.56888700  0.52906000  0.36637500  1
  O  O42  1  0.95951100  0.02924800  0.90192900  1
  O  O43  1  0.02924800  0.95951100  0.40192900  1
  O  O44  1  0.06636400  0.25499600  0.46153200  1
  O  O45  1  0.25499600  0.06636400  0.96153200  1
  O  O46  1  0.90223600  0.49217400  0.76312300  1
  O  O47  1  0.49217400  0.90223600  0.26312300  1
