# generated using pymatgen
data_Ho4(B2O5)3
_symmetry_space_group_name_H-M   'P 1'
_cell_length_a   6.25543909
_cell_length_b   6.25543909
_cell_length_c   18.88972277
_cell_angle_alpha   83.97780698
_cell_angle_beta   83.97780698
_cell_angle_gamma   41.16663488
_symmetry_Int_Tables_number   1
_chemical_formula_structural   Ho4(B2O5)3
_chemical_formula_sum   'Ho8 B12 O30'
_cell_volume   483.49097517
_cell_formula_units_Z   2
loop_
 _symmetry_equiv_pos_site_id
 _symmetry_equiv_pos_as_xyz
  1  'x, y, z'
loop_
 _atom_site_type_symbol
 _atom_site_label
 _atom_site_symmetry_multiplicity
 _atom_site_fract_x
 _atom_site_fract_y
 _atom_site_fract_z
 _atom_site_occupancy
  Ho  Ho0  1  0.06462200  0.66772200  0.09906000  1
  Ho  Ho1  1  0.33227800  0.93537800  0.40094000  1
  Ho  Ho2  1  0.93537800  0.33227800  0.90094000  1
  Ho  Ho3  1  0.66772200  0.06462200  0.59906000  1
  Ho  Ho4  1  0.34722600  0.92709300  0.19707900  1
  Ho  Ho5  1  0.07290700  0.65277400  0.30292100  1
  Ho  Ho6  1  0.65277400  0.07290700  0.80292100  1
  Ho  Ho7  1  0.92709300  0.34722600  0.69707900  1
  B  B8  1  0.36046200  0.97815400  0.02583400  1
  B  B9  1  0.02184600  0.63953800  0.47416600  1
  B  B10  1  0.63953800  0.02184600  0.97416600  1
  B  B11  1  0.97815400  0.36046200  0.52583400  1
  B  B12  1  0.79489700  0.34075800  0.30571300  1
  B  B13  1  0.65924200  0.20510300  0.19428700  1
  B  B14  1  0.20510300  0.65924200  0.69428700  1
  B  B15  1  0.34075800  0.79489700  0.80571300  1
  B  B16  1  0.80333400  0.39078000  0.08748800  1
  B  B17  1  0.60922000  0.19666600  0.41251200  1
  B  B18  1  0.19666600  0.60922000  0.91251200  1
  B  B19  1  0.39078000  0.80333400  0.58748800  1
  O  O20  1  0.07684800  0.56155100  0.86122800  1
  O  O21  1  0.92315200  0.43844900  0.13877200  1
  O  O22  1  0.08854500  0.49445500  0.54926000  1
  O  O23  1  0.50554500  0.91145500  0.95074000  1
  O  O24  1  0.91145500  0.50554500  0.45074000  1
  O  O25  1  0.49445500  0.08854500  0.04926000  1
  O  O26  1  0.16197300  0.80984800  0.62150500  1
  O  O27  1  0.19015200  0.83802700  0.87849500  1
  O  O28  1  0.56155100  0.07684800  0.36122800  1
  O  O29  1  0.80984800  0.16197300  0.12150500  1
  O  O30  1  0.66475900  0.46655100  0.80318300  1
  O  O31  1  0.53344900  0.33524100  0.69681700  1
  O  O32  1  0.33524100  0.53344900  0.19681700  1
  O  O33  1  0.46655100  0.66475900  0.30318300  1
  O  O34  1  0.71181200  0.45882800  0.57062600  1
  O  O35  1  0.54117200  0.28818800  0.92937400  1
  O  O36  1  0.28818800  0.54117200  0.42937400  1
  O  O37  1  0.45882800  0.71181200  0.07062600  1
  O  O38  1  0.75292100  0.99258000  0.47896700  1
  O  O39  1  0.00742000  0.24707900  0.02103300  1
  O  O40  1  0.24707900  0.00742000  0.52103300  1
  O  O41  1  0.99258000  0.75292100  0.97896700  1
  O  O42  1  0.95133400  0.68564900  0.70347100  1
  O  O43  1  0.31435100  0.04866600  0.79652900  1
  O  O44  1  0.04866600  0.31435100  0.29652900  1
  O  O45  1  0.68564900  0.95133400  0.20347100  1
  O  O46  1  0.86668800  0.13331200  0.25000000  1
  O  O47  1  0.13331200  0.86668800  0.75000000  1
  O  O48  1  0.83802700  0.19015200  0.37849500  1
  O  O49  1  0.43844900  0.92315200  0.63877200  1
