# generated using pymatgen
data_K2Na4Co2O5
_symmetry_space_group_name_H-M   'P 1'
_cell_length_a   6.38450900
_cell_length_b   6.38450900
_cell_length_c   10.48301700
_cell_angle_alpha   90.00000000
_cell_angle_beta   90.00000000
_cell_angle_gamma   90.00000000
_symmetry_Int_Tables_number   1
_chemical_formula_structural   K2Na4Co2O5
_chemical_formula_sum   'K4 Na8 Co4 O10'
_cell_volume   427.30826901
_cell_formula_units_Z   2
loop_
 _symmetry_equiv_pos_site_id
 _symmetry_equiv_pos_as_xyz
  1  'x, y, z'
loop_
 _atom_site_type_symbol
 _atom_site_label
 _atom_site_symmetry_multiplicity
 _atom_site_fract_x
 _atom_site_fract_y
 _atom_site_fract_z
 _atom_site_occupancy
  K  K0  1  0.19608300  0.80391700  0.50000000  1
  K  K1  1  0.80391700  0.19608300  0.50000000  1
  K  K2  1  0.30391700  0.30391700  0.00000000  1
  K  K3  1  0.69608300  0.69608300  0.00000000  1
  Na  Na4  1  0.00000000  0.50000000  0.75000000  1
  Na  Na5  1  0.50000000  0.00000000  0.75000000  1
  Na  Na6  1  0.00000000  0.50000000  0.25000000  1
  Na  Na7  1  0.50000000  0.50000000  0.27959300  1
  Na  Na8  1  0.50000000  0.50000000  0.72040700  1
  Na  Na9  1  0.50000000  0.00000000  0.25000000  1
  Na  Na10  1  0.00000000  0.00000000  0.77959300  1
  Na  Na11  1  0.00000000  0.00000000  0.22040700  1
  Co  Co12  1  0.21371200  0.78628800  0.00000000  1
  Co  Co13  1  0.71371200  0.71371200  0.50000000  1
  Co  Co14  1  0.78628800  0.21371200  0.00000000  1
  Co  Co15  1  0.28628800  0.28628800  0.50000000  1
  O  O16  1  0.50000000  0.50000000  0.50000000  1
  O  O17  1  0.21327300  0.21327300  0.33853600  1
  O  O18  1  0.78672700  0.78672700  0.66146400  1
  O  O19  1  0.21327300  0.21327300  0.66146400  1
  O  O20  1  0.71327300  0.28672700  0.16146400  1
  O  O21  1  0.28672700  0.71327300  0.83853600  1
  O  O22  1  0.71327300  0.28672700  0.83853600  1
  O  O23  1  0.28672700  0.71327300  0.16146400  1
  O  O24  1  0.78672700  0.78672700  0.33853600  1
  O  O25  1  0.00000000  0.00000000  0.00000000  1
