# generated using pymatgen
data_Ta2V4Si5
_symmetry_space_group_name_H-M   'P 1'
_cell_length_a   9.36647440
_cell_length_b   9.36647440
_cell_length_c   9.36647440
_cell_angle_alpha   148.06995864
_cell_angle_beta   132.51863929
_cell_angle_gamma   58.36376028
_symmetry_Int_Tables_number   1
_chemical_formula_structural   Ta2V4Si5
_chemical_formula_sum   'Ta4 V8 Si10'
_cell_volume   317.77842689
_cell_formula_units_Z   2
loop_
 _symmetry_equiv_pos_site_id
 _symmetry_equiv_pos_as_xyz
  1  'x, y, z'
loop_
 _atom_site_type_symbol
 _atom_site_label
 _atom_site_symmetry_multiplicity
 _atom_site_fract_x
 _atom_site_fract_y
 _atom_site_fract_z
 _atom_site_occupancy
  Ta  Ta0  1  0.68861000  0.93861000  0.25000000  1
  Ta  Ta1  1  0.68861000  0.43861000  0.75000000  1
  Ta  Ta2  1  0.31139000  0.06139000  0.75000000  1
  Ta  Ta3  1  0.31139000  0.56139000  0.25000000  1
  V  V4  1  0.02628000  0.64417700  0.38210300  1
  V  V5  1  0.68372700  0.43532100  0.24840600  1
  V  V6  1  0.73792600  0.85582300  0.88210300  1
  V  V7  1  0.26207400  0.14417700  0.11789700  1
  V  V8  1  0.18691500  0.93532100  0.25159400  1
  V  V9  1  0.81308500  0.06467900  0.74840600  1
  V  V10  1  0.31627300  0.56467900  0.75159400  1
  V  V11  1  0.97372000  0.35582300  0.61789700  1
  Si  Si12  1  0.65381000  0.55990900  0.09390100  1
  Si  Si13  1  0.01322100  0.20891400  0.80430800  1
  Si  Si14  1  0.40460600  0.70891400  0.69569200  1
  Si  Si15  1  0.59539400  0.29108600  0.30430800  1
  Si  Si16  1  0.00000000  0.25000000  0.25000000  1
  Si  Si17  1  0.00000000  0.75000000  0.75000000  1
  Si  Si18  1  0.98677900  0.79108600  0.19569200  1
  Si  Si19  1  0.46600800  0.05990900  0.40609900  1
  Si  Si20  1  0.34619000  0.44009100  0.90609900  1
  Si  Si21  1  0.53399200  0.94009100  0.59390100  1
