# generated using pymatgen
data_BaTi2(P2O7)2
_symmetry_space_group_name_H-M   'P 1'
_cell_length_a   7.61639937
_cell_length_b   7.61639937
_cell_length_c   10.02521683
_cell_angle_alpha   81.02926644
_cell_angle_beta   81.02926644
_cell_angle_gamma   90.08940751
_symmetry_Int_Tables_number   1
_chemical_formula_structural   BaTi2(P2O7)2
_chemical_formula_sum   'Ba2 Ti4 P8 O28'
_cell_volume   567.21855689
_cell_formula_units_Z   2
loop_
 _symmetry_equiv_pos_site_id
 _symmetry_equiv_pos_as_xyz
  1  'x, y, z'
loop_
 _atom_site_type_symbol
 _atom_site_label
 _atom_site_symmetry_multiplicity
 _atom_site_fract_x
 _atom_site_fract_y
 _atom_site_fract_z
 _atom_site_occupancy
  Ba  Ba0  1  0.00000000  0.50000000  0.00000000  1
  Ba  Ba1  1  0.50000000  0.00000000  0.50000000  1
  Ti  Ti2  1  0.00000000  0.00000000  0.50000000  1
  Ti  Ti3  1  0.00000000  0.00000000  0.00000000  1
  Ti  Ti4  1  0.54847000  0.45153000  0.75000000  1
  Ti  Ti5  1  0.45153000  0.54847000  0.25000000  1
  P  P6  1  0.17745700  0.26294000  0.70330200  1
  P  P7  1  0.73706000  0.82254300  0.79669800  1
  P  P8  1  0.82254300  0.73706000  0.29669800  1
  P  P9  1  0.26294000  0.17745700  0.20330200  1
  P  P10  1  0.25320800  0.62499000  0.55629600  1
  P  P11  1  0.37501000  0.74679200  0.94370400  1
  P  P12  1  0.74679200  0.37501000  0.44370400  1
  P  P13  1  0.62499000  0.25320800  0.05629600  1
  O  O14  1  0.06194000  0.21944200  0.84381500  1
  O  O15  1  0.78055800  0.93806000  0.65618500  1
  O  O16  1  0.93806000  0.78055800  0.15618500  1
  O  O17  1  0.21944200  0.06194000  0.34381500  1
  O  O18  1  0.37855800  0.25777600  0.70249900  1
  O  O19  1  0.74222400  0.62144200  0.79750100  1
  O  O20  1  0.62144200  0.74222400  0.29750100  1
  O  O21  1  0.25777600  0.37855800  0.20249900  1
  O  O22  1  0.12753200  0.15200500  0.59976400  1
  O  O23  1  0.84799500  0.87246800  0.90023600  1
  O  O24  1  0.87246800  0.84799500  0.40023600  1
  O  O25  1  0.15200500  0.12753200  0.09976400  1
  O  O26  1  0.12921300  0.46913800  0.65556000  1
  O  O27  1  0.53086200  0.87078700  0.84444000  1
  O  O28  1  0.58599900  0.27408200  0.90984500  1
  O  O29  1  0.72591800  0.41400100  0.59015500  1
  O  O30  1  0.41400100  0.72591800  0.09015500  1
  O  O31  1  0.27408200  0.58599900  0.40984500  1
  O  O32  1  0.63470100  0.43203600  0.10897000  1
  O  O33  1  0.56796400  0.36529900  0.39103000  1
  O  O34  1  0.36529900  0.56796400  0.89103000  1
  O  O35  1  0.43203600  0.63470100  0.60897000  1
  O  O36  1  0.79556600  0.15384500  0.07325500  1
  O  O37  1  0.84615500  0.20443400  0.42674500  1
  O  O38  1  0.20443400  0.84615500  0.92674500  1
  O  O39  1  0.15384500  0.79556600  0.57325500  1
  O  O40  1  0.46913800  0.12921300  0.15556000  1
  O  O41  1  0.87078700  0.53086200  0.34444000  1
