# generated using pymatgen
data_SrCoAs2O7
_symmetry_space_group_name_H-M   'P 1'
_cell_length_a   5.61013770
_cell_length_b   8.50276400
_cell_length_c   13.33905215
_cell_angle_alpha   90.00000000
_cell_angle_beta   91.15109641
_cell_angle_gamma   90.00000000
_symmetry_Int_Tables_number   1
_chemical_formula_structural   SrCoAs2O7
_chemical_formula_sum   'Sr4 Co4 As8 O28'
_cell_volume   636.16674754
_cell_formula_units_Z   4
loop_
 _symmetry_equiv_pos_site_id
 _symmetry_equiv_pos_as_xyz
  1  'x, y, z'
loop_
 _atom_site_type_symbol
 _atom_site_label
 _atom_site_symmetry_multiplicity
 _atom_site_fract_x
 _atom_site_fract_y
 _atom_site_fract_z
 _atom_site_occupancy
  Sr  Sr0  1  0.79126400  0.17366900  0.77975900  1
  Sr  Sr1  1  0.70873600  0.67366900  0.72024100  1
  Sr  Sr2  1  0.20873500  0.82633100  0.22024100  1
  Sr  Sr3  1  0.29126500  0.32633100  0.27975900  1
  Co  Co4  1  0.33180800  0.35800900  0.60717000  1
  Co  Co5  1  0.16819200  0.85800900  0.89283000  1
  Co  Co6  1  0.66819300  0.64199200  0.39283000  1
  Co  Co7  1  0.83180800  0.14199100  0.10717000  1
  As  As8  1  0.67606900  0.80389000  0.01501500  1
  As  As9  1  0.82393200  0.30389000  0.48498500  1
  As  As10  1  0.17606900  0.69611000  0.51501500  1
  As  As11  1  0.32393000  0.19611000  0.98498500  1
  As  As12  1  0.74573100  0.52257900  0.16494800  1
  As  As13  1  0.25427000  0.47742000  0.83505100  1
  As  As14  1  0.75427000  0.02258000  0.33505200  1
  As  As15  1  0.24573100  0.97742000  0.66494800  1
  O  O16  1  0.69375500  0.32288200  0.59892600  1
  O  O17  1  0.80624500  0.82288200  0.90107500  1
  O  O18  1  0.30624400  0.67711700  0.40107400  1
  O  O19  1  0.19375500  0.17711700  0.09892600  1
  O  O20  1  0.62224400  0.15641200  0.97467300  1
  O  O21  1  0.87775600  0.65641200  0.52532700  1
  O  O22  1  0.37775700  0.84358800  0.02532600  1
  O  O23  1  0.12224300  0.34358800  0.47467300  1
  O  O24  1  0.96955800  0.45434600  0.79386600  1
  O  O25  1  0.53044100  0.95434700  0.70613400  1
  O  O26  1  0.03044100  0.54565400  0.20613400  1
  O  O27  1  0.46955800  0.04565400  0.29386600  1
  O  O28  1  0.27631200  0.40110000  0.96002100  1
  O  O29  1  0.22368800  0.90110000  0.53997900  1
  O  O30  1  0.72368700  0.59889900  0.03997900  1
  O  O31  1  0.77631300  0.09890000  0.46002100  1
  O  O32  1  0.65338200  0.33199800  0.15479600  1
  O  O33  1  0.84661800  0.83199800  0.34520400  1
  O  O34  1  0.34661900  0.66800100  0.84520400  1
  O  O35  1  0.15338100  0.16800100  0.65479600  1
  O  O36  1  0.66514500  0.40255000  0.39267100  1
  O  O37  1  0.83485500  0.90255000  0.10732900  1
  O  O38  1  0.46063100  0.38448300  0.76317400  1
  O  O39  1  0.16514400  0.09745000  0.89267100  1
  O  O40  1  0.96063000  0.11551700  0.26317400  1
  O  O41  1  0.53937000  0.61551700  0.23682600  1
  O  O42  1  0.03937100  0.88448300  0.73682600  1
  O  O43  1  0.33485600  0.59745000  0.60732800  1
