# generated using pymatgen
data_Na3GaS3
_symmetry_space_group_name_H-M   'P 1'
_cell_length_a   7.00358800
_cell_length_b   7.24542800
_cell_length_c   14.66071476
_cell_angle_alpha   60.84499928
_cell_angle_beta   90.00000000
_cell_angle_gamma   90.00000000
_symmetry_Int_Tables_number   1
_chemical_formula_structural   Na3GaS3
_chemical_formula_sum   'Na12 Ga4 S12'
_cell_volume   649.68929180
_cell_formula_units_Z   4
loop_
 _symmetry_equiv_pos_site_id
 _symmetry_equiv_pos_as_xyz
  1  'x, y, z'
loop_
 _atom_site_type_symbol
 _atom_site_label
 _atom_site_symmetry_multiplicity
 _atom_site_fract_x
 _atom_site_fract_y
 _atom_site_fract_z
 _atom_site_occupancy
  Na  Na0  1  0.03673600  0.93270600  0.29256900  1
  Na  Na1  1  0.53673600  0.06729400  0.20743100  1
  Na  Na2  1  0.96326400  0.06729400  0.70743100  1
  Na  Na3  1  0.46326400  0.93270600  0.79256900  1
  Na  Na4  1  0.99791100  0.73083600  0.11053800  1
  Na  Na5  1  0.49791100  0.26916400  0.38946200  1
  Na  Na6  1  0.00208900  0.26916400  0.88946200  1
  Na  Na7  1  0.50208900  0.73083600  0.61053800  1
  Na  Na8  1  0.99874900  0.30837400  0.39610200  1
  Na  Na9  1  0.49874900  0.69162600  0.10389800  1
  Na  Na10  1  0.00125100  0.69162600  0.60389800  1
  Na  Na11  1  0.50125100  0.30837400  0.89610200  1
  Ga  Ga12  1  0.85733600  0.66698000  0.91778700  1
  Ga  Ga13  1  0.14266400  0.33302000  0.08221300  1
  Ga  Ga14  1  0.64266400  0.66698000  0.41778700  1
  Ga  Ga15  1  0.35733600  0.33302000  0.58221300  1
  S  S16  1  0.24249300  0.05268300  0.57171700  1
  S  S17  1  0.25750700  0.05268300  0.07171700  1
  S  S18  1  0.74249300  0.94731700  0.92828300  1
  S  S19  1  0.75750700  0.94731700  0.42828300  1
  S  S20  1  0.80659100  0.35165700  0.07070000  1
  S  S21  1  0.30659100  0.64834300  0.42930000  1
  S  S22  1  0.19340900  0.64834300  0.92930000  1
  S  S23  1  0.69340900  0.35165700  0.57070000  1
  S  S24  1  0.24462900  0.34367900  0.22607100  1
  S  S25  1  0.74462900  0.65632100  0.27392900  1
  S  S26  1  0.75537100  0.65632100  0.77392900  1
  S  S27  1  0.25537100  0.34367900  0.72607100  1
