# generated using pymatgen
data_HfSiOs
_symmetry_space_group_name_H-M   'P 1'
_cell_length_a   6.63684939
_cell_length_b   6.63684939
_cell_length_c   3.73175700
_cell_angle_alpha   90.00000000
_cell_angle_beta   90.00000000
_cell_angle_gamma   119.99999395
_symmetry_Int_Tables_number   1
_chemical_formula_structural   HfSiOs
_chemical_formula_sum   'Hf3 Si3 Os3'
_cell_volume   142.35343111
_cell_formula_units_Z   3
loop_
 _symmetry_equiv_pos_site_id
 _symmetry_equiv_pos_as_xyz
  1  'x, y, z'
loop_
 _atom_site_type_symbol
 _atom_site_label
 _atom_site_symmetry_multiplicity
 _atom_site_fract_x
 _atom_site_fract_y
 _atom_site_fract_z
 _atom_site_occupancy
  Hf  Hf0  1  0.41433400  0.41433400  0.50000000  1
  Hf  Hf1  1  0.58566600  0.00000000  0.50000000  1
  Hf  Hf2  1  0.00000000  0.58566600  0.50000000  1
  Si  Si3  1  0.66666700  0.33333300  0.00000000  1
  Si  Si4  1  0.33333300  0.66666700  0.00000000  1
  Si  Si5  1  0.00000000  0.00000000  0.50000000  1
  Os  Os6  1  0.75301200  0.75301200  0.00000000  1
  Os  Os7  1  0.24698800  0.00000000  0.00000000  1
  Os  Os8  1  0.00000000  0.24698800  0.00000000  1
