# generated using pymatgen
data_Fe2PO5
_symmetry_space_group_name_H-M   'P 1'
_cell_length_a   6.53132100
_cell_length_b   7.47524100
_cell_length_c   7.58892000
_cell_angle_alpha   90.00000000
_cell_angle_beta   90.00000000
_cell_angle_gamma   90.00000000
_symmetry_Int_Tables_number   1
_chemical_formula_structural   Fe2PO5
_chemical_formula_sum   'Fe8 P4 O20'
_cell_volume   370.51534774
_cell_formula_units_Z   4
loop_
 _symmetry_equiv_pos_site_id
 _symmetry_equiv_pos_as_xyz
  1  'x, y, z'
loop_
 _atom_site_type_symbol
 _atom_site_label
 _atom_site_symmetry_multiplicity
 _atom_site_fract_x
 _atom_site_fract_y
 _atom_site_fract_z
 _atom_site_occupancy
  Fe  Fe0  1  0.75000000  0.84932500  0.71504000  1
  Fe  Fe1  1  0.25000000  0.15067500  0.28496000  1
  Fe  Fe2  1  0.75000000  0.34932500  0.78496000  1
  Fe  Fe3  1  0.25000000  0.65067500  0.21504000  1
  Fe  Fe4  1  0.00000000  0.50000000  0.50000000  1
  Fe  Fe5  1  0.50000000  0.50000000  0.50000000  1
  Fe  Fe6  1  0.50000000  0.00000000  0.00000000  1
  Fe  Fe7  1  0.00000000  0.00000000  0.00000000  1
  P  P8  1  0.25000000  0.87750800  0.62802700  1
  P  P9  1  0.75000000  0.12249200  0.37197300  1
  P  P10  1  0.25000000  0.37750800  0.87197300  1
  P  P11  1  0.75000000  0.62249200  0.12802700  1
  O  O12  1  0.55949500  0.63159600  0.25035900  1
  O  O13  1  0.05949500  0.36840400  0.74964100  1
  O  O14  1  0.94050500  0.13159600  0.24964100  1
  O  O15  1  0.44050500  0.86840400  0.75035900  1
  O  O16  1  0.44050500  0.36840400  0.74964100  1
  O  O17  1  0.94050500  0.63159600  0.25035900  1
  O  O18  1  0.05949500  0.86840400  0.75035900  1
  O  O19  1  0.55949500  0.13159600  0.24964100  1
  O  O20  1  0.25000000  0.54983500  0.98037300  1
  O  O21  1  0.75000000  0.45016500  0.01962700  1
  O  O22  1  0.25000000  0.04983500  0.51962700  1
  O  O23  1  0.75000000  0.95016500  0.48037300  1
  O  O24  1  0.25000000  0.90131300  0.14247800  1
  O  O25  1  0.75000000  0.09868700  0.85752200  1
  O  O26  1  0.25000000  0.40131300  0.35752200  1
  O  O27  1  0.75000000  0.59868700  0.64247800  1
  O  O28  1  0.25000000  0.20966900  0.99539300  1
  O  O29  1  0.75000000  0.79033100  0.00460700  1
  O  O30  1  0.25000000  0.70966900  0.50460700  1
  O  O31  1  0.75000000  0.29033100  0.49539300  1
