# generated using pymatgen
data_NdAl4
_symmetry_space_group_name_H-M   'P 1'
_cell_length_a   6.43974068
_cell_length_b   6.43974068
_cell_length_c   6.43974068
_cell_angle_alpha   141.26075191
_cell_angle_beta   141.26075191
_cell_angle_gamma   55.94393562
_symmetry_Int_Tables_number   1
_chemical_formula_structural   NdAl4
_chemical_formula_sum   'Nd1 Al4'
_cell_volume   103.77717550
_cell_formula_units_Z   1
loop_
 _symmetry_equiv_pos_site_id
 _symmetry_equiv_pos_as_xyz
  1  'x, y, z'
loop_
 _atom_site_type_symbol
 _atom_site_label
 _atom_site_symmetry_multiplicity
 _atom_site_fract_x
 _atom_site_fract_y
 _atom_site_fract_z
 _atom_site_occupancy
  Nd  Nd0  1  0.00000000  0.00000000  0.00000000  1
  Al  Al1  1  0.38872800  0.38872800  0.00000000  1
  Al  Al2  1  0.25000000  0.75000000  0.50000000  1
  Al  Al3  1  0.75000000  0.25000000  0.50000000  1
  Al  Al4  1  0.61127200  0.61127200  0.00000000  1
