# generated using pymatgen
data_Ca3Mn2O7
_symmetry_space_group_name_H-M   'P 1'
_cell_length_a   10.01330708
_cell_length_b   10.01330708
_cell_length_c   5.33646500
_cell_angle_alpha   90.00000000
_cell_angle_beta   90.00000000
_cell_angle_gamma   148.47817561
_symmetry_Int_Tables_number   1
_chemical_formula_structural   Ca3Mn2O7
_chemical_formula_sum   'Ca6 Mn4 O14'
_cell_volume   279.74586274
_cell_formula_units_Z   2
loop_
 _symmetry_equiv_pos_site_id
 _symmetry_equiv_pos_as_xyz
  1  'x, y, z'
loop_
 _atom_site_type_symbol
 _atom_site_label
 _atom_site_symmetry_multiplicity
 _atom_site_fract_x
 _atom_site_fract_y
 _atom_site_fract_z
 _atom_site_occupancy
  Ca  Ca0  1  0.74108900  0.74108900  0.25000000  1
  Ca  Ca1  1  0.25891100  0.25891100  0.75000000  1
  Ca  Ca2  1  0.92345000  0.55103700  0.25000000  1
  Ca  Ca3  1  0.55103700  0.92345000  0.25000000  1
  Ca  Ca4  1  0.44896300  0.07655000  0.75000000  1
  Ca  Ca5  1  0.07655000  0.44896300  0.75000000  1
  Mn  Mn6  1  0.14936700  0.34706800  0.25000000  1
  Mn  Mn7  1  0.34706800  0.14936700  0.25000000  1
  Mn  Mn8  1  0.85063300  0.65293200  0.75000000  1
  Mn  Mn9  1  0.65293200  0.85063300  0.75000000  1
  O  O10  1  0.49280200  0.88635600  0.75000000  1
  O  O11  1  0.88635600  0.49280200  0.75000000  1
  O  O12  1  0.50719800  0.11364400  0.25000000  1
  O  O13  1  0.11364400  0.50719800  0.25000000  1
  O  O14  1  0.41818200  0.58181800  0.50000000  1
  O  O15  1  0.58181800  0.41818200  0.00000000  1
  O  O16  1  0.58181800  0.41818200  0.50000000  1
  O  O17  1  0.41818200  0.58181800  0.00000000  1
  O  O18  1  0.88383000  0.11617000  0.50000000  1
  O  O19  1  0.11617000  0.88383000  0.00000000  1
  O  O20  1  0.16805100  0.16805100  0.25000000  1
  O  O21  1  0.83194900  0.83194900  0.75000000  1
  O  O22  1  0.88383000  0.11617000  0.00000000  1
  O  O23  1  0.11617000  0.88383000  0.50000000  1
