# generated using pymatgen
data_CsV3(TeO6)2
_symmetry_space_group_name_H-M   'P 1'
_cell_length_a   7.27519056
_cell_length_b   7.27519056
_cell_length_c   11.86958100
_cell_angle_alpha   90.00000000
_cell_angle_beta   90.00000000
_cell_angle_gamma   120.00000506
_symmetry_Int_Tables_number   1
_chemical_formula_structural   CsV3(TeO6)2
_chemical_formula_sum   'Cs2 V6 Te4 O24'
_cell_volume   544.06995580
_cell_formula_units_Z   2
loop_
 _symmetry_equiv_pos_site_id
 _symmetry_equiv_pos_as_xyz
  1  'x, y, z'
loop_
 _atom_site_type_symbol
 _atom_site_label
 _atom_site_symmetry_multiplicity
 _atom_site_fract_x
 _atom_site_fract_y
 _atom_site_fract_z
 _atom_site_occupancy
  Cs  Cs0  1  0.66666700  0.33333300  0.51428500  1
  Cs  Cs1  1  0.33333300  0.66666700  0.01428500  1
  V  V2  1  0.87018900  0.20420500  0.83524200  1
  V  V3  1  0.79579500  0.66598400  0.83524200  1
  V  V4  1  0.66598400  0.87018900  0.33524200  1
  V  V5  1  0.33401600  0.12981100  0.83524200  1
  V  V6  1  0.20420500  0.33401600  0.33524200  1
  V  V7  1  0.12981100  0.79579500  0.33524200  1
  Te  Te8  1  0.33333300  0.66666700  0.57452500  1
  Te  Te9  1  0.66666700  0.33333300  0.07452500  1
  Te  Te10  1  0.00000000  0.00000000  0.60171400  1
  Te  Te11  1  0.00000000  0.00000000  0.10171400  1
  O  O12  1  0.18820600  0.40043100  0.50007600  1
  O  O13  1  0.12953200  0.88218200  0.86711600  1
  O  O14  1  0.85661600  0.12088100  0.68187400  1
  O  O15  1  0.91493900  0.45465400  0.81450700  1
  O  O16  1  0.87911900  0.73573600  0.68187400  1
  O  O17  1  0.81179400  0.59956900  0.00007600  1
  O  O18  1  0.40043100  0.21222600  0.00007600  1
  O  O19  1  0.21222600  0.81179400  0.50007600  1
  O  O20  1  0.78777400  0.18820600  0.00007600  1
  O  O21  1  0.11781800  0.24735000  0.86711600  1
  O  O22  1  0.08506100  0.54534600  0.31450700  1
  O  O23  1  0.54534600  0.46028500  0.81450700  1
  O  O24  1  0.75265000  0.87046800  0.86711600  1
  O  O25  1  0.24735000  0.12953200  0.36711600  1
  O  O26  1  0.45465400  0.53971500  0.31450700  1
  O  O27  1  0.88218200  0.75265000  0.36711600  1
  O  O28  1  0.53971500  0.08506100  0.81450700  1
  O  O29  1  0.46028500  0.91493900  0.31450700  1
  O  O30  1  0.14338400  0.87911900  0.18187400  1
  O  O31  1  0.73573600  0.85661600  0.18187400  1
  O  O32  1  0.26426400  0.14338400  0.68187400  1
  O  O33  1  0.59956900  0.78777400  0.50007600  1
  O  O34  1  0.12088100  0.26426400  0.18187400  1
  O  O35  1  0.87046800  0.11781800  0.36711600  1
