# generated using pymatgen
data_RbAlPdF6
_symmetry_space_group_name_H-M   'P 1'
_cell_length_a   7.23291000
_cell_length_b   7.39311100
_cell_length_c   10.28940500
_cell_angle_alpha   90.00000000
_cell_angle_beta   90.00000000
_cell_angle_gamma   90.00000000
_symmetry_Int_Tables_number   1
_chemical_formula_structural   RbAlPdF6
_chemical_formula_sum   'Rb4 Al4 Pd4 F24'
_cell_volume   550.21262285
_cell_formula_units_Z   4
loop_
 _symmetry_equiv_pos_site_id
 _symmetry_equiv_pos_as_xyz
  1  'x, y, z'
loop_
 _atom_site_type_symbol
 _atom_site_label
 _atom_site_symmetry_multiplicity
 _atom_site_fract_x
 _atom_site_fract_y
 _atom_site_fract_z
 _atom_site_occupancy
  Rb  Rb0  1  0.25000000  0.48094100  0.86817100  1
  Rb  Rb1  1  0.75000000  0.01905900  0.36817100  1
  Rb  Rb2  1  0.75000000  0.51905900  0.13182900  1
  Rb  Rb3  1  0.25000000  0.98094100  0.63182900  1
  Al  Al4  1  0.00000000  0.50000000  0.50000000  1
  Al  Al5  1  0.50000000  0.50000000  0.50000000  1
  Al  Al6  1  0.50000000  0.00000000  0.00000000  1
  Al  Al7  1  0.00000000  0.00000000  0.00000000  1
  Pd  Pd8  1  0.75000000  0.21926500  0.73742800  1
  Pd  Pd9  1  0.75000000  0.71926500  0.76257200  1
  Pd  Pd10  1  0.25000000  0.28073500  0.23742800  1
  Pd  Pd11  1  0.25000000  0.78073500  0.26257200  1
  F  F12  1  0.53112600  0.79336700  0.90515400  1
  F  F13  1  0.03112600  0.20663300  0.09484600  1
  F  F14  1  0.96887400  0.29336700  0.59484600  1
  F  F15  1  0.46887400  0.70663300  0.40515400  1
  F  F16  1  0.46887400  0.20663300  0.09484600  1
  F  F17  1  0.96887400  0.79336700  0.90515400  1
  F  F18  1  0.03112600  0.70663300  0.40515400  1
  F  F19  1  0.53112600  0.29336700  0.59484600  1
  F  F20  1  0.00081800  0.63416400  0.64859400  1
  F  F21  1  0.50081800  0.36583600  0.35140600  1
  F  F22  1  0.49918200  0.13416400  0.85140600  1
  F  F23  1  0.99918200  0.86583600  0.14859400  1
  F  F24  1  0.75000000  0.95982200  0.64074500  1
  F  F25  1  0.25000000  0.04017800  0.35925500  1
  F  F26  1  0.75000000  0.45982200  0.85925500  1
  F  F27  1  0.25000000  0.54017800  0.14074500  1
  F  F28  1  0.75000000  0.03010700  0.01611700  1
  F  F29  1  0.25000000  0.96989300  0.98388300  1
  F  F30  1  0.75000000  0.53010700  0.48388300  1
  F  F31  1  0.25000000  0.46989300  0.51611700  1
  F  F32  1  0.00081800  0.13416400  0.85140600  1
  F  F33  1  0.50081800  0.86583600  0.14859400  1
  F  F34  1  0.49918200  0.63416400  0.64859400  1
  F  F35  1  0.99918200  0.36583600  0.35140600  1
