# generated using pymatgen
data_CsEr2Cu3S5
_symmetry_space_group_name_H-M   'P 1'
_cell_length_a   7.29792233
_cell_length_b   7.29792233
_cell_length_c   16.70246800
_cell_angle_alpha   90.00000000
_cell_angle_beta   90.00000000
_cell_angle_gamma   148.63276701
_symmetry_Int_Tables_number   1
_chemical_formula_structural   CsEr2Cu3S5
_chemical_formula_sum   'Cs2 Er4 Cu6 S10'
_cell_volume   463.03915628
_cell_formula_units_Z   2
loop_
 _symmetry_equiv_pos_site_id
 _symmetry_equiv_pos_as_xyz
  1  'x, y, z'
loop_
 _atom_site_type_symbol
 _atom_site_label
 _atom_site_symmetry_multiplicity
 _atom_site_fract_x
 _atom_site_fract_y
 _atom_site_fract_z
 _atom_site_occupancy
  Cs  Cs0  1  0.93623000  0.06377000  0.25000000  1
  Cs  Cs1  1  0.06377000  0.93623000  0.75000000  1
  Er  Er2  1  0.19205600  0.80794400  0.40823200  1
  Er  Er3  1  0.19205600  0.80794400  0.09176800  1
  Er  Er4  1  0.80794400  0.19205600  0.59176800  1
  Er  Er5  1  0.80794400  0.19205600  0.90823200  1
  Cu  Cu6  1  0.58428300  0.41571700  0.53611000  1
  Cu  Cu7  1  0.58428300  0.41571700  0.96389000  1
  Cu  Cu8  1  0.41571700  0.58428300  0.03611000  1
  Cu  Cu9  1  0.34393100  0.65606900  0.75000000  1
  Cu  Cu10  1  0.65606900  0.34393100  0.25000000  1
  Cu  Cu11  1  0.41571700  0.58428300  0.46389000  1
  S  S12  1  0.82980400  0.17019600  0.06823500  1
  S  S13  1  0.43722700  0.56277300  0.89153200  1
  S  S14  1  0.43722700  0.56277300  0.60846800  1
  S  S15  1  0.56277300  0.43722700  0.39153200  1
  S  S16  1  0.23164000  0.76836000  0.25000000  1
  S  S17  1  0.76836000  0.23164000  0.75000000  1
  S  S18  1  0.56277300  0.43722700  0.10846800  1
  S  S19  1  0.17019600  0.82980400  0.93176500  1
  S  S20  1  0.17019600  0.82980400  0.56823500  1
  S  S21  1  0.82980400  0.17019600  0.43176500  1
