# generated using pymatgen
data_Nb2Zn3O8
_symmetry_space_group_name_H-M   'P 1'
_cell_length_a   10.13770846
_cell_length_b   10.13770846
_cell_length_c   5.27124514
_cell_angle_alpha   89.86452575
_cell_angle_beta   89.86452575
_cell_angle_gamma   34.30934913
_symmetry_Int_Tables_number   1
_chemical_formula_structural   Nb2Zn3O8
_chemical_formula_sum   'Nb4 Zn6 O16'
_cell_volume   305.35802752
_cell_formula_units_Z   2
loop_
 _symmetry_equiv_pos_site_id
 _symmetry_equiv_pos_as_xyz
  1  'x, y, z'
loop_
 _atom_site_type_symbol
 _atom_site_label
 _atom_site_symmetry_multiplicity
 _atom_site_fract_x
 _atom_site_fract_y
 _atom_site_fract_z
 _atom_site_occupancy
  Nb  Nb0  1  0.72195600  0.04889200  0.26309500  1
  Nb  Nb1  1  0.95110800  0.27804400  0.23690500  1
  Nb  Nb2  1  0.27804400  0.95110800  0.73690500  1
  Nb  Nb3  1  0.04889200  0.72195600  0.76309500  1
  Zn  Zn4  1  0.34663000  0.65337000  0.25000000  1
  Zn  Zn5  1  0.65337000  0.34663000  0.75000000  1
  Zn  Zn6  1  0.56632300  0.87517200  0.23840500  1
  Zn  Zn7  1  0.12482800  0.43367700  0.26159500  1
  Zn  Zn8  1  0.87517200  0.56632300  0.73840500  1
  Zn  Zn9  1  0.43367700  0.12482800  0.76159500  1
  O  O10  1  0.31673700  0.56709300  0.91427000  1
  O  O11  1  0.43290700  0.68326300  0.58573000  1
  O  O12  1  0.68326300  0.43290700  0.08573000  1
  O  O13  1  0.56709300  0.31673700  0.41427000  1
  O  O14  1  0.95455100  0.18479100  0.57546600  1
  O  O15  1  0.81520900  0.04544900  0.92453400  1
  O  O16  1  0.04544900  0.81520900  0.42453400  1
  O  O17  1  0.18479100  0.95455100  0.07546600  1
  O  O18  1  0.16237300  0.45185700  0.63151800  1
  O  O19  1  0.54814300  0.83762700  0.86848200  1
  O  O20  1  0.28274000  0.07709000  0.44277400  1
  O  O21  1  0.92291000  0.71726000  0.05722600  1
  O  O22  1  0.71726000  0.92291000  0.55722600  1
  O  O23  1  0.07709000  0.28274000  0.94277400  1
  O  O24  1  0.45185700  0.16237300  0.13151800  1
  O  O25  1  0.83762700  0.54814300  0.36848200  1
