# generated using pymatgen
data_LaSi
_symmetry_space_group_name_H-M   'P 1'
_cell_length_a   4.00704300
_cell_length_b   6.05213500
_cell_length_c   8.45546300
_cell_angle_alpha   90.00000000
_cell_angle_beta   90.00000000
_cell_angle_gamma   90.00000000
_symmetry_Int_Tables_number   1
_chemical_formula_structural   LaSi
_chemical_formula_sum   'La4 Si4'
_cell_volume   205.05482994
_cell_formula_units_Z   4
loop_
 _symmetry_equiv_pos_site_id
 _symmetry_equiv_pos_as_xyz
  1  'x, y, z'
loop_
 _atom_site_type_symbol
 _atom_site_label
 _atom_site_symmetry_multiplicity
 _atom_site_fract_x
 _atom_site_fract_y
 _atom_site_fract_z
 _atom_site_occupancy
  La  La0  1  0.25000000  0.38680000  0.67972600  1
  La  La1  1  0.75000000  0.61320000  0.32027400  1
  La  La2  1  0.75000000  0.88680000  0.82027400  1
  La  La3  1  0.25000000  0.11320000  0.17972600  1
  Si  Si4  1  0.25000000  0.88324900  0.53332600  1
  Si  Si5  1  0.75000000  0.11675100  0.46667400  1
  Si  Si6  1  0.75000000  0.38324900  0.96667400  1
  Si  Si7  1  0.25000000  0.61675100  0.03332600  1
