# generated using pymatgen
data_Pr2NiO4
_symmetry_space_group_name_H-M   'P 1'
_cell_length_a   3.88154155
_cell_length_b   3.88154041
_cell_length_c   6.80057910
_cell_angle_alpha   106.56667300
_cell_angle_beta   106.56667413
_cell_angle_gamma   90.05095812
_symmetry_Int_Tables_number   1
_chemical_formula_structural   Pr2NiO4
_chemical_formula_sum   'Pr2 Ni1 O4'
_cell_volume   93.75257563
_cell_formula_units_Z   1
loop_
 _symmetry_equiv_pos_site_id
 _symmetry_equiv_pos_as_xyz
  1  'x, y, z'
loop_
 _atom_site_type_symbol
 _atom_site_label
 _atom_site_symmetry_multiplicity
 _atom_site_fract_x
 _atom_site_fract_y
 _atom_site_fract_z
 _atom_site_occupancy
  Pr  Pr0  1  0.63573600  0.63573700  0.27130900  1
  Pr  Pr1  1  0.36426400  0.36426400  0.72869200  1
  Ni  Ni2  1  0.00000000  0.00000000  0.00000000  1
  O  O3  1  0.82214200  0.82214300  0.64417700  1
  O  O4  1  0.17785800  0.17785800  0.35582400  1
  O  O5  1  0.00000000  0.50000000  0.00000000  1
  O  O6  1  0.50000000  0.00000000  0.00000000  1
