# generated using pymatgen
data_K3(FeO2)2
_symmetry_space_group_name_H-M   'P 1'
_cell_length_a   10.35067869
_cell_length_b   9.10392287
_cell_length_c   6.53552710
_cell_angle_alpha   81.07671824
_cell_angle_beta   60.33142784
_cell_angle_gamma   38.59185392
_symmetry_Int_Tables_number   1
_chemical_formula_structural   K3(FeO2)2
_chemical_formula_sum   'K6 Fe4 O8'
_cell_volume   301.73108089
_cell_formula_units_Z   2
loop_
 _symmetry_equiv_pos_site_id
 _symmetry_equiv_pos_as_xyz
  1  'x, y, z'
loop_
 _atom_site_type_symbol
 _atom_site_label
 _atom_site_symmetry_multiplicity
 _atom_site_fract_x
 _atom_site_fract_y
 _atom_site_fract_z
 _atom_site_occupancy
  K  K0  1  0.60882200  0.60882200  0.39117800  1
  K  K1  1  0.25000000  0.25000000  0.25000000  1
  K  K2  1  0.64117800  0.64117800  0.85882200  1
  K  K3  1  0.85882200  0.85882200  0.64117800  1
  K  K4  1  0.00000000  0.00000000  0.00000000  1
  K  K5  1  0.39117800  0.39117800  0.60882200  1
  Fe  Fe6  1  0.05807600  0.05807600  0.44192400  1
  Fe  Fe7  1  0.80807600  0.80807600  0.19192400  1
  Fe  Fe8  1  0.19192400  0.19192400  0.80807600  1
  Fe  Fe9  1  0.44192400  0.44192400  0.05807600  1
  O  O10  1  0.12500000  0.62500000  0.12500000  1
  O  O11  1  0.68197000  0.31803000  0.68197000  1
  O  O12  1  0.93197000  0.56803000  0.93197000  1
  O  O13  1  0.56803000  0.93197000  0.56803000  1
  O  O14  1  0.31803000  0.68197000  0.31803000  1
  O  O15  1  0.62500000  0.12500000  0.12500000  1
  O  O16  1  0.12500000  0.12500000  0.62500000  1
  O  O17  1  0.12500000  0.12500000  0.12500000  1
