# generated using pymatgen
data_Ba3W2O9
_symmetry_space_group_name_H-M   'P 1'
_cell_length_a   7.63583779
_cell_length_b   7.63583779
_cell_length_c   7.63583739
_cell_angle_alpha   85.00306623
_cell_angle_beta   85.00306623
_cell_angle_gamma   85.00306874
_symmetry_Int_Tables_number   1
_chemical_formula_structural   Ba3W2O9
_chemical_formula_sum   'Ba6 W4 O18'
_cell_volume   440.41697419
_cell_formula_units_Z   2
loop_
 _symmetry_equiv_pos_site_id
 _symmetry_equiv_pos_as_xyz
  1  'x, y, z'
loop_
 _atom_site_type_symbol
 _atom_site_label
 _atom_site_symmetry_multiplicity
 _atom_site_fract_x
 _atom_site_fract_y
 _atom_site_fract_z
 _atom_site_occupancy
  Ba  Ba0  1  0.57991000  0.92009000  0.25000000  1
  Ba  Ba1  1  0.92009000  0.25000000  0.57991000  1
  Ba  Ba2  1  0.25000000  0.57991000  0.92009000  1
  Ba  Ba3  1  0.42009000  0.07991000  0.75000000  1
  Ba  Ba4  1  0.75000000  0.42009000  0.07991000  1
  Ba  Ba5  1  0.07991000  0.75000000  0.42009000  1
  W  W6  1  0.14648500  0.14648500  0.14648500  1
  W  W7  1  0.35351500  0.35351500  0.35351500  1
  W  W8  1  0.85351500  0.85351500  0.85351500  1
  W  W9  1  0.64648500  0.64648500  0.64648500  1
  O  O10  1  0.25341300  0.92953600  0.08812400  1
  O  O11  1  0.08812400  0.25341300  0.92953600  1
  O  O12  1  0.92953600  0.08812400  0.25341300  1
  O  O13  1  0.24658700  0.41187600  0.57046400  1
  O  O14  1  0.57046400  0.24658700  0.41187600  1
  O  O15  1  0.41187600  0.57046400  0.24658700  1
  O  O16  1  0.74658700  0.07046400  0.91187600  1
  O  O17  1  0.91187600  0.74658700  0.07046400  1
  O  O18  1  0.07046400  0.91187600  0.74658700  1
  O  O19  1  0.75341300  0.58812400  0.42953600  1
  O  O20  1  0.10508200  0.39491800  0.25000000  1
  O  O21  1  0.39491800  0.25000000  0.10508200  1
  O  O22  1  0.25000000  0.10508200  0.39491800  1
  O  O23  1  0.89491800  0.60508200  0.75000000  1
  O  O24  1  0.60508200  0.75000000  0.89491800  1
  O  O25  1  0.75000000  0.89491800  0.60508200  1
  O  O26  1  0.58812400  0.42953600  0.75341300  1
  O  O27  1  0.42953600  0.75341300  0.58812400  1
