# generated using pymatgen
data_Sr(NiO2)4
_symmetry_space_group_name_H-M   'P 1'
_cell_length_a   5.72524542
_cell_length_b   6.83538648
_cell_length_c   9.91632905
_cell_angle_alpha   103.99113002
_cell_angle_beta   90.00114189
_cell_angle_gamma   65.24013516
_symmetry_Int_Tables_number   1
_chemical_formula_structural   Sr(NiO2)4
_chemical_formula_sum   'Sr2 Ni8 O16'
_cell_volume   339.67469514
_cell_formula_units_Z   2
loop_
 _symmetry_equiv_pos_site_id
 _symmetry_equiv_pos_as_xyz
  1  'x, y, z'
loop_
 _atom_site_type_symbol
 _atom_site_label
 _atom_site_symmetry_multiplicity
 _atom_site_fract_x
 _atom_site_fract_y
 _atom_site_fract_z
 _atom_site_occupancy
  Sr  Sr0  1  0.74999600  0.50000900  0.75000600  1
  Sr  Sr1  1  0.25000200  0.49999700  0.24999500  1
  Ni  Ni2  1  0.25004500  0.99999100  0.74990300  1
  Ni  Ni3  1  0.74995300  0.00000800  0.25010100  1
  Ni  Ni4  1  0.99999900  0.00000100  0.50000000  1
  Ni  Ni5  1  0.50000000  0.00000100  0.00000100  1
  Ni  Ni6  1  0.74996400  0.99999200  0.74990300  1
  Ni  Ni7  1  0.25003900  0.00000800  0.25010100  1
  Ni  Ni8  1  0.50000000  0.00000100  0.50000000  1
  Ni  Ni9  1  0.00000000  0.00000000  0.99999900  1
  O  O10  1  0.08040500  0.83920500  0.63991000  1
  O  O11  1  0.58035200  0.83931200  0.13984500  1
  O  O12  1  0.41964900  0.16068700  0.86015400  1
  O  O13  1  0.91959700  0.16079100  0.36008800  1
  O  O14  1  0.81775100  0.83270000  0.88346800  1
  O  O15  1  0.31772100  0.83258000  0.38343300  1
  O  O16  1  0.91636600  0.16726300  0.85061800  1
  O  O17  1  0.41625600  0.16748200  0.35055700  1
  O  O18  1  0.68227900  0.16742000  0.61656600  1
  O  O19  1  0.18225000  0.16730000  0.11653100  1
  O  O20  1  0.15029500  0.16743300  0.61656900  1
  O  O21  1  0.65044400  0.16731200  0.11653400  1
  O  O22  1  0.58374400  0.83251700  0.64944100  1
  O  O23  1  0.08363400  0.83273800  0.14938200  1
  O  O24  1  0.34955600  0.83268700  0.88346500  1
  O  O25  1  0.84970500  0.83256700  0.38343000  1
