# generated using pymatgen
data_Zn(OF)2
_symmetry_space_group_name_H-M   'P 1'
_cell_length_a   10.36430722
_cell_length_b   8.53771771
_cell_length_c   6.19135813
_cell_angle_alpha   87.93649930
_cell_angle_beta   55.40918241
_cell_angle_gamma   36.65431829
_symmetry_Int_Tables_number   1
_chemical_formula_structural   Zn(OF)2
_chemical_formula_sum   'Zn2 O4 F4'
_cell_volume   140.31735112
_cell_formula_units_Z   2
loop_
 _symmetry_equiv_pos_site_id
 _symmetry_equiv_pos_as_xyz
  1  'x, y, z'
loop_
 _atom_site_type_symbol
 _atom_site_label
 _atom_site_symmetry_multiplicity
 _atom_site_fract_x
 _atom_site_fract_y
 _atom_site_fract_z
 _atom_site_occupancy
  Zn  Zn0  1  0.25000000  0.25000000  0.25000000  1
  Zn  Zn1  1  0.00000000  0.00000000  0.00000000  1
  O  O2  1  0.02900000  0.47100000  0.02900000  1
  O  O3  1  0.47100000  0.02900000  0.47100000  1
  O  O4  1  0.22100000  0.77900000  0.22100000  1
  O  O5  1  0.77900000  0.22100000  0.77900000  1
  F  F6  1  0.83077000  0.83077000  0.66923000  1
  F  F7  1  0.66923000  0.66923000  0.83077000  1
  F  F8  1  0.41923000  0.41923000  0.58077000  1
  F  F9  1  0.58077000  0.58077000  0.41923000  1
