# generated using pymatgen
data_CrPO4
_symmetry_space_group_name_H-M   'P 1'
_cell_length_a   4.74057262
_cell_length_b   8.77685468
_cell_length_c   6.31542400
_cell_angle_alpha   90.00000000
_cell_angle_beta   90.00000000
_cell_angle_gamma   83.36559774
_symmetry_Int_Tables_number   1
_chemical_formula_structural   CrPO4
_chemical_formula_sum   'Cr4 P4 O16'
_cell_volume   261.00824312
_cell_formula_units_Z   4
loop_
 _symmetry_equiv_pos_site_id
 _symmetry_equiv_pos_as_xyz
  1  'x, y, z'
loop_
 _atom_site_type_symbol
 _atom_site_label
 _atom_site_symmetry_multiplicity
 _atom_site_fract_x
 _atom_site_fract_y
 _atom_site_fract_z
 _atom_site_occupancy
  Cr  Cr0  1  0.50000000  0.50000000  0.50000000  1
  Cr  Cr1  1  0.00000000  0.00000000  0.00000000  1
  Cr  Cr2  1  0.00000000  0.00000000  0.50000000  1
  Cr  Cr3  1  0.50000000  0.50000000  0.00000000  1
  P  P4  1  0.47830900  0.17389700  0.25000000  1
  P  P5  1  0.97830900  0.67389700  0.25000000  1
  P  P6  1  0.02169100  0.32610300  0.75000000  1
  P  P7  1  0.52169100  0.82610300  0.75000000  1
  O  O8  1  0.07822600  0.14350800  0.75000000  1
  O  O9  1  0.57822600  0.64350800  0.75000000  1
  O  O10  1  0.42177400  0.35649200  0.25000000  1
  O  O11  1  0.92177400  0.85649200  0.25000000  1
  O  O12  1  0.17614800  0.11086700  0.25000000  1
  O  O13  1  0.67614800  0.61086700  0.25000000  1
  O  O14  1  0.32385200  0.38913300  0.75000000  1
  O  O15  1  0.82385200  0.88913300  0.75000000  1
  O  O16  1  0.86834400  0.37721900  0.95320200  1
  O  O17  1  0.36834400  0.87721900  0.95320200  1
  O  O18  1  0.63165600  0.12278100  0.45320200  1
  O  O19  1  0.13165600  0.62278100  0.45320200  1
  O  O20  1  0.63165600  0.12278100  0.04679800  1
  O  O21  1  0.13165600  0.62278100  0.04679800  1
  O  O22  1  0.86834400  0.37721900  0.54679800  1
  O  O23  1  0.36834400  0.87721900  0.54679800  1
