# generated using pymatgen
data_BaNiO2
_symmetry_space_group_name_H-M   'P 1'
_cell_length_a   5.49602140
_cell_length_b   5.49602140
_cell_length_c   4.78157400
_cell_angle_alpha   90.00000000
_cell_angle_beta   90.00000000
_cell_angle_gamma   116.04028216
_symmetry_Int_Tables_number   1
_chemical_formula_structural   BaNiO2
_chemical_formula_sum   'Ba2 Ni2 O4'
_cell_volume   129.77135632
_cell_formula_units_Z   2
loop_
 _symmetry_equiv_pos_site_id
 _symmetry_equiv_pos_as_xyz
  1  'x, y, z'
loop_
 _atom_site_type_symbol
 _atom_site_label
 _atom_site_symmetry_multiplicity
 _atom_site_fract_x
 _atom_site_fract_y
 _atom_site_fract_z
 _atom_site_occupancy
  Ba  Ba0  1  0.65379100  0.34620900  0.75000000  1
  Ba  Ba1  1  0.34620900  0.65379100  0.25000000  1
  Ni  Ni2  1  0.00000000  0.00000000  0.50000000  1
  Ni  Ni3  1  0.00000000  0.00000000  0.00000000  1
  O  O4  1  0.13816200  0.30074600  0.75000000  1
  O  O5  1  0.86183800  0.69925400  0.25000000  1
  O  O6  1  0.69925400  0.86183800  0.75000000  1
  O  O7  1  0.30074600  0.13816200  0.25000000  1
