# generated using pymatgen
data_Na7Fe3O8
_symmetry_space_group_name_H-M   'P 1'
_cell_length_a   6.00494732
_cell_length_b   8.44498760
_cell_length_c   11.51874371
_cell_angle_alpha   68.42186765
_cell_angle_beta   78.54497426
_cell_angle_gamma   70.50086799
_symmetry_Int_Tables_number   1
_chemical_formula_structural   Na7Fe3O8
_chemical_formula_sum   'Na14 Fe6 O16'
_cell_volume   510.12291956
_cell_formula_units_Z   2
loop_
 _symmetry_equiv_pos_site_id
 _symmetry_equiv_pos_as_xyz
  1  'x, y, z'
loop_
 _atom_site_type_symbol
 _atom_site_label
 _atom_site_symmetry_multiplicity
 _atom_site_fract_x
 _atom_site_fract_y
 _atom_site_fract_z
 _atom_site_occupancy
  Na  Na0  1  0.49995800  0.43913100  0.28096000  1
  Na  Na1  1  0.50004300  0.56086800  0.71904000  1
  Na  Na2  1  0.87356500  0.21818400  0.66389900  1
  Na  Na3  1  0.12643400  0.78181700  0.33610200  1
  Na  Na4  1  0.37550000  0.36023500  0.56615500  1
  Na  Na5  1  0.62450000  0.63976500  0.43384500  1
  Na  Na6  1  0.72104600  0.06842700  0.47224200  1
  Na  Na7  1  0.27895400  0.93157300  0.52775700  1
  Na  Na8  1  0.30414200  0.86579500  0.04770800  1
  Na  Na9  1  0.69585600  0.13420500  0.95229200  1
  Na  Na10  1  0.27095900  0.45268300  0.05012300  1
  Na  Na11  1  0.72903900  0.54731800  0.94987800  1
  Na  Na12  1  0.54165500  0.93719500  0.78034600  1
  Na  Na13  1  0.45834500  0.06280500  0.21965400  1
  Fe  Fe14  1  0.81561400  0.73928600  0.14862500  1
  Fe  Fe15  1  0.04374300  0.31145600  0.36244700  1
  Fe  Fe16  1  0.95625800  0.68854400  0.63755300  1
  Fe  Fe17  1  0.05846200  0.84479000  0.84675400  1
  Fe  Fe18  1  0.94153800  0.15521000  0.15324600  1
  Fe  Fe19  1  0.18438600  0.26071400  0.85137500  1
  O  O20  1  0.06163800  0.53050800  0.22428600  1
  O  O21  1  0.67981700  0.78103800  0.55547500  1
  O  O22  1  0.79378700  0.79542500  0.97013100  1
  O  O23  1  0.20621300  0.20457600  0.02986900  1
  O  O24  1  0.09728400  0.06548200  0.84214800  1
  O  O25  1  0.90271600  0.93451800  0.15785300  1
  O  O26  1  0.76024200  0.34399100  0.46356900  1
  O  O27  1  0.23975800  0.65600900  0.53643100  1
  O  O28  1  0.51143800  0.74920100  0.22734200  1
  O  O29  1  0.48856200  0.25079900  0.77265800  1
  O  O30  1  0.64644400  0.31329200  0.11630700  1
  O  O31  1  0.32018300  0.21896200  0.44452500  1
  O  O32  1  0.35355600  0.68670800  0.88369300  1
  O  O33  1  0.05293600  0.10730000  0.31100900  1
  O  O34  1  0.94706400  0.89270000  0.68899100  1
  O  O35  1  0.93836000  0.46949200  0.77571400  1
