# generated using pymatgen
data_CaMoO3
_symmetry_space_group_name_H-M   'P 1'
_cell_length_a   5.52575200
_cell_length_b   5.70338600
_cell_length_c   7.98666700
_cell_angle_alpha   90.00000000
_cell_angle_beta   90.00000000
_cell_angle_gamma   90.00000000
_symmetry_Int_Tables_number   1
_chemical_formula_structural   CaMoO3
_chemical_formula_sum   'Ca4 Mo4 O12'
_cell_volume   251.70377665
_cell_formula_units_Z   4
loop_
 _symmetry_equiv_pos_site_id
 _symmetry_equiv_pos_as_xyz
  1  'x, y, z'
loop_
 _atom_site_type_symbol
 _atom_site_label
 _atom_site_symmetry_multiplicity
 _atom_site_fract_x
 _atom_site_fract_y
 _atom_site_fract_z
 _atom_site_occupancy
  Ca  Ca0  1  0.99059000  0.04741300  0.25000000  1
  Ca  Ca1  1  0.49059100  0.45258700  0.75000000  1
  Ca  Ca2  1  0.50941000  0.54741200  0.25000000  1
  Ca  Ca3  1  0.00940900  0.95258800  0.75000000  1
  Mo  Mo4  1  0.50000000  0.00000000  0.00000000  1
  Mo  Mo5  1  0.00000000  0.50000000  0.00000000  1
  Mo  Mo6  1  0.00000000  0.50000000  0.50000100  1
  Mo  Mo7  1  0.50000000  0.00000000  0.50000100  1
  O  O8  1  0.69300600  0.29565400  0.44642400  1
  O  O9  1  0.19300600  0.20434500  0.55357600  1
  O  O10  1  0.80699300  0.79565500  0.05357600  1
  O  O11  1  0.30699300  0.70434500  0.94642400  1
  O  O12  1  0.30699300  0.70434500  0.55357600  1
  O  O13  1  0.80699300  0.79565500  0.44642400  1
  O  O14  1  0.19300600  0.20434500  0.94642400  1
  O  O15  1  0.69300600  0.29565400  0.05357600  1
  O  O16  1  0.09942200  0.45686100  0.25000000  1
  O  O17  1  0.59942400  0.04313800  0.75000000  1
  O  O18  1  0.90057700  0.54313800  0.75000000  1
  O  O19  1  0.40057700  0.95686100  0.25000000  1
