# generated using pymatgen
data_SrV2O6
_symmetry_space_group_name_H-M   'P 1'
_cell_length_a   3.71334400
_cell_length_b   9.82844700
_cell_length_c   12.99695100
_cell_angle_alpha   90.00000000
_cell_angle_beta   90.00000000
_cell_angle_gamma   90.00000000
_symmetry_Int_Tables_number   1
_chemical_formula_structural   SrV2O6
_chemical_formula_sum   'Sr4 V8 O24'
_cell_volume   474.34198352
_cell_formula_units_Z   4
loop_
 _symmetry_equiv_pos_site_id
 _symmetry_equiv_pos_as_xyz
  1  'x, y, z'
loop_
 _atom_site_type_symbol
 _atom_site_label
 _atom_site_symmetry_multiplicity
 _atom_site_fract_x
 _atom_site_fract_y
 _atom_site_fract_z
 _atom_site_occupancy
  Sr  Sr0  1  0.24999900  0.13561300  0.11596500  1
  Sr  Sr1  1  0.75000100  0.86438700  0.88403600  1
  Sr  Sr2  1  0.24999900  0.63561300  0.38403600  1
  Sr  Sr3  1  0.75000100  0.36438700  0.61596400  1
  V  V4  1  0.24999900  0.74198500  0.09534800  1
  V  V5  1  0.75000100  0.25801500  0.90465200  1
  V  V6  1  0.24999900  0.24198500  0.40465100  1
  V  V7  1  0.75000100  0.75801500  0.59534900  1
  V  V8  1  0.24999900  0.50013600  0.86302500  1
  V  V9  1  0.75000100  0.49986400  0.13697400  1
  V  V10  1  0.75000100  0.99986400  0.36302500  1
  V  V11  1  0.24999900  0.00013500  0.63697500  1
  O  O12  1  0.24999900  0.89110700  0.02442900  1
  O  O13  1  0.75000100  0.10889300  0.97557100  1
  O  O14  1  0.24999900  0.39110700  0.47557100  1
  O  O15  1  0.75000100  0.60889400  0.52442900  1
  O  O16  1  0.24999900  0.78401300  0.21751600  1
  O  O17  1  0.75000100  0.21598700  0.78248400  1
  O  O18  1  0.24999900  0.28401400  0.28248400  1
  O  O19  1  0.75000100  0.71598700  0.71751600  1
  O  O20  1  0.24999900  0.53533800  0.10195600  1
  O  O21  1  0.75000100  0.46466200  0.89804400  1
  O  O22  1  0.24999900  0.03533900  0.39804400  1
  O  O23  1  0.75000100  0.96466200  0.60195600  1
  O  O24  1  0.75000100  0.83088200  0.39058600  1
  O  O25  1  0.24999900  0.16911800  0.60941500  1
  O  O26  1  0.75000100  0.33088200  0.10941500  1
  O  O27  1  0.24999900  0.66911800  0.89058500  1
  O  O28  1  0.75000100  0.02801300  0.23524500  1
  O  O29  1  0.24999900  0.97198700  0.76475500  1
  O  O30  1  0.24999900  0.30919400  0.92802800  1
  O  O31  1  0.24999900  0.47198600  0.73524500  1
  O  O32  1  0.75000100  0.19080600  0.42802800  1
  O  O33  1  0.24999900  0.80919400  0.57197200  1
  O  O34  1  0.75000100  0.69080500  0.07197200  1
  O  O35  1  0.75000100  0.52801300  0.26475500  1
