# generated using pymatgen
data_LaCoO3
_symmetry_space_group_name_H-M   'P 1'
_cell_length_a   5.44917501
_cell_length_b   5.48673087
_cell_length_c   5.48770422
_cell_angle_alpha   61.51467915
_cell_angle_beta   61.93949468
_cell_angle_gamma   61.43686329
_symmetry_Int_Tables_number   1
_chemical_formula_structural   LaCoO3
_chemical_formula_sum   'La2 Co2 O6'
_cell_volume   120.25344564
_cell_formula_units_Z   2
loop_
 _symmetry_equiv_pos_site_id
 _symmetry_equiv_pos_as_xyz
  1  'x, y, z'
loop_
 _atom_site_type_symbol
 _atom_site_label
 _atom_site_symmetry_multiplicity
 _atom_site_fract_x
 _atom_site_fract_y
 _atom_site_fract_z
 _atom_site_occupancy
  La  La0  1  0.25047000  0.74947200  0.74974300  1
  La  La1  1  0.74953000  0.25052900  0.25025600  1
  Co  Co2  1  0.50000000  0.00000000  0.00000000  1
  Co  Co3  1  0.00000000  0.50000000  0.50000000  1
  O  O4  1  0.31095300  0.25407800  0.67917800  1
  O  O5  1  0.68904700  0.74592200  0.32082300  1
  O  O6  1  0.18315700  0.82204400  0.25292000  1
  O  O7  1  0.81684300  0.17795600  0.74708100  1
  O  O8  1  0.74467000  0.68247500  0.82249500  1
  O  O9  1  0.25532800  0.31752500  0.17750500  1
