# generated using pymatgen
data_Yb2Fe3O7
_symmetry_space_group_name_H-M   'P 1'
_cell_length_a   3.50068200
_cell_length_b   3.50068153
_cell_length_c   28.46108600
_cell_angle_alpha   90.00000000
_cell_angle_beta   90.00000000
_cell_angle_gamma   120.00000444
_symmetry_Int_Tables_number   1
_chemical_formula_structural   Yb2Fe3O7
_chemical_formula_sum   'Yb4 Fe6 O14'
_cell_volume   302.05591489
_cell_formula_units_Z   2
loop_
 _symmetry_equiv_pos_site_id
 _symmetry_equiv_pos_as_xyz
  1  'x, y, z'
loop_
 _atom_site_type_symbol
 _atom_site_label
 _atom_site_symmetry_multiplicity
 _atom_site_fract_x
 _atom_site_fract_y
 _atom_site_fract_z
 _atom_site_occupancy
  Yb  Yb0  1  0.33333400  0.66666800  0.35075400  1
  Yb  Yb1  1  0.66666600  0.33333200  0.85075400  1
  Yb  Yb2  1  0.66666600  0.33333200  0.64924600  1
  Yb  Yb3  1  0.33333400  0.66666800  0.14924600  1
  Fe  Fe4  1  0.66666600  0.33333200  0.45558700  1
  Fe  Fe5  1  0.33333400  0.66666800  0.95558700  1
  Fe  Fe6  1  0.33333400  0.66666800  0.54441300  1
  Fe  Fe7  1  0.66666600  0.33333200  0.04441300  1
  Fe  Fe8  1  0.00000000  0.00000000  0.75000000  1
  Fe  Fe9  1  0.00000000  0.00000000  0.25000000  1
  O  O10  1  0.66666600  0.33333200  0.75000000  1
  O  O11  1  0.33333400  0.66666800  0.25000000  1
  O  O12  1  0.00000000  0.00000000  0.31312700  1
  O  O13  1  0.00000000  0.00000000  0.81312700  1
  O  O14  1  0.00000000  0.00000000  0.68687300  1
  O  O15  1  0.00000000  0.00000000  0.18687300  1
  O  O16  1  0.66666600  0.33333200  0.39186600  1
  O  O17  1  0.33333400  0.66666800  0.89186600  1
  O  O18  1  0.33333400  0.66666800  0.60813400  1
  O  O19  1  0.66666600  0.33333200  0.10813400  1
  O  O20  1  0.33333400  0.66666800  0.03174600  1
  O  O21  1  0.66666600  0.33333200  0.53174600  1
  O  O22  1  0.33333400  0.66666800  0.46825400  1
  O  O23  1  0.66666600  0.33333200  0.96825400  1
