# generated using pymatgen
data_Ca2FeWO6
_symmetry_space_group_name_H-M   'P 1'
_cell_length_a   5.60093302
_cell_length_b   5.60093351
_cell_length_c   5.60093300
_cell_angle_alpha   59.99999714
_cell_angle_beta   59.99999423
_cell_angle_gamma   59.99999906
_symmetry_Int_Tables_number   1
_chemical_formula_structural   Ca2FeWO6
_chemical_formula_sum   'Ca2 Fe1 W1 O6'
_cell_volume   124.24134521
_cell_formula_units_Z   1
loop_
 _symmetry_equiv_pos_site_id
 _symmetry_equiv_pos_as_xyz
  1  'x, y, z'
loop_
 _atom_site_type_symbol
 _atom_site_label
 _atom_site_symmetry_multiplicity
 _atom_site_fract_x
 _atom_site_fract_y
 _atom_site_fract_z
 _atom_site_occupancy
  Ca  Ca0  1  0.25000000  0.25000000  0.25000100  1
  Ca  Ca1  1  0.74999900  0.75000100  0.75000100  1
  Fe  Fe2  1  0.50000100  0.50000000  0.49999900  1
  W  W3  1  0.00000000  0.00000000  0.00000000  1
  O  O4  1  0.24707700  0.75292500  0.75292400  1
  O  O5  1  0.24707700  0.75292500  0.24707400  1
  O  O6  1  0.75292500  0.24707600  0.75292400  1
  O  O7  1  0.24707700  0.24707600  0.75292300  1
  O  O8  1  0.75292500  0.24707600  0.24707500  1
  O  O9  1  0.75292300  0.75292500  0.24707600  1
