# generated using pymatgen
data_CoTe(PbO3)2
_symmetry_space_group_name_H-M   'P 1'
_cell_length_a   5.72702114
_cell_length_b   9.95695247
_cell_length_c   9.97882552
_cell_angle_alpha   100.77882881
_cell_angle_beta   73.30569541
_cell_angle_gamma   89.98649427
_symmetry_Int_Tables_number   1
_chemical_formula_structural   CoTe(PbO3)2
_chemical_formula_sum   'Co4 Te4 Pb8 O24'
_cell_volume   534.54767521
_cell_formula_units_Z   4
loop_
 _symmetry_equiv_pos_site_id
 _symmetry_equiv_pos_as_xyz
  1  'x, y, z'
loop_
 _atom_site_type_symbol
 _atom_site_label
 _atom_site_symmetry_multiplicity
 _atom_site_fract_x
 _atom_site_fract_y
 _atom_site_fract_z
 _atom_site_occupancy
  Co  Co0  1  0.49981700  0.50025300  0.00035200  1
  Co  Co1  1  0.75012100  0.74980800  0.49976800  1
  Co  Co2  1  0.00015800  0.99977100  0.99942000  1
  Co  Co3  1  0.24998500  0.24984700  0.50007000  1
  Te  Te4  1  0.87478700  0.37535400  0.25064200  1
  Te  Te5  1  0.37503800  0.87519400  0.24948400  1
  Te  Te6  1  0.12494300  0.62461100  0.75055200  1
  Te  Te7  1  0.62522600  0.12478900  0.74928800  1
  Pb  Pb8  1  0.30977500  0.55903000  0.37932800  1
  Pb  Pb9  1  0.81130000  0.05877800  0.37913900  1
  Pb  Pb10  1  0.56123700  0.80962600  0.87762000  1
  Pb  Pb11  1  0.06008600  0.30963300  0.88017200  1
  Pb  Pb12  1  0.43956400  0.18995700  0.12097400  1
  Pb  Pb13  1  0.93901500  0.69059100  0.12090600  1
  Pb  Pb14  1  0.68868400  0.44133300  0.62126100  1
  Pb  Pb15  1  0.19060400  0.94074400  0.62024000  1
  O  O16  1  0.92004100  0.18163200  0.15955700  1
  O  O17  1  0.41932000  0.68109800  0.16084300  1
  O  O18  1  0.17015600  0.42994500  0.66032900  1
  O  O19  1  0.67063700  0.93009400  0.65846400  1
  O  O20  1  0.82923400  0.56997600  0.34167600  1
  O  O21  1  0.33024300  0.07019700  0.33900600  1
  O  O22  1  0.08032700  0.81862100  0.84016400  1
  O  O23  1  0.58024000  0.31854400  0.83980200  1
  O  O24  1  0.18390100  0.40950100  0.11514000  1
  O  O25  1  0.68423700  0.90789700  0.11334000  1
  O  O26  1  0.43520200  0.65754500  0.61550500  1
  O  O27  1  0.93411600  0.15737000  0.61304800  1
  O  O28  1  0.05033800  0.34240200  0.38536400  1
  O  O29  1  0.54824400  0.84296900  0.38551900  1
  O  O30  1  0.29797900  0.59111500  0.88661700  1
  O  O31  1  0.79935500  0.09039800  0.88456500  1
  O  O32  1  0.56599000  0.34237900  0.38651300  1
  O  O33  1  0.06484800  0.84328500  0.38524500  1
  O  O34  1  0.81575300  0.59109000  0.88664400  1
  O  O35  1  0.31613100  0.09128400  0.88505900  1
  O  O36  1  0.70051500  0.40948700  0.11554700  1
  O  O37  1  0.20207100  0.90876300  0.11336300  1
  O  O38  1  0.95069000  0.65790000  0.61544100  1
  O  O39  1  0.45009100  0.15718700  0.61403200  1
