# generated using pymatgen
data_HgWO4
_symmetry_space_group_name_H-M   'P 1'
_cell_length_a   6.58503242
_cell_length_b   6.58503242
_cell_length_c   5.27409946
_cell_angle_alpha   69.22287503
_cell_angle_beta   69.22287503
_cell_angle_gamma   56.33518303
_symmetry_Int_Tables_number   1
_chemical_formula_structural   HgWO4
_chemical_formula_sum   'Hg2 W2 O8'
_cell_volume   174.25487960
_cell_formula_units_Z   2
loop_
 _symmetry_equiv_pos_site_id
 _symmetry_equiv_pos_as_xyz
  1  'x, y, z'
loop_
 _atom_site_type_symbol
 _atom_site_label
 _atom_site_symmetry_multiplicity
 _atom_site_fract_x
 _atom_site_fract_y
 _atom_site_fract_z
 _atom_site_occupancy
  Hg  Hg0  1  0.00000000  0.50000000  0.00000000  1
  Hg  Hg1  1  0.50000000  0.00000000  0.50000000  1
  W  W2  1  0.81930100  0.18069900  0.75000000  1
  W  W3  1  0.18069900  0.81930100  0.25000000  1
  O  O4  1  0.47604800  0.75762100  0.02425600  1
  O  O5  1  0.24237900  0.52395200  0.47574400  1
  O  O6  1  0.52395200  0.24237900  0.97574400  1
  O  O7  1  0.75762100  0.47604800  0.52425600  1
  O  O8  1  0.00307800  0.18754500  0.97288900  1
  O  O9  1  0.81245500  0.99692200  0.52711100  1
  O  O10  1  0.99692200  0.81245500  0.02711100  1
  O  O11  1  0.18754500  0.00307800  0.47288900  1
