# generated using pymatgen
data_BaMnO3
_symmetry_space_group_name_H-M   'P 1'
_cell_length_a   4.93412600
_cell_length_b   5.80100900
_cell_length_c   10.04639800
_cell_angle_alpha   89.99992627
_cell_angle_beta   89.99995396
_cell_angle_gamma   90.00009583
_symmetry_Int_Tables_number   1
_chemical_formula_structural   BaMnO3
_chemical_formula_sum   'Ba4 Mn4 O12'
_cell_volume   287.55713908
_cell_formula_units_Z   4
loop_
 _symmetry_equiv_pos_site_id
 _symmetry_equiv_pos_as_xyz
  1  'x, y, z'
loop_
 _atom_site_type_symbol
 _atom_site_label
 _atom_site_symmetry_multiplicity
 _atom_site_fract_x
 _atom_site_fract_y
 _atom_site_fract_z
 _atom_site_occupancy
  Ba  Ba0  1  0.24999800  0.49999900  0.16666700  1
  Ba  Ba1  1  0.25000200  0.99999800  0.66666800  1
  Ba  Ba2  1  0.74999800  0.00000000  0.33333200  1
  Ba  Ba3  1  0.75000300  0.49999900  0.83333300  1
  Mn  Mn4  1  0.50000000  0.50000400  0.50000100  1
  Mn  Mn5  1  0.99999500  0.00000000  0.99999800  1
  Mn  Mn6  1  0.50000400  0.99999900  0.99999900  1
  Mn  Mn7  1  0.99999700  0.50000200  0.50000100  1
  O  O8  1  0.75000500  0.50000000  0.35147600  1
  O  O9  1  0.74999600  0.00000000  0.85147500  1
  O  O10  1  0.24999700  0.72276200  0.42573400  1
  O  O11  1  0.25000500  0.22276300  0.92573300  1
  O  O12  1  0.24999500  0.27723800  0.42573400  1
  O  O13  1  0.25000400  0.77723800  0.92573300  1
  O  O14  1  0.74999700  0.22275900  0.07426600  1
  O  O15  1  0.75000500  0.72276200  0.57426700  1
  O  O16  1  0.25000500  0.00000000  0.14852500  1
  O  O17  1  0.24999600  0.49999900  0.64852600  1
  O  O18  1  0.74999600  0.77723900  0.07426600  1
  O  O19  1  0.75000300  0.27723900  0.57426700  1
