# generated using pymatgen
data_LaMnO3
_symmetry_space_group_name_H-M   'P 1'
_cell_length_a   5.53913627
_cell_length_b   5.63362976
_cell_length_c   5.63363024
_cell_angle_alpha   60.93944683
_cell_angle_beta   59.91658414
_cell_angle_gamma   59.91659061
_symmetry_Int_Tables_number   1
_chemical_formula_structural   LaMnO3
_chemical_formula_sum   'La2 Mn2 O6'
_cell_volume   125.00744329
_cell_formula_units_Z   2
loop_
 _symmetry_equiv_pos_site_id
 _symmetry_equiv_pos_as_xyz
  1  'x, y, z'
loop_
 _atom_site_type_symbol
 _atom_site_label
 _atom_site_symmetry_multiplicity
 _atom_site_fract_x
 _atom_site_fract_y
 _atom_site_fract_z
 _atom_site_occupancy
  La  La0  1  0.75000000  0.75663000  0.74337000  1
  La  La1  1  0.25000000  0.24337000  0.25663000  1
  Mn  Mn2  1  0.50000000  0.50000000  0.50000000  1
  Mn  Mn3  1  0.00000000  0.00000000  0.00000000  1
  O  O4  1  0.24138300  0.66687900  0.27160900  1
  O  O5  1  0.25861700  0.22839100  0.83312100  1
  O  O6  1  0.75861700  0.33312100  0.72839100  1
  O  O7  1  0.74138300  0.77160900  0.16687900  1
  O  O8  1  0.25000000  0.81887600  0.68112400  1
  O  O9  1  0.75000000  0.18112400  0.31887600  1
