# generated using pymatgen
data_BaMnV2(AgO4)2
_symmetry_space_group_name_H-M   'P 1'
_cell_length_a   5.63470057
_cell_length_b   14.94515900
_cell_length_c   5.63470000
_cell_angle_alpha   90.00000000
_cell_angle_beta   119.99999666
_cell_angle_gamma   90.00000000
_symmetry_Int_Tables_number   1
_chemical_formula_structural   BaMnV2(AgO4)2
_chemical_formula_sum   'Ba2 Mn2 V4 Ag4 O16'
_cell_volume   410.93471103
_cell_formula_units_Z   2
loop_
 _symmetry_equiv_pos_site_id
 _symmetry_equiv_pos_as_xyz
  1  'x, y, z'
loop_
 _atom_site_type_symbol
 _atom_site_label
 _atom_site_symmetry_multiplicity
 _atom_site_fract_x
 _atom_site_fract_y
 _atom_site_fract_z
 _atom_site_occupancy
  Ba  Ba0  1  0.00000000  0.00000000  0.00000000  1
  Ba  Ba1  1  0.00000000  0.50000000  0.00000000  1
  Mn  Mn2  1  0.00000000  0.25000000  0.00000000  1
  Mn  Mn3  1  0.00000000  0.75000000  0.00000000  1
  V  V4  1  0.33333300  0.62410800  0.66666700  1
  V  V5  1  0.66666700  0.37589200  0.33333300  1
  V  V6  1  0.66666700  0.87589200  0.33333300  1
  V  V7  1  0.33333300  0.12410800  0.66666700  1
  Ag  Ag8  1  0.66666700  0.15450000  0.33333300  1
  Ag  Ag9  1  0.66666700  0.65450000  0.33333300  1
  Ag  Ag10  1  0.33333300  0.34550000  0.66666700  1
  Ag  Ag11  1  0.33333300  0.84550000  0.66666700  1
  O  O12  1  0.33333300  0.00974600  0.66666700  1
  O  O13  1  0.33333300  0.50974600  0.66666700  1
  O  O14  1  0.66666700  0.49025400  0.33333300  1
  O  O15  1  0.66666700  0.99025400  0.33333300  1
  O  O16  1  0.66530200  0.15914600  0.74718300  1
  O  O17  1  0.66530200  0.65914600  0.74718300  1
  O  O18  1  0.25281700  0.15914600  0.91811900  1
  O  O19  1  0.25281700  0.65914600  0.91811900  1
  O  O20  1  0.08188100  0.15914600  0.33469800  1
  O  O21  1  0.08188100  0.65914600  0.33469800  1
  O  O22  1  0.33469800  0.34085400  0.25281700  1
  O  O23  1  0.33469800  0.84085400  0.25281700  1
  O  O24  1  0.91811900  0.34085400  0.66530200  1
  O  O25  1  0.91811900  0.84085400  0.66530200  1
  O  O26  1  0.74718300  0.34085400  0.08188100  1
  O  O27  1  0.74718300  0.84085400  0.08188100  1
