# generated using pymatgen
data_Na3Co(NO2)6
_symmetry_space_group_name_H-M   'P 1'
_cell_length_a   6.80069314
_cell_length_b   6.80069314
_cell_length_c   6.80069355
_cell_angle_alpha   71.43951387
_cell_angle_beta   71.43951387
_cell_angle_gamma   71.43951713
_symmetry_Int_Tables_number   1
_chemical_formula_structural   Na3Co(NO2)6
_chemical_formula_sum   'Na3 Co1 N6 O12'
_cell_volume   274.29762828
_cell_formula_units_Z   1
loop_
 _symmetry_equiv_pos_site_id
 _symmetry_equiv_pos_as_xyz
  1  'x, y, z'
loop_
 _atom_site_type_symbol
 _atom_site_label
 _atom_site_symmetry_multiplicity
 _atom_site_fract_x
 _atom_site_fract_y
 _atom_site_fract_z
 _atom_site_occupancy
  Na  Na0  1  0.73639700  0.73639700  0.73639700  1
  Na  Na1  1  0.26360300  0.26360300  0.26360300  1
  Na  Na2  1  0.50000000  0.50000000  0.50000000  1
  Co  Co3  1  0.00000000  0.00000000  0.00000000  1
  N  N4  1  0.79608100  0.17122000  0.81642700  1
  N  N5  1  0.20391900  0.82878000  0.18357300  1
  N  N6  1  0.17122000  0.81642700  0.79608100  1
  N  N7  1  0.82878000  0.18357300  0.20391900  1
  N  N8  1  0.18357300  0.20391900  0.82878000  1
  N  N9  1  0.81642700  0.79608100  0.17122000  1
  O  O10  1  0.30458800  0.91269600  0.24418800  1
  O  O11  1  0.24418800  0.30458800  0.91269700  1
  O  O12  1  0.75581200  0.69541200  0.08730400  1
  O  O13  1  0.23756700  0.23363500  0.62933500  1
  O  O14  1  0.23363500  0.62933500  0.23756700  1
  O  O15  1  0.76636500  0.37066500  0.76243300  1
  O  O16  1  0.91269700  0.24418800  0.30458800  1
  O  O17  1  0.62933500  0.23756700  0.23363500  1
  O  O18  1  0.76243300  0.76636500  0.37066500  1
  O  O19  1  0.69541200  0.08730300  0.75581200  1
  O  O20  1  0.08730400  0.75581200  0.69541200  1
  O  O21  1  0.37066500  0.76243300  0.76636500  1
