# generated using pymatgen
data_V2CoO6
_symmetry_space_group_name_H-M   'P 1'
_cell_length_a   3.58512043
_cell_length_b   5.13342126
_cell_length_c   13.57456007
_cell_angle_alpha   81.93894687
_cell_angle_beta   97.59772698
_cell_angle_gamma   110.44850861
_symmetry_Int_Tables_number   1
_chemical_formula_structural   V2CoO6
_chemical_formula_sum   'V4 Co2 O12'
_cell_volume   230.83551299
_cell_formula_units_Z   2
loop_
 _symmetry_equiv_pos_site_id
 _symmetry_equiv_pos_as_xyz
  1  'x, y, z'
loop_
 _atom_site_type_symbol
 _atom_site_label
 _atom_site_symmetry_multiplicity
 _atom_site_fract_x
 _atom_site_fract_y
 _atom_site_fract_z
 _atom_site_occupancy
  V  V0  1  0.76241600  0.89029100  0.65971900  1
  V  V1  1  0.21231200  0.10946900  0.34023300  1
  V  V2  1  0.76299100  0.39041000  0.16073200  1
  V  V3  1  0.21202100  0.60983700  0.83932700  1
  Co  Co4  1  0.98736600  0.49989700  0.49996200  1
  Co  Co5  1  0.98753500  0.00014500  0.00003500  1
  O  O6  1  0.71252000  0.15339800  0.29675500  1
  O  O7  1  0.71153900  0.65261500  0.79561900  1
  O  O8  1  0.26351200  0.34770000  0.20445300  1
  O  O9  1  0.26219200  0.84635500  0.70319900  1
  O  O10  1  0.05841400  0.76399900  0.37798700  1
  O  O11  1  0.05903400  0.26513400  0.87808400  1
  O  O12  1  0.91610500  0.73511400  0.12197200  1
  O  O13  1  0.91637100  0.23569900  0.62191100  1
  O  O14  1  0.35338600  0.28848100  0.44312000  1
  O  O15  1  0.35409900  0.79126800  0.94168600  1
  O  O16  1  0.62094700  0.20903600  0.05835000  1
  O  O17  1  0.62124000  0.71115300  0.55685900  1
