# generated using pymatgen
data_NaMn(SiO3)2
_symmetry_space_group_name_H-M   'P 1'
_cell_length_a   5.43428255
_cell_length_b   6.51852149
_cell_length_c   6.51852077
_cell_angle_alpha   84.36343789
_cell_angle_beta   78.69206508
_cell_angle_gamma   78.69203383
_symmetry_Int_Tables_number   1
_chemical_formula_structural   NaMn(SiO3)2
_chemical_formula_sum   'Na2 Mn2 Si4 O12'
_cell_volume   221.60134699
_cell_formula_units_Z   2
loop_
 _symmetry_equiv_pos_site_id
 _symmetry_equiv_pos_as_xyz
  1  'x, y, z'
loop_
 _atom_site_type_symbol
 _atom_site_label
 _atom_site_symmetry_multiplicity
 _atom_site_fract_x
 _atom_site_fract_y
 _atom_site_fract_z
 _atom_site_occupancy
  Na  Na0  1  0.25000000  0.70355300  0.29644700  1
  Na  Na1  1  0.75000000  0.29644700  0.70355300  1
  Mn  Mn2  1  0.24999900  0.09558300  0.90442200  1
  Mn  Mn3  1  0.75000200  0.90441900  0.09557600  1
  Si  Si4  1  0.25347400  0.20616500  0.38142900  1
  Si  Si5  1  0.75347400  0.38142900  0.20616500  1
  Si  Si6  1  0.24652500  0.61857100  0.79383500  1
  Si  Si7  1  0.74652500  0.79383500  0.61857100  1
  O  O8  1  0.47948600  0.34870400  0.36210000  1
  O  O9  1  0.02051400  0.63790000  0.65129600  1
  O  O10  1  0.52051400  0.65129600  0.63790000  1
  O  O11  1  0.97948600  0.36210000  0.34870400  1
  O  O12  1  0.19646500  0.10313300  0.61843600  1
  O  O13  1  0.30353400  0.38156400  0.89686600  1
  O  O14  1  0.80353400  0.89686600  0.38156400  1
  O  O15  1  0.69646500  0.61843600  0.10313400  1
  O  O16  1  0.83868300  0.19393400  0.04190700  1
  O  O17  1  0.66131700  0.95809300  0.80606600  1
  O  O18  1  0.16131600  0.80606600  0.95809400  1
  O  O19  1  0.33868300  0.04190700  0.19393400  1
