# generated using pymatgen
data_YbMnO3
_symmetry_space_group_name_H-M   'P 1'
_cell_length_a   6.08290812
_cell_length_b   6.08290812
_cell_length_c   11.68361100
_cell_angle_alpha   90.00000000
_cell_angle_beta   90.00000000
_cell_angle_gamma   120.00000135
_symmetry_Int_Tables_number   1
_chemical_formula_structural   YbMnO3
_chemical_formula_sum   'Yb6 Mn6 O18'
_cell_volume   374.39516246
_cell_formula_units_Z   6
loop_
 _symmetry_equiv_pos_site_id
 _symmetry_equiv_pos_as_xyz
  1  'x, y, z'
loop_
 _atom_site_type_symbol
 _atom_site_label
 _atom_site_symmetry_multiplicity
 _atom_site_fract_x
 _atom_site_fract_y
 _atom_site_fract_z
 _atom_site_occupancy
  Yb  Yb0  1  0.66666700  0.33333300  0.23524100  1
  Yb  Yb1  1  0.33333300  0.66666700  0.73524100  1
  Yb  Yb2  1  0.66666700  0.33333300  0.73524100  1
  Yb  Yb3  1  0.33333300  0.66666700  0.23524100  1
  Yb  Yb4  1  0.00000000  0.00000000  0.77328600  1
  Yb  Yb5  1  0.00000000  0.00000000  0.27328600  1
  Mn  Mn6  1  0.66817200  0.00000000  0.50010800  1
  Mn  Mn7  1  0.66817200  0.66817200  0.00010800  1
  Mn  Mn8  1  0.00000000  0.33182800  0.00010800  1
  Mn  Mn9  1  0.00000000  0.66817200  0.50010800  1
  Mn  Mn10  1  0.33182800  0.33182800  0.50010800  1
  Mn  Mn11  1  0.33182800  0.00000000  0.00010800  1
  O  O12  1  0.66666700  0.33333300  0.01586200  1
  O  O13  1  0.33333300  0.66666700  0.51586100  1
  O  O14  1  0.66666700  0.33333300  0.51586100  1
  O  O15  1  0.33333300  0.66666700  0.01586200  1
  O  O16  1  0.00000000  0.00000000  0.97813900  1
  O  O17  1  0.00000000  0.00000000  0.47813900  1
  O  O18  1  0.36114400  0.00000000  0.84310600  1
  O  O19  1  0.36114400  0.36114400  0.34310600  1
  O  O20  1  0.00000000  0.63885600  0.34310600  1
  O  O21  1  0.00000000  0.36114400  0.84310600  1
  O  O22  1  0.63885600  0.63885600  0.84310600  1
  O  O23  1  0.63885600  0.00000000  0.34310600  1
  O  O24  1  0.30540400  0.00000000  0.15757600  1
  O  O25  1  0.30540400  0.30540400  0.65757600  1
  O  O26  1  0.00000000  0.69459600  0.65757600  1
  O  O27  1  0.00000000  0.30540400  0.15757600  1
  O  O28  1  0.69459600  0.69459600  0.15757600  1
  O  O29  1  0.69459600  0.00000000  0.65757600  1
