# generated using pymatgen
data_MnSi2O5
_symmetry_space_group_name_H-M   'P 1'
_cell_length_a   5.23912064
_cell_length_b   5.23912064
_cell_length_c   6.67769626
_cell_angle_alpha   74.78461757
_cell_angle_beta   74.78461757
_cell_angle_gamma   103.45545545
_symmetry_Int_Tables_number   1
_chemical_formula_structural   MnSi2O5
_chemical_formula_sum   'Mn2 Si4 O10'
_cell_volume   161.46792148
_cell_formula_units_Z   2
loop_
 _symmetry_equiv_pos_site_id
 _symmetry_equiv_pos_as_xyz
  1  'x, y, z'
loop_
 _atom_site_type_symbol
 _atom_site_label
 _atom_site_symmetry_multiplicity
 _atom_site_fract_x
 _atom_site_fract_y
 _atom_site_fract_z
 _atom_site_occupancy
  Mn  Mn0  1  0.31860300  0.68139700  0.25000000  1
  Mn  Mn1  1  0.68139700  0.31860300  0.75000000  1
  Si  Si2  1  0.32631700  0.67368300  0.75000000  1
  Si  Si3  1  0.67368300  0.32631700  0.25000000  1
  Si  Si4  1  0.00000000  0.00000000  0.50000000  1
  Si  Si5  1  0.00000000  0.00000000  0.00000000  1
  O  O6  1  0.29288300  0.87189300  0.90372300  1
  O  O7  1  0.12810700  0.70711700  0.59627700  1
  O  O8  1  0.70711700  0.12810700  0.09627700  1
  O  O9  1  0.87189300  0.29288300  0.40372300  1
  O  O10  1  0.34755800  0.25435700  0.40063800  1
  O  O11  1  0.74564300  0.65244200  0.09936200  1
  O  O12  1  0.93676500  0.06323500  0.75000000  1
  O  O13  1  0.06323500  0.93676500  0.25000000  1
  O  O14  1  0.25435700  0.34755800  0.90063800  1
  O  O15  1  0.65244200  0.74564300  0.59936200  1
