# generated using pymatgen
data_K3CrO4
_symmetry_space_group_name_H-M   'P 1'
_cell_length_a   6.14423983
_cell_length_b   8.50865562
_cell_length_c   6.14424008
_cell_angle_alpha   89.99999225
_cell_angle_beta   89.99999519
_cell_angle_gamma   89.99998945
_symmetry_Int_Tables_number   1
_chemical_formula_structural   K3CrO4
_chemical_formula_sum   'K6 Cr2 O8'
_cell_volume   321.21608365
_cell_formula_units_Z   2
loop_
 _symmetry_equiv_pos_site_id
 _symmetry_equiv_pos_as_xyz
  1  'x, y, z'
loop_
 _atom_site_type_symbol
 _atom_site_label
 _atom_site_symmetry_multiplicity
 _atom_site_fract_x
 _atom_site_fract_y
 _atom_site_fract_z
 _atom_site_occupancy
  K  K0  1  0.00000000  0.25002600  0.50000000  1
  K  K1  1  0.50000000  0.74997400  0.00000000  1
  K  K2  1  0.50000000  0.25002600  0.00000000  1
  K  K3  1  0.00000000  0.74997400  0.50000000  1
  K  K4  1  0.00000000  0.50000000  0.00000000  1
  K  K5  1  0.50000000  0.00000000  0.50000000  1
  Cr  Cr6  1  0.00000000  0.00000000  0.00000000  1
  Cr  Cr7  1  0.50000000  0.50000000  0.50000000  1
  O  O8  1  0.33111400  0.60844600  0.66888600  1
  O  O9  1  0.83112700  0.10845000  0.16887300  1
  O  O10  1  0.83112700  0.89155000  0.83112700  1
  O  O11  1  0.33111400  0.39155400  0.33111400  1
  O  O12  1  0.66888600  0.39155400  0.66888600  1
  O  O13  1  0.16887300  0.89155000  0.16887300  1
  O  O14  1  0.16887300  0.10845000  0.83112700  1
  O  O15  1  0.66888600  0.60844600  0.33111400  1
