# generated using pymatgen
data_AlV2O4
_symmetry_space_group_name_H-M   'P 1'
_cell_length_a   5.91146090
_cell_length_b   5.90870751
_cell_length_c   5.90983311
_cell_angle_alpha   60.92152056
_cell_angle_beta   60.90825112
_cell_angle_gamma   60.91694611
_symmetry_Int_Tables_number   1
_chemical_formula_structural   AlV2O4
_chemical_formula_sum   'Al2 V4 O8'
_cell_volume   148.97655959
_cell_formula_units_Z   2
loop_
 _symmetry_equiv_pos_site_id
 _symmetry_equiv_pos_as_xyz
  1  'x, y, z'
loop_
 _atom_site_type_symbol
 _atom_site_label
 _atom_site_symmetry_multiplicity
 _atom_site_fract_x
 _atom_site_fract_y
 _atom_site_fract_z
 _atom_site_occupancy
  Al  Al0  1  0.62402200  0.62397800  0.62400100  1
  Al  Al1  1  0.37597800  0.37602200  0.37599900  1
  V  V2  1  0.00000000  0.50000000  0.00000100  1
  V  V3  1  0.00000000  0.00000000  0.00000000  1
  V  V4  1  0.50000000  0.00000000  0.00000000  1
  V  V5  1  0.00000000  0.00000000  0.50000000  1
  O  O6  1  0.25119100  0.74669600  0.74674900  1
  O  O7  1  0.25323400  0.25331900  0.74877900  1
  O  O8  1  0.25326400  0.74877700  0.25329700  1
  O  O9  1  0.25106900  0.25114900  0.25111600  1
  O  O10  1  0.74676600  0.74668100  0.25122100  1
  O  O11  1  0.74880900  0.25330400  0.25325100  1
  O  O12  1  0.74673500  0.25122300  0.74670400  1
  O  O13  1  0.74893100  0.74885100  0.74888400  1
