# generated using pymatgen
data_Na4Ni7(PO4)6
_symmetry_space_group_name_H-M   'P 1'
_cell_length_a   8.86839753
_cell_length_b   8.86839753
_cell_length_c   6.49689054
_cell_angle_alpha   81.10715878
_cell_angle_beta   81.10715878
_cell_angle_gamma   105.65197123
_symmetry_Int_Tables_number   1
_chemical_formula_structural   Na4Ni7(PO4)6
_chemical_formula_sum   'Na4 Ni7 P6 O24'
_cell_volume   475.64817183
_cell_formula_units_Z   1
loop_
 _symmetry_equiv_pos_site_id
 _symmetry_equiv_pos_as_xyz
  1  'x, y, z'
loop_
 _atom_site_type_symbol
 _atom_site_label
 _atom_site_symmetry_multiplicity
 _atom_site_fract_x
 _atom_site_fract_y
 _atom_site_fract_z
 _atom_site_occupancy
  Na  Na0  1  0.92957800  0.92957800  0.52202300  1
  Na  Na1  1  0.27713900  0.27713900  0.46324900  1
  Na  Na2  1  0.73677700  0.48745900  0.46083800  1
  Na  Na3  1  0.48745900  0.73677700  0.46083800  1
  Ni  Ni4  1  0.35813500  0.98344400  0.18203300  1
  Ni  Ni5  1  0.98344400  0.35813500  0.18203300  1
  Ni  Ni6  1  0.02393900  0.63695000  0.81785500  1
  Ni  Ni7  1  0.63695000  0.02393900  0.81785500  1
  Ni  Ni8  1  0.37525600  0.62710400  0.99868900  1
  Ni  Ni9  1  0.62710400  0.37525600  0.99868900  1
  Ni  Ni10  1  0.00081600  0.00081600  0.00042300  1
  P  P11  1  0.69154500  0.69154500  0.03563300  1
  P  P12  1  0.31433800  0.31433800  0.95778500  1
  P  P13  1  0.28293800  0.90606600  0.71992300  1
  P  P14  1  0.90606600  0.28293800  0.71992300  1
  P  P15  1  0.09967900  0.71550400  0.28287500  1
  P  P16  1  0.71550400  0.09967900  0.28287500  1
  O  O17  1  0.55620900  0.55620900  0.20301600  1
  O  O18  1  0.45286200  0.45286200  0.80284700  1
  O  O19  1  0.80059300  0.80059300  0.14592900  1
  O  O20  1  0.20446600  0.20446600  0.84977100  1
  O  O21  1  0.22382100  0.40010600  0.10777000  1
  O  O22  1  0.40010600  0.22382100  0.10777000  1
  O  O23  1  0.60166500  0.78114000  0.89304100  1
  O  O24  1  0.78114000  0.60166500  0.89304100  1
  O  O25  1  0.99946900  0.66030100  0.51011300  1
  O  O26  1  0.66030100  0.99946900  0.51011300  1
  O  O27  1  0.33844600  0.00076100  0.49111600  1
  O  O28  1  0.00076100  0.33844600  0.49111600  1
  O  O29  1  0.01776800  0.60383200  0.14353400  1
  O  O30  1  0.60383200  0.01776800  0.14353400  1
  O  O31  1  0.39252000  0.98613500  0.86169000  1
  O  O32  1  0.98613500  0.39252000  0.86169000  1
  O  O33  1  0.11196300  0.89749900  0.21269400  1
  O  O34  1  0.72482000  0.28438400  0.74899700  1
  O  O35  1  0.28438400  0.72482000  0.74899700  1
  O  O36  1  0.72024000  0.28175100  0.25160900  1
  O  O37  1  0.28175100  0.72024000  0.25160900  1
  O  O38  1  0.88676600  0.09951700  0.79018600  1
  O  O39  1  0.09951700  0.88676600  0.79018600  1
  O  O40  1  0.89749900  0.11196300  0.21269400  1
