# generated using pymatgen
data_SrCr10O15
_symmetry_space_group_name_H-M   'P 1'
_cell_length_a   7.83858530
_cell_length_b   7.83858530
_cell_length_c   9.54359800
_cell_angle_alpha   90.00000000
_cell_angle_beta   90.00000000
_cell_angle_gamma   96.27240412
_symmetry_Int_Tables_number   1
_chemical_formula_structural   SrCr10O15
_chemical_formula_sum   'Sr2 Cr20 O30'
_cell_volume   582.88097641
_cell_formula_units_Z   2
loop_
 _symmetry_equiv_pos_site_id
 _symmetry_equiv_pos_as_xyz
  1  'x, y, z'
loop_
 _atom_site_type_symbol
 _atom_site_label
 _atom_site_symmetry_multiplicity
 _atom_site_fract_x
 _atom_site_fract_y
 _atom_site_fract_z
 _atom_site_occupancy
  Sr  Sr0  1  0.50000000  0.50000000  0.50000000  1
  Sr  Sr1  1  0.00000000  0.00000000  0.00000000  1
  Cr  Cr2  1  0.81485300  0.81485300  0.63412100  1
  Cr  Cr3  1  0.68514700  0.68514700  0.13412100  1
  Cr  Cr4  1  0.31485300  0.31485300  0.86587900  1
  Cr  Cr5  1  0.18514700  0.18514700  0.36587900  1
  Cr  Cr6  1  0.79008200  0.04409900  0.35445000  1
  Cr  Cr7  1  0.70991800  0.45590100  0.85445000  1
  Cr  Cr8  1  0.54409900  0.29008200  0.14555000  1
  Cr  Cr9  1  0.95590100  0.20991800  0.64555000  1
  Cr  Cr10  1  0.20991800  0.95590100  0.64555000  1
  Cr  Cr11  1  0.29008200  0.54409900  0.14555000  1
  Cr  Cr12  1  0.45590100  0.70991800  0.85445000  1
  Cr  Cr13  1  0.04409900  0.79008200  0.35445000  1
  Cr  Cr14  1  0.91877700  0.40627200  0.11413000  1
  Cr  Cr15  1  0.58122300  0.09372800  0.61413000  1
  Cr  Cr16  1  0.90627200  0.41877700  0.38587000  1
  Cr  Cr17  1  0.59372800  0.08122300  0.88587000  1
  Cr  Cr18  1  0.08122300  0.59372800  0.88587000  1
  Cr  Cr19  1  0.41877700  0.90627200  0.38587000  1
  Cr  Cr20  1  0.09372800  0.58122300  0.61413000  1
  Cr  Cr21  1  0.40627200  0.91877700  0.11413000  1
  O  O22  1  0.00000000  0.00000000  0.50000000  1
  O  O23  1  0.50000000  0.50000000  0.00000000  1
  O  O24  1  0.75420000  0.24580000  0.50000000  1
  O  O25  1  0.74580000  0.25420000  0.00000000  1
  O  O26  1  0.24580000  0.75420000  0.50000000  1
  O  O27  1  0.25420000  0.74580000  0.00000000  1
  O  O28  1  0.63838100  0.63838100  0.73087100  1
  O  O29  1  0.86161900  0.86161900  0.23087100  1
  O  O30  1  0.13838100  0.13838100  0.76912900  1
  O  O31  1  0.36161900  0.36161900  0.26912900  1
  O  O32  1  0.06492500  0.56492500  0.25000000  1
  O  O33  1  0.43507500  0.93507500  0.75000000  1
  O  O34  1  0.93507500  0.43507500  0.75000000  1
  O  O35  1  0.56492500  0.06492500  0.25000000  1
  O  O36  1  0.46074100  0.72302500  0.24153300  1
  O  O37  1  0.03925900  0.77697500  0.74153300  1
  O  O38  1  0.22302500  0.96074100  0.25846700  1
  O  O39  1  0.27697500  0.53925900  0.75846700  1
  O  O40  1  0.53925900  0.27697500  0.75846700  1
  O  O41  1  0.96074100  0.22302500  0.25846700  1
  O  O42  1  0.77697500  0.03925900  0.74153300  1
  O  O43  1  0.72302500  0.46074100  0.24153300  1
  O  O44  1  0.36317800  0.10388100  0.50706400  1
  O  O45  1  0.13682200  0.39611900  0.00706400  1
  O  O46  1  0.60388100  0.86317800  0.99293600  1
  O  O47  1  0.89611900  0.63682200  0.49293600  1
  O  O48  1  0.63682200  0.89611900  0.49293600  1
  O  O49  1  0.86317800  0.60388100  0.99293600  1
  O  O50  1  0.39611900  0.13682200  0.00706400  1
  O  O51  1  0.10388100  0.36317800  0.50706400  1
