# generated using pymatgen
data_Yb2MnSe4
_symmetry_space_group_name_H-M   'P 1'
_cell_length_a   8.11373919
_cell_length_b   8.11373919
_cell_length_c   8.11373919
_cell_angle_alpha   60.00000000
_cell_angle_beta   60.00000000
_cell_angle_gamma   60.00000000
_symmetry_Int_Tables_number   1
_chemical_formula_structural   Yb2MnSe4
_chemical_formula_sum   'Yb4 Mn2 Se8'
_cell_volume   377.70099793
_cell_formula_units_Z   2
loop_
 _symmetry_equiv_pos_site_id
 _symmetry_equiv_pos_as_xyz
  1  'x, y, z'
loop_
 _atom_site_type_symbol
 _atom_site_label
 _atom_site_symmetry_multiplicity
 _atom_site_fract_x
 _atom_site_fract_y
 _atom_site_fract_z
 _atom_site_occupancy
  Yb  Yb0  1  0.12500000  0.12500000  0.12500000  1
  Yb  Yb1  1  0.12500000  0.12500000  0.62500000  1
  Yb  Yb2  1  0.12500000  0.62500000  0.12500000  1
  Yb  Yb3  1  0.62500000  0.12500000  0.12500000  1
  Mn  Mn4  1  0.50000000  0.50000000  0.50000000  1
  Mn  Mn5  1  0.75000000  0.75000000  0.75000000  1
  Se  Se6  1  0.39064300  0.86978600  0.86978600  1
  Se  Se7  1  0.38021400  0.38021400  0.38021400  1
  Se  Se8  1  0.85935700  0.38021400  0.38021400  1
  Se  Se9  1  0.86978600  0.86978600  0.39064300  1
  Se  Se10  1  0.86978600  0.86978600  0.86978600  1
  Se  Se11  1  0.38021400  0.85935700  0.38021400  1
  Se  Se12  1  0.38021400  0.38021400  0.85935700  1
  Se  Se13  1  0.86978600  0.39064300  0.86978600  1
