# generated using pymatgen
data_FePO4
_symmetry_space_group_name_H-M   'P 1'
_cell_length_a   5.37677200
_cell_length_b   5.37677188
_cell_length_c   23.71139900
_cell_angle_alpha   90.00000000
_cell_angle_beta   90.00000000
_cell_angle_gamma   59.99999924
_symmetry_Int_Tables_number   1
_chemical_formula_structural   FePO4
_chemical_formula_sum   'Fe6 P6 O24'
_cell_volume   593.65077428
_cell_formula_units_Z   6
loop_
 _symmetry_equiv_pos_site_id
 _symmetry_equiv_pos_as_xyz
  1  'x, y, z'
loop_
 _atom_site_type_symbol
 _atom_site_label
 _atom_site_symmetry_multiplicity
 _atom_site_fract_x
 _atom_site_fract_y
 _atom_site_fract_z
 _atom_site_occupancy
  Fe  Fe0  1  0.50000000  0.50000000  0.91666700  1
  Fe  Fe1  1  0.00000000  0.50000000  0.58333300  1
  Fe  Fe2  1  0.50000000  0.00000000  0.25000000  1
  Fe  Fe3  1  0.50000000  0.50000000  0.41666700  1
  Fe  Fe4  1  0.00000000  0.50000000  0.08333300  1
  Fe  Fe5  1  0.50000000  0.00000000  0.75000000  1
  P  P6  1  0.50000000  0.50000000  0.16666700  1
  P  P7  1  0.50000000  0.50000000  0.66666700  1
  P  P8  1  0.00000000  0.50000000  0.33333300  1
  P  P9  1  0.00000000  0.50000000  0.83333300  1
  P  P10  1  0.50000000  0.00000000  0.00000000  1
  P  P11  1  0.50000000  0.00000000  0.50000000  1
  O  O12  1  0.76395900  0.81325200  0.03717900  1
  O  O13  1  0.76395900  0.81325200  0.53717900  1
  O  O14  1  0.42278900  0.76395900  0.20384600  1
  O  O15  1  0.42278900  0.76395900  0.70384600  1
  O  O16  1  0.81325200  0.42278900  0.37051300  1
  O  O17  1  0.81325200  0.42278900  0.87051300  1
  O  O18  1  0.18674800  0.57721100  0.37051300  1
  O  O19  1  0.18674800  0.57721100  0.87051300  1
  O  O20  1  0.18674800  0.23604100  0.29615400  1
  O  O21  1  0.18674800  0.23604100  0.79615400  1
  O  O22  1  0.23604100  0.18674800  0.03717900  1
  O  O23  1  0.23604100  0.18674800  0.53717900  1
  O  O24  1  0.81325200  0.76395900  0.29615400  1
  O  O25  1  0.81325200  0.76395900  0.79615400  1
  O  O26  1  0.23604100  0.57721100  0.12948700  1
  O  O27  1  0.23604100  0.57721100  0.62948700  1
  O  O28  1  0.57721100  0.18674800  0.46282100  1
  O  O29  1  0.57721100  0.18674800  0.96282100  1
  O  O30  1  0.42278900  0.81325200  0.46282100  1
  O  O31  1  0.42278900  0.81325200  0.96282100  1
  O  O32  1  0.76395900  0.42278900  0.12948700  1
  O  O33  1  0.76395900  0.42278900  0.62948700  1
  O  O34  1  0.57721100  0.23604100  0.20384600  1
  O  O35  1  0.57721100  0.23604100  0.70384600  1
