# generated using pymatgen
data_InGaS3
_symmetry_space_group_name_H-M   'P 1'
_cell_length_a   10.08237472
_cell_length_b   10.08237472
_cell_length_c   6.23336500
_cell_angle_alpha   90.00000000
_cell_angle_beta   90.00000000
_cell_angle_gamma   158.23496641
_symmetry_Int_Tables_number   1
_chemical_formula_structural   InGaS3
_chemical_formula_sum   'In2 Ga2 S6'
_cell_volume   234.95748089
_cell_formula_units_Z   2
loop_
 _symmetry_equiv_pos_site_id
 _symmetry_equiv_pos_as_xyz
  1  'x, y, z'
loop_
 _atom_site_type_symbol
 _atom_site_label
 _atom_site_symmetry_multiplicity
 _atom_site_fract_x
 _atom_site_fract_y
 _atom_site_fract_z
 _atom_site_occupancy
  In  In0  1  0.66746500  0.33253500  0.49794400  1
  In  In1  1  0.33253500  0.66746500  0.99794400  1
  Ga  Ga2  1  0.11553500  0.88446500  0.94254800  1
  Ga  Ga3  1  0.88446500  0.11553500  0.44254800  1
  S  S4  1  0.10482200  0.89517800  0.30343800  1
  S  S5  1  0.89517800  0.10482200  0.80343800  1
  S  S6  1  0.43332300  0.56667700  0.29174600  1
  S  S7  1  0.56667700  0.43332300  0.79174600  1
  S  S8  1  0.21931100  0.78068900  0.75842400  1
  S  S9  1  0.78068900  0.21931100  0.25842400  1
