# generated using pymatgen
data_Y5Mg24
_symmetry_space_group_name_H-M   'P 1'
_cell_length_a   9.76658590
_cell_length_b   9.76658590
_cell_length_c   9.76658590
_cell_angle_alpha   109.47122063
_cell_angle_beta   109.47122063
_cell_angle_gamma   109.47122063
_symmetry_Int_Tables_number   1
_chemical_formula_structural   Y5Mg24
_chemical_formula_sum   'Y5 Mg24'
_cell_volume   717.14410383
_cell_formula_units_Z   1
loop_
 _symmetry_equiv_pos_site_id
 _symmetry_equiv_pos_as_xyz
  1  'x, y, z'
loop_
 _atom_site_type_symbol
 _atom_site_label
 _atom_site_symmetry_multiplicity
 _atom_site_fract_x
 _atom_site_fract_y
 _atom_site_fract_z
 _atom_site_occupancy
  Y  Y0  1  0.00000000  0.37612000  0.00000000  1
  Y  Y1  1  0.37612000  0.00000000  0.00000000  1
  Y  Y2  1  0.00000000  0.00000000  0.37612000  1
  Y  Y3  1  0.62388000  0.62388000  0.62388000  1
  Y  Y4  1  0.00000000  0.00000000  0.00000000  1
  Mg  Mg5  1  0.19086800  0.82004800  0.19086800  1
  Mg  Mg6  1  0.17995200  0.37081900  0.37081900  1
  Mg  Mg7  1  0.37081900  0.37081900  0.17995200  1
  Mg  Mg8  1  0.62918100  0.80913200  0.00000000  1
  Mg  Mg9  1  0.00000000  0.80913200  0.62918100  1
  Mg  Mg10  1  0.38810300  0.71232300  0.38810300  1
  Mg  Mg11  1  0.32422100  0.00000000  0.61189700  1
  Mg  Mg12  1  0.61189700  0.00000000  0.32422100  1
  Mg  Mg13  1  0.32422100  0.61189700  0.00000000  1
  Mg  Mg14  1  0.67577900  0.67577900  0.28767700  1
  Mg  Mg15  1  0.28767700  0.67577900  0.67577900  1
  Mg  Mg16  1  0.00000000  0.61189700  0.32422100  1
  Mg  Mg17  1  0.00000000  0.32422100  0.61189700  1
  Mg  Mg18  1  0.61189700  0.32422100  0.00000000  1
  Mg  Mg19  1  0.38810300  0.38810300  0.71232300  1
  Mg  Mg20  1  0.71232300  0.38810300  0.38810300  1
  Mg  Mg21  1  0.67577900  0.28767700  0.67577900  1
  Mg  Mg22  1  0.37081900  0.17995200  0.37081900  1
  Mg  Mg23  1  0.80913200  0.00000000  0.62918100  1
  Mg  Mg24  1  0.62918100  0.00000000  0.80913200  1
  Mg  Mg25  1  0.80913200  0.62918100  0.00000000  1
  Mg  Mg26  1  0.19086800  0.19086800  0.82004800  1
  Mg  Mg27  1  0.82004800  0.19086800  0.19086800  1
  Mg  Mg28  1  0.00000000  0.62918100  0.80913200  1
