# generated using pymatgen
data_Dy(GePt)2
_symmetry_space_group_name_H-M   'P 1'
_cell_length_a   5.82452776
_cell_length_b   5.82452776
_cell_length_c   5.82452776
_cell_angle_alpha   135.76758784
_cell_angle_beta   135.76758784
_cell_angle_gamma   64.33985339
_symmetry_Int_Tables_number   1
_chemical_formula_structural   Dy(GePt)2
_chemical_formula_sum   'Dy1 Ge2 Pt2'
_cell_volume   94.83169664
_cell_formula_units_Z   1
loop_
 _symmetry_equiv_pos_site_id
 _symmetry_equiv_pos_as_xyz
  1  'x, y, z'
loop_
 _atom_site_type_symbol
 _atom_site_label
 _atom_site_symmetry_multiplicity
 _atom_site_fract_x
 _atom_site_fract_y
 _atom_site_fract_z
 _atom_site_occupancy
  Dy  Dy0  1  0.00000000  0.00000000  0.00000000  1
  Ge  Ge1  1  0.62441400  0.62441400  0.00000000  1
  Ge  Ge2  1  0.37558600  0.37558600  0.00000000  1
  Pt  Pt3  1  0.75000000  0.25000000  0.50000000  1
  Pt  Pt4  1  0.25000000  0.75000000  0.50000000  1
