# generated using pymatgen
data_Eu(MnAs)2
_symmetry_space_group_name_H-M   'P 1'
_cell_length_a   4.01480465
_cell_length_b   4.01480465
_cell_length_c   7.12474200
_cell_angle_alpha   90.00000000
_cell_angle_beta   90.00000000
_cell_angle_gamma   120.00001063
_symmetry_Int_Tables_number   1
_chemical_formula_structural   Eu(MnAs)2
_chemical_formula_sum   'Eu1 Mn2 As2'
_cell_volume   99.45544466
_cell_formula_units_Z   1
loop_
 _symmetry_equiv_pos_site_id
 _symmetry_equiv_pos_as_xyz
  1  'x, y, z'
loop_
 _atom_site_type_symbol
 _atom_site_label
 _atom_site_symmetry_multiplicity
 _atom_site_fract_x
 _atom_site_fract_y
 _atom_site_fract_z
 _atom_site_occupancy
  Eu  Eu0  1  0.00000000  0.00000000  0.00000000  1
  Mn  Mn1  1  0.66666700  0.33333300  0.38567900  1
  Mn  Mn2  1  0.33333300  0.66666700  0.61432100  1
  As  As3  1  0.66666700  0.33333300  0.72484300  1
  As  As4  1  0.33333300  0.66666700  0.27515700  1
