# generated using pymatgen
data_Ag2PbO2
_symmetry_space_group_name_H-M   'P 1'
_cell_length_a   6.32259953
_cell_length_b   6.32259953
_cell_length_c   6.22081352
_cell_angle_alpha   62.38755491
_cell_angle_beta   62.38755491
_cell_angle_gamma   91.25004145
_symmetry_Int_Tables_number   1
_chemical_formula_structural   Ag2PbO2
_chemical_formula_sum   'Ag4 Pb2 O4'
_cell_volume   186.17845369
_cell_formula_units_Z   2
loop_
 _symmetry_equiv_pos_site_id
 _symmetry_equiv_pos_as_xyz
  1  'x, y, z'
loop_
 _atom_site_type_symbol
 _atom_site_label
 _atom_site_symmetry_multiplicity
 _atom_site_fract_x
 _atom_site_fract_y
 _atom_site_fract_z
 _atom_site_occupancy
  Ag  Ag0  1  0.50000000  0.50000000  0.00000000  1
  Ag  Ag1  1  0.50000000  0.00000000  0.00000000  1
  Ag  Ag2  1  0.50000000  0.50000000  0.50000000  1
  Ag  Ag3  1  0.00000000  0.50000000  0.50000000  1
  Pb  Pb4  1  0.88395100  0.11604900  0.25000000  1
  Pb  Pb5  1  0.11604900  0.88395100  0.75000000  1
  O  O6  1  0.86376400  0.75095800  0.26085100  1
  O  O7  1  0.13623600  0.24904200  0.73914900  1
  O  O8  1  0.24904200  0.13623600  0.23914900  1
  O  O9  1  0.75095800  0.86376400  0.76085100  1
