# generated using pymatgen
data_InSb
_symmetry_space_group_name_H-M   'P 1'
_cell_length_a   4.39771321
_cell_length_b   4.39771321
_cell_length_c   18.01654800
_cell_angle_alpha   90.00000000
_cell_angle_beta   90.00000000
_cell_angle_gamma   92.56967442
_symmetry_Int_Tables_number   1
_chemical_formula_structural   InSb
_chemical_formula_sum   'In6 Sb6'
_cell_volume   348.08752799
_cell_formula_units_Z   6
loop_
 _symmetry_equiv_pos_site_id
 _symmetry_equiv_pos_as_xyz
  1  'x, y, z'
loop_
 _atom_site_type_symbol
 _atom_site_label
 _atom_site_symmetry_multiplicity
 _atom_site_fract_x
 _atom_site_fract_y
 _atom_site_fract_z
 _atom_site_occupancy
  In  In0  1  0.07967100  0.92032900  0.75000000  1
  In  In1  1  0.92032900  0.07967100  0.25000000  1
  In  In2  1  0.41384400  0.58615600  0.91023100  1
  In  In3  1  0.58615600  0.41384400  0.41023100  1
  In  In4  1  0.58615600  0.41384400  0.08976900  1
  In  In5  1  0.41384400  0.58615600  0.58976900  1
  Sb  Sb6  1  0.57724300  0.42275700  0.75000000  1
  Sb  Sb7  1  0.42275700  0.57724300  0.25000000  1
  Sb  Sb8  1  0.91876000  0.08124000  0.92392600  1
  Sb  Sb9  1  0.08124000  0.91876000  0.42392600  1
  Sb  Sb10  1  0.08124000  0.91876000  0.07607400  1
  Sb  Sb11  1  0.91876000  0.08124000  0.57607400  1
