# generated using pymatgen
data_Ba2ReNiO6
_symmetry_space_group_name_H-M   'P 1'
_cell_length_a   5.76705114
_cell_length_b   5.76708048
_cell_length_c   5.76712600
_cell_angle_alpha   59.99932697
_cell_angle_beta   59.99996434
_cell_angle_gamma   60.00058181
_symmetry_Int_Tables_number   1
_chemical_formula_structural   Ba2ReNiO6
_chemical_formula_sum   'Ba2 Re1 Ni1 O6'
_cell_volume   135.62939988
_cell_formula_units_Z   1
loop_
 _symmetry_equiv_pos_site_id
 _symmetry_equiv_pos_as_xyz
  1  'x, y, z'
loop_
 _atom_site_type_symbol
 _atom_site_label
 _atom_site_symmetry_multiplicity
 _atom_site_fract_x
 _atom_site_fract_y
 _atom_site_fract_z
 _atom_site_occupancy
  Ba  Ba0  1  0.24999900  0.25000100  0.25000000  1
  Ba  Ba1  1  0.75000000  0.75000100  0.74999900  1
  Re  Re2  1  0.50000100  0.50000000  0.50000000  1
  Ni  Ni3  1  0.00000000  0.00000000  0.00000000  1
  O  O4  1  0.26076400  0.73923500  0.73923600  1
  O  O5  1  0.26076400  0.73923600  0.26076300  1
  O  O6  1  0.73923800  0.26076300  0.73923600  1
  O  O7  1  0.26076300  0.26076200  0.73923700  1
  O  O8  1  0.73923800  0.26076300  0.26076300  1
  O  O9  1  0.73923900  0.73923700  0.26076200  1
