# generated using pymatgen
data_GdSnAu
_symmetry_space_group_name_H-M   'P 1'
_cell_length_a   4.74203768
_cell_length_b   4.74203768
_cell_length_c   7.51092500
_cell_angle_alpha   90.00000000
_cell_angle_beta   90.00000000
_cell_angle_gamma   119.99999548
_symmetry_Int_Tables_number   1
_chemical_formula_structural   GdSnAu
_chemical_formula_sum   'Gd2 Sn2 Au2'
_cell_volume   146.26960118
_cell_formula_units_Z   2
loop_
 _symmetry_equiv_pos_site_id
 _symmetry_equiv_pos_as_xyz
  1  'x, y, z'
loop_
 _atom_site_type_symbol
 _atom_site_label
 _atom_site_symmetry_multiplicity
 _atom_site_fract_x
 _atom_site_fract_y
 _atom_site_fract_z
 _atom_site_occupancy
  Gd  Gd0  1  0.00000000  0.00000000  0.90093400  1
  Gd  Gd1  1  0.00000000  0.00000000  0.40093400  1
  Sn  Sn2  1  0.66666700  0.33333300  0.12464100  1
  Sn  Sn3  1  0.33333300  0.66666700  0.62464100  1
  Au  Au4  1  0.33333300  0.66666700  0.21952500  1
  Au  Au5  1  0.66666700  0.33333300  0.71952500  1
