# generated using pymatgen
data_BaYb2NiO5
_symmetry_space_group_name_H-M   'P 1'
_cell_length_a   5.63833300
_cell_length_b   6.99663600
_cell_length_c   12.13696700
_cell_angle_alpha   90.00000000
_cell_angle_beta   90.00000000
_cell_angle_gamma   90.00000000
_symmetry_Int_Tables_number   1
_chemical_formula_structural   BaYb2NiO5
_chemical_formula_sum   'Ba4 Yb8 Ni4 O20'
_cell_volume   478.79562476
_cell_formula_units_Z   4
loop_
 _symmetry_equiv_pos_site_id
 _symmetry_equiv_pos_as_xyz
  1  'x, y, z'
loop_
 _atom_site_type_symbol
 _atom_site_label
 _atom_site_symmetry_multiplicity
 _atom_site_fract_x
 _atom_site_fract_y
 _atom_site_fract_z
 _atom_site_occupancy
  Ba  Ba0  1  0.75000000  0.06948800  0.10160700  1
  Ba  Ba1  1  0.75000000  0.43051200  0.60160700  1
  Ba  Ba2  1  0.25000000  0.56948800  0.39839300  1
  Ba  Ba3  1  0.25000000  0.93051200  0.89839300  1
  Yb  Yb4  1  0.25000000  0.39267400  0.07608200  1
  Yb  Yb5  1  0.75000000  0.61529000  0.20314900  1
  Yb  Yb6  1  0.75000000  0.88471000  0.70314900  1
  Yb  Yb7  1  0.25000000  0.11529000  0.29685100  1
  Yb  Yb8  1  0.75000000  0.60732600  0.92391800  1
  Yb  Yb9  1  0.75000000  0.89267400  0.42391800  1
  Yb  Yb10  1  0.25000000  0.10732600  0.57608200  1
  Yb  Yb11  1  0.25000000  0.38471000  0.79685100  1
  Ni  Ni12  1  0.25000000  0.79629400  0.15713100  1
  Ni  Ni13  1  0.75000000  0.20370600  0.84286900  1
  Ni  Ni14  1  0.75000000  0.29629400  0.34286900  1
  Ni  Ni15  1  0.25000000  0.70370600  0.65713100  1
  O  O16  1  0.25000000  0.44315900  0.60609500  1
  O  O17  1  0.75000000  0.55684100  0.39390500  1
  O  O18  1  0.75000000  0.94315900  0.89390500  1
  O  O19  1  0.25000000  0.05684100  0.10609500  1
  O  O20  1  0.01408500  0.84715800  0.26662400  1
  O  O21  1  0.51408500  0.15284200  0.73337600  1
  O  O22  1  0.98591500  0.34715800  0.23337600  1
  O  O23  1  0.48591500  0.65284200  0.76662400  1
  O  O24  1  0.98591500  0.15284200  0.73337600  1
  O  O25  1  0.48591500  0.84715800  0.26662400  1
  O  O26  1  0.01408500  0.65284200  0.76662400  1
  O  O27  1  0.51408500  0.34715800  0.23337600  1
  O  O28  1  0.47927000  0.68392000  0.06331300  1
  O  O29  1  0.97927000  0.31608000  0.93668700  1
  O  O30  1  0.52073000  0.18392000  0.43668700  1
  O  O31  1  0.02073000  0.81608000  0.56331300  1
  O  O32  1  0.97927000  0.18392000  0.43668700  1
  O  O33  1  0.47927000  0.81608000  0.56331300  1
  O  O34  1  0.02073000  0.68392000  0.06331300  1
  O  O35  1  0.52073000  0.31608000  0.93668700  1
