# generated using pymatgen
data_CrF4
_symmetry_space_group_name_H-M   'P 1'
_cell_length_a   8.62436400
_cell_length_b   8.62436400
_cell_length_c   3.86360900
_cell_angle_alpha   90.00000000
_cell_angle_beta   90.00000000
_cell_angle_gamma   90.00000000
_symmetry_Int_Tables_number   1
_chemical_formula_structural   CrF4
_chemical_formula_sum   'Cr4 F16'
_cell_volume   287.37390217
_cell_formula_units_Z   4
loop_
 _symmetry_equiv_pos_site_id
 _symmetry_equiv_pos_as_xyz
  1  'x, y, z'
loop_
 _atom_site_type_symbol
 _atom_site_label
 _atom_site_symmetry_multiplicity
 _atom_site_fract_x
 _atom_site_fract_y
 _atom_site_fract_z
 _atom_site_occupancy
  Cr  Cr0  1  0.63018400  0.36981600  0.50000000  1
  Cr  Cr1  1  0.36981600  0.63018400  0.50000000  1
  Cr  Cr2  1  0.13018400  0.13018400  0.00000000  1
  Cr  Cr3  1  0.86981600  0.86981600  0.00000000  1
  F  F4  1  0.59643200  0.59643200  0.50000000  1
  F  F5  1  0.40356800  0.40356800  0.50000000  1
  F  F6  1  0.09643200  0.90356800  0.00000000  1
  F  F7  1  0.90356800  0.09643200  0.00000000  1
  F  F8  1  0.87641100  0.87641100  0.50000000  1
  F  F9  1  0.12358900  0.12358900  0.50000000  1
  F  F10  1  0.37641100  0.62358900  0.00000000  1
  F  F11  1  0.62358900  0.37641100  0.00000000  1
  F  F12  1  0.60598200  0.16981100  0.50000000  1
  F  F13  1  0.39401800  0.83018900  0.50000000  1
  F  F14  1  0.10598200  0.33018900  0.00000000  1
  F  F15  1  0.89401800  0.66981100  0.00000000  1
  F  F16  1  0.16981100  0.60598200  0.50000000  1
  F  F17  1  0.83018900  0.39401800  0.50000000  1
  F  F18  1  0.33018900  0.10598200  0.00000000  1
  F  F19  1  0.66981100  0.89401800  0.00000000  1
