# generated using pymatgen
data_Ca(FeO2)2
_symmetry_space_group_name_H-M   'P 1'
_cell_length_a   3.05970100
_cell_length_b   9.32848900
_cell_length_c   10.85976300
_cell_angle_alpha   90.00000000
_cell_angle_beta   90.00000000
_cell_angle_gamma   90.00000000
_symmetry_Int_Tables_number   1
_chemical_formula_structural   Ca(FeO2)2
_chemical_formula_sum   'Ca4 Fe8 O16'
_cell_volume   309.96355960
_cell_formula_units_Z   4
loop_
 _symmetry_equiv_pos_site_id
 _symmetry_equiv_pos_as_xyz
  1  'x, y, z'
loop_
 _atom_site_type_symbol
 _atom_site_label
 _atom_site_symmetry_multiplicity
 _atom_site_fract_x
 _atom_site_fract_y
 _atom_site_fract_z
 _atom_site_occupancy
  Ca  Ca0  1  0.75000000  0.24304100  0.34442100  1
  Ca  Ca1  1  0.25000000  0.75695900  0.65557900  1
  Ca  Ca2  1  0.75000000  0.74304100  0.15557900  1
  Ca  Ca3  1  0.25000000  0.25695900  0.84442100  1
  Fe  Fe4  1  0.25000000  0.41947800  0.10413800  1
  Fe  Fe5  1  0.75000000  0.08052200  0.60413800  1
  Fe  Fe6  1  0.25000000  0.91947800  0.39586200  1
  Fe  Fe7  1  0.75000000  0.58052200  0.89586200  1
  Fe  Fe8  1  0.75000000  0.56642100  0.38929400  1
  Fe  Fe9  1  0.25000000  0.43357900  0.61070600  1
  Fe  Fe10  1  0.75000000  0.06642100  0.11070600  1
  Fe  Fe11  1  0.25000000  0.93357900  0.88929400  1
  O  O12  1  0.25000000  0.91796100  0.07390200  1
  O  O13  1  0.75000000  0.08203900  0.92609800  1
  O  O14  1  0.25000000  0.41796100  0.42609800  1
  O  O15  1  0.75000000  0.58203900  0.57390200  1
  O  O16  1  0.25000000  0.02509800  0.71613800  1
  O  O17  1  0.75000000  0.97490200  0.28386200  1
  O  O18  1  0.25000000  0.52509800  0.78386200  1
  O  O19  1  0.75000000  0.47490200  0.21613800  1
  O  O20  1  0.25000000  0.61995500  0.02410600  1
  O  O21  1  0.75000000  0.38004500  0.97589400  1
  O  O22  1  0.25000000  0.11995500  0.47589400  1
  O  O23  1  0.75000000  0.88004500  0.52410600  1
  O  O24  1  0.75000000  0.79478400  0.83663600  1
  O  O25  1  0.25000000  0.20521600  0.16336400  1
  O  O26  1  0.25000000  0.70521600  0.33663600  1
  O  O27  1  0.75000000  0.29478400  0.66336400  1
