# generated using pymatgen
data_Ba3NaIr2O9
_symmetry_space_group_name_H-M   'P 1'
_cell_length_a   5.96074893
_cell_length_b   5.96074893
_cell_length_c   14.87373521
_cell_angle_alpha   88.89565700
_cell_angle_beta   88.89565700
_cell_angle_gamma   119.77794665
_symmetry_Int_Tables_number   1
_chemical_formula_structural   Ba3NaIr2O9
_chemical_formula_sum   'Ba6 Na2 Ir4 O18'
_cell_volume   458.35188974
_cell_formula_units_Z   2
loop_
 _symmetry_equiv_pos_site_id
 _symmetry_equiv_pos_as_xyz
  1  'x, y, z'
loop_
 _atom_site_type_symbol
 _atom_site_label
 _atom_site_symmetry_multiplicity
 _atom_site_fract_x
 _atom_site_fract_y
 _atom_site_fract_z
 _atom_site_occupancy
  Ba  Ba0  1  0.32804400  0.66001000  0.58474800  1
  Ba  Ba1  1  0.99857500  0.00142500  0.75000000  1
  Ba  Ba2  1  0.33999000  0.67195600  0.91525200  1
  Ba  Ba3  1  0.67195600  0.33999000  0.41525200  1
  Ba  Ba4  1  0.00142500  0.99857500  0.25000000  1
  Ba  Ba5  1  0.66001000  0.32804400  0.08474800  1
  Na  Na6  1  0.00000000  0.00000000  0.00000000  1
  Na  Na7  1  0.00000000  0.00000000  0.50000000  1
  Ir  Ir8  1  0.68415000  0.34771200  0.84255000  1
  Ir  Ir9  1  0.34771200  0.68415000  0.34255000  1
  Ir  Ir10  1  0.31585000  0.65228800  0.15745000  1
  Ir  Ir11  1  0.65228800  0.31585000  0.65745000  1
  O  O12  1  0.14616800  0.32996000  0.09794400  1
  O  O13  1  0.67004000  0.85383200  0.40205600  1
  O  O14  1  0.85383200  0.67004000  0.90205600  1
  O  O15  1  0.32996000  0.14616800  0.59794400  1
  O  O16  1  0.79412500  0.14277700  0.59073700  1
  O  O17  1  0.85722300  0.20587500  0.90926300  1
  O  O18  1  0.20587500  0.85722300  0.40926300  1
  O  O19  1  0.14277700  0.79412500  0.09073700  1
  O  O20  1  0.79442500  0.61055800  0.57690300  1
  O  O21  1  0.38944200  0.20557500  0.92309700  1
  O  O22  1  0.20557500  0.38944200  0.42309700  1
  O  O23  1  0.61055800  0.79442500  0.07690300  1
  O  O24  1  0.03584900  0.51920700  0.26039200  1
  O  O25  1  0.48079300  0.96415100  0.23960800  1
  O  O26  1  0.96415100  0.48079300  0.73960800  1
  O  O27  1  0.51920700  0.03584900  0.76039200  1
  O  O28  1  0.48128200  0.51871800  0.25000000  1
  O  O29  1  0.51871800  0.48128200  0.75000000  1
