# generated using pymatgen
data_TbMnSi
_symmetry_space_group_name_H-M   'P 1'
_cell_length_a   4.11627500
_cell_length_b   7.03489600
_cell_length_c   7.58032900
_cell_angle_alpha   90.00000000
_cell_angle_beta   90.00000000
_cell_angle_gamma   90.00000000
_symmetry_Int_Tables_number   1
_chemical_formula_structural   TbMnSi
_chemical_formula_sum   'Tb4 Mn4 Si4'
_cell_volume   219.50788135
_cell_formula_units_Z   4
loop_
 _symmetry_equiv_pos_site_id
 _symmetry_equiv_pos_as_xyz
  1  'x, y, z'
loop_
 _atom_site_type_symbol
 _atom_site_label
 _atom_site_symmetry_multiplicity
 _atom_site_fract_x
 _atom_site_fract_y
 _atom_site_fract_z
 _atom_site_occupancy
  Tb  Tb0  1  0.25000000  0.50716700  0.18559700  1
  Tb  Tb1  1  0.75000000  0.49283300  0.81440300  1
  Tb  Tb2  1  0.25000000  0.00716700  0.31440300  1
  Tb  Tb3  1  0.75000000  0.99283300  0.68559700  1
  Mn  Mn4  1  0.75000000  0.86328800  0.05848600  1
  Mn  Mn5  1  0.25000000  0.13671200  0.94151400  1
  Mn  Mn6  1  0.75000000  0.36328800  0.44151400  1
  Mn  Mn7  1  0.25000000  0.63671200  0.55848600  1
  Si  Si8  1  0.25000000  0.78987200  0.89001800  1
  Si  Si9  1  0.75000000  0.21012800  0.10998200  1
  Si  Si10  1  0.25000000  0.28987200  0.60998200  1
  Si  Si11  1  0.75000000  0.71012800  0.39001800  1
