# generated using pymatgen
data_Mg(IN)2
_symmetry_space_group_name_H-M   'P 1'
_cell_length_a   4.07888600
_cell_length_b   6.16922100
_cell_length_c   12.18319200
_cell_angle_alpha   90.00000000
_cell_angle_beta   90.00000000
_cell_angle_gamma   90.00000000
_symmetry_Int_Tables_number   1
_chemical_formula_structural   Mg(IN)2
_chemical_formula_sum   'Mg2 I4 N4'
_cell_volume   306.57235091
_cell_formula_units_Z   2
loop_
 _symmetry_equiv_pos_site_id
 _symmetry_equiv_pos_as_xyz
  1  'x, y, z'
loop_
 _atom_site_type_symbol
 _atom_site_label
 _atom_site_symmetry_multiplicity
 _atom_site_fract_x
 _atom_site_fract_y
 _atom_site_fract_z
 _atom_site_occupancy
  Mg  Mg0  1  0.00000000  0.50000000  0.50000000  1
  Mg  Mg1  1  0.00000000  0.00000000  0.00000000  1
  I  I2  1  0.50000000  0.77303300  0.11805400  1
  I  I3  1  0.50000000  0.22696700  0.88194600  1
  I  I4  1  0.50000000  0.27303300  0.38194600  1
  I  I5  1  0.50000000  0.72696700  0.61805400  1
  N  N6  1  0.00000000  0.75986200  0.37027700  1
  N  N7  1  0.00000000  0.24013800  0.62972300  1
  N  N8  1  0.00000000  0.25986200  0.12972300  1
  N  N9  1  0.00000000  0.74013800  0.87027700  1
