# generated using pymatgen
data_U2FeS5
_symmetry_space_group_name_H-M   'P 1'
_cell_length_a   7.84221069
_cell_length_b   7.84221069
_cell_length_c   6.94821931
_cell_angle_alpha   83.12189849
_cell_angle_beta   83.12189849
_cell_angle_gamma   44.90888114
_symmetry_Int_Tables_number   1
_chemical_formula_structural   U2FeS5
_chemical_formula_sum   'U4 Fe2 S10'
_cell_volume   299.13455594
_cell_formula_units_Z   2
loop_
 _symmetry_equiv_pos_site_id
 _symmetry_equiv_pos_as_xyz
  1  'x, y, z'
loop_
 _atom_site_type_symbol
 _atom_site_label
 _atom_site_symmetry_multiplicity
 _atom_site_fract_x
 _atom_site_fract_y
 _atom_site_fract_z
 _atom_site_occupancy
  U  U0  1  0.68627700  0.09503700  0.58529500  1
  U  U1  1  0.90496300  0.31372300  0.91470500  1
  U  U2  1  0.09503700  0.68627700  0.08529500  1
  U  U3  1  0.31372300  0.90496300  0.41470500  1
  Fe  Fe4  1  0.00000000  0.50000000  0.50000000  1
  Fe  Fe5  1  0.50000000  0.00000000  0.00000000  1
  S  S6  1  0.69201500  0.86527500  0.30861500  1
  S  S7  1  0.13472500  0.30798500  0.19138500  1
  S  S8  1  0.30798500  0.13472500  0.69138500  1
  S  S9  1  0.86527500  0.69201500  0.80861500  1
  S  S10  1  0.47542000  0.70940500  0.07517000  1
  S  S11  1  0.29059500  0.52458000  0.42483000  1
  S  S12  1  0.09763700  0.90236300  0.75000000  1
  S  S13  1  0.90236300  0.09763700  0.25000000  1
  S  S14  1  0.70940500  0.47542000  0.57517000  1
  S  S15  1  0.52458000  0.29059500  0.92483000  1
