# generated using pymatgen
data_YbMnGe
_symmetry_space_group_name_H-M   'P 1'
_cell_length_a   6.85303130
_cell_length_b   6.85303130
_cell_length_c   4.38650800
_cell_angle_alpha   90.00000000
_cell_angle_beta   90.00000000
_cell_angle_gamma   119.99999327
_symmetry_Int_Tables_number   1
_chemical_formula_structural   YbMnGe
_chemical_formula_sum   'Yb3 Mn3 Ge3'
_cell_volume   178.40828482
_cell_formula_units_Z   3
loop_
 _symmetry_equiv_pos_site_id
 _symmetry_equiv_pos_as_xyz
  1  'x, y, z'
loop_
 _atom_site_type_symbol
 _atom_site_label
 _atom_site_symmetry_multiplicity
 _atom_site_fract_x
 _atom_site_fract_y
 _atom_site_fract_z
 _atom_site_occupancy
  Yb  Yb0  1  0.00000000  0.56859600  0.00000000  1
  Yb  Yb1  1  0.43140400  0.43140400  0.00000000  1
  Yb  Yb2  1  0.56859600  0.00000000  0.00000000  1
  Mn  Mn3  1  0.76775200  0.76775200  0.50000000  1
  Mn  Mn4  1  0.23224800  0.00000000  0.50000000  1
  Mn  Mn5  1  0.00000000  0.23224800  0.50000000  1
  Ge  Ge6  1  0.66666700  0.33333300  0.50000000  1
  Ge  Ge7  1  0.00000000  0.00000000  0.00000000  1
  Ge  Ge8  1  0.33333300  0.66666700  0.50000000  1
