# generated using pymatgen
data_BaYb2CoO5
_symmetry_space_group_name_H-M   'P 1'
_cell_length_a   5.65861100
_cell_length_b   7.02725400
_cell_length_c   12.16243600
_cell_angle_alpha   90.00000000
_cell_angle_beta   90.00000000
_cell_angle_gamma   90.00000000
_symmetry_Int_Tables_number   1
_chemical_formula_structural   BaYb2CoO5
_chemical_formula_sum   'Ba4 Yb8 Co4 O20'
_cell_volume   483.63314721
_cell_formula_units_Z   4
loop_
 _symmetry_equiv_pos_site_id
 _symmetry_equiv_pos_as_xyz
  1  'x, y, z'
loop_
 _atom_site_type_symbol
 _atom_site_label
 _atom_site_symmetry_multiplicity
 _atom_site_fract_x
 _atom_site_fract_y
 _atom_site_fract_z
 _atom_site_occupancy
  Ba  Ba0  1  0.25000000  0.92842400  0.89458300  1
  Ba  Ba1  1  0.75000000  0.07157600  0.10541700  1
  Ba  Ba2  1  0.75000000  0.42842400  0.60541700  1
  Ba  Ba3  1  0.25000000  0.57157600  0.39458300  1
  Yb  Yb4  1  0.25000000  0.10581000  0.57440300  1
  Yb  Yb5  1  0.75000000  0.89419000  0.42559700  1
  Yb  Yb6  1  0.75000000  0.60581000  0.92559700  1
  Yb  Yb7  1  0.25000000  0.39419000  0.07440300  1
  Yb  Yb8  1  0.25000000  0.38322300  0.79816800  1
  Yb  Yb9  1  0.75000000  0.61677700  0.20183200  1
  Yb  Yb10  1  0.75000000  0.88322300  0.70183200  1
  Yb  Yb11  1  0.25000000  0.11677700  0.29816800  1
  Co  Co12  1  0.25000000  0.69246100  0.65327000  1
  Co  Co13  1  0.75000000  0.30753900  0.34673000  1
  Co  Co14  1  0.75000000  0.19246100  0.84673000  1
  Co  Co15  1  0.25000000  0.80753900  0.15327000  1
  O  O16  1  0.25000000  0.44500400  0.60252000  1
  O  O17  1  0.75000000  0.55499600  0.39748000  1
  O  O18  1  0.75000000  0.94500400  0.89748000  1
  O  O19  1  0.25000000  0.05499600  0.10252000  1
  O  O20  1  0.01855000  0.84246100  0.26558400  1
  O  O21  1  0.51855000  0.15753900  0.73441600  1
  O  O22  1  0.98145000  0.34246100  0.23441600  1
  O  O23  1  0.48145000  0.65753900  0.76558400  1
  O  O24  1  0.98145000  0.15753900  0.73441600  1
  O  O25  1  0.48145000  0.84246100  0.26558400  1
  O  O26  1  0.01855000  0.65753900  0.76558400  1
  O  O27  1  0.51855000  0.34246100  0.23441600  1
  O  O28  1  0.47650200  0.68158000  0.06580600  1
  O  O29  1  0.97650200  0.31842000  0.93419400  1
  O  O30  1  0.52349800  0.18158000  0.43419400  1
  O  O31  1  0.02349800  0.81842000  0.56580600  1
  O  O32  1  0.97650200  0.18158000  0.43419400  1
  O  O33  1  0.47650200  0.81842000  0.56580600  1
  O  O34  1  0.02349800  0.68158000  0.06580600  1
  O  O35  1  0.52349800  0.31842000  0.93419400  1
