# generated using pymatgen
data_Sr2Ni(NO2)6
_symmetry_space_group_name_H-M   'P 1'
_cell_length_a   7.14090733
_cell_length_b   7.14090733
_cell_length_c   7.14090733
_cell_angle_alpha   60.00000000
_cell_angle_beta   60.00000000
_cell_angle_gamma   60.00000000
_symmetry_Int_Tables_number   1
_chemical_formula_structural   Sr2Ni(NO2)6
_chemical_formula_sum   'Sr2 Ni1 N6 O12'
_cell_volume   257.48100426
_cell_formula_units_Z   1
loop_
 _symmetry_equiv_pos_site_id
 _symmetry_equiv_pos_as_xyz
  1  'x, y, z'
loop_
 _atom_site_type_symbol
 _atom_site_label
 _atom_site_symmetry_multiplicity
 _atom_site_fract_x
 _atom_site_fract_y
 _atom_site_fract_z
 _atom_site_occupancy
  Sr  Sr0  1  0.25000000  0.25000000  0.25000000  1
  Sr  Sr1  1  0.75000000  0.75000000  0.75000000  1
  Ni  Ni2  1  0.00000000  0.00000000  0.00000000  1
  N  N3  1  0.18890700  0.18890700  0.81109300  1
  N  N4  1  0.81109300  0.18890700  0.18890700  1
  N  N5  1  0.18890700  0.81109300  0.18890700  1
  N  N6  1  0.18890700  0.81109300  0.81109300  1
  N  N7  1  0.81109300  0.18890700  0.81109300  1
  N  N8  1  0.81109300  0.81109300  0.18890700  1
  O  O9  1  0.34140500  0.00000000  0.00000000  1
  O  O10  1  0.34140500  0.00000000  0.65859500  1
  O  O11  1  0.00000000  0.34140500  0.00000000  1
  O  O12  1  0.34140500  0.65859500  0.00000000  1
  O  O13  1  0.65859500  0.00000000  0.34140500  1
  O  O14  1  0.00000000  0.00000000  0.65859500  1
  O  O15  1  0.00000000  0.65859500  0.34140500  1
  O  O16  1  0.65859500  0.34140500  0.00000000  1
  O  O17  1  0.65859500  0.00000000  0.00000000  1
  O  O18  1  0.00000000  0.34140500  0.65859500  1
  O  O19  1  0.00000000  0.00000000  0.34140500  1
  O  O20  1  0.00000000  0.65859500  0.00000000  1
