# generated using pymatgen
data_Sc3P2
_symmetry_space_group_name_H-M   'P 1'
_cell_length_a   3.72389600
_cell_length_b   10.06845300
_cell_length_c   10.16332400
_cell_angle_alpha   90.00000000
_cell_angle_beta   90.00000000
_cell_angle_gamma   90.00000000
_symmetry_Int_Tables_number   1
_chemical_formula_structural   Sc3P2
_chemical_formula_sum   'Sc12 P8'
_cell_volume   381.06236766
_cell_formula_units_Z   4
loop_
 _symmetry_equiv_pos_site_id
 _symmetry_equiv_pos_as_xyz
  1  'x, y, z'
loop_
 _atom_site_type_symbol
 _atom_site_label
 _atom_site_symmetry_multiplicity
 _atom_site_fract_x
 _atom_site_fract_y
 _atom_site_fract_z
 _atom_site_occupancy
  Sc  Sc0  1  0.25000000  0.80111700  0.22294000  1
  Sc  Sc1  1  0.75000000  0.19888300  0.77706000  1
  Sc  Sc2  1  0.25000000  0.69888300  0.72294000  1
  Sc  Sc3  1  0.75000000  0.30111700  0.27706000  1
  Sc  Sc4  1  0.75000000  0.56300500  0.12502700  1
  Sc  Sc5  1  0.25000000  0.43699500  0.87497300  1
  Sc  Sc6  1  0.75000000  0.93699500  0.62502700  1
  Sc  Sc7  1  0.25000000  0.06300500  0.37497300  1
  Sc  Sc8  1  0.75000000  0.63228600  0.45265400  1
  Sc  Sc9  1  0.25000000  0.36771400  0.54734600  1
  Sc  Sc10  1  0.75000000  0.86771400  0.95265400  1
  Sc  Sc11  1  0.25000000  0.13228600  0.04734600  1
  P  P12  1  0.75000000  0.31914900  0.01093900  1
  P  P13  1  0.25000000  0.68085100  0.98906100  1
  P  P14  1  0.75000000  0.18085100  0.51093900  1
  P  P15  1  0.25000000  0.81914900  0.48906100  1
  P  P16  1  0.75000000  0.99719200  0.18611300  1
  P  P17  1  0.25000000  0.00280800  0.81388700  1
  P  P18  1  0.75000000  0.50280800  0.68611300  1
  P  P19  1  0.25000000  0.49719200  0.31388700  1
