# generated using pymatgen
data_Hf2InPd2
_symmetry_space_group_name_H-M   'P 1'
_cell_length_a   7.52788800
_cell_length_b   7.52788800
_cell_length_c   3.40084100
_cell_angle_alpha   90.00000000
_cell_angle_beta   90.00000000
_cell_angle_gamma   90.00000000
_symmetry_Int_Tables_number   1
_chemical_formula_structural   Hf2InPd2
_chemical_formula_sum   'Hf4 In2 Pd4'
_cell_volume   192.72259103
_cell_formula_units_Z   2
loop_
 _symmetry_equiv_pos_site_id
 _symmetry_equiv_pos_as_xyz
  1  'x, y, z'
loop_
 _atom_site_type_symbol
 _atom_site_label
 _atom_site_symmetry_multiplicity
 _atom_site_fract_x
 _atom_site_fract_y
 _atom_site_fract_z
 _atom_site_occupancy
  Hf  Hf0  1  0.16823300  0.33176700  0.00000000  1
  Hf  Hf1  1  0.83176700  0.66823300  0.00000000  1
  Hf  Hf2  1  0.66823300  0.16823300  0.00000000  1
  Hf  Hf3  1  0.33176700  0.83176700  0.00000000  1
  In  In4  1  0.00000000  0.00000000  0.50000000  1
  In  In5  1  0.50000000  0.50000000  0.50000000  1
  Pd  Pd6  1  0.37028000  0.12972000  0.50000000  1
  Pd  Pd7  1  0.62972000  0.87028000  0.50000000  1
  Pd  Pd8  1  0.87028000  0.37028000  0.50000000  1
  Pd  Pd9  1  0.12972000  0.62972000  0.50000000  1
