# generated using pymatgen
data_InSe
_symmetry_space_group_name_H-M   'P 1'
_cell_length_a   6.20754263
_cell_length_b   6.20754263
_cell_length_c   5.23058816
_cell_angle_alpha   71.42219573
_cell_angle_beta   71.42219573
_cell_angle_gamma   39.00659361
_symmetry_Int_Tables_number   1
_chemical_formula_structural   InSe
_chemical_formula_sum   'In2 Se2'
_cell_volume   119.39413983
_cell_formula_units_Z   2
loop_
 _symmetry_equiv_pos_site_id
 _symmetry_equiv_pos_as_xyz
  1  'x, y, z'
loop_
 _atom_site_type_symbol
 _atom_site_label
 _atom_site_symmetry_multiplicity
 _atom_site_fract_x
 _atom_site_fract_y
 _atom_site_fract_z
 _atom_site_occupancy
  In  In0  1  0.88807100  0.88807100  0.94971700  1
  In  In1  1  0.11192900  0.11192900  0.05028300  1
  Se  Se2  1  0.66151200  0.66151200  0.32923000  1
  Se  Se3  1  0.33848800  0.33848800  0.67077000  1
