# generated using pymatgen
data_Ca2RuO4
_symmetry_space_group_name_H-M   'P 1'
_cell_length_a   5.41168000
_cell_length_b   5.59427600
_cell_length_c   12.03622400
_cell_angle_alpha   90.00000000
_cell_angle_beta   90.00000000
_cell_angle_gamma   90.00000000
_symmetry_Int_Tables_number   1
_chemical_formula_structural   Ca2RuO4
_chemical_formula_sum   'Ca8 Ru4 O16'
_cell_volume   364.38983953
_cell_formula_units_Z   4
loop_
 _symmetry_equiv_pos_site_id
 _symmetry_equiv_pos_as_xyz
  1  'x, y, z'
loop_
 _atom_site_type_symbol
 _atom_site_label
 _atom_site_symmetry_multiplicity
 _atom_site_fract_x
 _atom_site_fract_y
 _atom_site_fract_z
 _atom_site_occupancy
  Ca  Ca0  1  0.50748800  0.05770000  0.15040700  1
  Ca  Ca1  1  0.00748800  0.44230000  0.84959300  1
  Ca  Ca2  1  0.49251200  0.55770000  0.34959300  1
  Ca  Ca3  1  0.99251200  0.94230000  0.65040700  1
  Ca  Ca4  1  0.49251200  0.94230000  0.84959300  1
  Ca  Ca5  1  0.99251200  0.55770000  0.15040700  1
  Ca  Ca6  1  0.50748800  0.44230000  0.65040700  1
  Ca  Ca7  1  0.00748800  0.05770000  0.34959300  1
  Ru  Ru8  1  0.50000000  0.00000000  0.50000000  1
  Ru  Ru9  1  0.00000000  0.50000000  0.50000000  1
  Ru  Ru10  1  0.50000000  0.50000000  0.00000000  1
  Ru  Ru11  1  0.00000000  0.00000000  0.00000000  1
  O  O12  1  0.69620500  0.29946500  0.47258200  1
  O  O13  1  0.19620500  0.20053500  0.52741800  1
  O  O14  1  0.30379500  0.79946500  0.02741800  1
  O  O15  1  0.80379500  0.70053500  0.97258200  1
  O  O16  1  0.30379500  0.70053500  0.52741800  1
  O  O17  1  0.80379500  0.79946500  0.47258200  1
  O  O18  1  0.69620500  0.20053500  0.97258200  1
  O  O19  1  0.19620500  0.29946500  0.02741800  1
  O  O20  1  0.43049600  0.97742800  0.33321800  1
  O  O21  1  0.93049600  0.52257200  0.66678200  1
  O  O22  1  0.56950400  0.47742800  0.16678200  1
  O  O23  1  0.06950400  0.02257200  0.83321800  1
  O  O24  1  0.56950400  0.02257200  0.66678200  1
  O  O25  1  0.06950400  0.47742800  0.33321800  1
  O  O26  1  0.43049600  0.52257200  0.83321800  1
  O  O27  1  0.93049600  0.97742800  0.16678200  1
