# generated using pymatgen
data_PrTiGe
_symmetry_space_group_name_H-M   'P 1'
_cell_length_a   4.15368200
_cell_length_b   4.15368200
_cell_length_c   7.99932100
_cell_angle_alpha   90.00000000
_cell_angle_beta   90.00000000
_cell_angle_gamma   90.00000000
_symmetry_Int_Tables_number   1
_chemical_formula_structural   PrTiGe
_chemical_formula_sum   'Pr2 Ti2 Ge2'
_cell_volume   138.01287842
_cell_formula_units_Z   2
loop_
 _symmetry_equiv_pos_site_id
 _symmetry_equiv_pos_as_xyz
  1  'x, y, z'
loop_
 _atom_site_type_symbol
 _atom_site_label
 _atom_site_symmetry_multiplicity
 _atom_site_fract_x
 _atom_site_fract_y
 _atom_site_fract_z
 _atom_site_occupancy
  Pr  Pr0  1  0.00000000  0.50000000  0.34650300  1
  Pr  Pr1  1  0.50000000  0.00000000  0.65349700  1
  Ti  Ti2  1  0.50000000  0.50000000  0.00000000  1
  Ti  Ti3  1  0.00000000  0.00000000  0.00000000  1
  Ge  Ge4  1  0.50000000  0.00000000  0.22179200  1
  Ge  Ge5  1  0.00000000  0.50000000  0.77820800  1
