# generated using pymatgen
data_Co3(AsO4)2
_symmetry_space_group_name_H-M   'P 1'
_cell_length_a   8.66397200
_cell_length_b   6.53831900
_cell_length_c   11.31263790
_cell_angle_alpha   88.97990880
_cell_angle_beta   90.00000000
_cell_angle_gamma   90.00000000
_symmetry_Int_Tables_number   1
_chemical_formula_structural   Co3(AsO4)2
_chemical_formula_sum   'Co12 As8 O32'
_cell_volume   640.73462953
_cell_formula_units_Z   4
loop_
 _symmetry_equiv_pos_site_id
 _symmetry_equiv_pos_as_xyz
  1  'x, y, z'
loop_
 _atom_site_type_symbol
 _atom_site_label
 _atom_site_symmetry_multiplicity
 _atom_site_fract_x
 _atom_site_fract_y
 _atom_site_fract_z
 _atom_site_occupancy
  Co  Co0  1  0.83396100  0.76016200  0.64140600  1
  Co  Co1  1  0.33396100  0.23983800  0.85859400  1
  Co  Co2  1  0.16603900  0.23983800  0.35859400  1
  Co  Co3  1  0.66603900  0.76016200  0.14140600  1
  Co  Co4  1  0.94516100  0.39036500  0.87435000  1
  Co  Co5  1  0.44516100  0.60963500  0.62565000  1
  Co  Co6  1  0.05483900  0.60963500  0.12565000  1
  Co  Co7  1  0.55483900  0.39036500  0.37435000  1
  Co  Co8  1  0.66950300  0.10905100  0.94510000  1
  Co  Co9  1  0.16950300  0.89094900  0.55490000  1
  Co  Co10  1  0.33049700  0.89094900  0.05490000  1
  Co  Co11  1  0.83049700  0.10905100  0.44510000  1
  As  As12  1  0.91246900  0.60653500  0.36589200  1
  As  As13  1  0.41246900  0.39346500  0.13410800  1
  As  As14  1  0.08753100  0.39346500  0.63410800  1
  As  As15  1  0.58753100  0.60653500  0.86589200  1
  As  As16  1  0.95396600  0.10084200  0.14436100  1
  As  As17  1  0.45396600  0.89915800  0.35563900  1
  As  As18  1  0.04603400  0.89915800  0.85563900  1
  As  As19  1  0.54603400  0.10084200  0.64436100  1
  O  O20  1  0.54035800  0.13287000  0.79565600  1
  O  O21  1  0.04035800  0.86713000  0.70434400  1
  O  O22  1  0.45964200  0.86713000  0.20434400  1
  O  O23  1  0.95964200  0.13287000  0.29565600  1
  O  O24  1  0.40680500  0.52458400  0.82455300  1
  O  O25  1  0.90680500  0.47541600  0.67544700  1
  O  O26  1  0.59319500  0.47541600  0.17544700  1
  O  O27  1  0.09319500  0.52458400  0.32455300  1
  O  O28  1  0.49796200  0.32705800  0.57189900  1
  O  O29  1  0.99796200  0.67294200  0.92810100  1
  O  O30  1  0.50203800  0.67294200  0.42810100  1
  O  O31  1  0.00203800  0.32705800  0.07189900  1
  O  O32  1  0.64329000  0.70387500  0.73024700  1
  O  O33  1  0.14329000  0.29612500  0.76975300  1
  O  O34  1  0.35671000  0.29612500  0.26975300  1
  O  O35  1  0.85671000  0.70387500  0.23024700  1
  O  O36  1  0.40427100  0.92084300  0.61657400  1
  O  O37  1  0.90427100  0.07915700  0.88342600  1
  O  O38  1  0.59572900  0.07915700  0.38342600  1
  O  O39  1  0.09572900  0.92084300  0.11657400  1
  O  O40  1  0.78570200  0.42464200  0.42212000  1
  O  O41  1  0.28570200  0.57535800  0.07788000  1
  O  O42  1  0.21429800  0.57535800  0.57788000  1
  O  O43  1  0.71429800  0.42464200  0.92212000  1
  O  O44  1  0.76656000  0.03589400  0.10385500  1
  O  O45  1  0.26656000  0.96410600  0.39614500  1
  O  O46  1  0.23344000  0.96410600  0.89614500  1
  O  O47  1  0.73344000  0.03589400  0.60385500  1
  O  O48  1  0.92924600  0.80058200  0.47053000  1
  O  O49  1  0.42924600  0.19941800  0.02947000  1
  O  O50  1  0.07075400  0.19941800  0.52947000  1
  O  O51  1  0.57075400  0.80058200  0.97053000  1
