# generated using pymatgen
data_Er2CrS4
_symmetry_space_group_name_H-M   'P 1'
_cell_length_a   7.44033800
_cell_length_b   12.47331700
_cell_length_c   12.51851400
_cell_angle_alpha   90.00000000
_cell_angle_beta   90.00000000
_cell_angle_gamma   90.00000000
_symmetry_Int_Tables_number   1
_chemical_formula_structural   Er2CrS4
_chemical_formula_sum   'Er16 Cr8 S32'
_cell_volume   1161.78938539
_cell_formula_units_Z   8
loop_
 _symmetry_equiv_pos_site_id
 _symmetry_equiv_pos_as_xyz
  1  'x, y, z'
loop_
 _atom_site_type_symbol
 _atom_site_label
 _atom_site_symmetry_multiplicity
 _atom_site_fract_x
 _atom_site_fract_y
 _atom_site_fract_z
 _atom_site_occupancy
  Er  Er0  1  0.38628700  0.89257800  0.38478300  1
  Er  Er1  1  0.61371300  0.10742200  0.88478300  1
  Er  Er2  1  0.61371300  0.39257800  0.38478300  1
  Er  Er3  1  0.38628700  0.60742200  0.88478300  1
  Er  Er4  1  0.11547900  0.12777700  0.24549700  1
  Er  Er5  1  0.88452100  0.87222300  0.74549700  1
  Er  Er6  1  0.88452100  0.62777700  0.24549700  1
  Er  Er7  1  0.11547900  0.37222300  0.74549700  1
  Er  Er8  1  0.86914300  0.36624400  0.07858500  1
  Er  Er9  1  0.13085700  0.63375600  0.57858500  1
  Er  Er10  1  0.13085700  0.86624400  0.07858500  1
  Er  Er11  1  0.86914300  0.13375600  0.57858500  1
  Er  Er12  1  0.36873700  0.36563000  0.08002100  1
  Er  Er13  1  0.63126300  0.63437000  0.58002100  1
  Er  Er14  1  0.63126300  0.86563000  0.08002100  1
  Er  Er15  1  0.36873700  0.13437000  0.58002100  1
  Cr  Cr16  1  0.61951200  0.12711300  0.24825500  1
  Cr  Cr17  1  0.38048800  0.87288700  0.74825500  1
  Cr  Cr18  1  0.38048800  0.62711300  0.24825500  1
  Cr  Cr19  1  0.61951200  0.37288700  0.74825500  1
  Cr  Cr20  1  0.88389300  0.88922600  0.37769200  1
  Cr  Cr21  1  0.11610700  0.11077400  0.87769200  1
  Cr  Cr22  1  0.11610700  0.38922600  0.37769200  1
  Cr  Cr23  1  0.88389300  0.61077400  0.87769200  1
  S  S24  1  0.61844600  0.20926800  0.07285500  1
  S  S25  1  0.38155400  0.79073200  0.57285500  1
  S  S26  1  0.38155400  0.70926800  0.07285500  1
  S  S27  1  0.61844600  0.29073200  0.57285500  1
  S  S28  1  0.87420700  0.97510600  0.20380000  1
  S  S29  1  0.12579300  0.02489400  0.70380000  1
  S  S30  1  0.12579300  0.47510600  0.20380000  1
  S  S31  1  0.87420700  0.52489400  0.70380000  1
  S  S32  1  0.36144400  0.27102100  0.29818800  1
  S  S33  1  0.63855600  0.72897900  0.79818800  1
  S  S34  1  0.63855600  0.77102100  0.29818800  1
  S  S35  1  0.36144400  0.22897900  0.79818800  1
  S  S36  1  0.85833000  0.26488000  0.29373100  1
  S  S37  1  0.14167000  0.73512000  0.79373100  1
  S  S38  1  0.14167000  0.76488000  0.29373100  1
  S  S39  1  0.85833000  0.23512000  0.79373100  1
  S  S40  1  0.38300600  0.99097400  0.19224800  1
  S  S41  1  0.61699400  0.00902600  0.69224800  1
  S  S42  1  0.61699400  0.49097400  0.19224800  1
  S  S43  1  0.38300600  0.50902600  0.69224800  1
  S  S44  1  0.62412800  0.45059000  0.93106700  1
  S  S45  1  0.37587200  0.54941000  0.43106700  1
  S  S46  1  0.37587200  0.95059000  0.93106700  1
  S  S47  1  0.62412800  0.04941000  0.43106700  1
  S  S48  1  0.11812700  0.28926700  0.54809600  1
  S  S49  1  0.88187300  0.71073300  0.04809600  1
  S  S50  1  0.88187300  0.78926700  0.54809600  1
  S  S51  1  0.11812700  0.21073300  0.04809600  1
  S  S52  1  0.11630800  0.47109500  0.94089100  1
  S  S53  1  0.88369200  0.52890500  0.44089100  1
  S  S54  1  0.88369200  0.97109500  0.94089100  1
  S  S55  1  0.11630800  0.02890500  0.44089100  1
