# generated using pymatgen
data_TlV3Cu5O13
_symmetry_space_group_name_H-M   'P 1'
_cell_length_a   6.20380200
_cell_length_b   8.32024643
_cell_length_c   10.92776772
_cell_angle_alpha   97.56220625
_cell_angle_beta   92.73746584
_cell_angle_gamma   90.68546568
_symmetry_Int_Tables_number   1
_chemical_formula_structural   TlV3Cu5O13
_chemical_formula_sum   'Tl2 V6 Cu10 O26'
_cell_volume   558.42153745
_cell_formula_units_Z   2
loop_
 _symmetry_equiv_pos_site_id
 _symmetry_equiv_pos_as_xyz
  1  'x, y, z'
loop_
 _atom_site_type_symbol
 _atom_site_label
 _atom_site_symmetry_multiplicity
 _atom_site_fract_x
 _atom_site_fract_y
 _atom_site_fract_z
 _atom_site_occupancy
  Tl  Tl0  1  0.75065600  0.47927500  0.59413600  1
  Tl  Tl1  1  0.24934400  0.52072500  0.40586400  1
  V  V2  1  0.25990500  0.17945300  0.12051500  1
  V  V3  1  0.74009500  0.82054700  0.87948500  1
  V  V4  1  0.76047700  0.87952800  0.50556500  1
  V  V5  1  0.23952300  0.12047200  0.49443500  1
  V  V6  1  0.74334600  0.52816400  0.20846000  1
  V  V7  1  0.25665400  0.47183600  0.79154000  1
  Cu  Cu8  1  0.25540000  0.80862000  0.64819900  1
  Cu  Cu9  1  0.74460000  0.19138000  0.35180100  1
  Cu  Cu10  1  0.50508800  0.10593500  0.77014300  1
  Cu  Cu11  1  0.26614500  0.85437500  0.94113100  1
  Cu  Cu12  1  0.00280900  0.10375900  0.77281900  1
  Cu  Cu13  1  0.99719100  0.89624100  0.22718100  1
  Cu  Cu14  1  0.77027200  0.39464700  0.89362200  1
  Cu  Cu15  1  0.22972800  0.60535300  0.10637800  1
  Cu  Cu16  1  0.73385500  0.14562500  0.05886900  1
  Cu  Cu17  1  0.49491200  0.89406500  0.22985700  1
  O  O18  1  0.54567700  0.75531600  0.51998000  1
  O  O19  1  0.45432300  0.24468400  0.48002000  1
  O  O20  1  0.00498900  0.22594500  0.46469100  1
  O  O21  1  0.99501100  0.77405500  0.53530900  1
  O  O22  1  0.02113000  0.11790200  0.18646800  1
  O  O23  1  0.97887000  0.88209800  0.81353200  1
  O  O24  1  0.72742700  0.91187500  0.03222100  1
  O  O25  1  0.27257300  0.08812500  0.96777900  1
  O  O26  1  0.74527600  0.04027800  0.61778600  1
  O  O27  1  0.25472400  0.95972200  0.38221400  1
  O  O28  1  0.76102200  0.61852000  0.88424800  1
  O  O29  1  0.23897800  0.38148000  0.11575200  1
  O  O30  1  0.76734800  0.15716000  0.88034400  1
  O  O31  1  0.23265200  0.84284000  0.11965600  1
  O  O32  1  0.73143400  0.38301400  0.07417500  1
  O  O33  1  0.26856600  0.61698600  0.92582500  1
  O  O34  1  0.47757900  0.34328700  0.78321700  1
  O  O35  1  0.52242100  0.65671300  0.21678300  1
  O  O36  1  0.75689200  0.94918200  0.34106000  1
  O  O37  1  0.24310800  0.05081800  0.65894000  1
  O  O38  1  0.25260100  0.57902300  0.66705400  1
  O  O39  1  0.74739900  0.42097700  0.33294600  1
  O  O40  1  0.51237900  0.13126400  0.20145500  1
  O  O41  1  0.02345000  0.34170600  0.78138700  1
  O  O42  1  0.48762100  0.86873600  0.79854500  1
  O  O43  1  0.97655000  0.65829400  0.21861300  1
