# generated using pymatgen
data_As2O3
_symmetry_space_group_name_H-M   'P 1'
_cell_length_a   8.26186109
_cell_length_b   8.26186109
_cell_length_c   8.26186109
_cell_angle_alpha   60.00000000
_cell_angle_beta   60.00000000
_cell_angle_gamma   60.00000000
_symmetry_Int_Tables_number   1
_chemical_formula_structural   As2O3
_chemical_formula_sum   'As8 O12'
_cell_volume   398.76650132
_cell_formula_units_Z   4
loop_
 _symmetry_equiv_pos_site_id
 _symmetry_equiv_pos_as_xyz
  1  'x, y, z'
loop_
 _atom_site_type_symbol
 _atom_site_label
 _atom_site_symmetry_multiplicity
 _atom_site_fract_x
 _atom_site_fract_y
 _atom_site_fract_z
 _atom_site_occupancy
  As  As0  1  0.34892900  0.34892900  0.34892900  1
  As  As1  1  0.29678800  0.90107100  0.90107100  1
  As  As2  1  0.90107100  0.90107100  0.29678800  1
  As  As3  1  0.90107100  0.29678800  0.90107100  1
  As  As4  1  0.34892900  0.34892900  0.95321200  1
  As  As5  1  0.34892900  0.95321200  0.34892900  1
  As  As6  1  0.95321200  0.34892900  0.34892900  1
  As  As7  1  0.90107100  0.90107100  0.90107100  1
  O  O8  1  0.41950700  0.08049300  0.41950700  1
  O  O9  1  0.16950700  0.83049300  0.16950700  1
  O  O10  1  0.41950700  0.41950700  0.08049300  1
  O  O11  1  0.08049300  0.41950700  0.41950700  1
  O  O12  1  0.41950700  0.08049300  0.08049300  1
  O  O13  1  0.08049300  0.08049300  0.41950700  1
  O  O14  1  0.83049300  0.83049300  0.16950700  1
  O  O15  1  0.16950700  0.16950700  0.83049300  1
  O  O16  1  0.08049300  0.41950700  0.08049300  1
  O  O17  1  0.83049300  0.16950700  0.16950700  1
  O  O18  1  0.16950700  0.83049300  0.83049300  1
  O  O19  1  0.83049300  0.16950700  0.83049300  1
