# generated using pymatgen
data_KEuGeS4
_symmetry_space_group_name_H-M   'P 1'
_cell_length_a   6.67436600
_cell_length_b   6.77724200
_cell_length_c   8.90593393
_cell_angle_alpha   72.27449403
_cell_angle_beta   90.00000000
_cell_angle_gamma   90.00000000
_symmetry_Int_Tables_number   1
_chemical_formula_structural   KEuGeS4
_chemical_formula_sum   'K2 Eu2 Ge2 S8'
_cell_volume   383.72433226
_cell_formula_units_Z   2
loop_
 _symmetry_equiv_pos_site_id
 _symmetry_equiv_pos_as_xyz
  1  'x, y, z'
loop_
 _atom_site_type_symbol
 _atom_site_label
 _atom_site_symmetry_multiplicity
 _atom_site_fract_x
 _atom_site_fract_y
 _atom_site_fract_z
 _atom_site_occupancy
  K  K0  1  0.51642500  0.23283300  0.56392400  1
  K  K1  1  0.01642500  0.76716700  0.43607600  1
  Eu  Eu2  1  0.54077400  0.26819400  0.05515200  1
  Eu  Eu3  1  0.04077400  0.73180600  0.94484800  1
  Ge  Ge4  1  0.49944400  0.72402300  0.17945900  1
  Ge  Ge5  1  0.99944400  0.27597700  0.82054100  1
  S  S6  1  0.94542300  0.07477900  0.06699400  1
  S  S7  1  0.44542300  0.92522100  0.93300600  1
  S  S8  1  0.49742600  0.91819700  0.33760400  1
  S  S9  1  0.99742600  0.08180300  0.66239600  1
  S  S10  1  0.27072900  0.47802600  0.79074100  1
  S  S11  1  0.77072900  0.52197400  0.20925900  1
  S  S12  1  0.76180000  0.52070300  0.77321700  1
  S  S13  1  0.26180000  0.47929700  0.22678300  1
