# generated using pymatgen
data_Tb4Mo4O11
_symmetry_space_group_name_H-M   'P 1'
_cell_length_a   5.74842700
_cell_length_b   10.85824100
_cell_length_c   16.09709900
_cell_angle_alpha   90.00000000
_cell_angle_beta   90.00000000
_cell_angle_gamma   90.00000000
_symmetry_Int_Tables_number   1
_chemical_formula_structural   Tb4Mo4O11
_chemical_formula_sum   'Tb16 Mo16 O44'
_cell_volume   1004.74559831
_cell_formula_units_Z   4
loop_
 _symmetry_equiv_pos_site_id
 _symmetry_equiv_pos_as_xyz
  1  'x, y, z'
loop_
 _atom_site_type_symbol
 _atom_site_label
 _atom_site_symmetry_multiplicity
 _atom_site_fract_x
 _atom_site_fract_y
 _atom_site_fract_z
 _atom_site_occupancy
  Tb  Tb0  1  0.00000000  0.61692500  0.57725500  1
  Tb  Tb1  1  0.00000000  0.38307500  0.42274500  1
  Tb  Tb2  1  0.00000000  0.11692500  0.92274500  1
  Tb  Tb3  1  0.00000000  0.88307500  0.07725500  1
  Tb  Tb4  1  0.00000000  0.40187500  0.73711600  1
  Tb  Tb5  1  0.00000000  0.59812500  0.26288400  1
  Tb  Tb6  1  0.00000000  0.90187500  0.76288400  1
  Tb  Tb7  1  0.00000000  0.09812500  0.23711600  1
  Tb  Tb8  1  0.50000000  0.42212300  0.59857300  1
  Tb  Tb9  1  0.50000000  0.57787700  0.40142700  1
  Tb  Tb10  1  0.50000000  0.92212300  0.90142700  1
  Tb  Tb11  1  0.50000000  0.07787700  0.09857300  1
  Tb  Tb12  1  0.50000000  0.18437900  0.77691300  1
  Tb  Tb13  1  0.50000000  0.81562100  0.22308700  1
  Tb  Tb14  1  0.50000000  0.68437900  0.72308700  1
  Tb  Tb15  1  0.50000000  0.31562100  0.27691300  1
  Mo  Mo16  1  0.00000000  0.91730900  0.55998600  1
  Mo  Mo17  1  0.00000000  0.08269100  0.44001400  1
  Mo  Mo18  1  0.00000000  0.41730900  0.94001400  1
  Mo  Mo19  1  0.00000000  0.58269100  0.05998600  1
  Mo  Mo20  1  0.50000000  0.90429800  0.57089700  1
  Mo  Mo21  1  0.50000000  0.09570200  0.42910300  1
  Mo  Mo22  1  0.50000000  0.40429800  0.92910300  1
  Mo  Mo23  1  0.50000000  0.59570200  0.07089700  1
  Mo  Mo24  1  0.27553000  0.86532200  0.41462300  1
  Mo  Mo25  1  0.27553000  0.13467800  0.58537700  1
  Mo  Mo26  1  0.72447000  0.36532200  0.08537700  1
  Mo  Mo27  1  0.72447000  0.63467800  0.91462300  1
  Mo  Mo28  1  0.72447000  0.13467800  0.58537700  1
  Mo  Mo29  1  0.72447000  0.86532200  0.41462300  1
  Mo  Mo30  1  0.27553000  0.63467800  0.91462300  1
  Mo  Mo31  1  0.27553000  0.36532200  0.08537700  1
  O  O32  1  0.24529300  0.00000000  0.00000000  1
  O  O33  1  0.75470700  0.50000000  0.50000000  1
  O  O34  1  0.75470700  0.00000000  0.00000000  1
  O  O35  1  0.24529300  0.50000000  0.50000000  1
  O  O36  1  0.00000000  0.22933100  0.52344700  1
  O  O37  1  0.00000000  0.77066900  0.47655300  1
  O  O38  1  0.00000000  0.72933100  0.97655300  1
  O  O39  1  0.00000000  0.27066900  0.02344700  1
  O  O40  1  0.00000000  0.04802300  0.65305700  1
  O  O41  1  0.00000000  0.95197700  0.34694300  1
  O  O42  1  0.00000000  0.54802300  0.84694300  1
  O  O43  1  0.00000000  0.45197700  0.15305700  1
  O  O44  1  0.50000000  0.24556000  0.51351400  1
  O  O45  1  0.50000000  0.75444000  0.48648600  1
  O  O46  1  0.50000000  0.74556000  0.98648600  1
  O  O47  1  0.50000000  0.25444000  0.01351400  1
  O  O48  1  0.50000000  0.04060600  0.66593700  1
  O  O49  1  0.50000000  0.95939400  0.33406300  1
  O  O50  1  0.76299100  0.31138600  0.86120100  1
  O  O51  1  0.50000000  0.54060600  0.83406300  1
  O  O52  1  0.24715200  0.96073100  0.17272200  1
  O  O53  1  0.24715200  0.03926900  0.82727800  1
  O  O54  1  0.75284800  0.46073100  0.32727800  1
  O  O55  1  0.75284800  0.53926900  0.67272200  1
  O  O56  1  0.75284800  0.03926900  0.82727800  1
  O  O57  1  0.75284800  0.96073100  0.17272200  1
  O  O58  1  0.24715200  0.53926900  0.67272200  1
  O  O59  1  0.24715200  0.46073100  0.32727800  1
  O  O60  1  0.23700900  0.68861400  0.13879900  1
  O  O61  1  0.23700900  0.31138600  0.86120100  1
  O  O62  1  0.76299100  0.18861400  0.36120100  1
  O  O63  1  0.76299100  0.81138600  0.63879900  1
  O  O64  1  0.26347600  0.22585200  0.17385800  1
  O  O65  1  0.26347600  0.77414800  0.82614200  1
  O  O66  1  0.73652400  0.72585200  0.32614200  1
  O  O67  1  0.73652400  0.27414800  0.67385800  1
  O  O68  1  0.73652400  0.77414800  0.82614200  1
  O  O69  1  0.73652400  0.22585200  0.17385800  1
  O  O70  1  0.26347600  0.27414800  0.67385800  1
  O  O71  1  0.26347600  0.72585200  0.32614200  1
  O  O72  1  0.23700900  0.18861400  0.36120100  1
  O  O73  1  0.23700900  0.81138600  0.63879900  1
  O  O74  1  0.76299100  0.68861400  0.13879900  1
  O  O75  1  0.50000000  0.45939400  0.16593700  1
