# generated using pymatgen
data_NaNi4(PO4)3
_symmetry_space_group_name_H-M   'P 1'
_cell_length_a   9.55469800
_cell_length_b   16.14137800
_cell_length_c   6.15599100
_cell_angle_alpha   90.00000000
_cell_angle_beta   90.00000000
_cell_angle_gamma   90.00000000
_symmetry_Int_Tables_number   1
_chemical_formula_structural   NaNi4(PO4)3
_chemical_formula_sum   'Na4 Ni16 P12 O48'
_cell_volume   949.41381930
_cell_formula_units_Z   4
loop_
 _symmetry_equiv_pos_site_id
 _symmetry_equiv_pos_as_xyz
  1  'x, y, z'
loop_
 _atom_site_type_symbol
 _atom_site_label
 _atom_site_symmetry_multiplicity
 _atom_site_fract_x
 _atom_site_fract_y
 _atom_site_fract_z
 _atom_site_occupancy
  Na  Na0  1  0.72106900  0.46493000  0.00000000  1
  Na  Na1  1  0.22106900  0.03507000  0.50000000  1
  Na  Na2  1  0.27893100  0.53507000  0.00000000  1
  Na  Na3  1  0.77893100  0.96493000  0.50000000  1
  Ni  Ni4  1  0.75227900  0.70353700  0.75011100  1
  Ni  Ni5  1  0.74772100  0.20353700  0.25011100  1
  Ni  Ni6  1  0.75227900  0.70353700  0.24988900  1
  Ni  Ni7  1  0.24772100  0.29646300  0.24988900  1
  Ni  Ni8  1  0.99355500  0.85851000  0.00000000  1
  Ni  Ni9  1  0.00644500  0.14149000  0.00000000  1
  Ni  Ni10  1  0.49355500  0.64149000  0.50000000  1
  Ni  Ni11  1  0.50644500  0.35851000  0.50000000  1
  Ni  Ni12  1  0.53457700  0.90711300  0.00000000  1
  Ni  Ni13  1  0.46542300  0.09288700  0.00000000  1
  Ni  Ni14  1  0.03457700  0.59288700  0.50000000  1
  Ni  Ni15  1  0.96542300  0.40711300  0.50000000  1
  Ni  Ni16  1  0.24772100  0.29646300  0.75011100  1
  Ni  Ni17  1  0.25227900  0.79646300  0.74988900  1
  Ni  Ni18  1  0.74772100  0.20353700  0.74988900  1
  Ni  Ni19  1  0.25227900  0.79646300  0.25011100  1
  P  P20  1  0.95562000  0.78246700  0.50000000  1
  P  P21  1  0.04438000  0.21753300  0.50000000  1
  P  P22  1  0.45562000  0.71753300  0.00000000  1
  P  P23  1  0.29333600  0.46507800  0.50000000  1
  P  P24  1  0.54331200  0.84005500  0.50000000  1
  P  P25  1  0.45668800  0.15994500  0.50000000  1
  P  P26  1  0.04331200  0.65994500  0.00000000  1
  P  P27  1  0.95668800  0.34005500  0.00000000  1
  P  P28  1  0.70666400  0.53492200  0.50000000  1
  P  P29  1  0.79333600  0.03492200  0.00000000  1
  P  P30  1  0.54438000  0.28246700  0.00000000  1
  P  P31  1  0.20666400  0.96507800  0.00000000  1
  O  O32  1  0.36716500  0.97986200  0.00000000  1
  O  O33  1  0.63283500  0.02013800  0.00000000  1
  O  O34  1  0.86716500  0.52013800  0.50000000  1
  O  O35  1  0.13283500  0.47986200  0.50000000  1
  O  O36  1  0.10627900  0.17971600  0.29053900  1
  O  O37  1  0.89372100  0.82028400  0.29053900  1
  O  O38  1  0.60627900  0.32028400  0.20946100  1
  O  O39  1  0.39372100  0.67971600  0.20946100  1
  O  O40  1  0.89372100  0.82028400  0.70946100  1
  O  O41  1  0.10627900  0.17971600  0.70946100  1
  O  O42  1  0.39372100  0.67971600  0.79053900  1
  O  O43  1  0.60627900  0.32028400  0.79053900  1
  O  O44  1  0.83912400  0.08850900  0.79713200  1
  O  O45  1  0.16087600  0.91149100  0.79713200  1
  O  O46  1  0.33912400  0.41149100  0.70286800  1
  O  O47  1  0.66087600  0.58850900  0.70286800  1
  O  O48  1  0.16087600  0.91149100  0.20286800  1
  O  O49  1  0.83912400  0.08850900  0.20286800  1
  O  O50  1  0.66087600  0.58850900  0.29713200  1
  O  O51  1  0.40617000  0.11278800  0.70022900  1
  O  O52  1  0.86314800  0.95144200  0.00000000  1
  O  O53  1  0.13685200  0.04855800  0.00000000  1
  O  O54  1  0.36314800  0.54855800  0.50000000  1
  O  O55  1  0.63685200  0.45144200  0.50000000  1
  O  O56  1  0.61456100  0.74867700  0.50000000  1
  O  O57  1  0.38543900  0.25132300  0.50000000  1
  O  O58  1  0.11456100  0.75132300  0.00000000  1
  O  O59  1  0.88543900  0.24867700  0.00000000  1
  O  O60  1  0.39393400  0.81017100  0.00000000  1
  O  O61  1  0.60606600  0.18982900  0.00000000  1
  O  O62  1  0.89393400  0.68982900  0.50000000  1
  O  O63  1  0.10606600  0.31017100  0.50000000  1
  O  O64  1  0.11927300  0.32940800  0.00000000  1
  O  O65  1  0.88072700  0.67059200  0.00000000  1
  O  O66  1  0.61927300  0.17059200  0.50000000  1
  O  O67  1  0.38072700  0.82940800  0.50000000  1
  O  O68  1  0.38278000  0.27627500  0.00000000  1
  O  O69  1  0.61722000  0.72372500  0.00000000  1
  O  O70  1  0.88278000  0.22372500  0.50000000  1
  O  O71  1  0.11722000  0.77627500  0.50000000  1
  O  O72  1  0.90617000  0.38721200  0.20022900  1
  O  O73  1  0.09383000  0.61278800  0.20022900  1
  O  O74  1  0.40617000  0.11278800  0.29977100  1
  O  O75  1  0.59383000  0.88721200  0.29977100  1
  O  O76  1  0.09383000  0.61278800  0.79977100  1
  O  O77  1  0.90617000  0.38721200  0.79977100  1
  O  O78  1  0.59383000  0.88721200  0.70022900  1
  O  O79  1  0.33912400  0.41149100  0.29713200  1
