# generated using pymatgen
data_Na2AlCoF7
_symmetry_space_group_name_H-M   'P 1'
_cell_length_a   7.24717814
_cell_length_b   7.24717814
_cell_length_c   24.36833139
_cell_angle_alpha   81.95452583
_cell_angle_beta   81.95452583
_cell_angle_gamma   60.47556985
_symmetry_Int_Tables_number   1
_chemical_formula_structural   Na2AlCoF7
_chemical_formula_sum   'Na16 Al8 Co8 F56'
_cell_volume   1098.95692994
_cell_formula_units_Z   8
loop_
 _symmetry_equiv_pos_site_id
 _symmetry_equiv_pos_as_xyz
  1  'x, y, z'
loop_
 _atom_site_type_symbol
 _atom_site_label
 _atom_site_symmetry_multiplicity
 _atom_site_fract_x
 _atom_site_fract_y
 _atom_site_fract_z
 _atom_site_occupancy
  Na  Na0  1  0.50000000  0.00000000  0.00000000  1
  Na  Na1  1  0.69973500  0.79628200  0.75155400  1
  Na  Na2  1  0.88123800  0.86556000  0.37804400  1
  Na  Na3  1  0.21073100  0.78926900  0.75000000  1
  Na  Na4  1  0.20371800  0.30026500  0.74844600  1
  Na  Na5  1  0.50000000  0.50000000  0.00000000  1
  Na  Na6  1  0.78926900  0.21073100  0.25000000  1
  Na  Na7  1  0.86556000  0.88123800  0.87804400  1
  Na  Na8  1  0.00000000  0.00000000  0.50000000  1
  Na  Na9  1  0.00000000  0.00000000  0.00000000  1
  Na  Na10  1  0.00000000  0.50000000  0.50000000  1
  Na  Na11  1  0.13444000  0.11876200  0.12195600  1
  Na  Na12  1  0.30026500  0.20371800  0.24844600  1
  Na  Na13  1  0.50000000  0.50000000  0.50000000  1
  Na  Na14  1  0.79628200  0.69973500  0.25155400  1
  Na  Na15  1  0.11876200  0.13444000  0.62195600  1
  Al  Al16  1  0.89198100  0.36115400  0.37432200  1
  Al  Al17  1  0.25206500  0.74793500  0.25000000  1
  Al  Al18  1  0.10801900  0.63884600  0.62567800  1
  Al  Al19  1  0.00000000  0.50000000  0.00000000  1
  Al  Al20  1  0.50000000  0.00000000  0.50000000  1
  Al  Al21  1  0.36115400  0.89198100  0.87432200  1
  Al  Al22  1  0.74793500  0.25206500  0.75000000  1
  Al  Al23  1  0.63884600  0.10801900  0.12567800  1
  Co  Co24  1  0.60962900  0.13731200  0.62591900  1
  Co  Co25  1  0.39037100  0.86268800  0.37408100  1
  Co  Co26  1  0.36653700  0.38913000  0.87237400  1
  Co  Co27  1  0.86268800  0.39037100  0.87408100  1
  Co  Co28  1  0.61087000  0.63346300  0.62762600  1
  Co  Co29  1  0.38913000  0.36653700  0.37237400  1
  Co  Co30  1  0.13731200  0.60962900  0.12591900  1
  Co  Co31  1  0.63346300  0.61087000  0.12762600  1
  F  F32  1  0.55091100  0.92417300  0.11178700  1
  F  F33  1  0.97468900  0.35407100  0.29905800  1
  F  F34  1  0.15052200  0.00517300  0.20982800  1
  F  F35  1  0.70506400  0.35491300  0.59410800  1
  F  F36  1  0.44908900  0.07582700  0.88821300  1
  F  F37  1  0.27697000  0.70533600  0.85990100  1
  F  F38  1  0.02531100  0.64592900  0.70094200  1
  F  F39  1  0.70533600  0.27697000  0.35990100  1
  F  F40  1  0.92356700  0.92158300  0.61104000  1
  F  F41  1  0.75975400  0.57594300  0.04668100  1
  F  F42  1  0.24024600  0.42405700  0.95331900  1
  F  F43  1  0.15100300  0.63694000  0.20690600  1
  F  F44  1  0.48596500  0.36198200  0.79055800  1
  F  F45  1  0.36306000  0.84899700  0.29309400  1
  F  F46  1  0.35407100  0.97468900  0.79905800  1
  F  F47  1  0.57471000  0.12901300  0.54486000  1
  F  F48  1  0.36578600  0.81290800  0.94985300  1
  F  F49  1  0.42529000  0.87098700  0.45514000  1
  F  F50  1  0.42405700  0.24024600  0.45331900  1
  F  F51  1  0.77980300  0.87509400  0.46897700  1
  F  F52  1  0.35575600  0.29492400  0.13994100  1
  F  F53  1  0.35491300  0.70506400  0.09410800  1
  F  F54  1  0.07841700  0.07643300  0.88896000  1
  F  F55  1  0.87509400  0.77980300  0.96897700  1
  F  F56  1  0.64592900  0.02531100  0.20094200  1
  F  F57  1  0.57594300  0.75975400  0.54668100  1
  F  F58  1  0.63694000  0.15100300  0.70690600  1
  F  F59  1  0.64508700  0.29493600  0.90589200  1
  F  F60  1  0.72303000  0.29466400  0.14009900  1
  F  F61  1  0.29492400  0.35575600  0.63994100  1
  F  F62  1  0.63421400  0.18709200  0.05014700  1
  F  F63  1  0.12901300  0.57471000  0.04486000  1
  F  F64  1  0.87098700  0.42529000  0.95514000  1
  F  F65  1  0.92158300  0.92356700  0.11104000  1
  F  F66  1  0.29466400  0.72303000  0.64009900  1
  F  F67  1  0.18709200  0.63421400  0.55014700  1
  F  F68  1  0.91753000  0.51639200  0.15845700  1
  F  F69  1  0.63801800  0.51403500  0.70944200  1
  F  F70  1  0.00517300  0.15052200  0.70982800  1
  F  F71  1  0.48360800  0.08247000  0.34154300  1
  F  F72  1  0.84899700  0.36306000  0.79309400  1
  F  F73  1  0.36198200  0.48596500  0.29055800  1
  F  F74  1  0.92417300  0.55091100  0.61178700  1
  F  F75  1  0.51403500  0.63801800  0.20944200  1
  F  F76  1  0.81290800  0.36578600  0.44985300  1
  F  F77  1  0.99482700  0.84947800  0.29017200  1
  F  F78  1  0.64424400  0.70507600  0.86005900  1
  F  F79  1  0.22019700  0.12490600  0.53102300  1
  F  F80  1  0.29493600  0.64508700  0.40589200  1
  F  F81  1  0.84947800  0.99482700  0.79017200  1
  F  F82  1  0.08247000  0.48360800  0.84154300  1
  F  F83  1  0.12490600  0.22019700  0.03102300  1
  F  F84  1  0.07582700  0.44908900  0.38821300  1
  F  F85  1  0.51639200  0.91753000  0.65845700  1
  F  F86  1  0.07643300  0.07841700  0.38896000  1
  F  F87  1  0.70507600  0.64424400  0.36005900  1
