# generated using pymatgen
data_SmAl4
_symmetry_space_group_name_H-M   'P 1'
_cell_length_a   7.91010157
_cell_length_b   7.91010157
_cell_length_c   7.91010157
_cell_angle_alpha   147.11566005
_cell_angle_beta   132.34740125
_cell_angle_gamma   59.10993354
_symmetry_Int_Tables_number   1
_chemical_formula_structural   SmAl4
_chemical_formula_sum   'Sm2 Al8'
_cell_volume   196.91109037
_cell_formula_units_Z   2
loop_
 _symmetry_equiv_pos_site_id
 _symmetry_equiv_pos_as_xyz
  1  'x, y, z'
loop_
 _atom_site_type_symbol
 _atom_site_label
 _atom_site_symmetry_multiplicity
 _atom_site_fract_x
 _atom_site_fract_y
 _atom_site_fract_z
 _atom_site_occupancy
  Sm  Sm0  1  0.13623500  0.88623500  0.25000000  1
  Sm  Sm1  1  0.86376500  0.11376500  0.75000000  1
  Al  Al2  1  0.50000000  0.50000000  0.00000000  1
  Al  Al3  1  0.00000000  0.50000000  0.50000000  1
  Al  Al4  1  0.36313900  0.11313900  0.25000000  1
  Al  Al5  1  0.63686100  0.88686100  0.75000000  1
  Al  Al6  1  0.65918900  0.69822000  0.96096900  1
  Al  Al7  1  0.34081100  0.30178000  0.03903100  1
  Al  Al8  1  0.76274900  0.30178000  0.46096900  1
  Al  Al9  1  0.23725100  0.69822000  0.53903100  1
