# generated using pymatgen
data_AsRh
_symmetry_space_group_name_H-M   'P 1'
_cell_length_a   3.64253100
_cell_length_b   5.72422800
_cell_length_c   6.15977400
_cell_angle_alpha   90.00000000
_cell_angle_beta   90.00000000
_cell_angle_gamma   90.00000000
_symmetry_Int_Tables_number   1
_chemical_formula_structural   AsRh
_chemical_formula_sum   'As4 Rh4'
_cell_volume   128.43546386
_cell_formula_units_Z   4
loop_
 _symmetry_equiv_pos_site_id
 _symmetry_equiv_pos_as_xyz
  1  'x, y, z'
loop_
 _atom_site_type_symbol
 _atom_site_label
 _atom_site_symmetry_multiplicity
 _atom_site_fract_x
 _atom_site_fract_y
 _atom_site_fract_z
 _atom_site_occupancy
  As  As0  1  0.25000000  0.69534700  0.08514600  1
  As  As1  1  0.75000000  0.30465300  0.91485400  1
  As  As2  1  0.25000000  0.19534700  0.41485400  1
  As  As3  1  0.75000000  0.80465300  0.58514600  1
  Rh  Rh4  1  0.25000000  0.50292700  0.69438200  1
  Rh  Rh5  1  0.75000000  0.49707300  0.30561800  1
  Rh  Rh6  1  0.25000000  0.00292700  0.80561800  1
  Rh  Rh7  1  0.75000000  0.99707300  0.19438200  1
