# generated using pymatgen
data_CePO4
_symmetry_space_group_name_H-M   'P 1'
_cell_length_a   7.15441200
_cell_length_b   6.40537400
_cell_length_c   8.83061223
_cell_angle_alpha   51.35949722
_cell_angle_beta   90.00000000
_cell_angle_gamma   90.00000000
_symmetry_Int_Tables_number   1
_chemical_formula_structural   CePO4
_chemical_formula_sum   'Ce4 P4 O16'
_cell_volume   316.08534104
_cell_formula_units_Z   4
loop_
 _symmetry_equiv_pos_site_id
 _symmetry_equiv_pos_as_xyz
  1  'x, y, z'
loop_
 _atom_site_type_symbol
 _atom_site_label
 _atom_site_symmetry_multiplicity
 _atom_site_fract_x
 _atom_site_fract_y
 _atom_site_fract_z
 _atom_site_occupancy
  Ce  Ce0  1  0.30296700  0.65362900  0.74140300  1
  Ce  Ce1  1  0.80296700  0.34637100  0.75859700  1
  Ce  Ce2  1  0.69703300  0.34637100  0.25859700  1
  Ce  Ce3  1  0.19703300  0.65362900  0.24140300  1
  P  P4  1  0.30151400  0.17082700  0.71997800  1
  P  P5  1  0.80151400  0.82917300  0.78002200  1
  P  P6  1  0.69848600  0.82917300  0.28002200  1
  P  P7  1  0.19848600  0.17082700  0.21997800  1
  O  O8  1  0.33827100  0.16862700  0.54809500  1
  O  O9  1  0.83827100  0.83137300  0.95190500  1
  O  O10  1  0.66172900  0.83137300  0.45190500  1
  O  O11  1  0.16172900  0.16862700  0.04809500  1
  O  O12  1  0.26676100  0.87686200  0.89937200  1
  O  O13  1  0.76676100  0.12313800  0.60062800  1
  O  O14  1  0.73323900  0.12313800  0.10062800  1
  O  O15  1  0.23323900  0.87686200  0.39937200  1
  O  O16  1  0.03425900  0.29813100  0.25340100  1
  O  O17  1  0.53425900  0.70186900  0.24659900  1
  O  O18  1  0.96574100  0.70186900  0.74659900  1
  O  O19  1  0.46574100  0.29813100  0.75340100  1
  O  O20  1  0.36928000  0.35629000  0.16757000  1
  O  O21  1  0.86928000  0.64371000  0.33243000  1
  O  O22  1  0.63072000  0.64371000  0.83243000  1
  O  O23  1  0.13072000  0.35629000  0.66757000  1
