# generated using pymatgen
data_Er5Mg24
_symmetry_space_group_name_H-M   'P 1'
_cell_length_a   9.72550685
_cell_length_b   9.72550685
_cell_length_c   9.72550685
_cell_angle_alpha   109.47122063
_cell_angle_beta   109.47122063
_cell_angle_gamma   109.47122063
_symmetry_Int_Tables_number   1
_chemical_formula_structural   Er5Mg24
_chemical_formula_sum   'Er5 Mg24'
_cell_volume   708.13301367
_cell_formula_units_Z   1
loop_
 _symmetry_equiv_pos_site_id
 _symmetry_equiv_pos_as_xyz
  1  'x, y, z'
loop_
 _atom_site_type_symbol
 _atom_site_label
 _atom_site_symmetry_multiplicity
 _atom_site_fract_x
 _atom_site_fract_y
 _atom_site_fract_z
 _atom_site_occupancy
  Er  Er0  1  0.00000000  0.37292500  0.00000000  1
  Er  Er1  1  0.37292500  0.00000000  0.00000000  1
  Er  Er2  1  0.00000000  0.00000000  0.37292500  1
  Er  Er3  1  0.62707500  0.62707500  0.62707500  1
  Er  Er4  1  0.00000000  0.00000000  0.00000000  1
  Mg  Mg5  1  0.19064700  0.81958000  0.19064700  1
  Mg  Mg6  1  0.18042000  0.37106700  0.37106700  1
  Mg  Mg7  1  0.37106700  0.37106700  0.18042000  1
  Mg  Mg8  1  0.62893300  0.80935300  0.00000000  1
  Mg  Mg9  1  0.00000000  0.80935300  0.62893300  1
  Mg  Mg10  1  0.38936700  0.71263000  0.38936700  1
  Mg  Mg11  1  0.32326300  0.00000000  0.61063300  1
  Mg  Mg12  1  0.61063300  0.00000000  0.32326300  1
  Mg  Mg13  1  0.32326300  0.61063300  0.00000000  1
  Mg  Mg14  1  0.67673700  0.67673700  0.28737000  1
  Mg  Mg15  1  0.28737000  0.67673700  0.67673700  1
  Mg  Mg16  1  0.00000000  0.61063300  0.32326300  1
  Mg  Mg17  1  0.00000000  0.32326300  0.61063300  1
  Mg  Mg18  1  0.61063300  0.32326300  0.00000000  1
  Mg  Mg19  1  0.38936700  0.38936700  0.71263000  1
  Mg  Mg20  1  0.71263000  0.38936700  0.38936700  1
  Mg  Mg21  1  0.67673700  0.28737000  0.67673700  1
  Mg  Mg22  1  0.37106700  0.18042000  0.37106700  1
  Mg  Mg23  1  0.80935300  0.00000000  0.62893300  1
  Mg  Mg24  1  0.62893300  0.00000000  0.80935300  1
  Mg  Mg25  1  0.80935300  0.62893300  0.00000000  1
  Mg  Mg26  1  0.19064700  0.19064700  0.81958000  1
  Mg  Mg27  1  0.81958000  0.19064700  0.19064700  1
  Mg  Mg28  1  0.00000000  0.62893300  0.80935300  1
