# generated using pymatgen
data_In6TeO12
_symmetry_space_group_name_H-M   'P 1'
_cell_length_a   6.32853568
_cell_length_b   6.32853568
_cell_length_c   6.32853541
_cell_angle_alpha   98.72077404
_cell_angle_beta   98.72077404
_cell_angle_gamma   98.72077373
_symmetry_Int_Tables_number   1
_chemical_formula_structural   In6TeO12
_chemical_formula_sum   'In6 Te1 O12'
_cell_volume   243.64678103
_cell_formula_units_Z   1
loop_
 _symmetry_equiv_pos_site_id
 _symmetry_equiv_pos_as_xyz
  1  'x, y, z'
loop_
 _atom_site_type_symbol
 _atom_site_label
 _atom_site_symmetry_multiplicity
 _atom_site_fract_x
 _atom_site_fract_y
 _atom_site_fract_z
 _atom_site_occupancy
  In  In0  1  0.85957100  0.39308500  0.68110300  1
  In  In1  1  0.14042900  0.60691500  0.31889700  1
  In  In2  1  0.60691500  0.31889700  0.14042900  1
  In  In3  1  0.39308500  0.68110300  0.85957100  1
  In  In4  1  0.68110300  0.85957100  0.39308500  1
  In  In5  1  0.31889700  0.14042900  0.60691500  1
  Te  Te6  1  0.00000000  0.00000000  0.00000000  1
  O  O7  1  0.30064200  0.08624800  0.95933000  1
  O  O8  1  0.04067000  0.69935800  0.91375200  1
  O  O9  1  0.08624800  0.95933000  0.30064200  1
  O  O10  1  0.82426800  0.58109600  0.40453100  1
  O  O11  1  0.59546900  0.17573200  0.41890400  1
  O  O12  1  0.58109600  0.40453100  0.82426800  1
  O  O13  1  0.40453100  0.82426800  0.58109600  1
  O  O14  1  0.95933000  0.30064200  0.08624800  1
  O  O15  1  0.91375200  0.04067000  0.69935800  1
  O  O16  1  0.41890400  0.59546900  0.17573200  1
  O  O17  1  0.69935800  0.91375200  0.04067000  1
  O  O18  1  0.17573200  0.41890400  0.59546900  1
