# generated using pymatgen
data_MnSeO3
_symmetry_space_group_name_H-M   'P 1'
_cell_length_a   5.20806400
_cell_length_b   6.18738900
_cell_length_c   8.01677100
_cell_angle_alpha   90.00000000
_cell_angle_beta   89.99993841
_cell_angle_gamma   90.00000000
_symmetry_Int_Tables_number   1
_chemical_formula_structural   MnSeO3
_chemical_formula_sum   'Mn4 Se4 O12'
_cell_volume   258.33497727
_cell_formula_units_Z   4
loop_
 _symmetry_equiv_pos_site_id
 _symmetry_equiv_pos_as_xyz
  1  'x, y, z'
loop_
 _atom_site_type_symbol
 _atom_site_label
 _atom_site_symmetry_multiplicity
 _atom_site_fract_x
 _atom_site_fract_y
 _atom_site_fract_z
 _atom_site_occupancy
  Mn  Mn0  1  0.00000000  0.50000000  0.00000000  1
  Mn  Mn1  1  0.50000000  0.00000000  0.50000000  1
  Mn  Mn2  1  0.50000000  0.00000100  0.00000000  1
  Mn  Mn3  1  0.00000000  0.50000200  0.50000000  1
  Se  Se4  1  0.98250000  0.02679600  0.25000000  1
  Se  Se5  1  0.48250000  0.47320400  0.75000000  1
  Se  Se6  1  0.51750000  0.52679600  0.25000000  1
  Se  Se7  1  0.01750000  0.97320300  0.75000000  1
  O  O8  1  0.31173800  0.07799900  0.24999700  1
  O  O9  1  0.81173800  0.42200000  0.74999700  1
  O  O10  1  0.18826200  0.57799900  0.25000300  1
  O  O11  1  0.68826200  0.92200000  0.75000300  1
  O  O12  1  0.86527100  0.18125600  0.41700000  1
  O  O13  1  0.36526300  0.31875100  0.58300000  1
  O  O14  1  0.63472900  0.68125700  0.08300000  1
  O  O15  1  0.13473700  0.81875100  0.91700000  1
  O  O16  1  0.13472900  0.81874300  0.58300000  1
  O  O17  1  0.63473700  0.68124900  0.41700000  1
  O  O18  1  0.36527100  0.31874300  0.91700000  1
  O  O19  1  0.86526300  0.18124900  0.08300000  1
