# generated using pymatgen
data_V5(PbO6)2
_symmetry_space_group_name_H-M   'P 1'
_cell_length_a   5.38299400
_cell_length_b   8.37877000
_cell_length_c   11.92502377
_cell_angle_alpha   81.27417903
_cell_angle_beta   90.00000000
_cell_angle_gamma   90.00000000
_symmetry_Int_Tables_number   1
_chemical_formula_structural   V5(PbO6)2
_chemical_formula_sum   'V10 Pb4 O24'
_cell_volume   531.62746753
_cell_formula_units_Z   2
loop_
 _symmetry_equiv_pos_site_id
 _symmetry_equiv_pos_as_xyz
  1  'x, y, z'
loop_
 _atom_site_type_symbol
 _atom_site_label
 _atom_site_symmetry_multiplicity
 _atom_site_fract_x
 _atom_site_fract_y
 _atom_site_fract_z
 _atom_site_occupancy
  V  V0  1  0.11963200  0.84607000  0.97579200  1
  V  V1  1  0.11963200  0.15393000  0.52420800  1
  V  V2  1  0.88036800  0.15393000  0.02420800  1
  V  V3  1  0.88036800  0.84607000  0.47579200  1
  V  V4  1  0.89460300  0.56383800  0.88179100  1
  V  V5  1  0.89460300  0.43616200  0.61820900  1
  V  V6  1  0.10539700  0.43616200  0.11820900  1
  V  V7  1  0.10539700  0.56383800  0.38179100  1
  V  V8  1  0.89234800  0.00000000  0.75000000  1
  V  V9  1  0.10765200  0.00000000  0.25000000  1
  Pb  Pb10  1  0.64662900  0.72071900  0.17747900  1
  Pb  Pb11  1  0.64662900  0.27928100  0.32252100  1
  Pb  Pb12  1  0.35337100  0.27928100  0.82252100  1
  Pb  Pb13  1  0.35337100  0.72071900  0.67747900  1
  O  O14  1  0.58690400  0.00000000  0.75000000  1
  O  O15  1  0.41309600  0.00000000  0.25000000  1
  O  O16  1  0.93909600  0.50000000  0.25000000  1
  O  O17  1  0.06090400  0.50000000  0.75000000  1
  O  O18  1  0.97689900  0.93936900  0.10549500  1
  O  O19  1  0.97689900  0.06063100  0.39450500  1
  O  O20  1  0.02310100  0.06063100  0.89450500  1
  O  O21  1  0.02310100  0.93936900  0.60549500  1
  O  O22  1  0.40865600  0.45391300  0.13708200  1
  O  O23  1  0.40865600  0.54608700  0.36291800  1
  O  O24  1  0.59134400  0.54608700  0.86291800  1
  O  O25  1  0.59134400  0.45391300  0.63708200  1
  O  O26  1  0.98852300  0.78749400  0.33003300  1
  O  O27  1  0.98852300  0.21250600  0.16996700  1
  O  O28  1  0.57828300  0.82663100  0.49245900  1
  O  O29  1  0.57828300  0.17336900  0.00754100  1
  O  O30  1  0.42171700  0.17336900  0.50754100  1
  O  O31  1  0.42171700  0.82663100  0.99245900  1
  O  O32  1  0.03587300  0.63518500  0.53034300  1
  O  O33  1  0.03587300  0.36481500  0.96965700  1
  O  O34  1  0.96412700  0.36481500  0.46965700  1
  O  O35  1  0.96412700  0.63518500  0.03034300  1
  O  O36  1  0.01147700  0.78749400  0.83003300  1
  O  O37  1  0.01147700  0.21250600  0.66996700  1
