# generated using pymatgen
data_Y3(Co2Sn)4
_symmetry_space_group_name_H-M   'P 1'
_cell_length_a   8.92467365
_cell_length_b   8.92467365
_cell_length_c   7.44837200
_cell_angle_alpha   90.00000000
_cell_angle_beta   90.00000000
_cell_angle_gamma   119.99999740
_symmetry_Int_Tables_number   1
_chemical_formula_structural   Y3(Co2Sn)4
_chemical_formula_sum   'Y6 Co16 Sn8'
_cell_volume   513.77940349
_cell_formula_units_Z   2
loop_
 _symmetry_equiv_pos_site_id
 _symmetry_equiv_pos_as_xyz
  1  'x, y, z'
loop_
 _atom_site_type_symbol
 _atom_site_label
 _atom_site_symmetry_multiplicity
 _atom_site_fract_x
 _atom_site_fract_y
 _atom_site_fract_z
 _atom_site_occupancy
  Y  Y0  1  0.52874400  0.47125600  0.00038000  1
  Y  Y1  1  0.47125600  0.52874400  0.50038000  1
  Y  Y2  1  0.94251200  0.47125600  0.00038000  1
  Y  Y3  1  0.52874400  0.05748800  0.00038000  1
  Y  Y4  1  0.47125600  0.94251200  0.50038000  1
  Y  Y5  1  0.05748800  0.52874400  0.50038000  1
  Co  Co6  1  0.09743200  0.19486300  0.47602000  1
  Co  Co7  1  0.00000000  0.00000000  0.22149600  1
  Co  Co8  1  0.00000000  0.00000000  0.72149600  1
  Co  Co9  1  0.66666700  0.33333300  0.29524400  1
  Co  Co10  1  0.33333300  0.66666700  0.79524400  1
  Co  Co11  1  0.90256800  0.09743200  0.97602000  1
  Co  Co12  1  0.15880700  0.84119300  0.16928500  1
  Co  Co13  1  0.31761500  0.15880700  0.66928500  1
  Co  Co14  1  0.84119300  0.68238500  0.66928500  1
  Co  Co15  1  0.15880700  0.31761500  0.16928500  1
  Co  Co16  1  0.68238500  0.84119300  0.16928500  1
  Co  Co17  1  0.84119300  0.15880700  0.66928500  1
  Co  Co18  1  0.09743200  0.90256800  0.47602000  1
  Co  Co19  1  0.19486300  0.09743200  0.97602000  1
  Co  Co20  1  0.90256800  0.80513700  0.97602000  1
  Co  Co21  1  0.80513700  0.90256800  0.47602000  1
  Sn  Sn22  1  0.17144700  0.82855300  0.79562900  1
  Sn  Sn23  1  0.34289300  0.17144700  0.29562900  1
  Sn  Sn24  1  0.82855300  0.65710700  0.29562900  1
  Sn  Sn25  1  0.17144700  0.34289300  0.79562900  1
  Sn  Sn26  1  0.65710700  0.82855300  0.79562900  1
  Sn  Sn27  1  0.82855300  0.17144700  0.29562900  1
  Sn  Sn28  1  0.33333300  0.66666700  0.16861900  1
  Sn  Sn29  1  0.66666700  0.33333300  0.66861900  1
