# generated using pymatgen
data_Mn3Sn
_symmetry_space_group_name_H-M   'P 1'
_cell_length_a   5.59107030
_cell_length_b   5.59107030
_cell_length_c   4.50261700
_cell_angle_alpha   90.00000000
_cell_angle_beta   90.00000000
_cell_angle_gamma   120.00000354
_symmetry_Int_Tables_number   1
_chemical_formula_structural   Mn3Sn
_chemical_formula_sum   'Mn6 Sn2'
_cell_volume   121.89489812
_cell_formula_units_Z   2
loop_
 _symmetry_equiv_pos_site_id
 _symmetry_equiv_pos_as_xyz
  1  'x, y, z'
loop_
 _atom_site_type_symbol
 _atom_site_label
 _atom_site_symmetry_multiplicity
 _atom_site_fract_x
 _atom_site_fract_y
 _atom_site_fract_z
 _atom_site_occupancy
  Mn  Mn0  1  0.16193400  0.83806600  0.25000000  1
  Mn  Mn1  1  0.16193400  0.32386800  0.25000000  1
  Mn  Mn2  1  0.67613200  0.83806600  0.25000000  1
  Mn  Mn3  1  0.83806600  0.16193400  0.75000000  1
  Mn  Mn4  1  0.83806600  0.67613200  0.75000000  1
  Mn  Mn5  1  0.32386800  0.16193400  0.75000000  1
  Sn  Sn6  1  0.33333300  0.66666700  0.75000000  1
  Sn  Sn7  1  0.66666700  0.33333300  0.25000000  1
