# generated using pymatgen
data_NaO3
_symmetry_space_group_name_H-M   'P 1'
_cell_length_a   4.31656199
_cell_length_b   4.31656199
_cell_length_c   4.31656199
_cell_angle_alpha   130.12205370
_cell_angle_beta   103.05039856
_cell_angle_gamma   97.45652989
_symmetry_Int_Tables_number   1
_chemical_formula_structural   NaO3
_chemical_formula_sum   'Na1 O3'
_cell_volume   55.67230344
_cell_formula_units_Z   1
loop_
 _symmetry_equiv_pos_site_id
 _symmetry_equiv_pos_as_xyz
  1  'x, y, z'
loop_
 _atom_site_type_symbol
 _atom_site_label
 _atom_site_symmetry_multiplicity
 _atom_site_fract_x
 _atom_site_fract_y
 _atom_site_fract_z
 _atom_site_occupancy
  Na  Na0  1  0.48255300  0.48255300  0.00000000  1
  O  O1  1  0.87965400  0.09148200  0.78817200  1
  O  O2  1  0.95888300  0.95888300  0.00000000  1
  O  O3  1  0.30331000  0.09148200  0.21182800  1
