# generated using pymatgen
data_ErZn5
_symmetry_space_group_name_H-M   'P 1'
_cell_length_a   8.87613664
_cell_length_b   8.87613664
_cell_length_c   9.03351900
_cell_angle_alpha   90.00000000
_cell_angle_beta   90.00000000
_cell_angle_gamma   120.00000475
_symmetry_Int_Tables_number   1
_chemical_formula_structural   ErZn5
_chemical_formula_sum   'Er6 Zn30'
_cell_volume   616.36153969
_cell_formula_units_Z   6
loop_
 _symmetry_equiv_pos_site_id
 _symmetry_equiv_pos_as_xyz
  1  'x, y, z'
loop_
 _atom_site_type_symbol
 _atom_site_label
 _atom_site_symmetry_multiplicity
 _atom_site_fract_x
 _atom_site_fract_y
 _atom_site_fract_z
 _atom_site_occupancy
  Er  Er0  1  0.18944800  0.37889600  0.25000000  1
  Er  Er1  1  0.81055200  0.18944800  0.75000000  1
  Er  Er2  1  0.37889600  0.18944800  0.75000000  1
  Er  Er3  1  0.62110400  0.81055200  0.25000000  1
  Er  Er4  1  0.18944800  0.81055200  0.25000000  1
  Er  Er5  1  0.81055200  0.62110400  0.75000000  1
  Zn  Zn6  1  0.00000000  0.00000000  0.00000000  1
  Zn  Zn7  1  0.00000000  0.00000000  0.50000000  1
  Zn  Zn8  1  0.33333300  0.66666700  0.01929500  1
  Zn  Zn9  1  0.66666700  0.33333300  0.51929500  1
  Zn  Zn10  1  0.66666700  0.33333300  0.98070500  1
  Zn  Zn11  1  0.33333300  0.66666700  0.48070500  1
  Zn  Zn12  1  0.50000000  0.00000000  0.00000000  1
  Zn  Zn13  1  0.50000000  0.50000000  0.50000000  1
  Zn  Zn14  1  0.00000000  0.50000000  0.50000000  1
  Zn  Zn15  1  0.00000000  0.50000000  0.00000000  1
  Zn  Zn16  1  0.50000000  0.50000000  0.00000000  1
  Zn  Zn17  1  0.50000000  0.00000000  0.50000000  1
  Zn  Zn18  1  0.56771600  0.13543100  0.25000000  1
  Zn  Zn19  1  0.43228400  0.56771600  0.75000000  1
  Zn  Zn20  1  0.13543100  0.56771600  0.75000000  1
  Zn  Zn21  1  0.86456900  0.43228400  0.25000000  1
  Zn  Zn22  1  0.56771600  0.43228400  0.25000000  1
  Zn  Zn23  1  0.43228400  0.86456900  0.75000000  1
  Zn  Zn24  1  0.83954700  0.67909400  0.09282500  1
  Zn  Zn25  1  0.16045300  0.83954700  0.59282500  1
  Zn  Zn26  1  0.67909400  0.83954700  0.59282500  1
  Zn  Zn27  1  0.32090600  0.16045300  0.09282500  1
  Zn  Zn28  1  0.83954700  0.16045300  0.09282500  1
  Zn  Zn29  1  0.16045300  0.32090600  0.90717500  1
  Zn  Zn30  1  0.16045300  0.83954700  0.90717500  1
  Zn  Zn31  1  0.16045300  0.32090600  0.59282500  1
  Zn  Zn32  1  0.67909400  0.83954700  0.90717500  1
  Zn  Zn33  1  0.32090600  0.16045300  0.40717500  1
  Zn  Zn34  1  0.83954700  0.67909400  0.40717500  1
  Zn  Zn35  1  0.83954700  0.16045300  0.40717500  1
