# generated using pymatgen
data_EuSnF7
_symmetry_space_group_name_H-M   'P 1'
_cell_length_a   5.82896700
_cell_length_b   6.17323000
_cell_length_c   8.37916022
_cell_angle_alpha   77.33409532
_cell_angle_beta   90.00000000
_cell_angle_gamma   90.00000000
_symmetry_Int_Tables_number   1
_chemical_formula_structural   EuSnF7
_chemical_formula_sum   'Eu2 Sn2 F14'
_cell_volume   294.17472938
_cell_formula_units_Z   2
loop_
 _symmetry_equiv_pos_site_id
 _symmetry_equiv_pos_as_xyz
  1  'x, y, z'
loop_
 _atom_site_type_symbol
 _atom_site_label
 _atom_site_symmetry_multiplicity
 _atom_site_fract_x
 _atom_site_fract_y
 _atom_site_fract_z
 _atom_site_occupancy
  Eu  Eu0  1  0.74945200  0.15763000  0.81350900  1
  Eu  Eu1  1  0.24945200  0.84237000  0.18649100  1
  Sn  Sn2  1  0.26193400  0.68682500  0.72473300  1
  Sn  Sn3  1  0.76193400  0.31317500  0.27526700  1
  F  F4  1  0.50121200  0.45273600  0.72797800  1
  F  F5  1  0.93383100  0.94405600  0.02530500  1
  F  F6  1  0.02743900  0.44385400  0.74343200  1
  F  F7  1  0.43383100  0.05594400  0.97469500  1
  F  F8  1  0.75285800  0.26271200  0.51758500  1
  F  F9  1  0.53196800  0.06998100  0.28684600  1
  F  F10  1  0.52695300  0.89904200  0.71003700  1
  F  F11  1  0.00121200  0.54726400  0.27202200  1
  F  F12  1  0.02695300  0.10095800  0.28996300  1
  F  F13  1  0.26855200  0.63523400  0.96872400  1
  F  F14  1  0.25285800  0.73728800  0.48241500  1
  F  F15  1  0.03196800  0.93001900  0.71315400  1
  F  F16  1  0.52743900  0.55614600  0.25656800  1
  F  F17  1  0.76855200  0.36476600  0.03127600  1
