# generated using pymatgen
data_FeGe
_symmetry_space_group_name_H-M   'P 1'
_cell_length_a   6.25356262
_cell_length_b   6.25356262
_cell_length_c   4.89168878
_cell_angle_alpha   76.69767499
_cell_angle_beta   76.69767499
_cell_angle_gamma   36.55349928
_symmetry_Int_Tables_number   1
_chemical_formula_structural   FeGe
_chemical_formula_sum   'Fe4 Ge4'
_cell_volume   110.53741862
_cell_formula_units_Z   4
loop_
 _symmetry_equiv_pos_site_id
 _symmetry_equiv_pos_as_xyz
  1  'x, y, z'
loop_
 _atom_site_type_symbol
 _atom_site_label
 _atom_site_symmetry_multiplicity
 _atom_site_fract_x
 _atom_site_fract_y
 _atom_site_fract_z
 _atom_site_occupancy
  Fe  Fe0  1  0.00000000  0.00000000  0.00000000  1
  Fe  Fe1  1  0.00000000  0.00000000  0.50000000  1
  Fe  Fe2  1  0.79496300  0.79496300  0.36004500  1
  Fe  Fe3  1  0.20503700  0.20503700  0.63995500  1
  Ge  Ge4  1  0.18411700  0.18411700  0.15636600  1
  Ge  Ge5  1  0.81588300  0.81588300  0.84363400  1
  Ge  Ge6  1  0.43021300  0.43021300  0.29990200  1
  Ge  Ge7  1  0.56978700  0.56978700  0.70009800  1
