# generated using pymatgen
data_Ba5Co5O14
_symmetry_space_group_name_H-M   'P 1'
_cell_length_a   5.72978133
_cell_length_b   5.72978133
_cell_length_c   11.95749300
_cell_angle_alpha   90.00000000
_cell_angle_beta   90.00000000
_cell_angle_gamma   119.99999230
_symmetry_Int_Tables_number   1
_chemical_formula_structural   Ba5Co5O14
_chemical_formula_sum   'Ba5 Co5 O14'
_cell_volume   339.97493319
_cell_formula_units_Z   1
loop_
 _symmetry_equiv_pos_site_id
 _symmetry_equiv_pos_as_xyz
  1  'x, y, z'
loop_
 _atom_site_type_symbol
 _atom_site_label
 _atom_site_symmetry_multiplicity
 _atom_site_fract_x
 _atom_site_fract_y
 _atom_site_fract_z
 _atom_site_occupancy
  Ba  Ba0  1  0.66666700  0.33333300  0.58121500  1
  Ba  Ba1  1  0.33333300  0.66666700  0.41878500  1
  Ba  Ba2  1  0.66666700  0.33333300  0.22720000  1
  Ba  Ba3  1  0.33333300  0.66666700  0.77280000  1
  Ba  Ba4  1  0.00000000  0.00000000  0.00000000  1
  Co  Co5  1  0.66666700  0.33333300  0.85912500  1
  Co  Co6  1  0.33333300  0.66666700  0.14087500  1
  Co  Co7  1  0.00000000  0.00000000  0.70647000  1
  Co  Co8  1  0.00000000  0.00000000  0.29353000  1
  Co  Co9  1  0.00000000  0.00000000  0.50000000  1
  O  O10  1  0.85297100  0.14702900  0.39836600  1
  O  O11  1  0.85297100  0.70594200  0.39836600  1
  O  O12  1  0.29405800  0.14702900  0.39836600  1
  O  O13  1  0.70594200  0.85297100  0.60163400  1
  O  O14  1  0.14702900  0.29405800  0.60163400  1
  O  O15  1  0.14702900  0.85297100  0.60163400  1
  O  O16  1  0.83764600  0.16235400  0.80290700  1
  O  O17  1  0.83764600  0.67529200  0.80290700  1
  O  O18  1  0.32470800  0.16235400  0.80290700  1
  O  O19  1  0.67529200  0.83764600  0.19709300  1
  O  O20  1  0.33333300  0.66666700  0.99515900  1
  O  O21  1  0.66666700  0.33333300  0.00484100  1
  O  O22  1  0.16235400  0.83764600  0.19709300  1
  O  O23  1  0.16235400  0.32470800  0.19709300  1
