# generated using pymatgen
data_InAsF6
_symmetry_space_group_name_H-M   'P 1'
_cell_length_a   5.12970284
_cell_length_b   5.12970284
_cell_length_c   5.12970230
_cell_angle_alpha   96.24152081
_cell_angle_beta   96.24152081
_cell_angle_gamma   96.24151766
_symmetry_Int_Tables_number   1
_chemical_formula_structural   InAsF6
_chemical_formula_sum   'In1 As1 F6'
_cell_volume   132.39065272
_cell_formula_units_Z   1
loop_
 _symmetry_equiv_pos_site_id
 _symmetry_equiv_pos_as_xyz
  1  'x, y, z'
loop_
 _atom_site_type_symbol
 _atom_site_label
 _atom_site_symmetry_multiplicity
 _atom_site_fract_x
 _atom_site_fract_y
 _atom_site_fract_z
 _atom_site_occupancy
  In  In0  1  0.00000000  0.00000000  0.00000000  1
  As  As1  1  0.50000000  0.50000000  0.50000000  1
  F  F2  1  0.22433800  0.29719200  0.58227300  1
  F  F3  1  0.29719200  0.58227300  0.22433800  1
  F  F4  1  0.41772700  0.77566200  0.70280800  1
  F  F5  1  0.70280800  0.41772700  0.77566200  1
  F  F6  1  0.77566200  0.70280800  0.41772700  1
  F  F7  1  0.58227300  0.22433800  0.29719200  1
