# generated using pymatgen
data_FeS
_symmetry_space_group_name_H-M   'P 1'
_cell_length_a   5.64679900
_cell_length_b   6.52039600
_cell_length_c   7.94089220
_cell_angle_alpha   88.90724418
_cell_angle_beta   90.00000000
_cell_angle_gamma   90.00000000
_symmetry_Int_Tables_number   1
_chemical_formula_structural   FeS
_chemical_formula_sum   'Fe12 S12'
_cell_volume   292.32543867
_cell_formula_units_Z   12
loop_
 _symmetry_equiv_pos_site_id
 _symmetry_equiv_pos_as_xyz
  1  'x, y, z'
loop_
 _atom_site_type_symbol
 _atom_site_label
 _atom_site_symmetry_multiplicity
 _atom_site_fract_x
 _atom_site_fract_y
 _atom_site_fract_z
 _atom_site_occupancy
  Fe  Fe0  1  0.72572400  0.54089300  0.92358200  1
  Fe  Fe1  1  0.22572400  0.45910700  0.57641800  1
  Fe  Fe2  1  0.27427600  0.45910700  0.07641800  1
  Fe  Fe3  1  0.77427600  0.54089300  0.42358200  1
  Fe  Fe4  1  0.29191900  0.82639300  0.71073600  1
  Fe  Fe5  1  0.79191900  0.17360700  0.78926400  1
  Fe  Fe6  1  0.70808100  0.17360700  0.28926400  1
  Fe  Fe7  1  0.20808100  0.82639300  0.21073600  1
  Fe  Fe8  1  0.69879800  0.90857900  0.56202700  1
  Fe  Fe9  1  0.19879800  0.09142100  0.93797300  1
  Fe  Fe10  1  0.30120200  0.09142100  0.43797300  1
  Fe  Fe11  1  0.80120200  0.90857900  0.06202700  1
  S  S12  1  0.07334100  0.40726900  0.83883100  1
  S  S13  1  0.57334100  0.59273100  0.66116900  1
  S  S14  1  0.92665900  0.59273100  0.16116900  1
  S  S15  1  0.42665900  0.40726900  0.33883100  1
  S  S16  1  0.58554700  0.24152800  0.02434700  1
  S  S17  1  0.08554700  0.75847200  0.47565300  1
  S  S18  1  0.41445300  0.75847200  0.97565300  1
  S  S19  1  0.91445300  0.24152800  0.52434700  1
  S  S20  1  0.43293200  0.13129400  0.69020200  1
  S  S21  1  0.93293200  0.86870600  0.80979800  1
  S  S22  1  0.56706800  0.86870600  0.30979800  1
  S  S23  1  0.06706800  0.13129400  0.19020200  1
