# generated using pymatgen
data_UFeS3
_symmetry_space_group_name_H-M   'P 1'
_cell_length_a   5.65865717
_cell_length_b   5.65865717
_cell_length_c   8.49182300
_cell_angle_alpha   90.00000000
_cell_angle_beta   90.00000000
_cell_angle_gamma   142.10560528
_symmetry_Int_Tables_number   1
_chemical_formula_structural   UFeS3
_chemical_formula_sum   'U2 Fe2 S6'
_cell_volume   167.01026619
_cell_formula_units_Z   2
loop_
 _symmetry_equiv_pos_site_id
 _symmetry_equiv_pos_as_xyz
  1  'x, y, z'
loop_
 _atom_site_type_symbol
 _atom_site_label
 _atom_site_symmetry_multiplicity
 _atom_site_fract_x
 _atom_site_fract_y
 _atom_site_fract_z
 _atom_site_occupancy
  U  U0  1  0.76691300  0.23308700  0.75000000  1
  U  U1  1  0.23308700  0.76691300  0.25000000  1
  Fe  Fe2  1  0.00000000  0.00000000  0.00000000  1
  Fe  Fe3  1  0.00000000  0.00000000  0.50000000  1
  S  S4  1  0.36929200  0.63070800  0.54402900  1
  S  S5  1  0.63070800  0.36929200  0.45597100  1
  S  S6  1  0.63070800  0.36929200  0.04402900  1
  S  S7  1  0.36929200  0.63070800  0.95597100  1
  S  S8  1  0.07827200  0.92172800  0.75000000  1
  S  S9  1  0.92172800  0.07827200  0.25000000  1
