# generated using pymatgen
data_Pr7O12
_symmetry_space_group_name_H-M   'P 1'
_cell_length_a   6.96394512
_cell_length_b   6.96394512
_cell_length_c   6.96394457
_cell_angle_alpha   99.52174807
_cell_angle_beta   99.52174807
_cell_angle_gamma   99.52175052
_symmetry_Int_Tables_number   1
_chemical_formula_structural   Pr7O12
_chemical_formula_sum   'Pr7 O12'
_cell_volume   321.96813536
_cell_formula_units_Z   1
loop_
 _symmetry_equiv_pos_site_id
 _symmetry_equiv_pos_as_xyz
  1  'x, y, z'
loop_
 _atom_site_type_symbol
 _atom_site_label
 _atom_site_symmetry_multiplicity
 _atom_site_fract_x
 _atom_site_fract_y
 _atom_site_fract_z
 _atom_site_occupancy
  Pr  Pr0  1  0.00000000  0.00000000  0.00000000  1
  Pr  Pr1  1  0.86119000  0.39191000  0.69906800  1
  Pr  Pr2  1  0.69906800  0.86119000  0.39191000  1
  Pr  Pr3  1  0.39191000  0.69906800  0.86119000  1
  Pr  Pr4  1  0.13881000  0.60809000  0.30093200  1
  Pr  Pr5  1  0.30093200  0.13881000  0.60809000  1
  Pr  Pr6  1  0.60809000  0.30093200  0.13881000  1
  O  O7  1  0.93377300  0.32557300  0.06048800  1
  O  O8  1  0.06048800  0.93377300  0.32557300  1
  O  O9  1  0.32557300  0.06048800  0.93377300  1
  O  O10  1  0.06622700  0.67442700  0.93951200  1
  O  O11  1  0.93951200  0.06622700  0.67442700  1
  O  O12  1  0.67442700  0.93951200  0.06622700  1
  O  O13  1  0.58088300  0.17899500  0.43826400  1
  O  O14  1  0.43826400  0.58088300  0.17899500  1
  O  O15  1  0.17899500  0.43826400  0.58088300  1
  O  O16  1  0.41911700  0.82100500  0.56173600  1
  O  O17  1  0.56173600  0.41911700  0.82100500  1
  O  O18  1  0.82100500  0.56173600  0.41911700  1
