# generated using pymatgen
data_NaN3
_symmetry_space_group_name_H-M   'P 1'
_cell_length_a   4.09080462
_cell_length_b   4.09080462
_cell_length_c   4.78545336
_cell_angle_alpha   59.55807318
_cell_angle_beta   59.55807318
_cell_angle_gamma   60.51313645
_symmetry_Int_Tables_number   1
_chemical_formula_structural   NaN3
_chemical_formula_sum   'Na1 N3'
_cell_volume   56.45791947
_cell_formula_units_Z   1
loop_
 _symmetry_equiv_pos_site_id
 _symmetry_equiv_pos_as_xyz
  1  'x, y, z'
loop_
 _atom_site_type_symbol
 _atom_site_label
 _atom_site_symmetry_multiplicity
 _atom_site_fract_x
 _atom_site_fract_y
 _atom_site_fract_z
 _atom_site_occupancy
  Na  Na0  1  0.00000000  0.00000000  0.00000000  1
  N  N1  1  0.49655500  0.49655500  0.62379900  1
  N  N2  1  0.00000000  0.00000000  0.50000000  1
  N  N3  1  0.50344500  0.50344500  0.37620100  1
