# generated using pymatgen
data_AgF2
_symmetry_space_group_name_H-M   'P 1'
_cell_length_a   5.32748300
_cell_length_b   5.73270900
_cell_length_c   5.96842800
_cell_angle_alpha   90.00000000
_cell_angle_beta   90.00000000
_cell_angle_gamma   90.00000000
_symmetry_Int_Tables_number   1
_chemical_formula_structural   AgF2
_chemical_formula_sum   'Ag4 F8'
_cell_volume   182.28122085
_cell_formula_units_Z   4
loop_
 _symmetry_equiv_pos_site_id
 _symmetry_equiv_pos_as_xyz
  1  'x, y, z'
loop_
 _atom_site_type_symbol
 _atom_site_label
 _atom_site_symmetry_multiplicity
 _atom_site_fract_x
 _atom_site_fract_y
 _atom_site_fract_z
 _atom_site_occupancy
  Ag  Ag0  1  0.50000000  0.00000000  0.50000000  1
  Ag  Ag1  1  0.00000000  0.50000000  0.50000000  1
  Ag  Ag2  1  0.50000000  0.50000000  0.00000000  1
  Ag  Ag3  1  0.00000000  0.00000000  0.00000000  1
  F  F4  1  0.69116600  0.30113800  0.61637800  1
  F  F5  1  0.19116600  0.19886200  0.38362200  1
  F  F6  1  0.30883400  0.80113800  0.88362200  1
  F  F7  1  0.80883400  0.69886200  0.11637800  1
  F  F8  1  0.19116600  0.30113800  0.88362200  1
  F  F9  1  0.69116600  0.19886200  0.11637800  1
  F  F10  1  0.80883400  0.80113800  0.61637800  1
  F  F11  1  0.30883400  0.69886200  0.38362200  1
