# generated using pymatgen
data_IrC4
_symmetry_space_group_name_H-M   'P 1'
_cell_length_a   4.94904714
_cell_length_b   4.94904714
_cell_length_c   4.90207100
_cell_angle_alpha   90.00000000
_cell_angle_beta   90.00000000
_cell_angle_gamma   128.16688729
_symmetry_Int_Tables_number   1
_chemical_formula_structural   IrC4
_chemical_formula_sum   'Ir2 C8'
_cell_volume   94.39818347
_cell_formula_units_Z   2
loop_
 _symmetry_equiv_pos_site_id
 _symmetry_equiv_pos_as_xyz
  1  'x, y, z'
loop_
 _atom_site_type_symbol
 _atom_site_label
 _atom_site_symmetry_multiplicity
 _atom_site_fract_x
 _atom_site_fract_y
 _atom_site_fract_z
 _atom_site_occupancy
  Ir  Ir0  1  0.50000000  0.50000000  0.50000000  1
  Ir  Ir1  1  0.00000000  0.00000000  0.00000000  1
  C  C2  1  0.18252900  0.64919500  0.62381500  1
  C  C3  1  0.85080500  0.31747100  0.12381600  1
  C  C4  1  0.14919500  0.68252900  0.12381600  1
  C  C5  1  0.81747100  0.35080500  0.62381500  1
  C  C6  1  0.31747100  0.85080500  0.87618400  1
  C  C7  1  0.64919500  0.18252900  0.37618500  1
  C  C8  1  0.35080500  0.81747100  0.37618400  1
  C  C9  1  0.68252900  0.14919500  0.87618500  1
