# generated using pymatgen
data_Mg2VBiO6
_symmetry_space_group_name_H-M   'P 1'
_cell_length_a   5.52463400
_cell_length_b   8.01462700
_cell_length_c   12.49227700
_cell_angle_alpha   90.00000000
_cell_angle_beta   90.00000000
_cell_angle_gamma   90.00000000
_symmetry_Int_Tables_number   1
_chemical_formula_structural   Mg2VBiO6
_chemical_formula_sum   'Mg8 V4 Bi4 O24'
_cell_volume   553.13155220
_cell_formula_units_Z   4
loop_
 _symmetry_equiv_pos_site_id
 _symmetry_equiv_pos_as_xyz
  1  'x, y, z'
loop_
 _atom_site_type_symbol
 _atom_site_label
 _atom_site_symmetry_multiplicity
 _atom_site_fract_x
 _atom_site_fract_y
 _atom_site_fract_z
 _atom_site_occupancy
  Mg  Mg0  1  0.25000000  0.18780400  0.40524900  1
  Mg  Mg1  1  0.74999900  0.81219700  0.59475100  1
  Mg  Mg2  1  0.74999900  0.68780300  0.09475100  1
  Mg  Mg3  1  0.25000000  0.31219700  0.90524900  1
  Mg  Mg4  1  0.74999900  0.19876000  0.58473700  1
  Mg  Mg5  1  0.74999900  0.30123900  0.08473800  1
  Mg  Mg6  1  0.25000000  0.69876000  0.91526300  1
  Mg  Mg7  1  0.25000000  0.80124000  0.41526300  1
  V  V8  1  0.25000000  0.01866700  0.69841100  1
  V  V9  1  0.74999900  0.51866700  0.80158900  1
  V  V10  1  0.74999900  0.98133400  0.30159000  1
  V  V11  1  0.25000000  0.48133300  0.19841100  1
  Bi  Bi12  1  0.74999900  0.51272400  0.40928700  1
  Bi  Bi13  1  0.25000000  0.48727600  0.59071300  1
  Bi  Bi14  1  0.25000000  0.01272300  0.09071400  1
  Bi  Bi15  1  0.74999900  0.98727700  0.90928700  1
  O  O16  1  0.74999900  0.78915100  0.24077900  1
  O  O17  1  0.25000000  0.21084900  0.75922000  1
  O  O18  1  0.25000000  0.28915100  0.25922000  1
  O  O19  1  0.74999900  0.71084800  0.74078000  1
  O  O20  1  0.25000000  0.63655200  0.29352400  1
  O  O21  1  0.74999900  0.36344800  0.70647600  1
  O  O22  1  0.74999900  0.13655200  0.20647600  1
  O  O23  1  0.25000000  0.86344800  0.79352400  1
  O  O24  1  0.50210700  0.67131700  0.50738200  1
  O  O25  1  0.00210600  0.32868300  0.49261800  1
  O  O26  1  0.49789500  0.17131700  0.99261800  1
  O  O27  1  0.99789300  0.82868300  0.00738200  1
  O  O28  1  0.49789500  0.32868300  0.49261800  1
  O  O29  1  0.99789300  0.67131700  0.50738200  1
  O  O30  1  0.50210700  0.82868300  0.00738200  1
  O  O31  1  0.00210600  0.17131700  0.99261800  1
  O  O32  1  0.98966600  0.00656100  0.61727900  1
  O  O33  1  0.48966500  0.99343900  0.38272100  1
  O  O34  1  0.01033600  0.50656100  0.88272100  1
  O  O35  1  0.51033400  0.49344000  0.11728000  1
  O  O36  1  0.48966500  0.50656100  0.88272100  1
  O  O37  1  0.51033400  0.00656100  0.61727900  1
  O  O38  1  0.98966600  0.49344000  0.11728000  1
  O  O39  1  0.01033600  0.99343900  0.38272100  1
