# generated using pymatgen
data_WCl6
_symmetry_space_group_name_H-M   'P 1'
_cell_length_a   11.27471062
_cell_length_b   11.27471062
_cell_length_c   6.21537000
_cell_angle_alpha   90.00000000
_cell_angle_beta   90.00000000
_cell_angle_gamma   120.00000366
_symmetry_Int_Tables_number   1
_chemical_formula_structural   WCl6
_chemical_formula_sum   'W3 Cl18'
_cell_volume   684.23992450
_cell_formula_units_Z   3
loop_
 _symmetry_equiv_pos_site_id
 _symmetry_equiv_pos_as_xyz
  1  'x, y, z'
loop_
 _atom_site_type_symbol
 _atom_site_label
 _atom_site_symmetry_multiplicity
 _atom_site_fract_x
 _atom_site_fract_y
 _atom_site_fract_z
 _atom_site_occupancy
  W  W0  1  0.66666700  0.33333300  0.53715700  1
  W  W1  1  0.33333300  0.66666700  0.46284300  1
  W  W2  1  0.00000000  0.00000000  0.00000000  1
  Cl  Cl3  1  0.23672200  0.76327800  0.67675100  1
  Cl  Cl4  1  0.23672200  0.47344400  0.67675100  1
  Cl  Cl5  1  0.52655600  0.76327800  0.67675100  1
  Cl  Cl6  1  0.09649700  0.90350300  0.21434800  1
  Cl  Cl7  1  0.09649700  0.19299500  0.21434800  1
  Cl  Cl8  1  0.80700500  0.90350300  0.21434800  1
  Cl  Cl9  1  0.19299500  0.09649700  0.78565200  1
  Cl  Cl10  1  0.90350300  0.80700500  0.78565200  1
  Cl  Cl11  1  0.90350300  0.09649700  0.78565200  1
  Cl  Cl12  1  0.42977100  0.57022900  0.24815500  1
  Cl  Cl13  1  0.42977100  0.85954200  0.24815500  1
  Cl  Cl14  1  0.14045800  0.57022900  0.24815500  1
  Cl  Cl15  1  0.85954200  0.42977100  0.75184500  1
  Cl  Cl16  1  0.57022900  0.14045800  0.75184500  1
  Cl  Cl17  1  0.57022900  0.42977100  0.75184500  1
  Cl  Cl18  1  0.76327800  0.23672200  0.32324900  1
  Cl  Cl19  1  0.76327800  0.52655600  0.32324900  1
  Cl  Cl20  1  0.47344400  0.23672200  0.32324900  1
