# generated using pymatgen
data_Sc7Cl12
_symmetry_space_group_name_H-M   'P 1'
_cell_length_a   8.20394603
_cell_length_b   8.20394603
_cell_length_c   8.20394601
_cell_angle_alpha   107.39831672
_cell_angle_beta   107.39831672
_cell_angle_gamma   107.39832175
_symmetry_Int_Tables_number   1
_chemical_formula_structural   Sc7Cl12
_chemical_formula_sum   'Sc7 Cl12'
_cell_volume   454.75870608
_cell_formula_units_Z   1
loop_
 _symmetry_equiv_pos_site_id
 _symmetry_equiv_pos_as_xyz
  1  'x, y, z'
loop_
 _atom_site_type_symbol
 _atom_site_label
 _atom_site_symmetry_multiplicity
 _atom_site_fract_x
 _atom_site_fract_y
 _atom_site_fract_z
 _atom_site_occupancy
  Sc  Sc0  1  0.50000000  0.50000000  0.50000000  1
  Sc  Sc1  1  0.89851700  0.97243900  0.69432700  1
  Sc  Sc2  1  0.69432700  0.89851700  0.97243900  1
  Sc  Sc3  1  0.97243900  0.69432700  0.89851700  1
  Sc  Sc4  1  0.10148300  0.02756100  0.30567300  1
  Sc  Sc5  1  0.30567300  0.10148300  0.02756100  1
  Sc  Sc6  1  0.02756100  0.30567300  0.10148300  1
  Cl  Cl7  1  0.84229000  0.61826000  0.54136800  1
  Cl  Cl8  1  0.54136800  0.84229000  0.61826000  1
  Cl  Cl9  1  0.61826000  0.54136800  0.84229000  1
  Cl  Cl10  1  0.15771000  0.38174000  0.45863200  1
  Cl  Cl11  1  0.45863200  0.15771000  0.38174000  1
  Cl  Cl12  1  0.38174000  0.45863200  0.15771000  1
  Cl  Cl13  1  0.21965600  0.07485300  0.68429200  1
  Cl  Cl14  1  0.92514700  0.31570800  0.78034400  1
  Cl  Cl15  1  0.31570800  0.78034400  0.92514700  1
  Cl  Cl16  1  0.78034400  0.92514700  0.31570800  1
  Cl  Cl17  1  0.07485300  0.68429200  0.21965600  1
  Cl  Cl18  1  0.68429200  0.21965600  0.07485300  1
