# generated using pymatgen
data_KIO3
_symmetry_space_group_name_H-M   'P 1'
_cell_length_a   6.45503909
_cell_length_b   6.45503909
_cell_length_c   6.45503842
_cell_angle_alpha   59.12206366
_cell_angle_beta   59.12206366
_cell_angle_gamma   59.12206272
_symmetry_Int_Tables_number   1
_chemical_formula_structural   KIO3
_chemical_formula_sum   'K2 I2 O6'
_cell_volume   186.38133912
_cell_formula_units_Z   2
loop_
 _symmetry_equiv_pos_site_id
 _symmetry_equiv_pos_as_xyz
  1  'x, y, z'
loop_
 _atom_site_type_symbol
 _atom_site_label
 _atom_site_symmetry_multiplicity
 _atom_site_fract_x
 _atom_site_fract_y
 _atom_site_fract_z
 _atom_site_occupancy
  K  K0  1  0.74771900  0.74771900  0.74771900  1
  K  K1  1  0.24771900  0.24771900  0.24771900  1
  I  I2  1  0.00243100  0.00243100  0.00243100  1
  I  I3  1  0.50243100  0.50243100  0.50243100  1
  O  O4  1  0.76739800  0.25688600  0.14312800  1
  O  O5  1  0.14312800  0.76739800  0.25688600  1
  O  O6  1  0.25688600  0.14312800  0.76739800  1
  O  O7  1  0.26739800  0.64312800  0.75688600  1
  O  O8  1  0.75688600  0.26739800  0.64312800  1
  O  O9  1  0.64312800  0.75688600  0.26739800  1
