# generated using pymatgen
data_Tb3Ge5
_symmetry_space_group_name_H-M   'P 1'
_cell_length_a   11.12871819
_cell_length_b   9.18642856
_cell_length_c   7.50276517
_cell_angle_alpha   82.98566340
_cell_angle_beta   55.01401982
_cell_angle_gamma   42.00031677
_symmetry_Int_Tables_number   1
_chemical_formula_structural   Tb3Ge5
_chemical_formula_sum   'Tb6 Ge10'
_cell_volume   349.93541056
_cell_formula_units_Z   2
loop_
 _symmetry_equiv_pos_site_id
 _symmetry_equiv_pos_as_xyz
  1  'x, y, z'
loop_
 _atom_site_type_symbol
 _atom_site_label
 _atom_site_symmetry_multiplicity
 _atom_site_fract_x
 _atom_site_fract_y
 _atom_site_fract_z
 _atom_site_occupancy
  Tb  Tb0  1  0.35378000  0.30948100  0.66419000  1
  Tb  Tb1  1  0.66419000  0.67254900  0.35378000  1
  Tb  Tb2  1  0.57745100  0.58581000  0.94051900  1
  Tb  Tb3  1  0.94051900  0.89622000  0.57745100  1
  Tb  Tb4  1  0.25125400  0.24874600  0.25125400  1
  Tb  Tb5  1  0.00125400  0.99874600  0.00125400  1
  Ge  Ge6  1  0.92321300  0.75058200  0.25402700  1
  Ge  Ge7  1  0.25402700  0.07217700  0.92321300  1
  Ge  Ge8  1  0.17782300  0.99597300  0.49941800  1
  Ge  Ge9  1  0.49941800  0.32678700  0.17782300  1
  Ge  Ge10  1  0.77951700  0.85133500  0.03198800  1
  Ge  Ge11  1  0.03198800  0.33716000  0.77951700  1
  Ge  Ge12  1  0.45133100  0.54866900  0.45133100  1
  Ge  Ge13  1  0.70133100  0.79866900  0.70133100  1
  Ge  Ge14  1  0.39866500  0.47048300  0.91284000  1
  Ge  Ge15  1  0.91284000  0.21801200  0.39866500  1
