# generated using pymatgen
data_TiI3
_symmetry_space_group_name_H-M   'P 1'
_cell_length_a   7.74450829
_cell_length_b   7.74450829
_cell_length_c   6.41959100
_cell_angle_alpha   90.00000000
_cell_angle_beta   90.00000000
_cell_angle_gamma   120.00000246
_symmetry_Int_Tables_number   1
_chemical_formula_structural   TiI3
_chemical_formula_sum   'Ti2 I6'
_cell_volume   333.44612758
_cell_formula_units_Z   2
loop_
 _symmetry_equiv_pos_site_id
 _symmetry_equiv_pos_as_xyz
  1  'x, y, z'
loop_
 _atom_site_type_symbol
 _atom_site_label
 _atom_site_symmetry_multiplicity
 _atom_site_fract_x
 _atom_site_fract_y
 _atom_site_fract_z
 _atom_site_occupancy
  Ti  Ti0  1  0.00000000  0.00000000  0.00000000  1
  Ti  Ti1  1  0.00000000  0.00000000  0.50000000  1
  I  I2  1  0.29588300  0.00000000  0.25000000  1
  I  I3  1  0.29588300  0.29588300  0.75000000  1
  I  I4  1  0.00000000  0.70411700  0.75000000  1
  I  I5  1  0.00000000  0.29588300  0.25000000  1
  I  I6  1  0.70411700  0.70411700  0.25000000  1
  I  I7  1  0.70411700  0.00000000  0.75000000  1
