# generated using pymatgen
data_Tl4CrI6
_symmetry_space_group_name_H-M   'P 1'
_cell_length_a   9.37497834
_cell_length_b   9.37497834
_cell_length_c   9.95221400
_cell_angle_alpha   90.00000000
_cell_angle_beta   90.00000000
_cell_angle_gamma   92.33929339
_symmetry_Int_Tables_number   1
_chemical_formula_structural   Tl4CrI6
_chemical_formula_sum   'Tl8 Cr2 I12'
_cell_volume   873.97332263
_cell_formula_units_Z   2
loop_
 _symmetry_equiv_pos_site_id
 _symmetry_equiv_pos_as_xyz
  1  'x, y, z'
loop_
 _atom_site_type_symbol
 _atom_site_label
 _atom_site_symmetry_multiplicity
 _atom_site_fract_x
 _atom_site_fract_y
 _atom_site_fract_z
 _atom_site_occupancy
  Tl  Tl0  1  0.34236600  0.34236600  0.25000000  1
  Tl  Tl1  1  0.65763400  0.65763400  0.25000000  1
  Tl  Tl2  1  0.65763400  0.65763400  0.75000000  1
  Tl  Tl3  1  0.34236600  0.34236600  0.75000000  1
  Tl  Tl4  1  0.14323000  0.85677000  0.25000000  1
  Tl  Tl5  1  0.85677000  0.14323000  0.25000000  1
  Tl  Tl6  1  0.85677000  0.14323000  0.75000000  1
  Tl  Tl7  1  0.14323000  0.85677000  0.75000000  1
  Cr  Cr8  1  0.50000000  0.00000000  0.50000000  1
  Cr  Cr9  1  0.00000000  0.50000000  0.00000000  1
  I  I10  1  0.81848600  0.85367000  0.50000000  1
  I  I11  1  0.18151400  0.14633000  0.50000000  1
  I  I12  1  0.27448300  0.63011400  0.00000000  1
  I  I13  1  0.72551700  0.36988600  0.00000000  1
  I  I14  1  0.63011400  0.27448300  0.50000000  1
  I  I15  1  0.36988600  0.72551700  0.50000000  1
  I  I16  1  0.85367000  0.81848600  0.00000000  1
  I  I17  1  0.14633000  0.18151400  0.00000000  1
  I  I18  1  0.50000000  0.00000000  0.77610900  1
  I  I19  1  0.00000000  0.50000000  0.72389100  1
  I  I20  1  0.50000000  0.00000000  0.22389100  1
  I  I21  1  0.00000000  0.50000000  0.27610900  1
