# generated using pymatgen
data_Ti(Bi3O5)4
_symmetry_space_group_name_H-M   'P 1'
_cell_length_a   8.93697167
_cell_length_b   8.93697167
_cell_length_c   8.93697167
_cell_angle_alpha   109.47122063
_cell_angle_beta   109.47122063
_cell_angle_gamma   109.47122063
_symmetry_Int_Tables_number   1
_chemical_formula_structural   Ti(Bi3O5)4
_chemical_formula_sum   'Ti1 Bi12 O20'
_cell_volume   549.47666427
_cell_formula_units_Z   1
loop_
 _symmetry_equiv_pos_site_id
 _symmetry_equiv_pos_as_xyz
  1  'x, y, z'
loop_
 _atom_site_type_symbol
 _atom_site_label
 _atom_site_symmetry_multiplicity
 _atom_site_fract_x
 _atom_site_fract_y
 _atom_site_fract_z
 _atom_site_occupancy
  Ti  Ti0  1  0.00000000  0.00000000  0.00000000  1
  Bi  Bi1  1  0.19250500  0.69621500  0.85912800  1
  Bi  Bi2  1  0.83708600  0.33337600  0.14087200  1
  Bi  Bi3  1  0.80749500  0.66662400  0.50371000  1
  Bi  Bi4  1  0.14087200  0.83708600  0.33337600  1
  Bi  Bi5  1  0.69621500  0.85912800  0.19250500  1
  Bi  Bi6  1  0.30378500  0.49629000  0.16291400  1
  Bi  Bi7  1  0.49629000  0.16291400  0.30378500  1
  Bi  Bi8  1  0.33337600  0.14087200  0.83708600  1
  Bi  Bi9  1  0.50371000  0.80749500  0.66662400  1
  Bi  Bi10  1  0.66662400  0.50371000  0.80749500  1
  Bi  Bi11  1  0.85912800  0.19250500  0.69621500  1
  Bi  Bi12  1  0.16291400  0.30378500  0.49629000  1
  O  O13  1  0.79336500  0.00000000  0.00000000  1
  O  O14  1  0.20663500  0.20663500  0.20663500  1
  O  O15  1  0.00000000  0.79336500  0.00000000  1
  O  O16  1  0.00000000  0.00000000  0.79336500  1
  O  O17  1  0.38650300  0.00000000  0.00000000  1
  O  O18  1  0.61349700  0.61349700  0.61349700  1
  O  O19  1  0.00000000  0.38650300  0.00000000  1
  O  O20  1  0.00000000  0.00000000  0.38650300  1
  O  O21  1  0.61996700  0.23890200  0.88100700  1
  O  O22  1  0.35789600  0.73896100  0.11899300  1
  O  O23  1  0.38003300  0.26103900  0.61893500  1
  O  O24  1  0.11899300  0.35789600  0.73896100  1
  O  O25  1  0.23890200  0.88100700  0.61996700  1
  O  O26  1  0.64210400  0.76109800  0.38106500  1
  O  O27  1  0.88100700  0.61996700  0.23890200  1
  O  O28  1  0.26103900  0.61893500  0.38003300  1
  O  O29  1  0.61893500  0.38003300  0.26103900  1
  O  O30  1  0.73896100  0.11899300  0.35789600  1
  O  O31  1  0.38106500  0.64210400  0.76109800  1
  O  O32  1  0.76109800  0.38106500  0.64210400  1
