# generated using pymatgen
data_Si(Bi3O5)4
_symmetry_space_group_name_H-M   'P 1'
_cell_length_a   8.87329975
_cell_length_b   8.87329975
_cell_length_c   8.87329975
_cell_angle_alpha   109.47122063
_cell_angle_beta   109.47122063
_cell_angle_gamma   109.47122063
_symmetry_Int_Tables_number   1
_chemical_formula_structural   Si(Bi3O5)4
_chemical_formula_sum   'Si1 Bi12 O20'
_cell_volume   537.81581335
_cell_formula_units_Z   1
loop_
 _symmetry_equiv_pos_site_id
 _symmetry_equiv_pos_as_xyz
  1  'x, y, z'
loop_
 _atom_site_type_symbol
 _atom_site_label
 _atom_site_symmetry_multiplicity
 _atom_site_fract_x
 _atom_site_fract_y
 _atom_site_fract_z
 _atom_site_occupancy
  Si  Si0  1  0.00000000  0.00000000  0.00000000  1
  Bi  Bi1  1  0.16147200  0.85893500  0.66738500  1
  Bi  Bi2  1  0.80845000  0.14106500  0.30253700  1
  Bi  Bi3  1  0.83852800  0.50591300  0.69746300  1
  Bi  Bi4  1  0.49408700  0.33261500  0.19155000  1
  Bi  Bi5  1  0.33261500  0.19155000  0.49408700  1
  Bi  Bi6  1  0.66738500  0.16147200  0.85893500  1
  Bi  Bi7  1  0.14106500  0.30253700  0.80845000  1
  Bi  Bi8  1  0.69746300  0.83852800  0.50591300  1
  Bi  Bi9  1  0.85893500  0.66738500  0.16147200  1
  Bi  Bi10  1  0.30253700  0.80845000  0.14106500  1
  Bi  Bi11  1  0.50591300  0.69746300  0.83852800  1
  Bi  Bi12  1  0.19155000  0.49408700  0.33261500  1
  O  O13  1  0.00000000  0.00000000  0.18823000  1
  O  O14  1  0.00000000  0.18823000  0.00000000  1
  O  O15  1  0.18823000  0.00000000  0.00000000  1
  O  O16  1  0.81177000  0.81177000  0.81177000  1
  O  O17  1  0.00000000  0.00000000  0.60558300  1
  O  O18  1  0.00000000  0.60558300  0.00000000  1
  O  O19  1  0.60558300  0.00000000  0.00000000  1
  O  O20  1  0.39441700  0.39441700  0.39441700  1
  O  O21  1  0.64346700  0.87874000  0.25966300  1
  O  O22  1  0.38092300  0.12126000  0.76472700  1
  O  O23  1  0.35653300  0.61619600  0.23527300  1
  O  O24  1  0.38380400  0.74033700  0.61907700  1
  O  O25  1  0.74033700  0.61907700  0.38380400  1
  O  O26  1  0.61907700  0.38380400  0.74033700  1
  O  O27  1  0.61619600  0.23527300  0.35653300  1
  O  O28  1  0.76472700  0.38092300  0.12126000  1
  O  O29  1  0.87874000  0.25966300  0.64346700  1
  O  O30  1  0.23527300  0.35653300  0.61619600  1
  O  O31  1  0.12126000  0.76472700  0.38092300  1
  O  O32  1  0.25966300  0.64346700  0.87874000  1
