# generated using pymatgen
data_VBiO4
_symmetry_space_group_name_H-M   'P 1'
_cell_length_a   6.92556626
_cell_length_b   6.92556626
_cell_length_c   5.17744778
_cell_angle_alpha   68.04993963
_cell_angle_beta   68.04993963
_cell_angle_gamma   116.02028971
_symmetry_Int_Tables_number   1
_chemical_formula_structural   VBiO4
_chemical_formula_sum   'V2 Bi2 O8'
_cell_volume   158.13454078
_cell_formula_units_Z   2
loop_
 _symmetry_equiv_pos_site_id
 _symmetry_equiv_pos_as_xyz
  1  'x, y, z'
loop_
 _atom_site_type_symbol
 _atom_site_label
 _atom_site_symmetry_multiplicity
 _atom_site_fract_x
 _atom_site_fract_y
 _atom_site_fract_z
 _atom_site_occupancy
  V  V0  1  0.12727400  0.87272600  0.25000000  1
  V  V1  1  0.87272600  0.12727400  0.75000000  1
  Bi  Bi2  1  0.62688200  0.37311800  0.25000000  1
  Bi  Bi3  1  0.37311800  0.62688200  0.75000000  1
  O  O4  1  0.20082900  0.29629300  0.36226000  1
  O  O5  1  0.70370700  0.79917100  0.13774000  1
  O  O6  1  0.79917100  0.70370700  0.63774000  1
  O  O7  1  0.29629300  0.20082900  0.86226000  1
  O  O8  1  0.65046900  0.06162400  0.64058700  1
  O  O9  1  0.93837600  0.34953100  0.85941300  1
  O  O10  1  0.34953100  0.93837600  0.35941300  1
  O  O11  1  0.06162400  0.65046900  0.14058700  1
