# generated using pymatgen
data_Sr3Co2Cl2O5
_symmetry_space_group_name_H-M   'P 1'
_cell_length_a   12.39741244
_cell_length_b   12.39741244
_cell_length_c   12.39741244
_cell_angle_alpha   161.61422346
_cell_angle_beta   161.61422346
_cell_angle_gamma   26.11547992
_symmetry_Int_Tables_number   1
_chemical_formula_structural   Sr3Co2Cl2O5
_chemical_formula_sum   'Sr3 Co2 Cl2 O5'
_cell_volume   189.49799429
_cell_formula_units_Z   1
loop_
 _symmetry_equiv_pos_site_id
 _symmetry_equiv_pos_as_xyz
  1  'x, y, z'
loop_
 _atom_site_type_symbol
 _atom_site_label
 _atom_site_symmetry_multiplicity
 _atom_site_fract_x
 _atom_site_fract_y
 _atom_site_fract_z
 _atom_site_occupancy
  Sr  Sr0  1  0.15287700  0.15287700  0.00000000  1
  Sr  Sr1  1  0.84712300  0.84712300  0.00000000  1
  Sr  Sr2  1  0.00000000  0.00000000  0.00000000  1
  Co  Co3  1  0.42342600  0.42342600  0.00000000  1
  Co  Co4  1  0.57657400  0.57657400  0.00000000  1
  Cl  Cl5  1  0.70108800  0.70108800  0.00000000  1
  Cl  Cl6  1  0.29891200  0.29891200  0.00000000  1
  O  O7  1  0.58632900  0.08632900  0.50000000  1
  O  O8  1  0.41367100  0.91367100  0.50000000  1
  O  O9  1  0.08632900  0.58632900  0.50000000  1
  O  O10  1  0.50000000  0.50000000  0.00000000  1
  O  O11  1  0.91367100  0.41367100  0.50000000  1
