# generated using pymatgen
data_TeSeS(NCl)2
_symmetry_space_group_name_H-M   'P 1'
_cell_length_a   8.18806600
_cell_length_b   8.81618900
_cell_length_c   20.99026600
_cell_angle_alpha   90.00000000
_cell_angle_beta   90.00000000
_cell_angle_gamma   90.00000000
_symmetry_Int_Tables_number   1
_chemical_formula_structural   TeSeS(NCl)2
_chemical_formula_sum   'Te8 Se8 S8 N16 Cl16'
_cell_volume   1515.23561192
_cell_formula_units_Z   8
loop_
 _symmetry_equiv_pos_site_id
 _symmetry_equiv_pos_as_xyz
  1  'x, y, z'
loop_
 _atom_site_type_symbol
 _atom_site_label
 _atom_site_symmetry_multiplicity
 _atom_site_fract_x
 _atom_site_fract_y
 _atom_site_fract_z
 _atom_site_occupancy
  Te  Te0  1  0.92541900  0.60800700  0.90728700  1
  Te  Te1  1  0.42541900  0.39199300  0.59271300  1
  Te  Te2  1  0.57458100  0.10800700  0.09271300  1
  Te  Te3  1  0.07458100  0.89199300  0.40728700  1
  Te  Te4  1  0.07458100  0.39199300  0.09271300  1
  Te  Te5  1  0.57458100  0.60800700  0.40728700  1
  Te  Te6  1  0.42541900  0.89199300  0.90728700  1
  Te  Te7  1  0.92541900  0.10800700  0.59271300  1
  Se  Se8  1  0.82622700  0.50116000  0.79814600  1
  Se  Se9  1  0.32622700  0.49884000  0.70185400  1
  Se  Se10  1  0.67377300  0.00116000  0.20185400  1
  Se  Se11  1  0.17377300  0.99884000  0.29814600  1
  Se  Se12  1  0.17377300  0.49884000  0.20185400  1
  Se  Se13  1  0.67377300  0.50116000  0.29814600  1
  Se  Se14  1  0.32622700  0.99884000  0.79814600  1
  Se  Se15  1  0.82622700  0.00116000  0.70185400  1
  S  S16  1  0.95402900  0.75945300  0.61867500  1
  S  S17  1  0.45402900  0.24054700  0.88132500  1
  S  S18  1  0.54597100  0.25945300  0.38132500  1
  S  S19  1  0.04597100  0.74054700  0.11867500  1
  S  S20  1  0.04597100  0.24054700  0.38132500  1
  S  S21  1  0.54597100  0.75945300  0.11867500  1
  S  S22  1  0.45402900  0.74054700  0.61867500  1
  S  S23  1  0.95402900  0.25945300  0.88132500  1
  N  N24  1  0.00549800  0.10855800  0.42809900  1
  N  N25  1  0.62710500  0.80436000  0.18345100  1
  N  N26  1  0.12710500  0.19564000  0.31654900  1
  N  N27  1  0.12710500  0.69564000  0.18345100  1
  N  N28  1  0.62710500  0.30436000  0.31654900  1
  N  N29  1  0.37289500  0.19564000  0.81654900  1
  N  N30  1  0.87289500  0.80436000  0.68345100  1
  N  N31  1  0.99450200  0.39144200  0.92809900  1
  N  N32  1  0.49450200  0.60855800  0.57190100  1
  N  N33  1  0.50549800  0.89144200  0.07190100  1
  N  N34  1  0.87289500  0.30436000  0.81654900  1
  N  N35  1  0.37289500  0.69564000  0.68345100  1
  N  N36  1  0.50549800  0.39144200  0.42809900  1
  N  N37  1  0.49450200  0.10855800  0.92809900  1
  N  N38  1  0.99450200  0.89144200  0.57190100  1
  N  N39  1  0.00549800  0.60855800  0.07190100  1
  Cl  Cl40  1  0.74310000  0.85654200  0.85131500  1
  Cl  Cl41  1  0.25690000  0.64345800  0.35131500  1
  Cl  Cl42  1  0.75690000  0.35654200  0.14868500  1
  Cl  Cl43  1  0.24310000  0.14345800  0.64868500  1
  Cl  Cl44  1  0.66985200  0.56568300  0.96573400  1
  Cl  Cl45  1  0.74310000  0.35654200  0.64868500  1
  Cl  Cl46  1  0.24310000  0.64345800  0.85131500  1
  Cl  Cl47  1  0.66985200  0.06568300  0.53426600  1
  Cl  Cl48  1  0.16985200  0.93431700  0.96573400  1
  Cl  Cl49  1  0.83014800  0.56568300  0.46573400  1
  Cl  Cl50  1  0.33014800  0.43431700  0.03426600  1
  Cl  Cl51  1  0.33014800  0.93431700  0.46573400  1
  Cl  Cl52  1  0.83014800  0.06568300  0.03426600  1
  Cl  Cl53  1  0.16985200  0.43431700  0.53426600  1
  Cl  Cl54  1  0.75690000  0.85654200  0.35131500  1
  Cl  Cl55  1  0.25690000  0.14345800  0.14868500  1
