# generated using pymatgen
data_PH6NO4
_symmetry_space_group_name_H-M   'P 1'
_cell_length_a   6.56357633
_cell_length_b   6.56357633
_cell_length_c   6.56357633
_cell_angle_alpha   111.50783799
_cell_angle_beta   111.50783799
_cell_angle_gamma   105.47054752
_symmetry_Int_Tables_number   1
_chemical_formula_structural   PH6NO4
_chemical_formula_sum   'P2 H12 N2 O8'
_cell_volume   216.88186748
_cell_formula_units_Z   2
loop_
 _symmetry_equiv_pos_site_id
 _symmetry_equiv_pos_as_xyz
  1  'x, y, z'
loop_
 _atom_site_type_symbol
 _atom_site_label
 _atom_site_symmetry_multiplicity
 _atom_site_fract_x
 _atom_site_fract_y
 _atom_site_fract_z
 _atom_site_occupancy
  P  P0  1  0.75000000  0.25000000  0.50000000  1
  P  P1  1  0.00000000  0.00000000  0.00000000  1
  H  H2  1  0.59341600  0.45934300  0.90488000  1
  H  H3  1  0.55446300  0.68853600  0.09512000  1
  H  H4  1  0.43853600  0.80446300  0.59512000  1
  H  H5  1  0.31146400  0.40658400  0.86592700  1
  H  H6  1  0.54065700  0.44553700  0.13407300  1
  H  H7  1  0.19553700  0.79065700  0.63407300  1
  H  H8  1  0.72974800  0.62500000  0.60474800  1
  H  H9  1  0.20934300  0.84341600  0.40488000  1
  H  H10  1  0.02025200  0.12500000  0.39525200  1
  H  H11  1  0.87500000  0.27025200  0.89525200  1
  H  H12  1  0.37500000  0.97974800  0.10474800  1
  H  H13  1  0.15658400  0.56146400  0.36592700  1
  N  N14  1  0.50000000  0.50000000  0.00000000  1
  N  N15  1  0.25000000  0.75000000  0.50000000  1
  O  O16  1  0.55304200  0.98950300  0.26119100  1
  O  O17  1  0.73950300  0.80304200  0.76119100  1
  O  O18  1  0.04185100  0.97831300  0.23880900  1
  O  O19  1  0.72831300  0.29185100  0.73880900  1
  O  O20  1  0.01049700  0.27168700  0.56353800  1
  O  O21  1  0.70814900  0.44695800  0.43646200  1
  O  O22  1  0.19695800  0.95814900  0.93646200  1
  O  O23  1  0.02168700  0.26049700  0.06353800  1
