# generated using pymatgen
data_K2PtO6
_symmetry_space_group_name_H-M   'P 1'
_cell_length_a   4.94555994
_cell_length_b   4.94555994
_cell_length_c   4.94555991
_cell_angle_alpha   83.33584787
_cell_angle_beta   83.33584787
_cell_angle_gamma   83.33585198
_symmetry_Int_Tables_number   1
_chemical_formula_structural   K2PtO6
_chemical_formula_sum   'K2 Pt1 O6'
_cell_volume   118.68536840
_cell_formula_units_Z   1
loop_
 _symmetry_equiv_pos_site_id
 _symmetry_equiv_pos_as_xyz
  1  'x, y, z'
loop_
 _atom_site_type_symbol
 _atom_site_label
 _atom_site_symmetry_multiplicity
 _atom_site_fract_x
 _atom_site_fract_y
 _atom_site_fract_z
 _atom_site_occupancy
  K  K0  1  0.34864300  0.34864300  0.34864300  1
  K  K1  1  0.65135700  0.65135700  0.65135700  1
  Pt  Pt2  1  0.00000000  0.00000000  0.00000000  1
  O  O3  1  0.07389000  0.90118300  0.40665100  1
  O  O4  1  0.40665100  0.07389000  0.90118300  1
  O  O5  1  0.90118300  0.40665100  0.07389000  1
  O  O6  1  0.92611000  0.09881700  0.59334900  1
  O  O7  1  0.59334900  0.92611000  0.09881700  1
  O  O8  1  0.09881700  0.59334900  0.92611000  1
