# generated using pymatgen
data_CuSi(HO2)2
_symmetry_space_group_name_H-M   'P 1'
_cell_length_a   8.90721355
_cell_length_b   8.90721355
_cell_length_c   8.90721420
_cell_angle_alpha   111.81449140
_cell_angle_beta   111.81449140
_cell_angle_gamma   111.81449863
_symmetry_Int_Tables_number   1
_chemical_formula_structural   CuSi(HO2)2
_chemical_formula_sum   'Cu6 Si6 H12 O24'
_cell_volume   491.18704440
_cell_formula_units_Z   6
loop_
 _symmetry_equiv_pos_site_id
 _symmetry_equiv_pos_as_xyz
  1  'x, y, z'
loop_
 _atom_site_type_symbol
 _atom_site_label
 _atom_site_symmetry_multiplicity
 _atom_site_fract_x
 _atom_site_fract_y
 _atom_site_fract_z
 _atom_site_occupancy
  Cu  Cu0  1  0.47049200  0.66150100  0.06138000  1
  Cu  Cu1  1  0.66150100  0.06138000  0.47049200  1
  Cu  Cu2  1  0.06138000  0.47049200  0.66150100  1
  Cu  Cu3  1  0.52950800  0.33849900  0.93862000  1
  Cu  Cu4  1  0.33849900  0.93862000  0.52950800  1
  Cu  Cu5  1  0.93862000  0.52950800  0.33849900  1
  Si  Si6  1  0.21651700  0.82410800  0.08252300  1
  Si  Si7  1  0.82410800  0.08252300  0.21651700  1
  Si  Si8  1  0.08252300  0.21651700  0.82410800  1
  Si  Si9  1  0.78348300  0.17589200  0.91747700  1
  Si  Si10  1  0.17589200  0.91747700  0.78348300  1
  Si  Si11  1  0.91747700  0.78348300  0.17589200  1
  H  H12  1  0.80301600  0.52000600  0.75171700  1
  H  H13  1  0.52000600  0.75171700  0.80301600  1
  H  H14  1  0.75171700  0.80301600  0.52000600  1
  H  H15  1  0.19698400  0.47999400  0.24828300  1
  H  H16  1  0.47999400  0.24828300  0.19698400  1
  H  H17  1  0.24828300  0.19698400  0.47999400  1
  H  H18  1  0.69088300  0.41902100  0.51245700  1
  H  H19  1  0.41902100  0.51245700  0.69088300  1
  H  H20  1  0.51245700  0.69088300  0.41902100  1
  H  H21  1  0.30911700  0.58097900  0.48754300  1
  H  H22  1  0.58097900  0.48754300  0.30911700  1
  H  H23  1  0.48754300  0.30911700  0.58097900  1
  O  O24  1  0.97444800  0.01210000  0.26363800  1
  O  O25  1  0.26363800  0.97444800  0.01210000  1
  O  O26  1  0.01210000  0.26363800  0.97444800  1
  O  O27  1  0.02555200  0.98790000  0.73636200  1
  O  O28  1  0.73636200  0.02555200  0.98790000  1
  O  O29  1  0.98790000  0.73636200  0.02555200  1
  O  O30  1  0.04475100  0.78526300  0.36554200  1
  O  O31  1  0.36554200  0.04475100  0.78526300  1
  O  O32  1  0.78526300  0.36554200  0.04475100  1
  O  O33  1  0.95524900  0.21473700  0.63445800  1
  O  O34  1  0.63445800  0.95524900  0.21473700  1
  O  O35  1  0.21473700  0.63445800  0.95524900  1
  O  O36  1  0.67631800  0.62524000  0.05102500  1
  O  O37  1  0.05102500  0.67631800  0.62524000  1
  O  O38  1  0.62524000  0.05102500  0.67631800  1
  O  O39  1  0.32368200  0.37476000  0.94897500  1
  O  O40  1  0.94897500  0.32368200  0.37476000  1
  O  O41  1  0.37476000  0.94897500  0.32368200  1
  O  O42  1  0.38414700  0.29456900  0.60716300  1
  O  O43  1  0.60716300  0.38414700  0.29456900  1
  O  O44  1  0.29456900  0.60716300  0.38414700  1
  O  O45  1  0.61585300  0.70543100  0.39283700  1
  O  O46  1  0.39283700  0.61585300  0.70543100  1
  O  O47  1  0.70543100  0.39283700  0.61585300  1
