# generated using pymatgen
data_NdH3(CO2)3
_symmetry_space_group_name_H-M   'P 1'
_cell_length_a   6.32876438
_cell_length_b   6.32876438
_cell_length_c   6.32876385
_cell_angle_alpha   115.42230208
_cell_angle_beta   115.42230208
_cell_angle_gamma   115.42230044
_symmetry_Int_Tables_number   1
_chemical_formula_structural   NdH3(CO2)3
_chemical_formula_sum   'Nd1 H3 C3 O6'
_cell_volume   136.25160202
_cell_formula_units_Z   1
loop_
 _symmetry_equiv_pos_site_id
 _symmetry_equiv_pos_as_xyz
  1  'x, y, z'
loop_
 _atom_site_type_symbol
 _atom_site_label
 _atom_site_symmetry_multiplicity
 _atom_site_fract_x
 _atom_site_fract_y
 _atom_site_fract_z
 _atom_site_occupancy
  Nd  Nd0  1  0.86041000  0.86041000  0.86041000  1
  H  H1  1  0.72290400  0.23902700  0.23902700  1
  H  H2  1  0.23902700  0.23902700  0.72290400  1
  H  H3  1  0.23902700  0.72290400  0.23902700  1
  C  C4  1  0.47436600  0.01483900  0.47436600  1
  C  C5  1  0.01483900  0.47436600  0.47436600  1
  C  C6  1  0.47436600  0.47436600  0.01483900  1
  O  O7  1  0.14729600  0.74570800  0.74570800  1
  O  O8  1  0.45022800  0.19579500  0.45022800  1
  O  O9  1  0.45022800  0.45022800  0.19579500  1
  O  O10  1  0.74570800  0.14729600  0.74570800  1
  O  O11  1  0.74570800  0.74570800  0.14729600  1
  O  O12  1  0.19579500  0.45022800  0.45022800  1
