# generated using pymatgen
data_Na2H10SO5
_symmetry_space_group_name_H-M   'P 1'
_cell_length_a   7.10100772
_cell_length_b   7.10100772
_cell_length_c   8.70982700
_cell_angle_alpha   90.00000000
_cell_angle_beta   90.00000000
_cell_angle_gamma   125.67034877
_symmetry_Int_Tables_number   1
_chemical_formula_structural   Na2H10SO5
_chemical_formula_sum   'Na4 H20 S2 O10'
_cell_volume   356.78912778
_cell_formula_units_Z   2
loop_
 _symmetry_equiv_pos_site_id
 _symmetry_equiv_pos_as_xyz
  1  'x, y, z'
loop_
 _atom_site_type_symbol
 _atom_site_label
 _atom_site_symmetry_multiplicity
 _atom_site_fract_x
 _atom_site_fract_y
 _atom_site_fract_z
 _atom_site_occupancy
  Na  Na0  1  0.00000000  0.00000000  0.00000000  1
  Na  Na1  1  0.54325500  0.45674500  0.75000000  1
  Na  Na2  1  0.45674500  0.54325500  0.25000000  1
  Na  Na3  1  0.00000000  0.00000000  0.50000000  1
  H  H4  1  0.62672200  0.99467600  0.37915600  1
  H  H5  1  0.81900300  0.52105700  0.02096500  1
  H  H6  1  0.52105700  0.81900300  0.97903500  1
  H  H7  1  0.18099700  0.47894300  0.52096500  1
  H  H8  1  0.18099700  0.47894300  0.97903500  1
  H  H9  1  0.47894300  0.18099700  0.02096500  1
  H  H10  1  0.81900300  0.52105700  0.47903500  1
  H  H11  1  0.52105700  0.81900300  0.52096500  1
  H  H12  1  0.99467600  0.62672200  0.87915600  1
  H  H13  1  0.62672200  0.99467600  0.12084400  1
  H  H14  1  0.00532400  0.37327800  0.37915600  1
  H  H15  1  0.37327800  0.00532400  0.62084400  1
  H  H16  1  0.00532400  0.37327800  0.12084400  1
  H  H17  1  0.37327800  0.00532400  0.87915600  1
  H  H18  1  0.73896200  0.01512800  0.75000000  1
  H  H19  1  0.99467600  0.62672200  0.62084400  1
  H  H20  1  0.26103800  0.98487200  0.25000000  1
  H  H21  1  0.98487200  0.26103800  0.75000000  1
  H  H22  1  0.01512800  0.73896200  0.25000000  1
  H  H23  1  0.47894300  0.18099700  0.47903500  1
  S  S24  1  0.68990000  0.31010000  0.25000000  1
  S  S25  1  0.31010000  0.68990000  0.75000000  1
  O  O26  1  0.86103500  0.61611300  0.92644100  1
  O  O27  1  0.61611300  0.86103500  0.07355900  1
  O  O28  1  0.13896500  0.38388700  0.42644100  1
  O  O29  1  0.38388700  0.13896500  0.57355900  1
  O  O30  1  0.13896500  0.38388700  0.07355900  1
  O  O31  1  0.38388700  0.13896500  0.92644100  1
  O  O32  1  0.86103500  0.61611300  0.57355900  1
  O  O33  1  0.61611300  0.86103500  0.42644100  1
  O  O34  1  0.90804700  0.09195300  0.75000000  1
  O  O35  1  0.09195300  0.90804700  0.25000000  1
