# generated using pymatgen
data_MnH2SO4
_symmetry_space_group_name_H-M   'P 1'
_cell_length_a   4.91344050
_cell_length_b   6.02314724
_cell_length_c   12.37846500
_cell_angle_alpha   90.00059134
_cell_angle_beta   89.99969208
_cell_angle_gamma   93.56338763
_symmetry_Int_Tables_number   1
_chemical_formula_structural   MnH2SO4
_chemical_formula_sum   'Mn4 H8 S4 O16'
_cell_volume   365.62469210
_cell_formula_units_Z   4
loop_
 _symmetry_equiv_pos_site_id
 _symmetry_equiv_pos_as_xyz
  1  'x, y, z'
loop_
 _atom_site_type_symbol
 _atom_site_label
 _atom_site_symmetry_multiplicity
 _atom_site_fract_x
 _atom_site_fract_y
 _atom_site_fract_z
 _atom_site_occupancy
  Mn  Mn0  1  0.37185200  0.19824000  0.27523400  1
  Mn  Mn1  1  0.62814500  0.80175900  0.72476400  1
  Mn  Mn2  1  0.12823300  0.30171700  0.77516800  1
  Mn  Mn3  1  0.87176300  0.69827800  0.22482600  1
  H  H4  1  0.59508900  0.42441900  0.89572800  1
  H  H5  1  0.90490000  0.07557800  0.39573100  1
  H  H6  1  0.40491000  0.57558100  0.10427200  1
  H  H7  1  0.09510300  0.92442500  0.60427000  1
  H  H8  1  0.46657800  0.23862100  0.97327900  1
  H  H9  1  0.03341900  0.26138000  0.47328200  1
  H  H10  1  0.53342300  0.76138000  0.02672200  1
  H  H11  1  0.96658200  0.73862200  0.52671900  1
  S  S12  1  0.06001200  0.79530900  0.89525200  1
  S  S13  1  0.43996900  0.70467200  0.39525200  1
  S  S14  1  0.93998800  0.20469200  0.10474800  1
  S  S15  1  0.56003100  0.29532800  0.60474900  1
  O  O16  1  0.44307500  0.48372700  0.67653800  1
  O  O17  1  0.05690900  0.01623700  0.17653200  1
  O  O18  1  0.55692700  0.51627400  0.32346300  1
  O  O19  1  0.94309100  0.98376200  0.82346800  1
  O  O20  1  0.91708900  0.58521800  0.83746800  1
  O  O21  1  0.58293400  0.91476900  0.33746800  1
  O  O22  1  0.08291200  0.41478100  0.16253200  1
  O  O23  1  0.41706600  0.08523100  0.66253200  1
  O  O24  1  0.36299400  0.79585800  0.86958000  1
  O  O25  1  0.13699900  0.70414400  0.36957900  1
  O  O26  1  0.63700500  0.20414200  0.13042000  1
  O  O27  1  0.86300200  0.29585500  0.63042100  1
  O  O28  1  0.93638000  0.81842800  0.59413600  1
  O  O29  1  0.56363000  0.68158400  0.09414100  1
  O  O30  1  0.06362200  0.18157300  0.40586500  1
  O  O31  1  0.43636900  0.31841700  0.90585900  1
