# generated using pymatgen
data_KCoH6(N3O4)2
_symmetry_space_group_name_H-M   'P 1'
_cell_length_a   6.84614600
_cell_length_b   11.43857600
_cell_length_c   12.99027300
_cell_angle_alpha   90.00000000
_cell_angle_beta   90.00000000
_cell_angle_gamma   90.00000000
_symmetry_Int_Tables_number   1
_chemical_formula_structural   KCoH6(N3O4)2
_chemical_formula_sum   'K4 Co4 H24 N24 O32'
_cell_volume   1017.27037433
_cell_formula_units_Z   4
loop_
 _symmetry_equiv_pos_site_id
 _symmetry_equiv_pos_as_xyz
  1  'x, y, z'
loop_
 _atom_site_type_symbol
 _atom_site_label
 _atom_site_symmetry_multiplicity
 _atom_site_fract_x
 _atom_site_fract_y
 _atom_site_fract_z
 _atom_site_occupancy
  K  K0  1  0.81319700  0.63385500  0.02326700  1
  K  K1  1  0.31319700  0.86614500  0.97673300  1
  K  K2  1  0.18680300  0.13385500  0.47673300  1
  K  K3  1  0.68680300  0.36614500  0.52326700  1
  Co  Co4  1  0.74361900  0.91563100  0.68958900  1
  Co  Co5  1  0.24361900  0.58436900  0.31041100  1
  Co  Co6  1  0.25638100  0.41563100  0.81041100  1
  Co  Co7  1  0.75638100  0.08436900  0.18958900  1
  H  H8  1  0.93717500  0.19092800  0.04616000  1
  H  H9  1  0.43717500  0.30907200  0.95384000  1
  H  H10  1  0.06282500  0.69092800  0.45384000  1
  H  H11  1  0.56282500  0.80907200  0.54616000  1
  H  H12  1  0.89489300  0.28356600  0.14169100  1
  H  H13  1  0.39489300  0.21643400  0.85830900  1
  H  H14  1  0.10510700  0.78356600  0.35830900  1
  H  H15  1  0.60510700  0.71643400  0.64169100  1
  H  H16  1  0.07269700  0.60133400  0.79390100  1
  H  H17  1  0.57269700  0.89866600  0.20609900  1
  H  H18  1  0.06119700  0.99695300  0.76156400  1
  H  H19  1  0.56119700  0.50304700  0.23843600  1
  H  H20  1  0.93880300  0.49695300  0.73843600  1
  H  H21  1  0.43880300  0.00304700  0.26156400  1
  H  H22  1  0.87058100  0.05502300  0.82364800  1
  H  H23  1  0.37058100  0.44497700  0.17635200  1
  H  H24  1  0.12941900  0.55502300  0.67635200  1
  H  H25  1  0.62941900  0.94497700  0.32364800  1
  H  H26  1  0.43168100  0.81835300  0.65311000  1
  H  H27  1  0.93168100  0.68164700  0.34689000  1
  H  H28  1  0.56831900  0.31835300  0.84689000  1
  H  H29  1  0.06831900  0.18164700  0.15311000  1
  H  H30  1  0.92730300  0.10133400  0.70609900  1
  H  H31  1  0.42730300  0.39866600  0.29390100  1
  N  N32  1  0.52508700  0.97833900  0.77176400  1
  N  N33  1  0.02508700  0.52166100  0.22823600  1
  N  N34  1  0.47491300  0.47833900  0.72823600  1
  N  N35  1  0.97491300  0.02166100  0.27176400  1
  N  N36  1  0.67957000  0.02817100  0.57951600  1
  N  N37  1  0.17957000  0.47182900  0.42048400  1
  N  N38  1  0.32043000  0.52817100  0.92048400  1
  N  N39  1  0.82043000  0.97182900  0.07951600  1
  N  N40  1  0.29359600  0.69176500  0.19720500  1
  N  N41  1  0.79359600  0.80823500  0.80279500  1
  N  N42  1  0.54113300  0.14847800  0.11108300  1
  N  N43  1  0.04113300  0.35152200  0.88891700  1
  N  N44  1  0.45886700  0.64847800  0.38891700  1
  N  N45  1  0.95886700  0.85152200  0.61108300  1
  N  N46  1  0.93098900  0.19873600  0.12497200  1
  N  N47  1  0.43098900  0.30126400  0.87502800  1
  N  N48  1  0.06901100  0.69873600  0.37502800  1
  N  N49  1  0.56901100  0.80126400  0.62497200  1
  N  N50  1  0.57790900  0.97087400  0.25315500  1
  N  N51  1  0.07790900  0.52912600  0.74684500  1
  N  N52  1  0.42209100  0.47087400  0.24684500  1
  N  N53  1  0.92209100  0.02912600  0.75315500  1
  N  N54  1  0.70640400  0.19176500  0.30279500  1
  N  N55  1  0.20640400  0.30823500  0.69720500  1
  O  O56  1  0.55680500  0.04874100  0.84357600  1
  O  O57  1  0.05680500  0.45125900  0.15642400  1
  O  O58  1  0.44319500  0.54874100  0.65642400  1
  O  O59  1  0.94319500  0.95125900  0.34357600  1
  O  O60  1  0.35432300  0.94223100  0.75648200  1
  O  O61  1  0.85432300  0.55776900  0.24351800  1
  O  O62  1  0.64567700  0.44223100  0.74351800  1
  O  O63  1  0.14567700  0.05776900  0.25648200  1
  O  O64  1  0.53545200  0.01028800  0.52304600  1
  O  O65  1  0.03545200  0.48971200  0.47695400  1
  O  O66  1  0.46454800  0.51028800  0.97695400  1
  O  O67  1  0.96454800  0.98971200  0.02304600  1
  O  O68  1  0.77939000  0.11947000  0.56877900  1
  O  O69  1  0.27939000  0.38053000  0.43122100  1
  O  O70  1  0.22061000  0.61947000  0.93122100  1
  O  O71  1  0.72061000  0.88053000  0.06877900  1
  O  O72  1  0.84607700  0.24809900  0.34129600  1
  O  O73  1  0.34607700  0.25190100  0.65870400  1
  O  O74  1  0.15392300  0.74809900  0.15870400  1
  O  O75  1  0.65392300  0.75190100  0.84129600  1
  O  O76  1  0.97267900  0.74283100  0.60233700  1
  O  O77  1  0.03798400  0.29597400  0.66193600  1
  O  O78  1  0.46201600  0.70402600  0.16193600  1
  O  O79  1  0.96201600  0.79597400  0.83806400  1
  O  O80  1  0.41858900  0.08236600  0.07059400  1
  O  O81  1  0.91858900  0.41763400  0.92940600  1
  O  O82  1  0.58141100  0.58236600  0.42940600  1
  O  O83  1  0.08141100  0.91763400  0.57059400  1
  O  O84  1  0.52732100  0.25716900  0.10233700  1
  O  O85  1  0.02732100  0.24283100  0.89766300  1
  O  O86  1  0.47267900  0.75716900  0.39766300  1
  O  O87  1  0.53798400  0.20402600  0.33806400  1
