# generated using pymatgen
data_MgAlH4O2F5
_symmetry_space_group_name_H-M   'P 1'
_cell_length_a   7.14467217
_cell_length_b   7.14467217
_cell_length_c   7.14467217
_cell_angle_alpha   124.73824528
_cell_angle_beta   119.51733913
_cell_angle_gamma   86.41581077
_symmetry_Int_Tables_number   1
_chemical_formula_structural   MgAlH4O2F5
_chemical_formula_sum   'Mg2 Al2 H8 O4 F10'
_cell_volume   248.36390395
_cell_formula_units_Z   2
loop_
 _symmetry_equiv_pos_site_id
 _symmetry_equiv_pos_as_xyz
  1  'x, y, z'
loop_
 _atom_site_type_symbol
 _atom_site_label
 _atom_site_symmetry_multiplicity
 _atom_site_fract_x
 _atom_site_fract_y
 _atom_site_fract_z
 _atom_site_occupancy
  Mg  Mg0  1  0.50000000  0.50000000  0.00000000  1
  Mg  Mg1  1  0.00000000  0.00000000  0.00000000  1
  Al  Al2  1  0.50000000  0.50000000  0.50000000  1
  Al  Al3  1  0.00000000  0.50000000  0.00000000  1
  H  H4  1  0.98822900  0.72088600  0.51640200  1
  H  H5  1  0.51177100  0.02817200  0.73265700  1
  H  H6  1  0.79551500  0.27911400  0.26734300  1
  H  H7  1  0.70448500  0.97182800  0.48359800  1
  H  H8  1  0.20448500  0.72088600  0.73265700  1
  H  H9  1  0.48822900  0.97182800  0.26734300  1
  H  H10  1  0.01177100  0.27911400  0.48359800  1
  H  H11  1  0.29551500  0.02817200  0.51640200  1
  O  O12  1  0.42313200  0.13261400  0.70948200  1
  O  O13  1  0.92313200  0.21365000  0.29051800  1
  O  O14  1  0.07686800  0.78635000  0.70948200  1
  O  O15  1  0.57686800  0.86738600  0.29051800  1
  F  F16  1  0.91981300  0.18819500  0.85591400  1
  F  F17  1  0.25000000  0.57091800  0.32091800  1
  F  F18  1  0.75000000  0.42908200  0.67908200  1
  F  F19  1  0.83228100  0.56389900  0.14408600  1
  F  F20  1  0.16771900  0.43610100  0.85591400  1
  F  F21  1  0.58018700  0.43610100  0.26838200  1
  F  F22  1  0.41981300  0.56389900  0.73161800  1
  F  F23  1  0.08018700  0.81180500  0.14408600  1
  F  F24  1  0.66771900  0.81180500  0.73161800  1
  F  F25  1  0.33228100  0.18819500  0.26838200  1
