# generated using pymatgen
data_AlH18Ru(NF)6
_symmetry_space_group_name_H-M   'P 1'
_cell_length_a   10.07421500
_cell_length_b   10.07421500
_cell_length_c   10.07421500
_cell_angle_alpha   90.00000000
_cell_angle_beta   90.00000000
_cell_angle_gamma   90.00000000
_symmetry_Int_Tables_number   1
_chemical_formula_structural   AlH18Ru(NF)6
_chemical_formula_sum   'Al4 H72 Ru4 N24 F24'
_cell_volume   1022.43014475
_cell_formula_units_Z   4
loop_
 _symmetry_equiv_pos_site_id
 _symmetry_equiv_pos_as_xyz
  1  'x, y, z'
loop_
 _atom_site_type_symbol
 _atom_site_label
 _atom_site_symmetry_multiplicity
 _atom_site_fract_x
 _atom_site_fract_y
 _atom_site_fract_z
 _atom_site_occupancy
  Al  Al0  1  0.00000000  0.50000000  0.50000000  1
  Al  Al1  1  0.50000000  0.50000000  0.00000000  1
  Al  Al2  1  0.50000000  0.00000000  0.50000000  1
  Al  Al3  1  0.00000000  0.00000000  0.00000000  1
  H  H4  1  0.89605200  0.24237700  0.44810900  1
  H  H5  1  0.39605200  0.25762300  0.55189100  1
  H  H6  1  0.10394800  0.74237700  0.05189100  1
  H  H7  1  0.25762300  0.55189100  0.39605200  1
  H  H8  1  0.05189100  0.10394800  0.74237700  1
  H  H9  1  0.55189100  0.39605200  0.25762300  1
  H  H10  1  0.24237700  0.44810900  0.89605200  1
  H  H11  1  0.44810900  0.89605200  0.24237700  1
  H  H12  1  0.74237700  0.05189100  0.10394800  1
  H  H13  1  0.75762300  0.94810900  0.60394800  1
  H  H14  1  0.94810900  0.60394800  0.75762300  1
  H  H15  1  0.60394800  0.75762300  0.94810900  1
  H  H16  1  0.10394800  0.75762300  0.55189100  1
  H  H17  1  0.60394800  0.74237700  0.44810900  1
  H  H18  1  0.89605200  0.25762300  0.94810900  1
  H  H19  1  0.74237700  0.44810900  0.60394800  1
  H  H20  1  0.94810900  0.89605200  0.25762300  1
  H  H21  1  0.44810900  0.60394800  0.74237700  1
  H  H22  1  0.75762300  0.55189100  0.10394800  1
  H  H23  1  0.55189100  0.10394800  0.75762300  1
  H  H24  1  0.25762300  0.94810900  0.89605200  1
  H  H25  1  0.24237700  0.05189100  0.39605200  1
  H  H26  1  0.05189100  0.39605200  0.24237700  1
  H  H27  1  0.39605200  0.24237700  0.05189100  1
  H  H28  1  0.77380000  0.13293600  0.45726400  1
  H  H29  1  0.27380000  0.36706400  0.54273600  1
  H  H30  1  0.22620000  0.63293600  0.04273600  1
  H  H31  1  0.36706400  0.54273600  0.27380000  1
  H  H32  1  0.04273600  0.22620000  0.63293600  1
  H  H33  1  0.54273600  0.27380000  0.36706400  1
  H  H34  1  0.13293600  0.45726400  0.77380000  1
  H  H35  1  0.64242000  0.17864000  0.12945100  1
  H  H36  1  0.45726400  0.77380000  0.13293600  1
  H  H37  1  0.86706400  0.95726400  0.72620000  1
  H  H38  1  0.95726400  0.72620000  0.86706400  1
  H  H39  1  0.72620000  0.86706400  0.95726400  1
  H  H40  1  0.22620000  0.86706400  0.54273600  1
  H  H41  1  0.72620000  0.63293600  0.45726400  1
  H  H42  1  0.77380000  0.36706400  0.95726400  1
  H  H43  1  0.63293600  0.45726400  0.72620000  1
  H  H44  1  0.95726400  0.77380000  0.36706400  1
  H  H45  1  0.45726400  0.72620000  0.63293600  1
  H  H46  1  0.86706400  0.54273600  0.22620000  1
  H  H47  1  0.54273600  0.22620000  0.86706400  1
  H  H48  1  0.36706400  0.95726400  0.77380000  1
  H  H49  1  0.13293600  0.04273600  0.27380000  1
  H  H50  1  0.04273600  0.27380000  0.13293600  1
  H  H51  1  0.27380000  0.13293600  0.04273600  1
  H  H52  1  0.87054900  0.14242000  0.32136000  1
  H  H53  1  0.37054900  0.35758000  0.67864000  1
  H  H54  1  0.12945100  0.64242000  0.17864000  1
  H  H55  1  0.35758000  0.67864000  0.37054900  1
  H  H56  1  0.17864000  0.12945100  0.64242000  1
  H  H57  1  0.67864000  0.37054900  0.35758000  1
  H  H58  1  0.14242000  0.32136000  0.87054900  1
  H  H59  1  0.32136000  0.87054900  0.14242000  1
  H  H60  1  0.37054900  0.14242000  0.17864000  1
  H  H61  1  0.17864000  0.37054900  0.14242000  1
  H  H62  1  0.14242000  0.17864000  0.37054900  1
  H  H63  1  0.35758000  0.82136000  0.87054900  1
  H  H64  1  0.67864000  0.12945100  0.85758000  1
  H  H65  1  0.85758000  0.67864000  0.12945100  1
  H  H66  1  0.32136000  0.62945100  0.64242000  1
  H  H67  1  0.82136000  0.87054900  0.35758000  1
  H  H68  1  0.64242000  0.32136000  0.62945100  1
  H  H69  1  0.87054900  0.35758000  0.82136000  1
  H  H70  1  0.62945100  0.64242000  0.32136000  1
  H  H71  1  0.12945100  0.85758000  0.67864000  1
  H  H72  1  0.62945100  0.85758000  0.82136000  1
  H  H73  1  0.82136000  0.62945100  0.85758000  1
  H  H74  1  0.85758000  0.82136000  0.62945100  1
  H  H75  1  0.63293600  0.04273600  0.22620000  1
  Ru  Ru76  1  0.50000000  0.00000000  0.00000000  1
  Ru  Ru77  1  0.00000000  0.00000000  0.50000000  1
  Ru  Ru78  1  0.00000000  0.50000000  0.00000000  1
  Ru  Ru79  1  0.50000000  0.50000000  0.50000000  1
  N  N80  1  0.86965500  0.14682000  0.42344700  1
  N  N81  1  0.36965500  0.35318000  0.57655300  1
  N  N82  1  0.13034500  0.64682000  0.07655300  1
  N  N83  1  0.35318000  0.57655300  0.36965500  1
  N  N84  1  0.07655300  0.13034500  0.64682000  1
  N  N85  1  0.57655300  0.36965500  0.35318000  1
  N  N86  1  0.14682000  0.42344700  0.86965500  1
  N  N87  1  0.42344700  0.86965500  0.14682000  1
  N  N88  1  0.64682000  0.07655300  0.13034500  1
  N  N89  1  0.85318000  0.92344700  0.63034500  1
  N  N90  1  0.92344700  0.63034500  0.85318000  1
  N  N91  1  0.63034500  0.85318000  0.92344700  1
  N  N92  1  0.13034500  0.85318000  0.57655300  1
  N  N93  1  0.63034500  0.64682000  0.42344700  1
  N  N94  1  0.86965500  0.35318000  0.92344700  1
  N  N95  1  0.64682000  0.42344700  0.63034500  1
  N  N96  1  0.92344700  0.86965500  0.35318000  1
  N  N97  1  0.42344700  0.63034500  0.64682000  1
  N  N98  1  0.85318000  0.57655300  0.13034500  1
  N  N99  1  0.57655300  0.13034500  0.85318000  1
  N  N100  1  0.35318000  0.92344700  0.86965500  1
  N  N101  1  0.14682000  0.07655300  0.36965500  1
  N  N102  1  0.07655300  0.36965500  0.14682000  1
  N  N103  1  0.36965500  0.14682000  0.07655300  1
  F  F104  1  0.61388000  0.13017900  0.56009700  1
  F  F105  1  0.11388000  0.36982100  0.43990300  1
  F  F106  1  0.38612000  0.63017900  0.93990300  1
  F  F107  1  0.36982100  0.43990300  0.11388000  1
  F  F108  1  0.93990300  0.38612000  0.63017900  1
  F  F109  1  0.43990300  0.11388000  0.36982100  1
  F  F110  1  0.13017900  0.56009700  0.61388000  1
  F  F111  1  0.56009700  0.61388000  0.13017900  1
  F  F112  1  0.63017900  0.93990300  0.38612000  1
  F  F113  1  0.86982100  0.06009700  0.88612000  1
  F  F114  1  0.06009700  0.88612000  0.86982100  1
  F  F115  1  0.88612000  0.86982100  0.06009700  1
  F  F116  1  0.38612000  0.86982100  0.43990300  1
  F  F117  1  0.88612000  0.63017900  0.56009700  1
  F  F118  1  0.61388000  0.36982100  0.06009700  1
  F  F119  1  0.63017900  0.56009700  0.88612000  1
  F  F120  1  0.06009700  0.61388000  0.36982100  1
  F  F121  1  0.56009700  0.88612000  0.63017900  1
  F  F122  1  0.86982100  0.43990300  0.38612000  1
  F  F123  1  0.43990300  0.38612000  0.86982100  1
  F  F124  1  0.36982100  0.06009700  0.61388000  1
  F  F125  1  0.13017900  0.93990300  0.11388000  1
  F  F126  1  0.93990300  0.11388000  0.13017900  1
  F  F127  1  0.11388000  0.13017900  0.93990300  1
