# generated using pymatgen
data_KH6C2S2NO4
_symmetry_space_group_name_H-M   'P 1'
_cell_length_a   8.64865700
_cell_length_b   7.78279200
_cell_length_c   12.15943245
_cell_angle_alpha   72.56728927
_cell_angle_beta   90.00000000
_cell_angle_gamma   90.00000000
_symmetry_Int_Tables_number   1
_chemical_formula_structural   KH6C2S2NO4
_chemical_formula_sum   'K4 H24 C8 S8 N4 O16'
_cell_volume   780.86757671
_cell_formula_units_Z   4
loop_
 _symmetry_equiv_pos_site_id
 _symmetry_equiv_pos_as_xyz
  1  'x, y, z'
loop_
 _atom_site_type_symbol
 _atom_site_label
 _atom_site_symmetry_multiplicity
 _atom_site_fract_x
 _atom_site_fract_y
 _atom_site_fract_z
 _atom_site_occupancy
  K  K0  1  0.02447500  0.57088500  0.21144900  1
  K  K1  1  0.52447500  0.42911500  0.28855100  1
  K  K2  1  0.97552500  0.42911500  0.78855100  1
  K  K3  1  0.47552500  0.57088500  0.71144900  1
  H  H4  1  0.21669200  0.99810800  0.82820700  1
  H  H5  1  0.71669200  0.00189200  0.67179300  1
  H  H6  1  0.78330800  0.00189200  0.17179300  1
  H  H7  1  0.28330800  0.99810800  0.32820700  1
  H  H8  1  0.15806700  0.93741800  0.97790400  1
  H  H9  1  0.65806700  0.06258200  0.52209600  1
  H  H10  1  0.84193300  0.06258200  0.02209600  1
  H  H11  1  0.34193300  0.93741800  0.47790400  1
  H  H12  1  0.21702800  0.76566000  0.91307000  1
  H  H13  1  0.71702800  0.23434000  0.58693000  1
  H  H14  1  0.78297200  0.23434000  0.08693000  1
  H  H15  1  0.28297200  0.76566000  0.41307000  1
  H  H16  1  0.02304600  0.73706300  0.47327600  1
  H  H17  1  0.52304600  0.26293700  0.02672400  1
  H  H18  1  0.97695400  0.26293700  0.52672400  1
  H  H19  1  0.47695400  0.73706300  0.97327600  1
  H  H20  1  0.59930000  0.85611200  0.04516800  1
  H  H21  1  0.09930000  0.14388800  0.45483200  1
  H  H22  1  0.40070000  0.14388800  0.95483200  1
  H  H23  1  0.90070000  0.85611200  0.54516800  1
  H  H24  1  0.60068500  0.91570700  0.88965300  1
  H  H25  1  0.10068500  0.08429300  0.61034700  1
  H  H26  1  0.39931500  0.08429300  0.11034700  1
  H  H27  1  0.89931500  0.91570700  0.38965300  1
  C  C28  1  0.91189100  0.80608800  0.47037900  1
  C  C29  1  0.83957500  0.10373900  0.10069400  1
  C  C30  1  0.66042500  0.10373900  0.60069400  1
  C  C31  1  0.16042500  0.89626100  0.89930600  1
  C  C32  1  0.58810900  0.80608800  0.97037900  1
  C  C33  1  0.08810900  0.19391200  0.52962100  1
  C  C34  1  0.41189100  0.19391200  0.02962100  1
  C  C35  1  0.33957500  0.89626100  0.39930600  1
  S  S36  1  0.73509700  0.64212500  0.98025300  1
  S  S37  1  0.23509700  0.35787500  0.51974700  1
  S  S38  1  0.26490300  0.35787500  0.01974700  1
  S  S39  1  0.76490300  0.64212500  0.48025300  1
  S  S40  1  0.53228200  0.87703100  0.35572600  1
  S  S41  1  0.03228200  0.12296900  0.14427400  1
  S  S42  1  0.46771800  0.12296900  0.64427400  1
  S  S43  1  0.96771800  0.87703100  0.85572600  1
  N  N44  1  0.10024600  0.26287500  0.02782300  1
  N  N45  1  0.39975400  0.26287500  0.52782300  1
  N  N46  1  0.89975400  0.73712500  0.97217700  1
  N  N47  1  0.60024600  0.73712500  0.47217700  1
  O  O48  1  0.22681900  0.48236200  0.40233000  1
  O  O49  1  0.39538900  0.94453800  0.66946200  1
  O  O50  1  0.10461100  0.94453800  0.16946200  1
  O  O51  1  0.60461100  0.05546200  0.33053800  1
  O  O52  1  0.70581100  0.56032800  0.88789900  1
  O  O53  1  0.20581100  0.43967200  0.61210100  1
  O  O54  1  0.29418900  0.43967200  0.11210100  1
  O  O55  1  0.79418900  0.56032800  0.38789900  1
  O  O56  1  0.72681900  0.51763800  0.09767000  1
  O  O57  1  0.89538900  0.05546200  0.83053800  1
  O  O58  1  0.27318100  0.48236200  0.90233000  1
  O  O59  1  0.77318100  0.51763800  0.59767000  1
  O  O60  1  0.02987000  0.19594300  0.24235100  1
  O  O61  1  0.97013000  0.80405700  0.75764900  1
  O  O62  1  0.47013000  0.19594300  0.74235100  1
  O  O63  1  0.52987000  0.80405700  0.25764900  1
