# generated using pymatgen
data_AlH36C12S6(IO2)3
_symmetry_space_group_name_H-M   'P 1'
_cell_length_a   10.44268807
_cell_length_b   10.44268807
_cell_length_c   10.44268860
_cell_angle_alpha   63.07479587
_cell_angle_beta   63.07479587
_cell_angle_gamma   63.07479505
_symmetry_Int_Tables_number   1
_chemical_formula_structural   AlH36C12S6(IO2)3
_chemical_formula_sum   'Al1 H36 C12 S6 I3 O6'
_cell_volume   860.16871235
_cell_formula_units_Z   1
loop_
 _symmetry_equiv_pos_site_id
 _symmetry_equiv_pos_as_xyz
  1  'x, y, z'
loop_
 _atom_site_type_symbol
 _atom_site_label
 _atom_site_symmetry_multiplicity
 _atom_site_fract_x
 _atom_site_fract_y
 _atom_site_fract_z
 _atom_site_occupancy
  Al  Al0  1  0.00000000  0.00000000  0.00000000  1
  H  H1  1  0.03055100  0.66621400  0.82848500  1
  H  H2  1  0.82848500  0.03055100  0.66621400  1
  H  H3  1  0.66621400  0.82848500  0.03055100  1
  H  H4  1  0.96944900  0.33378600  0.17151500  1
  H  H5  1  0.17151500  0.96944900  0.33378600  1
  H  H6  1  0.33378600  0.17151500  0.96944900  1
  H  H7  1  0.22575900  0.55529400  0.76867200  1
  H  H8  1  0.76867200  0.22575900  0.55529400  1
  H  H9  1  0.55529400  0.76867200  0.22575900  1
  H  H10  1  0.77424100  0.44470600  0.23132800  1
  H  H11  1  0.23132800  0.77424100  0.44470600  1
  H  H12  1  0.44470600  0.23132800  0.77424100  1
  H  H13  1  0.12667700  0.52910400  0.96890500  1
  H  H14  1  0.96890500  0.12667700  0.52910400  1
  H  H15  1  0.52910400  0.96890500  0.12667700  1
  H  H16  1  0.00210900  0.65692700  0.45296900  1
  H  H17  1  0.87332300  0.47089600  0.03109500  1
  H  H18  1  0.47089600  0.03109500  0.87332300  1
  H  H19  1  0.34307300  0.54703100  0.99789100  1
  H  H20  1  0.99789100  0.34307300  0.54703100  1
  H  H21  1  0.54703100  0.99789100  0.34307300  1
  H  H22  1  0.65692700  0.45296900  0.00210900  1
  H  H23  1  0.29696000  0.11515800  0.57689500  1
  H  H24  1  0.11515800  0.57689500  0.29696000  1
  H  H25  1  0.57689500  0.29696000  0.11515800  1
  H  H26  1  0.70304000  0.88484200  0.42310500  1
  H  H27  1  0.88484200  0.42310500  0.70304000  1
  H  H28  1  0.42310500  0.70304000  0.88484200  1
  H  H29  1  0.42224000  0.20214700  0.55629200  1
  H  H30  1  0.20214700  0.55629200  0.42224000  1
  H  H31  1  0.55629200  0.42224000  0.20214700  1
  H  H32  1  0.57776000  0.79785300  0.44370800  1
  H  H33  1  0.79785300  0.44370800  0.57776000  1
  H  H34  1  0.44370800  0.57776000  0.79785300  1
  H  H35  1  0.45296900  0.00210900  0.65692700  1
  H  H36  1  0.03109500  0.87332300  0.47089600  1
  C  C37  1  0.37003500  0.63202800  0.88685900  1
  C  C38  1  0.88685900  0.37003500  0.63202800  1
  C  C39  1  0.63202800  0.88685900  0.37003500  1
  C  C40  1  0.62996500  0.36797200  0.11314100  1
  C  C41  1  0.38977400  0.14571600  0.86193300  1
  C  C42  1  0.14571600  0.86193300  0.38977400  1
  C  C43  1  0.86193300  0.38977400  0.14571600  1
  C  C44  1  0.61022600  0.85428400  0.13806700  1
  C  C45  1  0.36797200  0.11314100  0.62996500  1
  C  C46  1  0.13806700  0.61022600  0.85428400  1
  C  C47  1  0.11314100  0.62996500  0.36797200  1
  C  C48  1  0.85428400  0.13806700  0.61022600  1
  S  S49  1  0.24803700  0.15986700  0.80093100  1
  S  S50  1  0.75196300  0.84013300  0.19906900  1
  S  S51  1  0.80093100  0.24803700  0.15986700  1
  S  S52  1  0.15986700  0.80093100  0.24803700  1
  S  S53  1  0.84013300  0.19906900  0.75196300  1
  S  S54  1  0.19906900  0.75196300  0.84013300  1
  I  I55  1  0.24878900  0.24878900  0.24878900  1
  I  I56  1  0.50000000  0.50000000  0.50000000  1
  I  I57  1  0.75121100  0.75121100  0.75121100  1
  O  O58  1  0.08741900  0.80072000  0.98288000  1
  O  O59  1  0.98288000  0.08741900  0.80072000  1
  O  O60  1  0.19928000  0.01712000  0.91258100  1
  O  O61  1  0.91258100  0.19928000  0.01712000  1
  O  O62  1  0.01712000  0.91258100  0.19928000  1
  O  O63  1  0.80072000  0.98288000  0.08741900  1
