# generated using pymatgen
data_InH36C12S6(IO2)3
_symmetry_space_group_name_H-M   'P 1'
_cell_length_a   10.00923766
_cell_length_b   10.00923766
_cell_length_c   10.00923811
_cell_angle_alpha   69.95420969
_cell_angle_beta   69.95420969
_cell_angle_gamma   69.95420848
_symmetry_Int_Tables_number   1
_chemical_formula_structural   InH36C12S6(IO2)3
_chemical_formula_sum   'In1 H36 C12 S6 I3 O6'
_cell_volume   855.63692143
_cell_formula_units_Z   1
loop_
 _symmetry_equiv_pos_site_id
 _symmetry_equiv_pos_as_xyz
  1  'x, y, z'
loop_
 _atom_site_type_symbol
 _atom_site_label
 _atom_site_symmetry_multiplicity
 _atom_site_fract_x
 _atom_site_fract_y
 _atom_site_fract_z
 _atom_site_occupancy
  In  In0  1  0.00000000  0.00000000  0.00000000  1
  H  H1  1  0.23607700  0.52712300  0.75451300  1
  H  H2  1  0.75451300  0.23607700  0.52712300  1
  H  H3  1  0.52712300  0.75451300  0.23607700  1
  H  H4  1  0.76392300  0.47287700  0.24548700  1
  H  H5  1  0.24548700  0.76392300  0.47287700  1
  H  H6  1  0.47287700  0.24548700  0.76392300  1
  H  H7  1  0.15358000  0.48369300  0.95159700  1
  H  H8  1  0.95159700  0.15358000  0.48369300  1
  H  H9  1  0.48369300  0.95159700  0.15358000  1
  H  H10  1  0.84642000  0.51630700  0.04840300  1
  H  H11  1  0.04840300  0.84642000  0.51630700  1
  H  H12  1  0.51630700  0.04840300  0.84642000  1
  H  H13  1  0.04220100  0.60613600  0.82360500  1
  H  H14  1  0.82360500  0.04220100  0.60613600  1
  H  H15  1  0.60613600  0.82360500  0.04220100  1
  H  H16  1  0.99235800  0.65690300  0.45513600  1
  H  H17  1  0.95779900  0.39386400  0.17639500  1
  H  H18  1  0.39386400  0.17639500  0.95779900  1
  H  H19  1  0.34309700  0.54486400  0.00764200  1
  H  H20  1  0.00764200  0.34309700  0.54486400  1
  H  H21  1  0.54486400  0.00764200  0.34309700  1
  H  H22  1  0.65690300  0.45513600  0.99235800  1
  H  H23  1  0.28344700  0.07716200  0.60024400  1
  H  H24  1  0.07716200  0.60024400  0.28344700  1
  H  H25  1  0.60024400  0.28344700  0.07716200  1
  H  H26  1  0.71655300  0.92283800  0.39975600  1
  H  H27  1  0.92283800  0.39975600  0.71655300  1
  H  H28  1  0.39975600  0.71655300  0.92283800  1
  H  H29  1  0.41075700  0.18487800  0.55646600  1
  H  H30  1  0.18487800  0.55646600  0.41075700  1
  H  H31  1  0.55646600  0.41075700  0.18487800  1
  H  H32  1  0.58924300  0.81512200  0.44353400  1
  H  H33  1  0.81512200  0.44353400  0.58924300  1
  H  H34  1  0.44353400  0.58924300  0.81512200  1
  H  H35  1  0.45513600  0.99235800  0.65690300  1
  H  H36  1  0.17639500  0.95779900  0.39386400  1
  C  C37  1  0.36295800  0.63311600  0.90680600  1
  C  C38  1  0.90680600  0.36295800  0.63311600  1
  C  C39  1  0.63311600  0.90680600  0.36295800  1
  C  C40  1  0.63704200  0.36688400  0.09319400  1
  C  C41  1  0.43249400  0.15345800  0.84887400  1
  C  C42  1  0.15345800  0.84887400  0.43249400  1
  C  C43  1  0.84887400  0.43249400  0.15345800  1
  C  C44  1  0.56750600  0.84654200  0.15112600  1
  C  C45  1  0.36688400  0.09319400  0.63704200  1
  C  C46  1  0.15112600  0.56750600  0.84654200  1
  C  C47  1  0.09319400  0.63704200  0.36688400  1
  C  C48  1  0.84654200  0.15112600  0.56750600  1
  S  S49  1  0.19508700  0.72391900  0.85153200  1
  S  S50  1  0.85153200  0.19508700  0.72391900  1
  S  S51  1  0.72391900  0.85153200  0.19508700  1
  S  S52  1  0.80491300  0.27608100  0.14846800  1
  S  S53  1  0.14846800  0.80491300  0.27608100  1
  S  S54  1  0.27608100  0.14846800  0.80491300  1
  I  I55  1  0.50000000  0.50000000  0.50000000  1
  I  I56  1  0.24685800  0.24685800  0.24685800  1
  I  I57  1  0.75314200  0.75314200  0.75314200  1
  O  O58  1  0.08116100  0.76954700  0.99050100  1
  O  O59  1  0.99050100  0.08116100  0.76954700  1
  O  O60  1  0.23045300  0.00949900  0.91883900  1
  O  O61  1  0.91883900  0.23045300  0.00949900  1
  O  O62  1  0.00949900  0.91883900  0.23045300  1
  O  O63  1  0.76954700  0.99050100  0.08116100  1
