# generated using pymatgen
data_VH20S2(NO7)2
_symmetry_space_group_name_H-M   'P 1'
_cell_length_a   12.63563500
_cell_length_b   6.35426100
_cell_length_c   9.33032066
_cell_angle_alpha   72.90120479
_cell_angle_beta   90.00000000
_cell_angle_gamma   90.00000000
_symmetry_Int_Tables_number   1
_chemical_formula_structural   VH20S2(NO7)2
_chemical_formula_sum   'V2 H40 S4 N4 O28'
_cell_volume   716.02032892
_cell_formula_units_Z   2
loop_
 _symmetry_equiv_pos_site_id
 _symmetry_equiv_pos_as_xyz
  1  'x, y, z'
loop_
 _atom_site_type_symbol
 _atom_site_label
 _atom_site_symmetry_multiplicity
 _atom_site_fract_x
 _atom_site_fract_y
 _atom_site_fract_z
 _atom_site_occupancy
  V  V0  1  0.50000000  0.00000000  0.50000000  1
  V  V1  1  0.00000000  0.00000000  0.00000000  1
  H  H2  1  0.35206400  0.32624800  0.47703900  1
  H  H3  1  0.85206400  0.67375200  0.02296100  1
  H  H4  1  0.64793600  0.67375200  0.52296100  1
  H  H5  1  0.14793600  0.32624800  0.97703900  1
  H  H6  1  0.43521500  0.33679000  0.60229400  1
  H  H7  1  0.93521500  0.66321000  0.89770600  1
  H  H8  1  0.56478500  0.66321000  0.39770600  1
  H  H9  1  0.06478500  0.33679000  0.10229400  1
  H  H10  1  0.69014900  0.99375100  0.64277100  1
  H  H11  1  0.19014900  0.00624900  0.85722900  1
  H  H12  1  0.30985100  0.00624900  0.35722900  1
  H  H13  1  0.80985100  0.99375100  0.14277100  1
  H  H14  1  0.60204800  0.93751700  0.76917800  1
  H  H15  1  0.10204800  0.06248300  0.73082200  1
  H  H16  1  0.39795200  0.06248300  0.23082200  1
  H  H17  1  0.89795200  0.93751700  0.26917800  1
  H  H18  1  0.62156100  0.10240300  0.24591200  1
  H  H19  1  0.12156100  0.89759700  0.25408800  1
  H  H20  1  0.37843900  0.89759700  0.75408800  1
  H  H21  1  0.87843900  0.10240300  0.74591200  1
  H  H22  1  0.58785500  0.32933100  0.27596600  1
  H  H23  1  0.08785500  0.67066900  0.22403400  1
  H  H24  1  0.41214500  0.67066900  0.72403400  1
  H  H25  1  0.91214500  0.32933100  0.77596600  1
  H  H26  1  0.92416400  0.36743100  0.33657400  1
  H  H27  1  0.42416400  0.63256900  0.16342600  1
  H  H28  1  0.07583600  0.63256900  0.66342600  1
  H  H29  1  0.57583600  0.36743100  0.83657400  1
  H  H30  1  0.83031100  0.46269600  0.43335500  1
  H  H31  1  0.33031100  0.53730400  0.06664500  1
  H  H32  1  0.16968900  0.53730400  0.56664500  1
  H  H33  1  0.66968900  0.46269600  0.93335500  1
  H  H34  1  0.79660500  0.40307900  0.27485600  1
  H  H35  1  0.29660500  0.59692100  0.22514400  1
  H  H36  1  0.20339500  0.59692100  0.72514400  1
  H  H37  1  0.70339500  0.40307900  0.77485600  1
  H  H38  1  0.82859400  0.19905200  0.43521600  1
  H  H39  1  0.32859400  0.80094800  0.06478400  1
  H  H40  1  0.67140600  0.19905200  0.93521600  1
  H  H41  1  0.17140600  0.80094800  0.56478400  1
  S  S42  1  0.63463200  0.73937800  0.09097100  1
  S  S43  1  0.13463200  0.26062200  0.40902900  1
  S  S44  1  0.36536800  0.26062200  0.90902900  1
  S  S45  1  0.86536800  0.73937800  0.59097100  1
  N  N46  1  0.84464800  0.35782300  0.36890200  1
  N  N47  1  0.34464800  0.64217700  0.13109800  1
  N  N48  1  0.15535200  0.64217700  0.63109800  1
  N  N49  1  0.65535200  0.35782300  0.86890200  1
  O  O50  1  0.42734600  0.29907500  0.50709900  1
  O  O51  1  0.92734600  0.70092500  0.99290100  1
  O  O52  1  0.57265400  0.70092500  0.49290100  1
  O  O53  1  0.07265400  0.29907500  0.00709900  1
  O  O54  1  0.61590600  0.02626200  0.66362200  1
  O  O55  1  0.11590600  0.97373800  0.83637800  1
  O  O56  1  0.38409400  0.97373800  0.33637800  1
  O  O57  1  0.88409400  0.02626200  0.16362200  1
  O  O58  1  0.60684400  0.17321900  0.32485700  1
  O  O59  1  0.10684400  0.82678100  0.17514300  1
  O  O60  1  0.39315600  0.82678100  0.67514300  1
  O  O61  1  0.89315600  0.17321900  0.82485700  1
  O  O62  1  0.67467200  0.94859000  0.11543600  1
  O  O63  1  0.17467200  0.05141000  0.38456400  1
  O  O64  1  0.32532800  0.05141000  0.88456400  1
  O  O65  1  0.82532800  0.94859000  0.61543600  1
  O  O66  1  0.56252800  0.62253900  0.21787900  1
  O  O67  1  0.06252800  0.37746100  0.28212100  1
  O  O68  1  0.43747200  0.37746100  0.78212100  1
  O  O69  1  0.93747200  0.62253900  0.71787900  1
  O  O70  1  0.57604900  0.78528300  0.94830000  1
  O  O71  1  0.07604900  0.21471700  0.55170000  1
  O  O72  1  0.42395100  0.21471700  0.05170000  1
  O  O73  1  0.92395100  0.78528300  0.44830000  1
  O  O74  1  0.72635700  0.58879000  0.09017100  1
  O  O75  1  0.22635700  0.41121000  0.40982900  1
  O  O76  1  0.27364300  0.41121000  0.90982900  1
  O  O77  1  0.77364300  0.58879000  0.59017100  1
