# generated using pymatgen
data_CaAl4Si2(HO6)2
_symmetry_space_group_name_H-M   'P 1'
_cell_length_a   5.15675030
_cell_length_b   5.15675030
_cell_length_c   19.41433026
_cell_angle_alpha   87.19830411
_cell_angle_beta   87.19830411
_cell_angle_gamma   120.04131119
_symmetry_Int_Tables_number   1
_chemical_formula_structural   CaAl4Si2(HO6)2
_chemical_formula_sum   'Ca2 Al8 Si4 H4 O24'
_cell_volume   444.77102799
_cell_formula_units_Z   2
loop_
 _symmetry_equiv_pos_site_id
 _symmetry_equiv_pos_as_xyz
  1  'x, y, z'
loop_
 _atom_site_type_symbol
 _atom_site_label
 _atom_site_symmetry_multiplicity
 _atom_site_fract_x
 _atom_site_fract_y
 _atom_site_fract_z
 _atom_site_occupancy
  Ca  Ca0  1  0.09405000  0.90756300  0.74916300  1
  Ca  Ca1  1  0.90756300  0.09405000  0.24916300  1
  Al  Al2  1  0.19513900  0.70860200  0.35756900  1
  Al  Al3  1  0.70860200  0.19513900  0.85756900  1
  Al  Al4  1  0.33249900  0.16793800  0.99899700  1
  Al  Al5  1  0.16793800  0.33249900  0.49899700  1
  Al  Al6  1  0.66445100  0.83432500  0.99913200  1
  Al  Al7  1  0.83432500  0.66445100  0.49913200  1
  Al  Al8  1  0.46698700  0.60811900  0.64043800  1
  Al  Al9  1  0.60811900  0.46698700  0.14043800  1
  Si  Si10  1  0.39155400  0.53819400  0.85427900  1
  Si  Si11  1  0.53819400  0.39155400  0.35427900  1
  Si  Si12  1  0.28892000  0.80593300  0.14388500  1
  Si  Si13  1  0.80593300  0.28892000  0.64388500  1
  H  H14  1  0.70807600  0.01772700  0.43809900  1
  H  H15  1  0.01772700  0.70807600  0.93809900  1
  H  H16  1  0.29018200  0.97655800  0.56126600  1
  H  H17  1  0.97655800  0.29018200  0.06126600  1
  O  O18  1  0.89034900  0.01519000  0.44738500  1
  O  O19  1  0.01519000  0.89034900  0.94738500  1
  O  O20  1  0.10875000  0.97843200  0.55083700  1
  O  O21  1  0.97843200  0.10875000  0.05083700  1
  O  O22  1  0.86956300  0.66388500  0.31927100  1
  O  O23  1  0.66388500  0.86956300  0.81927100  1
  O  O24  1  0.10542900  0.32022000  0.67859700  1
  O  O25  1  0.32022000  0.10542900  0.17859700  1
  O  O26  1  0.50376700  0.07317000  0.33036500  1
  O  O27  1  0.07317000  0.50376700  0.83036500  1
  O  O28  1  0.58825300  0.48471900  0.05144400  1
  O  O29  1  0.48471900  0.58825300  0.55144400  1
  O  O30  1  0.39647500  0.51631300  0.93861200  1
  O  O31  1  0.51631300  0.39647500  0.43861200  1
  O  O32  1  0.35327700  0.86339600  0.05953300  1
  O  O33  1  0.86339600  0.35327700  0.55953300  1
  O  O34  1  0.62745800  0.12683800  0.94671300  1
  O  O35  1  0.12683800  0.62745800  0.44671300  1
  O  O36  1  0.53872300  0.73722800  0.17763600  1
  O  O37  1  0.73722800  0.53872300  0.67763600  1
  O  O38  1  0.44538200  0.27960000  0.82073700  1
  O  O39  1  0.27960000  0.44538200  0.32073700  1
  O  O40  1  0.95268900  0.51267600  0.16764100  1
  O  O41  1  0.51267600  0.95268900  0.66764100  1
