# generated using pymatgen
data_SrH2Br2O7
_symmetry_space_group_name_H-M   'P 1'
_cell_length_a   7.61099557
_cell_length_b   7.61099557
_cell_length_c   9.00518380
_cell_angle_alpha   54.11146333
_cell_angle_beta   54.11146333
_cell_angle_gamma   61.58429573
_symmetry_Int_Tables_number   1
_chemical_formula_structural   SrH2Br2O7
_chemical_formula_sum   'Sr2 H4 Br4 O14'
_cell_volume   335.36670558
_cell_formula_units_Z   2
loop_
 _symmetry_equiv_pos_site_id
 _symmetry_equiv_pos_as_xyz
  1  'x, y, z'
loop_
 _atom_site_type_symbol
 _atom_site_label
 _atom_site_symmetry_multiplicity
 _atom_site_fract_x
 _atom_site_fract_y
 _atom_site_fract_z
 _atom_site_occupancy
  Sr  Sr0  1  0.64856600  0.35143400  0.75000000  1
  Sr  Sr1  1  0.35143400  0.64856600  0.25000000  1
  H  H2  1  0.28520600  0.78257600  0.63473300  1
  H  H3  1  0.21742400  0.71479400  0.86526700  1
  H  H4  1  0.71479400  0.21742400  0.36526700  1
  H  H5  1  0.78257600  0.28520600  0.13473300  1
  Br  Br6  1  0.21389700  0.17019200  0.80453600  1
  Br  Br7  1  0.82980800  0.78610300  0.69546400  1
  Br  Br8  1  0.78610300  0.82980800  0.19546400  1
  Br  Br9  1  0.17019200  0.21389700  0.30453600  1
  O  O10  1  0.32411600  0.67588400  0.75000000  1
  O  O11  1  0.67588400  0.32411600  0.25000000  1
  O  O12  1  0.09912800  0.27690100  0.48705800  1
  O  O13  1  0.72309900  0.90087200  0.01294200  1
  O  O14  1  0.90087200  0.72309900  0.51294200  1
  O  O15  1  0.27690100  0.09912800  0.98705800  1
  O  O16  1  0.25519300  0.93315900  0.39976800  1
  O  O17  1  0.06684100  0.74480700  0.10023200  1
  O  O18  1  0.74480700  0.06684100  0.60023200  1
  O  O19  1  0.93315900  0.25519300  0.89976800  1
  O  O20  1  0.40401200  0.31039900  0.12191800  1
  O  O21  1  0.68960100  0.59598800  0.37808200  1
  O  O22  1  0.59598800  0.68960100  0.87808200  1
  O  O23  1  0.31039900  0.40401200  0.62191800  1
