# generated using pymatgen
data_Co7P6(HO6)4
_symmetry_space_group_name_H-M   'P 1'
_cell_length_a   6.53596100
_cell_length_b   7.93098860
_cell_length_c   9.60072749
_cell_angle_alpha   104.47928669
_cell_angle_beta   108.95625833
_cell_angle_gamma   101.37810467
_symmetry_Int_Tables_number   1
_chemical_formula_structural   Co7P6(HO6)4
_chemical_formula_sum   'Co7 P6 H4 O24'
_cell_volume   434.14126436
_cell_formula_units_Z   1
loop_
 _symmetry_equiv_pos_site_id
 _symmetry_equiv_pos_as_xyz
  1  'x, y, z'
loop_
 _atom_site_type_symbol
 _atom_site_label
 _atom_site_symmetry_multiplicity
 _atom_site_fract_x
 _atom_site_fract_y
 _atom_site_fract_z
 _atom_site_occupancy
  Co  Co0  1  0.05092100  0.71284700  0.51392200  1
  Co  Co1  1  0.94907900  0.28715300  0.48607800  1
  Co  Co2  1  0.28928100  0.81106200  0.28689200  1
  Co  Co3  1  0.71071900  0.18893800  0.71310800  1
  Co  Co4  1  0.38794100  0.45858000  0.10874800  1
  Co  Co5  1  0.61205900  0.54142000  0.89125200  1
  Co  Co6  1  0.00000000  0.00000000  0.00000000  1
  P  P7  1  0.22375400  0.14549300  0.77859400  1
  P  P8  1  0.77624600  0.85450700  0.22140600  1
  P  P9  1  0.41399600  0.23260800  0.37249800  1
  P  P10  1  0.58600400  0.76739200  0.62750200  1
  P  P11  1  0.08361200  0.58017300  0.82618300  1
  P  P12  1  0.91638800  0.41982700  0.17381700  1
  H  H13  1  0.82536100  0.12698000  0.19173100  1
  H  H14  1  0.17463900  0.87302000  0.80826900  1
  H  H15  1  0.37383200  0.42131600  0.56316200  1
  H  H16  1  0.62616800  0.57868400  0.43683800  1
  O  O17  1  0.20298500  0.93334000  0.72506100  1
  O  O18  1  0.79701500  0.06666000  0.27493900  1
  O  O19  1  0.22221100  0.18697000  0.94596200  1
  O  O20  1  0.77778900  0.81303000  0.05403800  1
  O  O21  1  0.37626300  0.79210300  0.50956300  1
  O  O22  1  0.62373700  0.20789700  0.49043700  1
  O  O23  1  0.98499800  0.82726100  0.33579700  1
  O  O24  1  0.01500200  0.17273900  0.66420300  1
  O  O25  1  0.12760600  0.54099400  0.16501600  1
  O  O26  1  0.73562200  0.94971600  0.75961200  1
  O  O27  1  0.26437800  0.05028400  0.24038800  1
  O  O28  1  0.69923700  0.46321200  0.08785700  1
  O  O29  1  0.30076300  0.53678800  0.91214300  1
  O  O30  1  0.72412900  0.70308800  0.52311300  1
  O  O31  1  0.27587100  0.29691200  0.47688700  1
  O  O32  1  0.51916400  0.61351700  0.68865800  1
  O  O33  1  0.48083600  0.38648300  0.31134200  1
  O  O34  1  0.55236300  0.75445200  0.22682600  1
  O  O35  1  0.44763700  0.24554800  0.77317400  1
  O  O36  1  0.94763500  0.45695400  0.34745700  1
  O  O37  1  0.05236500  0.54304600  0.65254300  1
  O  O38  1  0.89273100  0.21475700  0.09924900  1
  O  O39  1  0.10726900  0.78524300  0.90075100  1
  O  O40  1  0.87239400  0.45900600  0.83498400  1
