# generated using pymatgen
data_H8W3Se(NO6)2
_symmetry_space_group_name_H-M   'P 1'
_cell_length_a   7.34753615
_cell_length_b   7.34753615
_cell_length_c   12.59430200
_cell_angle_alpha   90.00000000
_cell_angle_beta   90.00000000
_cell_angle_gamma   120.00000132
_symmetry_Int_Tables_number   1
_chemical_formula_structural   H8W3Se(NO6)2
_chemical_formula_sum   'H16 W6 Se2 N4 O24'
_cell_volume   588.82764492
_cell_formula_units_Z   2
loop_
 _symmetry_equiv_pos_site_id
 _symmetry_equiv_pos_as_xyz
  1  'x, y, z'
loop_
 _atom_site_type_symbol
 _atom_site_label
 _atom_site_symmetry_multiplicity
 _atom_site_fract_x
 _atom_site_fract_y
 _atom_site_fract_z
 _atom_site_occupancy
  H  H0  1  0.66666700  0.33333300  0.15156400  1
  H  H1  1  0.25501400  0.51166600  0.15029200  1
  H  H2  1  0.74334700  0.25501400  0.65029200  1
  H  H3  1  0.51166600  0.25665300  0.65029200  1
  H  H4  1  0.33333300  0.66666700  0.65156400  1
  H  H5  1  0.66666700  0.33333300  0.54129000  1
  H  H6  1  0.33333300  0.66666700  0.04129000  1
  H  H7  1  0.40079400  0.81931300  0.76221600  1
  H  H8  1  0.58148100  0.40079400  0.26221600  1
  H  H9  1  0.48833400  0.74334700  0.15029200  1
  H  H10  1  0.81931300  0.41851900  0.26221600  1
  H  H11  1  0.41851900  0.59920600  0.76221600  1
  H  H12  1  0.59920600  0.18068700  0.26221600  1
  H  H13  1  0.74498600  0.48833400  0.65029200  1
  H  H14  1  0.25665300  0.74498600  0.15029200  1
  H  H15  1  0.18068700  0.58148100  0.76221600  1
  W  W16  1  0.66109200  0.82577100  0.39404300  1
  W  W17  1  0.82577100  0.16468000  0.89404300  1
  W  W18  1  0.83532000  0.66109200  0.89404300  1
  W  W19  1  0.16468000  0.33890800  0.39404300  1
  W  W20  1  0.33890800  0.17422900  0.89404300  1
  W  W21  1  0.17422900  0.83532000  0.39404300  1
  Se  Se22  1  0.00000000  0.00000000  0.66511600  1
  Se  Se23  1  0.00000000  0.00000000  0.16511600  1
  N  N24  1  0.66666700  0.33333300  0.23389200  1
  N  N25  1  0.33333300  0.66666700  0.73389200  1
  N  N26  1  0.66666700  0.33333300  0.62265300  1
  N  N27  1  0.33333300  0.66666700  0.12265300  1
  O  O28  1  0.79190000  0.19659000  0.02985200  1
  O  O29  1  0.20810000  0.80341000  0.52985200  1
  O  O30  1  0.80341000  0.59531000  0.02985200  1
  O  O31  1  0.59531000  0.79190000  0.52985200  1
  O  O32  1  0.54003300  0.08462200  0.84820400  1
  O  O33  1  0.45541100  0.54003300  0.34820400  1
  O  O34  1  0.40469000  0.20810000  0.02985200  1
  O  O35  1  0.91537800  0.45541100  0.84820400  1
  O  O36  1  0.54458900  0.45996700  0.84820400  1
  O  O37  1  0.45996700  0.91537800  0.34820400  1
  O  O38  1  0.24909700  0.12870200  0.72381500  1
  O  O39  1  0.12039400  0.24909700  0.22381500  1
  O  O40  1  0.12870200  0.87960600  0.22381500  1
  O  O41  1  0.87129800  0.12039400  0.72381500  1
  O  O42  1  0.87960600  0.75090300  0.72381500  1
  O  O43  1  0.75090300  0.87129800  0.22381500  1
  O  O44  1  0.08462200  0.54458900  0.34820400  1
  O  O45  1  0.87340300  0.12196800  0.40427200  1
  O  O46  1  0.75143500  0.87340300  0.90427200  1
  O  O47  1  0.12196800  0.24856500  0.90427200  1
  O  O48  1  0.87803200  0.75143500  0.40427200  1
  O  O49  1  0.24856500  0.12659700  0.40427200  1
  O  O50  1  0.12659700  0.87803200  0.90427200  1
  O  O51  1  0.19659000  0.40469000  0.52985200  1
