# generated using pymatgen
data_LaIO3
_symmetry_space_group_name_H-M   'P 1'
_cell_length_a   10.83855235
_cell_length_b   10.83855235
_cell_length_c   4.48483419
_cell_angle_alpha   87.82126115
_cell_angle_beta   87.82126115
_cell_angle_gamma   21.87010853
_symmetry_Int_Tables_number   1
_chemical_formula_structural   LaIO3
_chemical_formula_sum   'La2 I2 O6'
_cell_volume   196.10727813
_cell_formula_units_Z   2
loop_
 _symmetry_equiv_pos_site_id
 _symmetry_equiv_pos_as_xyz
  1  'x, y, z'
loop_
 _atom_site_type_symbol
 _atom_site_label
 _atom_site_symmetry_multiplicity
 _atom_site_fract_x
 _atom_site_fract_y
 _atom_site_fract_z
 _atom_site_occupancy
  La  La0  1  0.30420600  0.30420600  0.73368500  1
  La  La1  1  0.69579400  0.69579400  0.26631500  1
  I  I2  1  0.91456400  0.91456400  0.12495200  1
  I  I3  1  0.08543600  0.08543600  0.87504800  1
  O  O4  1  0.59682300  0.59682300  0.94454900  1
  O  O5  1  0.40317700  0.40317700  0.05545100  1
  O  O6  1  0.12253000  0.12253000  0.48352200  1
  O  O7  1  0.87747000  0.87747000  0.51647800  1
  O  O8  1  0.25584600  0.25584600  0.24298500  1
  O  O9  1  0.74415400  0.74415400  0.75701500  1
