# generated using pymatgen
data_VAg(HO2)2
_symmetry_space_group_name_H-M   'P 1'
_cell_length_a   3.70237600
_cell_length_b   7.24472700
_cell_length_c   15.86016800
_cell_angle_alpha   90.00000000
_cell_angle_beta   90.00000000
_cell_angle_gamma   90.00000000
_symmetry_Int_Tables_number   1
_chemical_formula_structural   VAg(HO2)2
_chemical_formula_sum   'V4 Ag4 H8 O16'
_cell_volume   425.41258168
_cell_formula_units_Z   4
loop_
 _symmetry_equiv_pos_site_id
 _symmetry_equiv_pos_as_xyz
  1  'x, y, z'
loop_
 _atom_site_type_symbol
 _atom_site_label
 _atom_site_symmetry_multiplicity
 _atom_site_fract_x
 _atom_site_fract_y
 _atom_site_fract_z
 _atom_site_occupancy
  V  V0  1  0.25000000  0.87453800  0.44352900  1
  V  V1  1  0.75000000  0.12546200  0.55647100  1
  V  V2  1  0.25000000  0.37453800  0.05647100  1
  V  V3  1  0.75000000  0.62546200  0.94352900  1
  Ag  Ag4  1  0.75000000  0.43871700  0.40509600  1
  Ag  Ag5  1  0.25000000  0.56128300  0.59490400  1
  Ag  Ag6  1  0.75000000  0.93871700  0.09490400  1
  Ag  Ag7  1  0.25000000  0.06128300  0.90509600  1
  H  H8  1  0.04200100  0.13188400  0.73881300  1
  H  H9  1  0.54200100  0.86811600  0.26118700  1
  H  H10  1  0.45799900  0.63188400  0.76118700  1
  H  H11  1  0.95799900  0.36811600  0.23881300  1
  H  H12  1  0.95799900  0.86811600  0.26118700  1
  H  H13  1  0.45799900  0.13188400  0.73881300  1
  H  H14  1  0.54200100  0.36811600  0.23881300  1
  H  H15  1  0.04200100  0.63188400  0.76118700  1
  O  O16  1  0.75000000  0.86219300  0.95488300  1
  O  O17  1  0.75000000  0.36219300  0.54511700  1
  O  O18  1  0.25000000  0.13780700  0.04511700  1
  O  O19  1  0.25000000  0.63780700  0.45488300  1
  O  O20  1  0.75000000  0.41349900  0.02557200  1
  O  O21  1  0.25000000  0.58650100  0.97442800  1
  O  O22  1  0.75000000  0.91349900  0.47442800  1
  O  O23  1  0.25000000  0.08650100  0.52557200  1
  O  O24  1  0.75000000  0.83131900  0.22531300  1
  O  O25  1  0.25000000  0.92242600  0.34098900  1
  O  O26  1  0.75000000  0.57757400  0.84098900  1
  O  O27  1  0.25000000  0.42242600  0.15901100  1
  O  O28  1  0.25000000  0.66868100  0.72531300  1
  O  O29  1  0.75000000  0.33131900  0.27468700  1
  O  O30  1  0.25000000  0.16868100  0.77468700  1
  O  O31  1  0.75000000  0.07757400  0.65901100  1
