# generated using pymatgen
data_CsCrH18N6(ClO2)4
_symmetry_space_group_name_H-M   'P 1'
_cell_length_a   10.23949336
_cell_length_b   10.23949336
_cell_length_c   10.23949364
_cell_angle_alpha   42.60551801
_cell_angle_beta   42.60551801
_cell_angle_gamma   42.60551864
_symmetry_Int_Tables_number   1
_chemical_formula_structural   CsCrH18N6(ClO2)4
_chemical_formula_sum   'Cs1 Cr1 H18 N6 Cl4 O8'
_cell_volume   445.57079014
_cell_formula_units_Z   1
loop_
 _symmetry_equiv_pos_site_id
 _symmetry_equiv_pos_as_xyz
  1  'x, y, z'
loop_
 _atom_site_type_symbol
 _atom_site_label
 _atom_site_symmetry_multiplicity
 _atom_site_fract_x
 _atom_site_fract_y
 _atom_site_fract_z
 _atom_site_occupancy
  Cs  Cs0  1  0.50000000  0.50000000  0.50000000  1
  Cr  Cr1  1  0.00000000  0.00000000  0.00000000  1
  H  H2  1  0.33668800  0.72708600  0.08586300  1
  H  H3  1  0.27291400  0.91413700  0.66331200  1
  H  H4  1  0.91413700  0.66331200  0.27291400  1
  H  H5  1  0.66331200  0.27291400  0.91413700  1
  H  H6  1  0.72708600  0.08586300  0.33668800  1
  H  H7  1  0.08586300  0.33668800  0.72708600  1
  H  H8  1  0.07912300  0.65620200  0.03886200  1
  H  H9  1  0.42422000  0.81823700  0.83143500  1
  H  H10  1  0.83143500  0.42422000  0.81823700  1
  H  H11  1  0.81823700  0.83143500  0.42422000  1
  H  H12  1  0.57578000  0.18176300  0.16856500  1
  H  H13  1  0.03886200  0.07912300  0.65620200  1
  H  H14  1  0.18176300  0.16856500  0.57578000  1
  H  H15  1  0.34379800  0.96113800  0.92087700  1
  H  H16  1  0.92087700  0.34379800  0.96113800  1
  H  H17  1  0.96113800  0.92087700  0.34379800  1
  H  H18  1  0.65620200  0.03886200  0.07912300  1
  H  H19  1  0.16856500  0.57578000  0.18176300  1
  N  N20  1  0.13503400  0.04626800  0.69049400  1
  N  N21  1  0.30950600  0.86496600  0.95373200  1
  N  N22  1  0.04626800  0.69049400  0.13503400  1
  N  N23  1  0.69049400  0.13503400  0.04626800  1
  N  N24  1  0.86496600  0.95373200  0.30950600  1
  N  N25  1  0.95373200  0.30950600  0.86496600  1
  Cl  Cl26  1  0.18856400  0.18856400  0.18856400  1
  Cl  Cl27  1  0.81143600  0.81143600  0.81143600  1
  Cl  Cl28  1  0.36840000  0.36840000  0.36840000  1
  Cl  Cl29  1  0.63160000  0.63160000  0.63160000  1
  O  O30  1  0.27351600  0.34847000  0.99684000  1
  O  O31  1  0.34847000  0.99684000  0.27351600  1
  O  O32  1  0.99684000  0.27351600  0.34847000  1
  O  O33  1  0.72648400  0.65153000  0.00316000  1
  O  O34  1  0.13609000  0.13609000  0.13609000  1
  O  O35  1  0.00316000  0.72648400  0.65153000  1
  O  O36  1  0.65153000  0.00316000  0.72648400  1
  O  O37  1  0.86391000  0.86391000  0.86391000  1
