# generated using pymatgen
data_H12C4NClO4
_symmetry_space_group_name_H-M   'P 1'
_cell_length_a   5.98145600
_cell_length_b   11.96665600
_cell_length_c   12.05840300
_cell_angle_alpha   90.00000000
_cell_angle_beta   90.00000000
_cell_angle_gamma   90.00000000
_symmetry_Int_Tables_number   1
_chemical_formula_structural   H12C4NClO4
_chemical_formula_sum   'H48 C16 N4 Cl4 O16'
_cell_volume   863.11668745
_cell_formula_units_Z   4
loop_
 _symmetry_equiv_pos_site_id
 _symmetry_equiv_pos_as_xyz
  1  'x, y, z'
loop_
 _atom_site_type_symbol
 _atom_site_label
 _atom_site_symmetry_multiplicity
 _atom_site_fract_x
 _atom_site_fract_y
 _atom_site_fract_z
 _atom_site_occupancy
  H  H0  1  0.26360600  0.37688100  0.97857800  1
  H  H1  1  0.26360600  0.62311900  0.02142200  1
  H  H2  1  0.73639400  0.87688100  0.52142200  1
  H  H3  1  0.73639400  0.12311900  0.47857800  1
  H  H4  1  0.26902100  0.48453800  0.87425300  1
  H  H5  1  0.26902100  0.51546200  0.12574700  1
  H  H6  1  0.73097900  0.98453800  0.62574700  1
  H  H7  1  0.73097900  0.01546200  0.37425300  1
  H  H8  1  0.47902600  0.37704300  0.87475200  1
  H  H9  1  0.47902600  0.62295700  0.12524800  1
  H  H10  1  0.52097400  0.87704300  0.62524800  1
  H  H11  1  0.52097400  0.12295700  0.37475200  1
  H  H12  1  0.55234100  0.37192900  0.12033500  1
  H  H13  1  0.55234100  0.62807100  0.87966500  1
  H  H14  1  0.44765900  0.87192900  0.37966500  1
  H  H15  1  0.44765900  0.12807100  0.62033500  1
  H  H16  1  0.76513900  0.37517200  0.01533100  1
  H  H17  1  0.53667300  0.88762900  0.86513700  1
  H  H18  1  0.23486100  0.87517200  0.48466900  1
  H  H19  1  0.23486100  0.12482800  0.51533100  1
  H  H20  1  0.76311100  0.47879700  0.12392300  1
  H  H21  1  0.76311100  0.52120300  0.87607700  1
  H  H22  1  0.76513900  0.62482800  0.98466900  1
  H  H23  1  0.23688900  0.02120300  0.62392300  1
  H  H24  1  0.24406600  0.38281300  0.53318700  1
  H  H25  1  0.24406600  0.61718700  0.46681300  1
  H  H26  1  0.24493200  0.12375400  0.99705600  1
  H  H27  1  0.24493200  0.87624600  0.00294400  1
  H  H28  1  0.75506800  0.62375400  0.50294400  1
  H  H29  1  0.75506800  0.37624600  0.49705600  1
  H  H30  1  0.25480300  0.03420600  0.87717400  1
  H  H31  1  0.25480300  0.96579400  0.12282600  1
  H  H32  1  0.74519700  0.53420600  0.62282600  1
  H  H33  1  0.74519700  0.46579400  0.37717400  1
  H  H34  1  0.46211600  0.14127900  0.89542500  1
  H  H35  1  0.46211600  0.85872100  0.10457500  1
  H  H36  1  0.53788400  0.64127900  0.60457500  1
  H  H37  1  0.53788400  0.35872100  0.39542500  1
  H  H38  1  0.75593400  0.88281300  0.96681300  1
  H  H39  1  0.75593400  0.11718700  0.03318700  1
  H  H40  1  0.46332700  0.38762900  0.63486300  1
  H  H41  1  0.46332700  0.61237100  0.36513700  1
  H  H42  1  0.74043400  0.00195100  0.12872100  1
  H  H43  1  0.74043400  0.99804900  0.87127900  1
  H  H44  1  0.25956600  0.50195100  0.37127900  1
  H  H45  1  0.25956600  0.49804900  0.62872100  1
  H  H46  1  0.53667300  0.11237100  0.13486300  1
  H  H47  1  0.23688900  0.97879700  0.37607700  1
  C  C48  1  0.35596700  0.43734600  0.58039700  1
  C  C49  1  0.35596700  0.56265400  0.41960300  1
  C  C50  1  0.64403300  0.93734600  0.91960300  1
  C  C51  1  0.64403300  0.06265400  0.08039700  1
  C  C52  1  0.64600700  0.41897200  0.43765300  1
  C  C53  1  0.64600700  0.58102800  0.56234700  1
  C  C54  1  0.62950300  0.07076300  0.42627600  1
  C  C55  1  0.62950300  0.92923700  0.57372400  1
  C  C56  1  0.33976200  0.07415600  0.57024300  1
  C  C57  1  0.33976200  0.92584400  0.42975700  1
  C  C58  1  0.37049700  0.42923700  0.92627600  1
  C  C59  1  0.66023800  0.42584400  0.07024300  1
  C  C60  1  0.35399300  0.91897200  0.06234700  1
  C  C61  1  0.35399300  0.08102800  0.93765300  1
  C  C62  1  0.37049700  0.57076300  0.07372400  1
  C  C63  1  0.66023800  0.57415600  0.92975700  1
  N  N64  1  0.49891800  0.00000000  0.00000000  1
  N  N65  1  0.50108200  0.50000000  0.50000000  1
  N  N66  1  0.51510000  0.50000000  0.00000000  1
  N  N67  1  0.48490000  0.00000000  0.50000000  1
  Cl  Cl68  1  0.92353300  0.26091000  0.75554300  1
  Cl  Cl69  1  0.92353300  0.73909000  0.24445700  1
  Cl  Cl70  1  0.07646700  0.76091000  0.74445700  1
  Cl  Cl71  1  0.07646700  0.23909000  0.25554300  1
  O  O72  1  0.83943800  0.77680600  0.13637600  1
  O  O73  1  0.82508200  0.80756800  0.33251600  1
  O  O74  1  0.17491800  0.69243200  0.83251600  1
  O  O75  1  0.17491800  0.30756800  0.16748400  1
  O  O76  1  0.16056200  0.27680600  0.36362400  1
  O  O77  1  0.16056200  0.72319400  0.63637600  1
  O  O78  1  0.83351900  0.24910700  0.25288600  1
  O  O79  1  0.83943800  0.22319400  0.86362400  1
  O  O80  1  0.85945000  0.37818900  0.73881200  1
  O  O81  1  0.85945000  0.62181100  0.26118800  1
  O  O82  1  0.14055000  0.87818900  0.76118800  1
  O  O83  1  0.14055000  0.12181100  0.23881200  1
  O  O84  1  0.16648100  0.25089300  0.75288600  1
  O  O85  1  0.16648100  0.74910700  0.24711400  1
  O  O86  1  0.83351900  0.75089300  0.74711400  1
  O  O87  1  0.82508200  0.19243200  0.66748400  1
