# generated using pymatgen
data_Mg16Si8HO32
_symmetry_space_group_name_H-M   'P 1'
_cell_length_a   5.79138400
_cell_length_b   8.39393700
_cell_length_c   11.64212800
_cell_angle_alpha   90.00000000
_cell_angle_beta   90.00000000
_cell_angle_gamma   90.00000000
_symmetry_Int_Tables_number   1
_chemical_formula_structural   Mg16Si8HO32
_chemical_formula_sum   'Mg16 Si8 H1 O32'
_cell_volume   565.95309221
_cell_formula_units_Z   1
loop_
 _symmetry_equiv_pos_site_id
 _symmetry_equiv_pos_as_xyz
  1  'x, y, z'
loop_
 _atom_site_type_symbol
 _atom_site_label
 _atom_site_symmetry_multiplicity
 _atom_site_fract_x
 _atom_site_fract_y
 _atom_site_fract_z
 _atom_site_occupancy
  Mg  Mg0  1  0.74972200  0.50007400  0.87850400  1
  Mg  Mg1  1  0.25027800  0.50007400  0.12149600  1
  Mg  Mg2  1  0.74972200  0.50007400  0.12149600  1
  Mg  Mg3  1  0.25027800  0.50007400  0.87850400  1
  Mg  Mg4  1  0.00000000  0.25416600  0.75090100  1
  Mg  Mg5  1  0.00000000  0.25416600  0.24909900  1
  Mg  Mg6  1  0.00000000  0.27943600  0.50000000  1
  Mg  Mg7  1  0.50000000  0.70514600  0.50000000  1
  Mg  Mg8  1  0.23935500  0.99704700  0.36946900  1
  Mg  Mg9  1  0.76064500  0.99704700  0.63053100  1
  Mg  Mg10  1  0.23935500  0.99704700  0.63053100  1
  Mg  Mg11  1  0.76064500  0.99704700  0.36946900  1
  Mg  Mg12  1  0.50000000  0.74841800  0.24892100  1
  Mg  Mg13  1  0.50000000  0.74841800  0.75107900  1
  Mg  Mg14  1  0.50000000  0.78058300  0.00000000  1
  Mg  Mg15  1  0.00000000  0.21919800  0.00000000  1
  Si  Si16  1  0.00000000  0.86454900  0.12893800  1
  Si  Si17  1  0.00000000  0.86454900  0.87106200  1
  Si  Si18  1  0.50000000  0.13385800  0.86990100  1
  Si  Si19  1  0.50000000  0.13385800  0.13009900  1
  Si  Si20  1  0.50000000  0.36591400  0.63181500  1
  Si  Si21  1  0.50000000  0.36591400  0.36818500  1
  Si  Si22  1  0.00000000  0.63584100  0.37001500  1
  Si  Si23  1  0.00000000  0.63584100  0.62998500  1
  H  H24  1  0.50000000  0.10967500  0.50000000  1
  O  O25  1  0.26131200  0.24286200  0.12768300  1
  O  O26  1  0.73868800  0.24286200  0.87231700  1
  O  O27  1  0.76090800  0.75667000  0.87260100  1
  O  O28  1  0.23909200  0.75667000  0.12739900  1
  O  O29  1  0.23909200  0.75667000  0.87260100  1
  O  O30  1  0.76090800  0.75667000  0.12739900  1
  O  O31  1  0.73868800  0.24286200  0.12768300  1
  O  O32  1  0.26131200  0.24286200  0.87231700  1
  O  O33  1  0.00000000  0.50818900  0.73917100  1
  O  O34  1  0.00000000  0.50818900  0.26082900  1
  O  O35  1  0.50000000  0.49462400  0.26015400  1
  O  O36  1  0.50000000  0.49462400  0.73984600  1
  O  O37  1  0.00000000  0.03128400  0.50000000  1
  O  O38  1  0.50000000  0.99104200  0.50000000  1
  O  O39  1  0.00000000  0.53628600  0.50000000  1
  O  O40  1  0.50000000  0.46251600  0.50000000  1
  O  O41  1  0.00000000  0.96463500  0.00000000  1
  O  O42  1  0.50000000  0.03460800  0.00000000  1
  O  O43  1  0.00000000  0.46560000  0.00000000  1
  O  O44  1  0.50000000  0.53429100  0.00000000  1
  O  O45  1  0.00000000  0.99401200  0.23761800  1
  O  O46  1  0.00000000  0.99401200  0.76238200  1
  O  O47  1  0.50000000  0.00532000  0.75994100  1
  O  O48  1  0.50000000  0.00532000  0.24005900  1
  O  O49  1  0.75865600  0.74617600  0.37473100  1
  O  O50  1  0.24134400  0.74617600  0.62526900  1
  O  O51  1  0.26230900  0.25450000  0.62704200  1
  O  O52  1  0.73769100  0.25450000  0.37295800  1
  O  O53  1  0.73769100  0.25450000  0.62704200  1
  O  O54  1  0.26230900  0.25450000  0.37295800  1
  O  O55  1  0.24134400  0.74617600  0.37473100  1
  O  O56  1  0.75865600  0.74617600  0.62526900  1
