# generated using pymatgen
data_K2MgCr2(H2O5)2
_symmetry_space_group_name_H-M   'P 1'
_cell_length_a   5.76992657
_cell_length_b   6.50936091
_cell_length_c   7.66561741
_cell_angle_alpha   111.12850387
_cell_angle_beta   95.09893729
_cell_angle_gamma   110.05312538
_symmetry_Int_Tables_number   1
_chemical_formula_structural   K2MgCr2(H2O5)2
_chemical_formula_sum   'K2 Mg1 Cr2 H4 O10'
_cell_volume   244.74406834
_cell_formula_units_Z   1
loop_
 _symmetry_equiv_pos_site_id
 _symmetry_equiv_pos_as_xyz
  1  'x, y, z'
loop_
 _atom_site_type_symbol
 _atom_site_label
 _atom_site_symmetry_multiplicity
 _atom_site_fract_x
 _atom_site_fract_y
 _atom_site_fract_z
 _atom_site_occupancy
  K  K0  1  0.33812200  0.70551000  0.24327900  1
  K  K1  1  0.66188000  0.29449000  0.75672100  1
  Mg  Mg2  1  0.00000000  0.00000000  0.00000000  1
  Cr  Cr3  1  0.66830200  0.34195800  0.23481300  1
  Cr  Cr4  1  0.33169700  0.65804300  0.76518700  1
  H  H5  1  0.10611700  0.13711900  0.38996100  1
  H  H6  1  0.89388200  0.86288200  0.61004000  1
  H  H7  1  0.92244600  0.85818100  0.29861600  1
  H  H8  1  0.07755500  0.14181800  0.70138300  1
  O  O9  1  0.36544500  0.80188600  0.62715400  1
  O  O10  1  0.63455500  0.19811300  0.37284500  1
  O  O11  1  0.04074400  0.98737500  0.26876200  1
  O  O12  1  0.77522700  0.63957500  0.36882000  1
  O  O13  1  0.22477400  0.36042500  0.63117900  1
  O  O14  1  0.95925500  0.01262600  0.73123800  1
  O  O15  1  0.61328100  0.74562800  0.91372100  1
  O  O16  1  0.87750100  0.28740700  0.10427800  1
  O  O17  1  0.12249800  0.71259200  0.89572200  1
  O  O18  1  0.38671800  0.25437300  0.08627900  1
