# generated using pymatgen
data_Na2CoP2O7
_symmetry_space_group_name_H-M   'P 1'
_cell_length_a   8.02553327
_cell_length_b   11.51303836
_cell_length_c   8.26875622
_cell_angle_alpha   106.24095790
_cell_angle_beta   113.56709402
_cell_angle_gamma   70.81629968
_symmetry_Int_Tables_number   1
_chemical_formula_structural   Na2CoP2O7
_chemical_formula_sum   'Na8 Co4 P8 O28'
_cell_volume   651.62976927
_cell_formula_units_Z   4
loop_
 _symmetry_equiv_pos_site_id
 _symmetry_equiv_pos_as_xyz
  1  'x, y, z'
loop_
 _atom_site_type_symbol
 _atom_site_label
 _atom_site_symmetry_multiplicity
 _atom_site_fract_x
 _atom_site_fract_y
 _atom_site_fract_z
 _atom_site_occupancy
  Na  Na0  1  0.72513600  0.81451200  0.19965000  1
  Na  Na1  1  0.22496600  0.31475000  0.19966500  1
  Na  Na2  1  0.41571300  0.04478600  0.30036200  1
  Na  Na3  1  0.91534800  0.54480400  0.30028400  1
  Na  Na4  1  0.27485800  0.18548400  0.80035000  1
  Na  Na5  1  0.77504500  0.68526100  0.80034400  1
  Na  Na6  1  0.58429100  0.95522200  0.69965200  1
  Na  Na7  1  0.08463000  0.45519700  0.69972400  1
  Co  Co8  1  0.50000100  0.50000000  0.50000000  1
  Co  Co9  1  0.00000100  0.00000000  0.99999800  1
  Co  Co10  1  0.00000000  0.99999900  0.49999800  1
  Co  Co11  1  0.50000000  0.49999900  0.99999900  1
  P  P12  1  0.48840100  0.72321700  0.34460000  1
  P  P13  1  0.98835600  0.22335100  0.34488700  1
  P  P14  1  0.67100400  0.11737200  0.15490100  1
  P  P15  1  0.17097700  0.61740000  0.15511000  1
  P  P16  1  0.51160000  0.27678300  0.65540100  1
  P  P17  1  0.01164500  0.77664900  0.65511300  1
  P  P18  1  0.32899700  0.88262800  0.84509600  1
  P  P19  1  0.82902400  0.38259800  0.84488900  1
  O  O20  1  0.26235600  0.73771500  0.25013900  1
  O  O21  1  0.76212400  0.23786100  0.25005100  1
  O  O22  1  0.73764500  0.26228500  0.74986000  1
  O  O23  1  0.23787700  0.76214000  0.74994700  1
  O  O24  1  0.46073200  0.16622900  0.10331900  1
  O  O25  1  0.96070600  0.66637300  0.10329900  1
  O  O26  1  0.51998100  0.85292200  0.39723400  1
  O  O27  1  0.01988500  0.35307300  0.39719500  1
  O  O28  1  0.53926900  0.83377000  0.89668100  1
  O  O29  1  0.03929500  0.33362600  0.89669900  1
  O  O30  1  0.48002500  0.14707500  0.60276900  1
  O  O31  1  0.98011500  0.64692700  0.60280400  1
  O  O32  1  0.58076500  0.63906700  0.20445200  1
  O  O33  1  0.08099200  0.13890900  0.20500400  1
  O  O34  1  0.75196200  0.02848900  0.29422500  1
  O  O35  1  0.25177500  0.52865200  0.29444200  1
  O  O36  1  0.41923300  0.36093500  0.79554700  1
  O  O37  1  0.91900800  0.86109000  0.79499600  1
  O  O38  1  0.24803800  0.97150800  0.70576800  1
  O  O39  1  0.74822500  0.47134800  0.70555600  1
  O  O40  1  0.44986300  0.34208000  0.49378900  1
  O  O41  1  0.95079300  0.84141000  0.49301600  1
  O  O42  1  0.26269100  0.94503500  0.00755000  1
  O  O43  1  0.76264000  0.44531200  0.00723300  1
  O  O44  1  0.55014000  0.65791700  0.50621000  1
  O  O45  1  0.04920400  0.15858900  0.50698300  1
  O  O46  1  0.73730600  0.05496700  0.99244300  1
  O  O47  1  0.23736000  0.55468200  0.99276600  1
