# generated using pymatgen
data_Pr(WO4)2
_symmetry_space_group_name_H-M   'P 1'
_cell_length_a   7.42951200
_cell_length_b   7.49806371
_cell_length_c   7.60349129
_cell_angle_alpha   113.43312733
_cell_angle_beta   116.10330074
_cell_angle_gamma   91.50358944
_symmetry_Int_Tables_number   1
_chemical_formula_structural   Pr(WO4)2
_chemical_formula_sum   'Pr2 W4 O16'
_cell_volume   338.42707341
_cell_formula_units_Z   2
loop_
 _symmetry_equiv_pos_site_id
 _symmetry_equiv_pos_as_xyz
  1  'x, y, z'
loop_
 _atom_site_type_symbol
 _atom_site_label
 _atom_site_symmetry_multiplicity
 _atom_site_fract_x
 _atom_site_fract_y
 _atom_site_fract_z
 _atom_site_occupancy
  Pr  Pr0  1  0.82736400  0.71259500  0.54891900  1
  Pr  Pr1  1  0.17263600  0.28740500  0.45108100  1
  W  W2  1  0.35139400  0.89504000  0.70898600  1
  W  W3  1  0.27312200  0.29359000  0.03147700  1
  W  W4  1  0.72687800  0.70641000  0.96852300  1
  W  W5  1  0.64860600  0.10496000  0.29101400  1
  O  O6  1  0.14536400  0.99605600  0.80792900  1
  O  O7  1  0.16864200  0.64718000  0.55031800  1
  O  O8  1  0.60046300  0.82092700  0.72619600  1
  O  O9  1  0.28975700  0.00253000  0.52355700  1
  O  O10  1  0.07590500  0.32404400  0.11202700  1
  O  O11  1  0.47977800  0.52502200  0.25260300  1
  O  O12  1  0.51613300  0.16171800  0.99832700  1
  O  O13  1  0.80277100  0.64150100  0.19485800  1
  O  O14  1  0.19722900  0.35849900  0.80514200  1
  O  O15  1  0.48386700  0.83828200  0.00167300  1
  O  O16  1  0.52022200  0.47497800  0.74739700  1
  O  O17  1  0.92409500  0.67595600  0.88797300  1
  O  O18  1  0.71024300  0.99747000  0.47644300  1
  O  O19  1  0.39953700  0.17907300  0.27380400  1
  O  O20  1  0.83135800  0.35282000  0.44968200  1
  O  O21  1  0.85463600  0.00394400  0.19207100  1
