# generated using pymatgen
data_V(SiO3)2
_symmetry_space_group_name_H-M   'P 1'
_cell_length_a   6.49936300
_cell_length_b   7.33853944
_cell_length_c   9.42679858
_cell_angle_alpha   101.46059951
_cell_angle_beta   101.65088701
_cell_angle_gamma   95.96331114
_symmetry_Int_Tables_number   1
_chemical_formula_structural   V(SiO3)2
_chemical_formula_sum   'V4 Si8 O24'
_cell_volume   426.68980669
_cell_formula_units_Z   4
loop_
 _symmetry_equiv_pos_site_id
 _symmetry_equiv_pos_as_xyz
  1  'x, y, z'
loop_
 _atom_site_type_symbol
 _atom_site_label
 _atom_site_symmetry_multiplicity
 _atom_site_fract_x
 _atom_site_fract_y
 _atom_site_fract_z
 _atom_site_occupancy
  V  V0  1  0.89856800  0.92506400  0.32270400  1
  V  V1  1  0.10157100  0.57216200  0.17291500  1
  V  V2  1  0.89825500  0.42497900  0.82249900  1
  V  V3  1  0.10183700  0.07236200  0.67309500  1
  Si  Si4  1  0.78520200  0.68156100  0.56556500  1
  Si  Si5  1  0.78506400  0.18152200  0.06554300  1
  Si  Si6  1  0.21511400  0.81551200  0.92984000  1
  Si  Si7  1  0.21526700  0.31551400  0.42988400  1
  Si  Si8  1  0.38343600  0.48066300  0.76440100  1
  Si  Si9  1  0.38345600  0.98062400  0.26434800  1
  Si  Si10  1  0.61680900  0.01640700  0.73097800  1
  Si  Si11  1  0.61679600  0.51641100  0.23103100  1
  O  O12  1  0.36517700  0.69457900  0.84148500  1
  O  O13  1  0.36508000  0.19453500  0.34149400  1
  O  O14  1  0.63487700  0.80251000  0.65367000  1
  O  O15  1  0.63496800  0.30253000  0.15366400  1
  O  O16  1  0.35260900  0.44986500  0.58552400  1
  O  O17  1  0.35249000  0.94972700  0.08545300  1
  O  O18  1  0.64803800  0.04699600  0.90987800  1
  O  O19  1  0.64816000  0.54712700  0.40994700  1
  O  O20  1  0.89477700  0.54891800  0.66872300  1
  O  O21  1  0.89468900  0.04896300  0.16885600  1
  O  O22  1  0.10559200  0.94839200  0.82681300  1
  O  O23  1  0.10567000  0.44831200  0.32673500  1
  O  O24  1  0.62093400  0.43998700  0.83371800  1
  O  O25  1  0.62106700  0.94000000  0.33380600  1
  O  O26  1  0.37935800  0.05737600  0.66197500  1
  O  O27  1  0.37923500  0.55734400  0.16188900  1
  O  O28  1  0.18429100  0.83974300  0.29302500  1
  O  O29  1  0.18433000  0.33983500  0.79316000  1
  O  O30  1  0.81589500  0.65744000  0.20238500  1
  O  O31  1  0.81583700  0.15738900  0.70223700  1
  O  O32  1  0.95412600  0.33868700  0.02281500  1
  O  O33  1  0.95420500  0.83872300  0.52281300  1
  O  O34  1  0.04616700  0.15848900  0.47269500  1
  O  O35  1  0.04607900  0.65845800  0.97266300  1
