# generated using pymatgen
data_Sb(MoO4)2
_symmetry_space_group_name_H-M   'P 1'
_cell_length_a   11.93057897
_cell_length_b   11.93057897
_cell_length_c   5.50263249
_cell_angle_alpha   77.75907961
_cell_angle_beta   77.75907961
_cell_angle_gamma   23.98281776
_symmetry_Int_Tables_number   1
_chemical_formula_structural   Sb(MoO4)2
_chemical_formula_sum   'Sb2 Mo4 O16'
_cell_volume   310.78841958
_cell_formula_units_Z   2
loop_
 _symmetry_equiv_pos_site_id
 _symmetry_equiv_pos_as_xyz
  1  'x, y, z'
loop_
 _atom_site_type_symbol
 _atom_site_label
 _atom_site_symmetry_multiplicity
 _atom_site_fract_x
 _atom_site_fract_y
 _atom_site_fract_z
 _atom_site_occupancy
  Sb  Sb0  1  0.67407700  0.32592300  0.75000000  1
  Sb  Sb1  1  0.32592300  0.67407700  0.25000000  1
  Mo  Mo2  1  0.36973000  0.90969800  0.45419600  1
  Mo  Mo3  1  0.63027000  0.09030200  0.54580400  1
  Mo  Mo4  1  0.09030200  0.63027000  0.04580400  1
  Mo  Mo5  1  0.90969800  0.36973000  0.95419600  1
  O  O6  1  0.64745500  0.44618400  0.02355200  1
  O  O7  1  0.14629600  0.05580200  0.18719800  1
  O  O8  1  0.05580200  0.14629600  0.68719800  1
  O  O9  1  0.11846800  0.29627200  0.85857800  1
  O  O10  1  0.85370400  0.94419800  0.81280200  1
  O  O11  1  0.94419800  0.85370400  0.31280200  1
  O  O12  1  0.88153200  0.70372800  0.14142200  1
  O  O13  1  0.70372800  0.88153200  0.64142200  1
  O  O14  1  0.62131500  0.68059900  0.69455900  1
  O  O15  1  0.68059900  0.62131500  0.19455900  1
  O  O16  1  0.44618400  0.64745500  0.52355200  1
  O  O17  1  0.37868500  0.31940100  0.30544100  1
  O  O18  1  0.35254500  0.55381600  0.97644800  1
  O  O19  1  0.55381600  0.35254500  0.47644800  1
  O  O20  1  0.31940100  0.37868500  0.80544100  1
  O  O21  1  0.29627200  0.11846800  0.35857800  1
