# generated using pymatgen
data_FeAs2O7
_symmetry_space_group_name_H-M   'P 1'
_cell_length_a   5.33954948
_cell_length_b   5.33954948
_cell_length_c   4.83616952
_cell_angle_alpha   81.66797310
_cell_angle_beta   81.66797310
_cell_angle_gamma   100.69166432
_symmetry_Int_Tables_number   1
_chemical_formula_structural   FeAs2O7
_chemical_formula_sum   'Fe1 As2 O7'
_cell_volume   131.94993506
_cell_formula_units_Z   1
loop_
 _symmetry_equiv_pos_site_id
 _symmetry_equiv_pos_as_xyz
  1  'x, y, z'
loop_
 _atom_site_type_symbol
 _atom_site_label
 _atom_site_symmetry_multiplicity
 _atom_site_fract_x
 _atom_site_fract_y
 _atom_site_fract_z
 _atom_site_occupancy
  Fe  Fe0  1  0.88486700  0.11513300  0.00000000  1
  As  As1  1  0.32378400  0.25384900  0.40802200  1
  As  As2  1  0.74615100  0.67621600  0.59197800  1
  O  O3  1  0.17226400  0.05055600  0.71844900  1
  O  O4  1  0.13694800  0.34454500  0.16638900  1
  O  O5  1  0.57715300  0.13268900  0.27263500  1
  O  O6  1  0.94944400  0.82773600  0.28155100  1
  O  O7  1  0.65545500  0.86305200  0.83361100  1
  O  O8  1  0.86731100  0.42284700  0.72736500  1
  O  O9  1  0.43917400  0.56082600  0.50000000  1
