# generated using pymatgen
data_MnO2
_symmetry_space_group_name_H-M   'P 1'
_cell_length_a   5.82796579
_cell_length_b   5.82194615
_cell_length_c   5.83085462
_cell_angle_alpha   60.01771289
_cell_angle_beta   59.91529780
_cell_angle_gamma   60.06699617
_symmetry_Int_Tables_number   1
_chemical_formula_structural   MnO2
_chemical_formula_sum   'Mn4 O8'
_cell_volume   139.89456178
_cell_formula_units_Z   4
loop_
 _symmetry_equiv_pos_site_id
 _symmetry_equiv_pos_as_xyz
  1  'x, y, z'
loop_
 _atom_site_type_symbol
 _atom_site_label
 _atom_site_symmetry_multiplicity
 _atom_site_fract_x
 _atom_site_fract_y
 _atom_site_fract_z
 _atom_site_occupancy
  Mn  Mn0  1  0.50000100  0.50000000  0.49999900  1
  Mn  Mn1  1  0.00000000  0.50000100  0.49999900  1
  Mn  Mn2  1  0.50000000  0.50000100  0.00000000  1
  Mn  Mn3  1  0.49999900  0.00000000  0.50000100  1
  O  O4  1  0.29447600  0.73461800  0.73587800  1
  O  O5  1  0.73502700  0.73587900  0.73461700  1
  O  O6  1  0.73461800  0.29447800  0.73502700  1
  O  O7  1  0.73587800  0.73502700  0.29447800  1
  O  O8  1  0.26497200  0.26412300  0.26538200  1
  O  O9  1  0.70552300  0.26538100  0.26412200  1
  O  O10  1  0.26412100  0.26497200  0.70552300  1
  O  O11  1  0.26538100  0.70552300  0.26497400  1
