# generated using pymatgen
data_CrPO4
_symmetry_space_group_name_H-M   'P 1'
_cell_length_a   4.74841300
_cell_length_b   5.70502100
_cell_length_c   9.88179100
_cell_angle_alpha   90.00000000
_cell_angle_beta   90.00000000
_cell_angle_gamma   90.00000000
_symmetry_Int_Tables_number   1
_chemical_formula_structural   CrPO4
_chemical_formula_sum   'Cr4 P4 O16'
_cell_volume   267.69570114
_cell_formula_units_Z   4
loop_
 _symmetry_equiv_pos_site_id
 _symmetry_equiv_pos_as_xyz
  1  'x, y, z'
loop_
 _atom_site_type_symbol
 _atom_site_label
 _atom_site_symmetry_multiplicity
 _atom_site_fract_x
 _atom_site_fract_y
 _atom_site_fract_z
 _atom_site_occupancy
  Cr  Cr0  1  0.04192300  0.75000000  0.72985200  1
  Cr  Cr1  1  0.45807700  0.75000000  0.22985200  1
  Cr  Cr2  1  0.95807700  0.25000000  0.27014800  1
  Cr  Cr3  1  0.54192300  0.25000000  0.77014800  1
  P  P4  1  0.60111700  0.75000000  0.90931700  1
  P  P5  1  0.89888300  0.75000000  0.40931700  1
  P  P6  1  0.39888300  0.25000000  0.09068300  1
  P  P7  1  0.10111700  0.25000000  0.59068300  1
  O  O8  1  0.71589500  0.25000000  0.11291400  1
  O  O9  1  0.25486200  0.45951400  0.66818300  1
  O  O10  1  0.75486200  0.54048600  0.83181700  1
  O  O11  1  0.74513800  0.95951400  0.33181700  1
  O  O12  1  0.24513800  0.04048600  0.16818300  1
  O  O13  1  0.74513800  0.54048600  0.33181700  1
  O  O14  1  0.24513800  0.45951400  0.16818300  1
  O  O15  1  0.25486200  0.04048600  0.66818300  1
  O  O16  1  0.28410500  0.75000000  0.88708600  1
  O  O17  1  0.78410500  0.25000000  0.61291400  1
  O  O18  1  0.75486200  0.95951400  0.83181700  1
  O  O19  1  0.21589500  0.75000000  0.38708600  1
  O  O20  1  0.67201000  0.75000000  0.05923500  1
  O  O21  1  0.32799000  0.25000000  0.94076500  1
  O  O22  1  0.17201000  0.25000000  0.44076500  1
  O  O23  1  0.82799000  0.75000000  0.55923500  1
