# generated using pymatgen
data_TeO3
_symmetry_space_group_name_H-M   'P 1'
_cell_length_a   5.28460632
_cell_length_b   5.28460632
_cell_length_c   5.28460614
_cell_angle_alpha   57.05139737
_cell_angle_beta   57.05139737
_cell_angle_gamma   57.05139744
_symmetry_Int_Tables_number   1
_chemical_formula_structural   TeO3
_chemical_formula_sum   'Te2 O6'
_cell_volume   97.26407983
_cell_formula_units_Z   2
loop_
 _symmetry_equiv_pos_site_id
 _symmetry_equiv_pos_as_xyz
  1  'x, y, z'
loop_
 _atom_site_type_symbol
 _atom_site_label
 _atom_site_symmetry_multiplicity
 _atom_site_fract_x
 _atom_site_fract_y
 _atom_site_fract_z
 _atom_site_occupancy
  Te  Te0  1  0.50000000  0.50000000  0.50000000  1
  Te  Te1  1  0.00000000  0.00000000  0.00000000  1
  O  O2  1  0.11410900  0.38589100  0.75000000  1
  O  O3  1  0.38589100  0.75000000  0.11410900  1
  O  O4  1  0.75000000  0.11410900  0.38589100  1
  O  O5  1  0.88589100  0.61410900  0.25000000  1
  O  O6  1  0.61410900  0.25000000  0.88589100  1
  O  O7  1  0.25000000  0.88589100  0.61410900  1
