# generated using pymatgen
data_KMnO2
_symmetry_space_group_name_H-M   'P 1'
_cell_length_a   6.68474137
_cell_length_b   6.68474137
_cell_length_c   8.48540546
_cell_angle_alpha   52.84722932
_cell_angle_beta   52.84722932
_cell_angle_gamma   27.95801965
_symmetry_Int_Tables_number   1
_chemical_formula_structural   KMnO2
_chemical_formula_sum   'K2 Mn2 O4'
_cell_volume   139.14204602
_cell_formula_units_Z   2
loop_
 _symmetry_equiv_pos_site_id
 _symmetry_equiv_pos_as_xyz
  1  'x, y, z'
loop_
 _atom_site_type_symbol
 _atom_site_label
 _atom_site_symmetry_multiplicity
 _atom_site_fract_x
 _atom_site_fract_y
 _atom_site_fract_z
 _atom_site_occupancy
  K  K0  1  0.82948400  0.82948400  0.18772300  1
  K  K1  1  0.17051600  0.17051600  0.81227700  1
  Mn  Mn2  1  0.97061200  0.97061200  0.68748400  1
  Mn  Mn3  1  0.02938800  0.02938800  0.31251600  1
  O  O4  1  0.12762100  0.12762100  0.41319800  1
  O  O5  1  0.45230000  0.45230000  0.83837800  1
  O  O6  1  0.54770000  0.54770000  0.16162200  1
  O  O7  1  0.87237900  0.87237900  0.58680200  1
