# generated using pymatgen
data_Mo(PO4)2
_symmetry_space_group_name_H-M   'P 1'
_cell_length_a   12.94992000
_cell_length_b   4.98152300
_cell_length_c   10.89585155
_cell_angle_alpha   84.96084249
_cell_angle_beta   90.00000000
_cell_angle_gamma   90.00000000
_symmetry_Int_Tables_number   1
_chemical_formula_structural   Mo(PO4)2
_chemical_formula_sum   'Mo4 P8 O32'
_cell_volume   700.17815855
_cell_formula_units_Z   4
loop_
 _symmetry_equiv_pos_site_id
 _symmetry_equiv_pos_as_xyz
  1  'x, y, z'
loop_
 _atom_site_type_symbol
 _atom_site_label
 _atom_site_symmetry_multiplicity
 _atom_site_fract_x
 _atom_site_fract_y
 _atom_site_fract_z
 _atom_site_occupancy
  Mo  Mo0  1  0.57089400  0.80354000  0.28881300  1
  Mo  Mo1  1  0.07089400  0.69646000  0.21118700  1
  Mo  Mo2  1  0.92910600  0.30354000  0.78881300  1
  Mo  Mo3  1  0.42910600  0.19646000  0.71118700  1
  P  P4  1  0.41113600  0.30295800  0.38478000  1
  P  P5  1  0.58886400  0.69704200  0.61522000  1
  P  P6  1  0.25175900  0.69885800  0.70550000  1
  P  P7  1  0.75175900  0.80114200  0.79450000  1
  P  P8  1  0.91113600  0.19704200  0.11522000  1
  P  P9  1  0.24824100  0.19885800  0.20550000  1
  P  P10  1  0.08886400  0.80295800  0.88478000  1
  P  P11  1  0.74824100  0.30114200  0.29450000  1
  O  O12  1  0.33444500  0.47646100  0.74809500  1
  O  O13  1  0.83444500  0.02353900  0.75190500  1
  O  O14  1  0.31584300  0.96098200  0.66999200  1
  O  O15  1  0.67498000  0.87564300  0.88433800  1
  O  O16  1  0.16555500  0.97646100  0.24809500  1
  O  O17  1  0.68415700  0.03901800  0.33000800  1
  O  O18  1  0.32502000  0.12435700  0.11566200  1
  O  O19  1  0.47444100  0.04795100  0.36593900  1
  O  O20  1  0.44765700  0.06267000  0.85684100  1
  O  O21  1  0.04467600  0.04087900  0.79833100  1
  O  O22  1  0.79630500  0.24444300  0.16101800  1
  O  O23  1  0.29630500  0.25555700  0.33898200  1
  O  O24  1  0.90314800  0.13921600  0.98293300  1
  O  O25  1  0.97444100  0.45204900  0.13406100  1
  O  O26  1  0.82502000  0.37564300  0.38433800  1
  O  O27  1  0.40314800  0.36078400  0.51706700  1
  O  O28  1  0.18415700  0.46098200  0.16999200  1
  O  O29  1  0.66555500  0.52353900  0.25190500  1
  O  O30  1  0.54467600  0.45912100  0.70166900  1
  O  O31  1  0.55234300  0.93733000  0.14315900  1
  O  O32  1  0.05234300  0.56267000  0.35684100  1
  O  O33  1  0.45532400  0.54087900  0.29833100  1
  O  O34  1  0.94765700  0.43733000  0.64315900  1
  O  O35  1  0.81584300  0.53901800  0.83000800  1
  O  O36  1  0.59685200  0.63921600  0.48293300  1
  O  O37  1  0.17498000  0.62435700  0.61566200  1
  O  O38  1  0.02555900  0.54795100  0.86593900  1
  O  O39  1  0.09685200  0.86078400  0.01706700  1
  O  O40  1  0.70369500  0.74444300  0.66101800  1
  O  O41  1  0.20369500  0.75555700  0.83898200  1
  O  O42  1  0.95532400  0.95912100  0.20166900  1
  O  O43  1  0.52555900  0.95204900  0.63406100  1
