# generated using pymatgen
data_CeSe2
_symmetry_space_group_name_H-M   'P 1'
_cell_length_a   16.04817792
_cell_length_b   16.04817792
_cell_length_c   16.04817769
_cell_angle_alpha   15.31292474
_cell_angle_beta   15.31292474
_cell_angle_gamma   15.31292568
_symmetry_Int_Tables_number   1
_chemical_formula_structural   CeSe2
_chemical_formula_sum   'Ce1 Se2'
_cell_volume   251.12559981
_cell_formula_units_Z   1
loop_
 _symmetry_equiv_pos_site_id
 _symmetry_equiv_pos_as_xyz
  1  'x, y, z'
loop_
 _atom_site_type_symbol
 _atom_site_label
 _atom_site_symmetry_multiplicity
 _atom_site_fract_x
 _atom_site_fract_y
 _atom_site_fract_z
 _atom_site_occupancy
  Ce  Ce0  1  0.50000000  0.50000000  0.50000000  1
  Se  Se1  1  0.86404000  0.86404000  0.86404000  1
  Se  Se2  1  0.13596000  0.13596000  0.13596000  1
