# generated using pymatgen
data_CeSe2
_symmetry_space_group_name_H-M   'P 1'
_cell_length_a   12.11569333
_cell_length_b   12.11569333
_cell_length_c   12.10025332
_cell_angle_alpha   75.54379988
_cell_angle_beta   75.54379988
_cell_angle_gamma   119.79335626
_symmetry_Int_Tables_number   1
_chemical_formula_structural   CeSe2
_chemical_formula_sum   'Ce8 Se16'
_cell_volume   1336.93032236
_cell_formula_units_Z   8
loop_
 _symmetry_equiv_pos_site_id
 _symmetry_equiv_pos_as_xyz
  1  'x, y, z'
loop_
 _atom_site_type_symbol
 _atom_site_label
 _atom_site_symmetry_multiplicity
 _atom_site_fract_x
 _atom_site_fract_y
 _atom_site_fract_z
 _atom_site_occupancy
  Ce  Ce0  1  0.74906800  0.96690500  0.57347700  1
  Ce  Ce1  1  0.03309500  0.25093300  0.92652300  1
  Ce  Ce2  1  0.25093200  0.03309500  0.42652300  1
  Ce  Ce3  1  0.96690500  0.74906800  0.07347700  1
  Ce  Ce4  1  0.33628100  0.65241700  0.03892200  1
  Ce  Ce5  1  0.34758300  0.66371900  0.46107800  1
  Ce  Ce6  1  0.66371900  0.34758300  0.96107800  1
  Ce  Ce7  1  0.65241700  0.33628100  0.53892200  1
  Se  Se8  1  0.00000000  0.00000000  0.50000000  1
  Se  Se9  1  0.00000000  0.00000000  0.00000000  1
  Se  Se10  1  0.38276200  0.61723800  0.25000000  1
  Se  Se11  1  0.61723800  0.38276200  0.75000000  1
  Se  Se12  1  0.60581900  0.85680800  0.44260100  1
  Se  Se13  1  0.14319200  0.39418100  0.05739900  1
  Se  Se14  1  0.39418100  0.14319200  0.55739900  1
  Se  Se15  1  0.85680800  0.60581900  0.94260100  1
  Se  Se16  1  0.58782300  0.79534800  0.82861000  1
  Se  Se17  1  0.20465200  0.41217700  0.67139000  1
  Se  Se18  1  0.41217700  0.20465200  0.17139000  1
  Se  Se19  1  0.79534800  0.58782300  0.32861000  1
  Se  Se20  1  0.77675900  0.20134100  0.97237300  1
  Se  Se21  1  0.79865900  0.22324100  0.52762700  1
  Se  Se22  1  0.22324100  0.79865900  0.02762700  1
  Se  Se23  1  0.20134100  0.77675900  0.47237300  1
