# generated using pymatgen
data_Bi2(PO4)3
_symmetry_space_group_name_H-M   'P 1'
_cell_length_a   9.17844886
_cell_length_b   12.63601910
_cell_length_c   9.11654200
_cell_angle_alpha   90.00000000
_cell_angle_beta   90.00000000
_cell_angle_gamma   89.67918457
_symmetry_Int_Tables_number   1
_chemical_formula_structural   Bi2(PO4)3
_chemical_formula_sum   'Bi8 P12 O48'
_cell_volume   1057.31135195
_cell_formula_units_Z   4
loop_
 _symmetry_equiv_pos_site_id
 _symmetry_equiv_pos_as_xyz
  1  'x, y, z'
loop_
 _atom_site_type_symbol
 _atom_site_label
 _atom_site_symmetry_multiplicity
 _atom_site_fract_x
 _atom_site_fract_y
 _atom_site_fract_z
 _atom_site_occupancy
  Bi  Bi0  1  0.75282300  0.61596400  0.03629300  1
  Bi  Bi1  1  0.74717700  0.88403600  0.53629300  1
  Bi  Bi2  1  0.75614600  0.12401900  0.96688000  1
  Bi  Bi3  1  0.74385400  0.37598100  0.46688000  1
  Bi  Bi4  1  0.25614600  0.62401900  0.53312000  1
  Bi  Bi5  1  0.24385400  0.87598100  0.03312000  1
  Bi  Bi6  1  0.25282300  0.11596400  0.46370700  1
  Bi  Bi7  1  0.24717700  0.38403600  0.96370700  1
  P  P8  1  0.40163000  0.64692700  0.88968600  1
  P  P9  1  0.45568700  0.99649500  0.74843600  1
  P  P10  1  0.54431300  0.00350500  0.25156400  1
  P  P11  1  0.39135200  0.34930300  0.60377800  1
  P  P12  1  0.59837000  0.35307300  0.11031400  1
  P  P13  1  0.60864800  0.65069700  0.39622200  1
  P  P14  1  0.90163000  0.14692700  0.61031400  1
  P  P15  1  0.89135200  0.84930300  0.89622200  1
  P  P16  1  0.04431300  0.50350500  0.24843600  1
  P  P17  1  0.10864800  0.15069700  0.10377800  1
  P  P18  1  0.95568700  0.49649500  0.75156400  1
  P  P19  1  0.09837000  0.85307300  0.38968600  1
  O  O20  1  0.86121500  0.96281000  0.94603600  1
  O  O21  1  0.96354000  0.57118400  0.13079200  1
  O  O22  1  0.94696700  0.44453000  0.35648100  1
  O  O23  1  0.92991100  0.83637200  0.39699700  1
  O  O24  1  0.94232200  0.17254700  0.11310600  1
  O  O25  1  0.85939800  0.19152300  0.76265400  1
  O  O26  1  0.86174200  0.58433200  0.82772200  1
  O  O27  1  0.85546100  0.41465600  0.67664300  1
  O  O28  1  0.03646000  0.42881600  0.86920800  1
  O  O29  1  0.05303300  0.55547000  0.64351900  1
  O  O30  1  0.07008900  0.16362800  0.60300300  1
  O  O31  1  0.05767800  0.82745300  0.88689400  1
  O  O32  1  0.13878500  0.03719000  0.05396400  1
  O  O33  1  0.14060200  0.80847700  0.23734600  1
  O  O34  1  0.13825800  0.41566800  0.17227800  1
  O  O35  1  0.14453900  0.58534400  0.32335700  1
  O  O36  1  0.13102300  0.97305900  0.39693200  1
  O  O37  1  0.44232200  0.67254700  0.38689400  1
  O  O38  1  0.18183600  0.22048500  0.98228500  1
  O  O39  1  0.17811200  0.79400200  0.51476700  1
  O  O40  1  0.31816400  0.27951500  0.48228500  1
  O  O41  1  0.32188800  0.70599800  0.01476700  1
  O  O42  1  0.32525200  0.31794000  0.75450100  1
  O  O43  1  0.36174200  0.08433200  0.67227800  1
  O  O44  1  0.36897700  0.52694100  0.89693200  1
  O  O45  1  0.36121500  0.46281000  0.55396400  1
  O  O46  1  0.35546100  0.91465600  0.82335700  1
  O  O47  1  0.35939800  0.69152300  0.73734600  1
  O  O48  1  0.42991100  0.33637200  0.10300300  1
  O  O49  1  0.86897700  0.02694100  0.60306800  1
  O  O50  1  0.46354000  0.07118400  0.36920800  1
  O  O51  1  0.44696700  0.94453000  0.14351900  1
  O  O52  1  0.55303300  0.05547000  0.85648100  1
  O  O53  1  0.53646000  0.92881600  0.63079200  1
  O  O54  1  0.55767800  0.32745300  0.61310600  1
  O  O55  1  0.57008900  0.66362800  0.89699700  1
  O  O56  1  0.64060200  0.30847700  0.26265400  1
  O  O57  1  0.64453900  0.08534400  0.17664300  1
  O  O58  1  0.63878500  0.53719000  0.44603600  1
  O  O59  1  0.63102300  0.47305900  0.10306800  1
  O  O60  1  0.63825800  0.91566800  0.32772200  1
  O  O61  1  0.67474800  0.68206000  0.24549900  1
  O  O62  1  0.67811200  0.29400200  0.98523300  1
  O  O63  1  0.68183600  0.72048500  0.51771500  1
  O  O64  1  0.82188800  0.20599800  0.48523300  1
  O  O65  1  0.81816400  0.77951500  0.01771500  1
  O  O66  1  0.82525200  0.81794000  0.74549900  1
  O  O67  1  0.17474800  0.18206000  0.25450100  1
