# generated using pymatgen
data_MnP2O7
_symmetry_space_group_name_H-M   'P 1'
_cell_length_a   7.92963000
_cell_length_b   6.84287500
_cell_length_c   9.31276428
_cell_angle_alpha   71.01310750
_cell_angle_beta   90.00000000
_cell_angle_gamma   90.00000000
_symmetry_Int_Tables_number   1
_chemical_formula_structural   MnP2O7
_chemical_formula_sum   'Mn4 P8 O28'
_cell_volume   477.83108963
_cell_formula_units_Z   4
loop_
 _symmetry_equiv_pos_site_id
 _symmetry_equiv_pos_as_xyz
  1  'x, y, z'
loop_
 _atom_site_type_symbol
 _atom_site_label
 _atom_site_symmetry_multiplicity
 _atom_site_fract_x
 _atom_site_fract_y
 _atom_site_fract_z
 _atom_site_occupancy
  Mn  Mn0  1  0.27770800  0.27923900  0.50758600  1
  Mn  Mn1  1  0.22229200  0.27923900  0.00758600  1
  Mn  Mn2  1  0.77770800  0.72076100  0.99241400  1
  Mn  Mn3  1  0.72229200  0.72076100  0.49241400  1
  P  P4  1  0.09444000  0.53531000  0.20469600  1
  P  P5  1  0.59444000  0.46469000  0.29530400  1
  P  P6  1  0.03496300  0.06842800  0.79494900  1
  P  P7  1  0.53496300  0.93157200  0.70505100  1
  P  P8  1  0.46503700  0.06842800  0.29494900  1
  P  P9  1  0.96503700  0.93157200  0.20505100  1
  P  P10  1  0.40556000  0.53531000  0.70469600  1
  P  P11  1  0.90556000  0.46469000  0.79530400  1
  O  O12  1  0.11493500  0.77034000  0.20452700  1
  O  O13  1  0.73854600  0.51112200  0.39021100  1
  O  O14  1  0.59377100  0.60267200  0.12838000  1
  O  O15  1  0.42065000  0.47323900  0.36650400  1
  O  O16  1  0.92065000  0.52676100  0.13349600  1
  O  O17  1  0.09377100  0.39732800  0.37162000  1
  O  O18  1  0.23854600  0.48887800  0.10978900  1
  O  O19  1  0.17515100  0.08196400  0.90641600  1
  O  O20  1  0.45008800  0.14466000  0.65459700  1
  O  O21  1  0.10226500  0.10870700  0.63396500  1
  O  O22  1  0.61493500  0.22966000  0.29547300  1
  O  O23  1  0.60226500  0.89129300  0.86603500  1
  O  O24  1  0.32484900  0.08196400  0.40641600  1
  O  O25  1  0.95008800  0.85534000  0.84540300  1
  O  O26  1  0.04991200  0.14466000  0.15459700  1
  O  O27  1  0.67515100  0.91803600  0.59358400  1
  O  O28  1  0.39773500  0.10870700  0.13396500  1
  O  O29  1  0.38506500  0.77034000  0.70452700  1
  O  O30  1  0.89773500  0.89129300  0.36603500  1
  O  O31  1  0.54991200  0.85534000  0.34540300  1
  O  O32  1  0.82484900  0.91803600  0.09358400  1
  O  O33  1  0.76145400  0.51112200  0.89021100  1
  O  O34  1  0.90622900  0.60267200  0.62838000  1
  O  O35  1  0.07935000  0.47323900  0.86650400  1
  O  O36  1  0.57935000  0.52676100  0.63349600  1
  O  O37  1  0.40622900  0.39732800  0.87162000  1
  O  O38  1  0.26145400  0.48887800  0.60978900  1
  O  O39  1  0.88506500  0.22966000  0.79547300  1
