# generated using pymatgen
data_CeSe2
_symmetry_space_group_name_H-M   'P 1'
_cell_length_a   24.72487137
_cell_length_b   24.55811849
_cell_length_c   4.07082879
_cell_angle_alpha   87.60550976
_cell_angle_beta   82.92622299
_cell_angle_gamma   9.46826725
_symmetry_Int_Tables_number   1
_chemical_formula_structural   CeSe2
_chemical_formula_sum   'Ce1 Se2'
_cell_volume   352.17445235
_cell_formula_units_Z   1
loop_
 _symmetry_equiv_pos_site_id
 _symmetry_equiv_pos_as_xyz
  1  'x, y, z'
loop_
 _atom_site_type_symbol
 _atom_site_label
 _atom_site_symmetry_multiplicity
 _atom_site_fract_x
 _atom_site_fract_y
 _atom_site_fract_z
 _atom_site_occupancy
  Ce  Ce0  1  0.07105400  0.92894600  0.07105400  1
  Se  Se1  1  0.77096900  0.29822200  0.70177800  1
  Se  Se2  1  0.70177800  0.22903100  0.77096900  1
