# generated using pymatgen
data_Ni4P7O24
_symmetry_space_group_name_H-M   'P 1'
_cell_length_a   10.34801900
_cell_length_b   10.40372663
_cell_length_c   10.75258978
_cell_angle_alpha   111.31719689
_cell_angle_beta   108.46781331
_cell_angle_gamma   104.50225197
_symmetry_Int_Tables_number   1
_chemical_formula_structural   Ni4P7O24
_chemical_formula_sum   'Ni8 P14 O48'
_cell_volume   931.21660468
_cell_formula_units_Z   2
loop_
 _symmetry_equiv_pos_site_id
 _symmetry_equiv_pos_as_xyz
  1  'x, y, z'
loop_
 _atom_site_type_symbol
 _atom_site_label
 _atom_site_symmetry_multiplicity
 _atom_site_fract_x
 _atom_site_fract_y
 _atom_site_fract_z
 _atom_site_occupancy
  Ni  Ni0  1  0.89457600  0.50389000  0.74137600  1
  Ni  Ni1  1  0.38154300  0.99973700  0.07589200  1
  Ni  Ni2  1  0.66432800  0.50820800  0.88059300  1
  Ni  Ni3  1  0.83215300  0.98348700  0.41767500  1
  Ni  Ni4  1  0.16784700  0.01651300  0.58232500  1
  Ni  Ni5  1  0.33567200  0.49179200  0.11940700  1
  Ni  Ni6  1  0.61845700  0.00026300  0.92410800  1
  Ni  Ni7  1  0.10542400  0.49611000  0.25862400  1
  P  P8  1  0.45799900  0.24378500  0.94973200  1
  P  P9  1  0.54200100  0.75621500  0.05026800  1
  P  P10  1  0.17758600  0.72788200  0.11631600  1
  P  P11  1  0.38782900  0.25369200  0.52104800  1
  P  P12  1  0.82241400  0.27211800  0.88368400  1
  P  P13  1  0.03450500  0.26017800  0.75355500  1
  P  P14  1  0.94668700  0.20109900  0.26280800  1
  P  P15  1  0.61896600  0.19200200  0.43462700  1
  P  P16  1  0.22310200  0.23360500  0.22511400  1
  P  P17  1  0.38103400  0.80799800  0.56537300  1
  P  P18  1  0.05331300  0.79890100  0.73719200  1
  P  P19  1  0.96549500  0.73982200  0.24644500  1
  P  P20  1  0.61217100  0.74630800  0.47895200  1
  P  P21  1  0.77689800  0.76639500  0.77488600  1
  O  O22  1  0.26296300  0.12197700  0.13001000  1
  O  O23  1  0.20390500  0.86600500  0.87337600  1
  O  O24  1  0.98710900  0.62733000  0.66193500  1
  O  O25  1  0.06905800  0.64324300  0.95115700  1
  O  O26  1  0.71952100  0.35735400  0.53793900  1
  O  O27  1  0.56196200  0.64702200  0.92314000  1
  O  O28  1  0.56566500  0.14721500  0.26890900  1
  O  O29  1  0.78140500  0.63476600  0.80494200  1
  O  O30  1  0.79609500  0.13399500  0.12662400  1
  O  O31  1  0.01289100  0.37267000  0.33806500  1
  O  O32  1  0.93094200  0.35675700  0.04884300  1
  O  O33  1  0.73703700  0.87802300  0.86999000  1
  O  O34  1  0.28047900  0.64264600  0.46206100  1
  O  O35  1  0.43803800  0.35297800  0.07686000  1
  O  O36  1  0.43433500  0.85278500  0.73109100  1
  O  O37  1  0.21859500  0.36523400  0.19505800  1
  O  O38  1  0.52901200  0.84803900  0.53867300  1
  O  O39  1  0.99046600  0.62430100  0.29770800  1
  O  O40  1  0.66297600  0.68801300  0.59920000  1
  O  O41  1  0.93822200  0.85605500  0.79285900  1
  O  O42  1  0.50584600  0.60926100  0.33077100  1
  O  O43  1  0.07709400  0.86443500  0.63782000  1
  O  O44  1  0.49419100  0.12312400  0.98880200  1
  O  O45  1  0.31234800  0.91613300  0.54089100  1
  O  O46  1  0.81926800  0.65271600  0.10333400  1
  O  O47  1  0.68447900  0.14074100  0.84282700  1
  O  O48  1  0.09890700  0.80711100  0.21094000  1
  O  O49  1  0.75199700  0.84675000  0.48983400  1
  O  O50  1  0.97686600  0.87921800  0.37182400  1
  O  O51  1  0.21234700  0.61607000  0.17117800  1
  O  O52  1  0.41018200  0.64242400  0.04676700  1
  O  O53  1  0.32235900  0.15551100  0.79682400  1
  O  O54  1  0.67764100  0.84448900  0.20317600  1
  O  O55  1  0.58981800  0.35757600  0.95323300  1
  O  O56  1  0.78765300  0.38393000  0.82882200  1
  O  O57  1  0.02313400  0.12078200  0.62817600  1
  O  O58  1  0.24800300  0.15325000  0.51016600  1
  O  O59  1  0.90109300  0.19288900  0.78906000  1
  O  O60  1  0.31552100  0.85925900  0.15717300  1
  O  O61  1  0.18073200  0.34728400  0.89666600  1
  O  O62  1  0.68765200  0.08386700  0.45910900  1
  O  O63  1  0.50580900  0.87687600  0.01119800  1
  O  O64  1  0.92290600  0.13556500  0.36218000  1
  O  O65  1  0.49415400  0.39073900  0.66922900  1
  O  O66  1  0.06177800  0.14394500  0.20714100  1
  O  O67  1  0.47098800  0.15196100  0.46132700  1
  O  O68  1  0.00953400  0.37569900  0.70229200  1
  O  O69  1  0.33702400  0.31198700  0.40080000  1
