# generated using pymatgen
data_Mn4(PO4)3
_symmetry_space_group_name_H-M   'P 1'
_cell_length_a   6.31950200
_cell_length_b   9.99864400
_cell_length_c   15.21965100
_cell_angle_alpha   90.00000000
_cell_angle_beta   90.00000000
_cell_angle_gamma   90.00000000
_symmetry_Int_Tables_number   1
_chemical_formula_structural   Mn4(PO4)3
_chemical_formula_sum   'Mn16 P12 O48'
_cell_volume   961.67572842
_cell_formula_units_Z   4
loop_
 _symmetry_equiv_pos_site_id
 _symmetry_equiv_pos_as_xyz
  1  'x, y, z'
loop_
 _atom_site_type_symbol
 _atom_site_label
 _atom_site_symmetry_multiplicity
 _atom_site_fract_x
 _atom_site_fract_y
 _atom_site_fract_z
 _atom_site_occupancy
  Mn  Mn0  1  0.85508700  0.56615200  0.38165800  1
  Mn  Mn1  1  0.85508700  0.56615200  0.11834200  1
  Mn  Mn2  1  0.83390500  0.15991700  0.39701500  1
  Mn  Mn3  1  0.83390500  0.15991700  0.10298500  1
  Mn  Mn4  1  0.66609500  0.65991700  0.89701500  1
  Mn  Mn5  1  0.66609500  0.65991700  0.60298500  1
  Mn  Mn6  1  0.64491300  0.06615200  0.88165800  1
  Mn  Mn7  1  0.64491300  0.06615200  0.61834200  1
  Mn  Mn8  1  0.35508700  0.93384800  0.38165800  1
  Mn  Mn9  1  0.35508700  0.93384800  0.11834200  1
  Mn  Mn10  1  0.33390500  0.34008300  0.39701500  1
  Mn  Mn11  1  0.33390500  0.34008300  0.10298500  1
  Mn  Mn12  1  0.16609500  0.84008300  0.89701500  1
  Mn  Mn13  1  0.16609500  0.84008300  0.60298500  1
  Mn  Mn14  1  0.14491300  0.43384800  0.88165800  1
  Mn  Mn15  1  0.14491300  0.43384800  0.61834200  1
  P  P16  1  0.01238100  0.40261500  0.25000000  1
  P  P17  1  0.14776400  0.13501400  0.56719600  1
  P  P18  1  0.14776400  0.13501400  0.93280400  1
  P  P19  1  0.35223600  0.63501400  0.06719600  1
  P  P20  1  0.35223600  0.63501400  0.43280400  1
  P  P21  1  0.48761900  0.90261500  0.75000000  1
  P  P22  1  0.51238100  0.09738500  0.25000000  1
  P  P23  1  0.64776400  0.36498600  0.56719600  1
  P  P24  1  0.64776400  0.36498600  0.93280400  1
  P  P25  1  0.85223600  0.86498600  0.06719600  1
  P  P26  1  0.85223600  0.86498600  0.43280400  1
  P  P27  1  0.98761900  0.59738500  0.75000000  1
  O  O28  1  0.89552300  0.78920600  0.52113300  1
  O  O29  1  0.89552300  0.78920600  0.97886700  1
  O  O30  1  0.90959300  0.35400000  0.16235100  1
  O  O31  1  0.83630800  0.46727400  0.94017900  1
  O  O32  1  0.83630800  0.46727400  0.55982100  1
  O  O33  1  0.80349700  0.75934300  0.36291800  1
  O  O34  1  0.80349700  0.75934300  0.13708200  1
  O  O35  1  0.74848700  0.62721400  0.75000000  1
  O  O36  1  0.75151300  0.12721400  0.25000000  1
  O  O37  1  0.69650300  0.25934300  0.86291800  1
  O  O38  1  0.69650300  0.25934300  0.63708200  1
  O  O39  1  0.66369200  0.96727400  0.44017900  1
  O  O40  1  0.96146300  0.04019100  0.90678800  1
  O  O41  1  0.96146300  0.04019100  0.59321200  1
  O  O42  1  0.96069500  0.55538800  0.25000000  1
  O  O43  1  0.90959300  0.35400000  0.33764900  1
  O  O44  1  0.03853700  0.95980900  0.09321200  1
  O  O45  1  0.03853700  0.95980900  0.40678800  1
  O  O46  1  0.03930500  0.44461200  0.75000000  1
  O  O47  1  0.09040700  0.64600000  0.66235100  1
  O  O48  1  0.09040700  0.64600000  0.83764900  1
  O  O49  1  0.10447700  0.21079400  0.02113300  1
  O  O50  1  0.10447700  0.21079400  0.47886700  1
  O  O51  1  0.16369200  0.53272600  0.05982100  1
  O  O52  1  0.16369200  0.53272600  0.44017900  1
  O  O53  1  0.19650300  0.24065700  0.63708200  1
  O  O54  1  0.19650300  0.24065700  0.86291800  1
  O  O55  1  0.25151300  0.37278600  0.25000000  1
  O  O56  1  0.24848700  0.87278600  0.75000000  1
  O  O57  1  0.66369200  0.96727400  0.05982100  1
  O  O58  1  0.30349700  0.74065700  0.36291800  1
  O  O59  1  0.33630800  0.03272600  0.55982100  1
  O  O60  1  0.33630800  0.03272600  0.94017900  1
  O  O61  1  0.39552300  0.71079400  0.52113300  1
  O  O62  1  0.39552300  0.71079400  0.97886700  1
  O  O63  1  0.40959300  0.14600000  0.16235100  1
  O  O64  1  0.40959300  0.14600000  0.33764900  1
  O  O65  1  0.46069500  0.94461200  0.25000000  1
  O  O66  1  0.46146300  0.45980900  0.59321200  1
  O  O67  1  0.46146300  0.45980900  0.90678800  1
  O  O68  1  0.53853700  0.54019100  0.09321200  1
  O  O69  1  0.53853700  0.54019100  0.40678800  1
  O  O70  1  0.53930500  0.05538800  0.75000000  1
  O  O71  1  0.59040700  0.85400000  0.66235100  1
  O  O72  1  0.59040700  0.85400000  0.83764900  1
  O  O73  1  0.60447700  0.28920600  0.02113300  1
  O  O74  1  0.60447700  0.28920600  0.47886700  1
  O  O75  1  0.30349700  0.74065700  0.13708200  1
