# generated using pymatgen
data_NbS2
_symmetry_space_group_name_H-M   'P 1'
_cell_length_a   11.85187401
_cell_length_b   11.61157865
_cell_length_c   3.35678766
_cell_angle_alpha   85.85853788
_cell_angle_beta   77.73265828
_cell_angle_gamma   16.40880384
_symmetry_Int_Tables_number   1
_chemical_formula_structural   NbS2
_chemical_formula_sum   'Nb1 S2'
_cell_volume   112.09376507
_cell_formula_units_Z   1
loop_
 _symmetry_equiv_pos_site_id
 _symmetry_equiv_pos_as_xyz
  1  'x, y, z'
loop_
 _atom_site_type_symbol
 _atom_site_label
 _atom_site_symmetry_multiplicity
 _atom_site_fract_x
 _atom_site_fract_y
 _atom_site_fract_z
 _atom_site_occupancy
  Nb  Nb0  1  0.92243800  0.07756200  0.92243800  1
  S  S1  1  0.32399600  0.81248400  0.18751600  1
  S  S2  1  0.18751600  0.67600400  0.32399600  1
