# generated using pymatgen
data_Co3(P3O10)2
_symmetry_space_group_name_H-M   'P 1'
_cell_length_a   8.35121017
_cell_length_b   8.35121017
_cell_length_c   12.39550600
_cell_angle_alpha   90.00000000
_cell_angle_beta   90.00000000
_cell_angle_gamma   105.38933063
_symmetry_Int_Tables_number   1
_chemical_formula_structural   Co3(P3O10)2
_chemical_formula_sum   'Co6 P12 O40'
_cell_volume   833.49954540
_cell_formula_units_Z   2
loop_
 _symmetry_equiv_pos_site_id
 _symmetry_equiv_pos_as_xyz
  1  'x, y, z'
loop_
 _atom_site_type_symbol
 _atom_site_label
 _atom_site_symmetry_multiplicity
 _atom_site_fract_x
 _atom_site_fract_y
 _atom_site_fract_z
 _atom_site_occupancy
  Co  Co0  1  0.69942800  0.30057200  0.25000000  1
  Co  Co1  1  0.86068300  0.86068300  0.00000000  1
  Co  Co2  1  0.13931700  0.13931700  0.50000000  1
  Co  Co3  1  0.24290900  0.75709100  0.25000000  1
  Co  Co4  1  0.75709100  0.24290900  0.75000000  1
  Co  Co5  1  0.30057200  0.69942800  0.75000000  1
  P  P6  1  0.29962500  0.17716700  0.27757300  1
  P  P7  1  0.63166100  0.90972100  0.31715100  1
  P  P8  1  0.09027900  0.36833900  0.18284900  1
  P  P9  1  0.15105000  0.74128700  0.51401100  1
  P  P10  1  0.17716700  0.29962500  0.72242700  1
  P  P11  1  0.84895000  0.25871300  0.01401100  1
  P  P12  1  0.90972100  0.63166100  0.68284900  1
  P  P13  1  0.36833900  0.09027900  0.81715100  1
  P  P14  1  0.70037500  0.82283300  0.77757300  1
  P  P15  1  0.25871300  0.84895000  0.98598900  1
  P  P16  1  0.74128700  0.15105000  0.48598900  1
  P  P17  1  0.82283300  0.70037500  0.22242700  1
  O  O18  1  0.79041600  0.83490300  0.30883300  1
  O  O19  1  0.15645400  0.68197500  0.39923100  1
  O  O20  1  0.00903800  0.73149300  0.20967300  1
  O  O21  1  0.83490300  0.79041600  0.69116700  1
  O  O22  1  0.33729000  0.94243100  0.74300000  1
  O  O23  1  0.84179600  0.07316200  0.02354700  1
  O  O24  1  0.26317700  0.25432200  0.38524200  1
  O  O25  1  0.26850700  0.99096200  0.29032700  1
  O  O26  1  0.52665300  0.22526100  0.80046000  1
  O  O27  1  0.84354600  0.31802500  0.89923100  1
  O  O28  1  0.74567800  0.73682300  0.11475800  1
  O  O29  1  0.27697400  0.69230700  0.58749000  1
  O  O30  1  0.03392100  0.35639800  0.05859300  1
  O  O31  1  0.20958400  0.16509700  0.80883300  1
  O  O32  1  0.96607900  0.64360200  0.55859300  1
  O  O33  1  0.64360200  0.96607900  0.44140700  1
  O  O34  1  0.46575000  0.27106200  0.23118100  1
  O  O35  1  0.30769300  0.72302600  0.91251000  1
  O  O36  1  0.94243100  0.33729000  0.25700000  1
  O  O37  1  0.73682300  0.74567800  0.88524200  1
  O  O38  1  0.92683800  0.15820400  0.47645300  1
  O  O39  1  0.16509700  0.20958400  0.19116700  1
  O  O40  1  0.35639800  0.03392100  0.94140700  1
  O  O41  1  0.53425000  0.72893800  0.73118100  1
  O  O42  1  0.07316200  0.84179600  0.97645300  1
  O  O43  1  0.72302600  0.30769300  0.08749000  1
  O  O44  1  0.73149300  0.00903800  0.79032700  1
  O  O45  1  0.31802500  0.84354600  0.10076900  1
  O  O46  1  0.15820400  0.92683800  0.52354700  1
  O  O47  1  0.22526100  0.52665300  0.19954000  1
  O  O48  1  0.72893800  0.53425000  0.26881900  1
  O  O49  1  0.47334700  0.77473900  0.30046000  1
  O  O50  1  0.25432200  0.26317700  0.61475800  1
  O  O51  1  0.05756900  0.66271000  0.75700000  1
  O  O52  1  0.99096200  0.26850700  0.70967300  1
  O  O53  1  0.27106200  0.46575000  0.76881900  1
  O  O54  1  0.66271000  0.05756900  0.24300000  1
  O  O55  1  0.77473900  0.47334700  0.69954000  1
  O  O56  1  0.69230700  0.27697400  0.41251000  1
  O  O57  1  0.68197500  0.15645400  0.60076900  1
