# generated using pymatgen
data_CeSe2
_symmetry_space_group_name_H-M   'P 1'
_cell_length_a   8.46081275
_cell_length_b   8.46081275
_cell_length_c   9.97708100
_cell_angle_alpha   90.00000000
_cell_angle_beta   90.00000000
_cell_angle_gamma   120.00000590
_symmetry_Int_Tables_number   1
_chemical_formula_structural   CeSe2
_chemical_formula_sum   'Ce3 Se6'
_cell_volume   618.52644369
_cell_formula_units_Z   3
loop_
 _symmetry_equiv_pos_site_id
 _symmetry_equiv_pos_as_xyz
  1  'x, y, z'
loop_
 _atom_site_type_symbol
 _atom_site_label
 _atom_site_symmetry_multiplicity
 _atom_site_fract_x
 _atom_site_fract_y
 _atom_site_fract_z
 _atom_site_occupancy
  Ce  Ce0  1  0.49003300  0.49003300  0.00000000  1
  Ce  Ce1  1  0.50996700  0.00000000  0.66666700  1
  Ce  Ce2  1  0.00000000  0.50996700  0.33333300  1
  Se  Se3  1  0.53596500  0.74756800  0.81790000  1
  Se  Se4  1  0.25243200  0.78839700  0.48456600  1
  Se  Se5  1  0.21160300  0.46403500  0.15123300  1
  Se  Se6  1  0.74756800  0.53596500  0.18210000  1
  Se  Se7  1  0.78839700  0.25243200  0.51543400  1
  Se  Se8  1  0.46403500  0.21160300  0.84876700  1
