# generated using pymatgen
data_CeSe2
_symmetry_space_group_name_H-M   'P 1'
_cell_length_a   13.42961578
_cell_length_b   13.42961578
_cell_length_c   13.42961608
_cell_angle_alpha   17.95100509
_cell_angle_beta   17.95100509
_cell_angle_gamma   17.95100268
_symmetry_Int_Tables_number   1
_chemical_formula_structural   CeSe2
_chemical_formula_sum   'Ce2 Se4'
_cell_volume   200.87886419
_cell_formula_units_Z   2
loop_
 _symmetry_equiv_pos_site_id
 _symmetry_equiv_pos_as_xyz
  1  'x, y, z'
loop_
 _atom_site_type_symbol
 _atom_site_label
 _atom_site_symmetry_multiplicity
 _atom_site_fract_x
 _atom_site_fract_y
 _atom_site_fract_z
 _atom_site_occupancy
  Ce  Ce0  1  0.91665200  0.91665200  0.91665200  1
  Ce  Ce1  1  0.08332900  0.08332900  0.08332900  1
  Se  Se2  1  0.78830000  0.78830000  0.78830000  1
  Se  Se3  1  0.62539900  0.62539900  0.62539900  1
  Se  Se4  1  0.54131600  0.54131600  0.54131600  1
  Se  Se5  1  0.37840300  0.37840300  0.37840300  1
