# generated using pymatgen
data_Li2V(PO3)4
_symmetry_space_group_name_H-M   'P 1'
_cell_length_a   8.63185177
_cell_length_b   8.63185168
_cell_length_c   7.66347539
_cell_angle_alpha   83.24644087
_cell_angle_beta   96.75356093
_cell_angle_gamma   65.25729742
_symmetry_Int_Tables_number   1
_chemical_formula_structural   Li2V(PO3)4
_chemical_formula_sum   'Li4 V2 P8 O24'
_cell_volume   506.09303518
_cell_formula_units_Z   2
loop_
 _symmetry_equiv_pos_site_id
 _symmetry_equiv_pos_as_xyz
  1  'x, y, z'
loop_
 _atom_site_type_symbol
 _atom_site_label
 _atom_site_symmetry_multiplicity
 _atom_site_fract_x
 _atom_site_fract_y
 _atom_site_fract_z
 _atom_site_occupancy
  Li  Li0  1  0.49859600  0.81618900  0.75568800  1
  Li  Li1  1  0.18381100  0.50140400  0.25568800  1
  Li  Li2  1  0.81618900  0.49859600  0.74431200  1
  Li  Li3  1  0.50140400  0.18381100  0.24431200  1
  V  V4  1  0.12957900  0.12957900  0.75000000  1
  V  V5  1  0.87042100  0.87042100  0.25000000  1
  P  P6  1  0.06341500  0.79178300  0.67303400  1
  P  P7  1  0.20821700  0.93658500  0.17303400  1
  P  P8  1  0.22404900  0.42812400  0.87550000  1
  P  P9  1  0.57187600  0.77595100  0.37550000  1
  P  P10  1  0.42812400  0.22404900  0.62450000  1
  P  P11  1  0.77595100  0.57187600  0.12450000  1
  P  P12  1  0.79178300  0.06341500  0.82696600  1
  P  P13  1  0.93658500  0.20821700  0.32696600  1
  O  O14  1  0.16806900  0.89416700  0.66685900  1
  O  O15  1  0.01943700  0.72683200  0.51011400  1
  O  O16  1  0.10583300  0.83193100  0.16685900  1
  O  O17  1  0.27316800  0.98056300  0.01011400  1
  O  O18  1  0.16610200  0.63163700  0.83881600  1
  O  O19  1  0.36836300  0.83389800  0.33881600  1
  O  O20  1  0.07587200  0.38623900  0.81050300  1
  O  O21  1  0.61376100  0.92412800  0.31050300  1
  O  O22  1  0.63252900  0.69053500  0.56862700  1
  O  O23  1  0.36759900  0.36759900  0.75000000  1
  O  O24  1  0.88914300  0.88914300  0.75000000  1
  O  O25  1  0.69053500  0.63252900  0.93137300  1
  O  O26  1  0.30946500  0.36747100  0.06862700  1
  O  O27  1  0.11085700  0.11085700  0.25000000  1
  O  O28  1  0.63240100  0.63240100  0.25000000  1
  O  O29  1  0.36747100  0.30946500  0.43137300  1
  O  O30  1  0.38623900  0.07587200  0.68949700  1
  O  O31  1  0.92412800  0.61376100  0.18949700  1
  O  O32  1  0.63163700  0.16610200  0.66118400  1
  O  O33  1  0.83389800  0.36836300  0.16118400  1
  O  O34  1  0.72683200  0.01943700  0.98988600  1
  O  O35  1  0.89416700  0.16806900  0.83314100  1
  O  O36  1  0.98056300  0.27316800  0.48988600  1
  O  O37  1  0.83193100  0.10583300  0.33314100  1
