# generated using pymatgen
data_Fe4P7O24
_symmetry_space_group_name_H-M   'P 1'
_cell_length_a   10.28635900
_cell_length_b   10.36158208
_cell_length_c   10.77242221
_cell_angle_alpha   108.74546782
_cell_angle_beta   111.50916412
_cell_angle_gamma   104.93879006
_symmetry_Int_Tables_number   1
_chemical_formula_structural   Fe4P7O24
_chemical_formula_sum   'Fe8 P14 O48'
_cell_volume   914.99450672
_cell_formula_units_Z   2
loop_
 _symmetry_equiv_pos_site_id
 _symmetry_equiv_pos_as_xyz
  1  'x, y, z'
loop_
 _atom_site_type_symbol
 _atom_site_label
 _atom_site_symmetry_multiplicity
 _atom_site_fract_x
 _atom_site_fract_y
 _atom_site_fract_z
 _atom_site_occupancy
  Fe  Fe0  1  0.49955700  0.09893500  0.26011600  1
  Fe  Fe1  1  0.99926000  0.61896300  0.92276100  1
  Fe  Fe2  1  0.48864100  0.33645700  0.11515500  1
  Fe  Fe3  1  0.01242000  0.17410400  0.58746600  1
  Fe  Fe4  1  0.98758000  0.82589600  0.41253400  1
  Fe  Fe5  1  0.51135900  0.66354300  0.88484500  1
  Fe  Fe6  1  0.00074000  0.38103700  0.07723900  1
  Fe  Fe7  1  0.50044300  0.90106500  0.73988400  1
  P  P8  1  0.75091800  0.53963400  0.04915700  1
  P  P9  1  0.24908200  0.46036600  0.95084300  1
  P  P10  1  0.27078000  0.82324000  0.88454300  1
  P  P11  1  0.74886000  0.60777500  0.47624600  1
  P  P12  1  0.72922000  0.17676000  0.11545700  1
  P  P13  1  0.74032500  0.96539700  0.24172800  1
  P  P14  1  0.80464700  0.05939200  0.73928900  1
  P  P15  1  0.80702700  0.37788200  0.56692000  1
  P  P16  1  0.77006400  0.78011000  0.77059100  1
  P  P17  1  0.19297300  0.62211800  0.43308000  1
  P  P18  1  0.19535300  0.94060800  0.26071100  1
  P  P19  1  0.25967500  0.03460300  0.75827200  1
  P  P20  1  0.25114000  0.39222500  0.52375400  1
  P  P21  1  0.22993600  0.21989000  0.22940900  1
  O  O22  1  0.88249200  0.74109200  0.86756400  1
  O  O23  1  0.11968500  0.79192500  0.12045300  1
  O  O24  1  0.37058400  0.01490500  0.33441400  1
  O  O25  1  0.36126600  0.93884400  0.04832800  1
  O  O26  1  0.63585200  0.27689200  0.46015500  1
  O  O27  1  0.84334800  0.44260400  0.73034900  1
  O  O28  1  0.34666300  0.43158900  0.07704900  1
  O  O29  1  0.36460400  0.21749400  0.19960800  1
  O  O30  1  0.88031500  0.20807500  0.87954700  1
  O  O31  1  0.62941600  0.98509500  0.66558600  1
  O  O32  1  0.63873400  0.06115600  0.95167200  1
  O  O33  1  0.11750800  0.25890800  0.13243600  1
  O  O34  1  0.36414800  0.72310800  0.53984500  1
  O  O35  1  0.15665200  0.55739600  0.26965100  1
  O  O36  1  0.65333700  0.56841100  0.92295100  1
  O  O37  1  0.63539600  0.78250600  0.80039200  1
  O  O38  1  0.15203600  0.47700100  0.46702000  1
  O  O39  1  0.36956900  0.00391800  0.70163900  1
  O  O40  1  0.31057600  0.33836100  0.40464800  1
  O  O41  1  0.13715900  0.05899100  0.20889600  1
  O  O42  1  0.14198900  0.92842100  0.37151200  1
  O  O43  1  0.39278900  0.49870300  0.67371100  1
  O  O44  1  0.87353200  0.49982100  0.01073400  1
  O  O45  1  0.08732500  0.69337200  0.46011500  1
  O  O46  1  0.86282400  0.31611100  0.15523600  1
  O  O47  1  0.33990800  0.17566300  0.90669900  1
  O  O48  1  0.18642100  0.89556500  0.78620000  1
  O  O49  1  0.14713100  0.25127500  0.51133400  1
  O  O50  1  0.11750000  0.02456200  0.63042700  1
  O  O51  1  0.38059500  0.78323600  0.82488200  1
  O  O52  1  0.36255300  0.58899300  0.94886000  1
  O  O53  1  0.83994300  0.67750900  0.20453900  1
  O  O54  1  0.16005700  0.32249100  0.79546100  1
  O  O55  1  0.63744700  0.41100700  0.05114000  1
  O  O56  1  0.61940500  0.21676400  0.17511800  1
  O  O57  1  0.88250000  0.97543800  0.36957300  1
  O  O58  1  0.85286900  0.74872500  0.48866600  1
  O  O59  1  0.81357900  0.10443500  0.21380000  1
  O  O60  1  0.66009200  0.82433700  0.09330100  1
  O  O61  1  0.13717600  0.68388900  0.84476400  1
  O  O62  1  0.91267500  0.30662800  0.53988500  1
  O  O63  1  0.12646800  0.50017900  0.98926600  1
  O  O64  1  0.60721100  0.50129700  0.32628900  1
  O  O65  1  0.85801100  0.07157900  0.62848800  1
  O  O66  1  0.86284100  0.94100900  0.79110400  1
  O  O67  1  0.84796400  0.52299900  0.53298000  1
  O  O68  1  0.63043100  0.99608200  0.29836100  1
  O  O69  1  0.68942400  0.66163900  0.59535200  1
