# generated using pymatgen
data_CeSe2
_symmetry_space_group_name_H-M   'P 1'
_cell_length_a   4.33614400
_cell_length_b   7.07562000
_cell_length_c   13.55855400
_cell_angle_alpha   90.00000000
_cell_angle_beta   90.00000000
_cell_angle_gamma   90.00000000
_symmetry_Int_Tables_number   1
_chemical_formula_structural   CeSe2
_chemical_formula_sum   'Ce4 Se8'
_cell_volume   415.98873717
_cell_formula_units_Z   4
loop_
 _symmetry_equiv_pos_site_id
 _symmetry_equiv_pos_as_xyz
  1  'x, y, z'
loop_
 _atom_site_type_symbol
 _atom_site_label
 _atom_site_symmetry_multiplicity
 _atom_site_fract_x
 _atom_site_fract_y
 _atom_site_fract_z
 _atom_site_occupancy
  Ce  Ce0  1  0.25000000  0.55061200  0.63427800  1
  Ce  Ce1  1  0.25000000  0.94938800  0.13427800  1
  Ce  Ce2  1  0.75000000  0.44938800  0.36572200  1
  Ce  Ce3  1  0.75000000  0.05061200  0.86572200  1
  Se  Se4  1  0.25000000  0.86942300  0.76572700  1
  Se  Se5  1  0.25000000  0.63057700  0.26572700  1
  Se  Se6  1  0.75000000  0.13057700  0.23427300  1
  Se  Se7  1  0.75000000  0.36942300  0.73427300  1
  Se  Se8  1  0.25000000  0.28510900  0.47496900  1
  Se  Se9  1  0.25000000  0.21489100  0.97496900  1
  Se  Se10  1  0.75000000  0.71489100  0.52503100  1
  Se  Se11  1  0.75000000  0.78510900  0.02503100  1
