# generated using pymatgen
data_NiP2O7
_symmetry_space_group_name_H-M   'P 1'
_cell_length_a   8.29225300
_cell_length_b   6.99702200
_cell_length_c   9.71070982
_cell_angle_alpha   72.42251334
_cell_angle_beta   90.00000000
_cell_angle_gamma   90.00000000
_symmetry_Int_Tables_number   1
_chemical_formula_structural   NiP2O7
_chemical_formula_sum   'Ni4 P8 O28'
_cell_volume   537.11915129
_cell_formula_units_Z   4
loop_
 _symmetry_equiv_pos_site_id
 _symmetry_equiv_pos_as_xyz
  1  'x, y, z'
loop_
 _atom_site_type_symbol
 _atom_site_label
 _atom_site_symmetry_multiplicity
 _atom_site_fract_x
 _atom_site_fract_y
 _atom_site_fract_z
 _atom_site_occupancy
  Ni  Ni0  1  0.22961900  0.27655200  0.00592000  1
  Ni  Ni1  1  0.77038100  0.72344800  0.99408000  1
  Ni  Ni2  1  0.72961900  0.72344800  0.49408000  1
  Ni  Ni3  1  0.27038100  0.27655200  0.50592000  1
  P  P4  1  0.03310200  0.06128500  0.79189700  1
  P  P5  1  0.58141700  0.46003900  0.29176700  1
  P  P6  1  0.53310200  0.93871500  0.70810300  1
  P  P7  1  0.91858300  0.46003900  0.79176700  1
  P  P8  1  0.41858300  0.53996100  0.70823300  1
  P  P9  1  0.96689800  0.93871500  0.20810300  1
  P  P10  1  0.46689800  0.06128500  0.29189700  1
  P  P11  1  0.08141700  0.53996100  0.20823300  1
  O  O12  1  0.89386800  0.90239200  0.35701700  1
  O  O13  1  0.82566000  0.92848300  0.10675700  1
  O  O14  1  0.10613200  0.09760800  0.64298300  1
  O  O15  1  0.27905300  0.50101000  0.61517500  1
  O  O16  1  0.05377600  0.13668900  0.14860300  1
  O  O17  1  0.60613200  0.90239200  0.85701700  1
  O  O18  1  0.44622400  0.13668900  0.64860300  1
  O  O19  1  0.32566000  0.07151700  0.39324300  1
  O  O20  1  0.60014300  0.23216500  0.28687800  1
  O  O21  1  0.42181400  0.47099100  0.36691100  1
  O  O22  1  0.40569500  0.39884200  0.86028500  1
  O  O23  1  0.22094700  0.50101000  0.11517500  1
  O  O24  1  0.59430500  0.60115800  0.13971500  1
  O  O25  1  0.55377600  0.86331100  0.35139700  1
  O  O26  1  0.77905300  0.49899000  0.88482500  1
  O  O27  1  0.07818600  0.47099100  0.86691100  1
  O  O28  1  0.09430500  0.39884200  0.36028500  1
  O  O29  1  0.89985700  0.23216500  0.78687800  1
  O  O30  1  0.10014300  0.76783500  0.21312200  1
  O  O31  1  0.92181400  0.52900900  0.13308900  1
  O  O32  1  0.94622400  0.86331100  0.85139700  1
  O  O33  1  0.39985700  0.76783500  0.71312200  1
  O  O34  1  0.39386800  0.09760800  0.14298300  1
  O  O35  1  0.57818600  0.52900900  0.63308900  1
  O  O36  1  0.67434000  0.92848300  0.60675700  1
  O  O37  1  0.90569500  0.60115800  0.63971500  1
  O  O38  1  0.72094700  0.49899000  0.38482500  1
  O  O39  1  0.17434000  0.07151700  0.89324300  1
