# generated using pymatgen
data_VP2O7
_symmetry_space_group_name_H-M   'P 1'
_cell_length_a   5.17761700
_cell_length_b   8.62357400
_cell_length_c   13.28519433
_cell_angle_alpha   63.28289589
_cell_angle_beta   90.00000000
_cell_angle_gamma   90.00000000
_symmetry_Int_Tables_number   1
_chemical_formula_structural   VP2O7
_chemical_formula_sum   'V4 P8 O28'
_cell_volume   529.84877777
_cell_formula_units_Z   4
loop_
 _symmetry_equiv_pos_site_id
 _symmetry_equiv_pos_as_xyz
  1  'x, y, z'
loop_
 _atom_site_type_symbol
 _atom_site_label
 _atom_site_symmetry_multiplicity
 _atom_site_fract_x
 _atom_site_fract_y
 _atom_site_fract_z
 _atom_site_occupancy
  V  V0  1  0.26104600  0.72816000  0.53557600  1
  V  V1  1  0.76104600  0.27184000  0.96442400  1
  V  V2  1  0.23895400  0.72816000  0.03557600  1
  V  V3  1  0.73895400  0.27184000  0.46442400  1
  P  P4  1  0.25681000  0.16281500  0.35926400  1
  P  P5  1  0.75681000  0.83718500  0.14073600  1
  P  P6  1  0.27441600  0.31170000  0.11266500  1
  P  P7  1  0.72558400  0.68830000  0.88733500  1
  P  P8  1  0.24319000  0.16281500  0.85926400  1
  P  P9  1  0.74319000  0.83718500  0.64073600  1
  P  P10  1  0.22558400  0.31170000  0.61266500  1
  P  P11  1  0.77441600  0.68830000  0.38733500  1
  O  O12  1  0.97180400  0.23682100  0.85418200  1
  O  O13  1  0.58557300  0.72674500  0.45980000  1
  O  O14  1  0.08557300  0.27325500  0.04020000  1
  O  O15  1  0.21909000  0.48436900  0.11802600  1
  O  O16  1  0.23531200  0.97099900  0.44496900  1
  O  O17  1  0.02819600  0.76317900  0.14581800  1
  O  O18  1  0.52819600  0.23682100  0.35418200  1
  O  O19  1  0.95906500  0.73136500  0.62529200  1
  O  O20  1  0.41442700  0.27325500  0.54020000  1
  O  O21  1  0.04093500  0.26863500  0.37470800  1
  O  O22  1  0.47180400  0.76317900  0.64581800  1
  O  O23  1  0.28091000  0.48436900  0.61802600  1
  O  O24  1  0.94489900  0.30072400  0.58275100  1
  O  O25  1  0.78091000  0.51563100  0.88197400  1
  O  O26  1  0.26468800  0.97099900  0.94496900  1
  O  O27  1  0.22173100  0.16198400  0.23882200  1
  O  O28  1  0.54093500  0.73136500  0.12529200  1
  O  O29  1  0.77826900  0.83801600  0.76117800  1
  O  O30  1  0.72173100  0.83801600  0.26117800  1
  O  O31  1  0.55510100  0.30072400  0.08275100  1
  O  O32  1  0.71909000  0.51563100  0.38197400  1
  O  O33  1  0.73531200  0.02900100  0.05503100  1
  O  O34  1  0.44489900  0.69927600  0.91724900  1
  O  O35  1  0.05510100  0.69927600  0.41724900  1
  O  O36  1  0.76468800  0.02900100  0.55503100  1
  O  O37  1  0.27826900  0.16198400  0.73882200  1
  O  O38  1  0.91442700  0.72674500  0.95980000  1
  O  O39  1  0.45906500  0.26863500  0.87470800  1
