# generated using pymatgen
data_Sb(PO3)4
_symmetry_space_group_name_H-M   'P 1'
_cell_length_a   8.72057004
_cell_length_b   8.72057004
_cell_length_c   9.28330487
_cell_angle_alpha   58.94286625
_cell_angle_beta   58.94286625
_cell_angle_gamma   48.43426756
_symmetry_Int_Tables_number   1
_chemical_formula_structural   Sb(PO3)4
_chemical_formula_sum   'Sb2 P8 O24'
_cell_volume   435.57811405
_cell_formula_units_Z   2
loop_
 _symmetry_equiv_pos_site_id
 _symmetry_equiv_pos_as_xyz
  1  'x, y, z'
loop_
 _atom_site_type_symbol
 _atom_site_label
 _atom_site_symmetry_multiplicity
 _atom_site_fract_x
 _atom_site_fract_y
 _atom_site_fract_z
 _atom_site_occupancy
  Sb  Sb0  1  0.79660100  0.20339900  0.25000000  1
  Sb  Sb1  1  0.20339900  0.79660100  0.75000000  1
  P  P2  1  0.39081900  0.33541600  0.12440300  1
  P  P3  1  0.72687000  0.98860700  0.68677500  1
  P  P4  1  0.98860700  0.72687000  0.18677500  1
  P  P5  1  0.66458400  0.60918100  0.37559700  1
  P  P6  1  0.33541600  0.39081900  0.62440300  1
  P  P7  1  0.01139300  0.27313000  0.81322500  1
  P  P8  1  0.27313000  0.01139300  0.31322500  1
  P  P9  1  0.60918100  0.66458400  0.87559700  1
  O  O10  1  0.57595700  0.18397500  0.20454200  1
  O  O11  1  0.24506600  0.01359100  0.48827000  1
  O  O12  1  0.30139800  0.19987000  0.16295600  1
  O  O13  1  0.01354700  0.10919400  0.79754300  1
  O  O14  1  0.89080600  0.98645300  0.70245700  1
  O  O15  1  0.19485000  0.50039700  0.24126600  1
  O  O16  1  0.81602500  0.42404300  0.29545800  1
  O  O17  1  0.50039700  0.19485000  0.74126600  1
  O  O18  1  0.98640900  0.75493400  0.01173000  1
  O  O19  1  0.80013000  0.69860200  0.33704400  1
  O  O20  1  0.55400400  0.57653500  0.56655700  1
  O  O21  1  0.42346500  0.44599600  0.93344300  1
  O  O22  1  0.57653500  0.55400400  0.06655700  1
  O  O23  1  0.44599600  0.42346500  0.43344300  1
  O  O24  1  0.19987000  0.30139800  0.66295600  1
  O  O25  1  0.01359100  0.24506600  0.98827000  1
  O  O26  1  0.49960300  0.80515000  0.25873400  1
  O  O27  1  0.18397500  0.57595700  0.70454200  1
  O  O28  1  0.80515000  0.49960300  0.75873400  1
  O  O29  1  0.10919400  0.01354700  0.29754300  1
  O  O30  1  0.98645300  0.89080600  0.20245700  1
  O  O31  1  0.69860200  0.80013000  0.83704400  1
  O  O32  1  0.75493400  0.98640900  0.51173000  1
  O  O33  1  0.42404300  0.81602500  0.79545800  1
