# generated using pymatgen
data_Mo2(PO4)3
_symmetry_space_group_name_H-M   'P 1'
_cell_length_a   8.56104200
_cell_length_b   8.58630081
_cell_length_c   9.02345777
_cell_angle_alpha   61.64152278
_cell_angle_beta   61.85093956
_cell_angle_gamma   60.43449438
_symmetry_Int_Tables_number   1
_chemical_formula_structural   Mo2(PO4)3
_chemical_formula_sum   'Mo4 P6 O24'
_cell_volume   482.65495690
_cell_formula_units_Z   2
loop_
 _symmetry_equiv_pos_site_id
 _symmetry_equiv_pos_as_xyz
  1  'x, y, z'
loop_
 _atom_site_type_symbol
 _atom_site_label
 _atom_site_symmetry_multiplicity
 _atom_site_fract_x
 _atom_site_fract_y
 _atom_site_fract_z
 _atom_site_occupancy
  Mo  Mo0  1  0.86507300  0.86041900  0.92512800  1
  Mo  Mo1  1  0.64216200  0.64641100  0.56035800  1
  Mo  Mo2  1  0.35783800  0.35358900  0.43964200  1
  Mo  Mo3  1  0.13492700  0.13958100  0.07487200  1
  P  P4  1  0.75475100  0.45593100  0.25585700  1
  P  P5  1  0.04033300  0.74541300  0.24768800  1
  P  P6  1  0.46594100  0.02869800  0.25210800  1
  P  P7  1  0.53405900  0.97130200  0.74789200  1
  P  P8  1  0.95966700  0.25458700  0.75231200  1
  P  P9  1  0.24524900  0.54406900  0.74414300  1
  O  O10  1  0.10267300  0.88121200  0.25081800  1
  O  O11  1  0.17585800  0.53835800  0.29977400  1
  O  O12  1  0.25447600  0.52975100  0.57467300  1
  O  O13  1  0.63280500  0.00687600  0.08273900  1
  O  O14  1  0.27867500  0.10394300  0.21960200  1
  O  O15  1  0.48303300  0.83463100  0.40036000  1
  O  O16  1  0.82414200  0.46164200  0.70022600  1
  O  O17  1  0.36719500  0.99312400  0.91726100  1
  O  O18  1  0.89480100  0.25899700  0.24433300  1
  O  O19  1  0.74552400  0.47024900  0.42532700  1
  O  O20  1  0.97090700  0.20095300  0.93636000  1
  O  O21  1  0.80742200  0.61309600  0.09260800  1
  O  O22  1  0.83958000  0.75481200  0.38604900  1
  O  O23  1  0.46764200  0.17090600  0.31059400  1
  O  O24  1  0.16042000  0.24518800  0.61395100  1
  O  O25  1  0.02909300  0.79904700  0.06364000  1
  O  O26  1  0.72132500  0.89605700  0.78039800  1
  O  O27  1  0.89732700  0.11878800  0.74918200  1
  O  O28  1  0.19257800  0.38690400  0.90739200  1
  O  O29  1  0.10519900  0.74100300  0.75566700  1
  O  O30  1  0.53235800  0.82909400  0.68940600  1
  O  O31  1  0.51696700  0.16536900  0.59964000  1
  O  O32  1  0.44294200  0.53639900  0.72093200  1
  O  O33  1  0.55705800  0.46360100  0.27906800  1
