# generated using pymatgen
data_CaSi2
_symmetry_space_group_name_H-M   'P 1'
_cell_length_a   10.37733300
_cell_length_b   10.37733300
_cell_length_c   10.37733386
_cell_angle_alpha   21.52064795
_cell_angle_beta   21.52064795
_cell_angle_gamma   21.52064738
_symmetry_Int_Tables_number   1
_chemical_formula_structural   CaSi2
_chemical_formula_sum   'Ca2 Si4'
_cell_volume   131.76716339
_cell_formula_units_Z   2
loop_
 _symmetry_equiv_pos_site_id
 _symmetry_equiv_pos_as_xyz
  1  'x, y, z'
loop_
 _atom_site_type_symbol
 _atom_site_label
 _atom_site_symmetry_multiplicity
 _atom_site_fract_x
 _atom_site_fract_y
 _atom_site_fract_z
 _atom_site_occupancy
  Ca  Ca0  1  0.92004500  0.92004500  0.92004500  1
  Ca  Ca1  1  0.07995500  0.07995500  0.07995500  1
  Si  Si2  1  0.81739500  0.81739500  0.81739500  1
  Si  Si3  1  0.18260500  0.18260500  0.18260500  1
  Si  Si4  1  0.65293400  0.65293400  0.65293400  1
  Si  Si5  1  0.34706600  0.34706600  0.34706600  1
