# generated using pymatgen
data_Mn2P5O16
_symmetry_space_group_name_H-M   'P 1'
_cell_length_a   6.69187100
_cell_length_b   4.98496400
_cell_length_c   19.07727441
_cell_angle_alpha   89.89769975
_cell_angle_beta   90.00000000
_cell_angle_gamma   90.00000000
_symmetry_Int_Tables_number   1
_chemical_formula_structural   Mn2P5O16
_chemical_formula_sum   'Mn4 P10 O32'
_cell_volume   636.39274673
_cell_formula_units_Z   2
loop_
 _symmetry_equiv_pos_site_id
 _symmetry_equiv_pos_as_xyz
  1  'x, y, z'
loop_
 _atom_site_type_symbol
 _atom_site_label
 _atom_site_symmetry_multiplicity
 _atom_site_fract_x
 _atom_site_fract_y
 _atom_site_fract_z
 _atom_site_occupancy
  Mn  Mn0  1  0.17712300  0.25318000  0.09388800  1
  Mn  Mn1  1  0.17712300  0.74682000  0.40611200  1
  Mn  Mn2  1  0.82287700  0.25318000  0.59388800  1
  Mn  Mn3  1  0.82287700  0.74682000  0.90611200  1
  P  P4  1  0.87428500  0.24051200  0.42400800  1
  P  P5  1  0.45712500  0.25756200  0.36929200  1
  P  P6  1  0.25644900  0.00000000  0.25000000  1
  P  P7  1  0.45712500  0.74243800  0.13070800  1
  P  P8  1  0.12571500  0.24051200  0.92400800  1
  P  P9  1  0.54287500  0.25756200  0.86929200  1
  P  P10  1  0.74355100  0.00000000  0.75000000  1
  P  P11  1  0.87428500  0.75948800  0.07599200  1
  P  P12  1  0.12571500  0.75948800  0.57599200  1
  P  P13  1  0.54287500  0.74243800  0.63070800  1
  O  O14  1  0.41799300  0.55178900  0.38428500  1
  O  O15  1  0.78689600  0.65695500  0.00774500  1
  O  O16  1  0.94792100  0.05102800  0.07178700  1
  O  O17  1  0.35375300  0.94221300  0.08347900  1
  O  O18  1  0.21310400  0.34304500  0.99225500  1
  O  O19  1  0.05207900  0.94897200  0.92821300  1
  O  O20  1  0.64624700  0.05778700  0.91652100  1
  O  O21  1  0.58200700  0.55178900  0.88428500  1
  O  O22  1  0.97728100  0.42779600  0.88749500  1
  O  O23  1  0.30913100  0.21852200  0.86764100  1
  O  O24  1  0.86223300  0.84998800  0.80420200  1
  O  O25  1  0.59083900  0.20255800  0.78802100  1
  O  O26  1  0.59083900  0.79744200  0.71197900  1
  O  O27  1  0.86223300  0.15001200  0.69579800  1
  O  O28  1  0.30913100  0.78147800  0.63235900  1
  O  O29  1  0.97728100  0.57220400  0.61250500  1
  O  O30  1  0.58200700  0.44821100  0.61571500  1
  O  O31  1  0.64624700  0.94221300  0.58347900  1
  O  O32  1  0.05207900  0.05102800  0.57178700  1
  O  O33  1  0.21310400  0.65695500  0.50774500  1
  O  O34  1  0.02271900  0.57220400  0.11250500  1
  O  O35  1  0.94792100  0.94897200  0.42821300  1
  O  O36  1  0.35375300  0.05778700  0.41652100  1
  O  O37  1  0.78689600  0.34304500  0.49225500  1
  O  O38  1  0.02271900  0.42779600  0.38749500  1
  O  O39  1  0.69086900  0.21852200  0.36764100  1
  O  O40  1  0.13776700  0.84998800  0.30420200  1
  O  O41  1  0.40916100  0.20255800  0.28802100  1
  O  O42  1  0.40916100  0.79744200  0.21197900  1
  O  O43  1  0.13776700  0.15001200  0.19579800  1
  O  O44  1  0.69086900  0.78147800  0.13235900  1
  O  O45  1  0.41799300  0.44821100  0.11571500  1
