# generated using pymatgen
data_CrP2O7
_symmetry_space_group_name_H-M   'P 1'
_cell_length_a   5.15351868
_cell_length_b   5.15351868
_cell_length_c   4.54863986
_cell_angle_alpha   81.81704460
_cell_angle_beta   81.81704460
_cell_angle_gamma   100.13267244
_symmetry_Int_Tables_number   1
_chemical_formula_structural   CrP2O7
_chemical_formula_sum   'Cr1 P2 O7'
_cell_volume   115.96155361
_cell_formula_units_Z   1
loop_
 _symmetry_equiv_pos_site_id
 _symmetry_equiv_pos_as_xyz
  1  'x, y, z'
loop_
 _atom_site_type_symbol
 _atom_site_label
 _atom_site_symmetry_multiplicity
 _atom_site_fract_x
 _atom_site_fract_y
 _atom_site_fract_z
 _atom_site_occupancy
  Cr  Cr0  1  0.88772100  0.11227900  0.00000000  1
  P  P1  1  0.33402100  0.25991400  0.40992100  1
  P  P2  1  0.74008600  0.66597900  0.59007900  1
  O  O3  1  0.86269800  0.44463700  0.73657400  1
  O  O4  1  0.14301000  0.33642900  0.19744700  1
  O  O5  1  0.18415900  0.07827100  0.70461900  1
  O  O6  1  0.66357100  0.85699000  0.80255300  1
  O  O7  1  0.46113200  0.53886800  0.50000000  1
  O  O8  1  0.92172900  0.81584100  0.29538100  1
  O  O9  1  0.55536300  0.13730200  0.26342600  1
