# generated using pymatgen
data_Cu4(BiS2)5
_symmetry_space_group_name_H-M   'P 1'
_cell_length_a   9.00650424
_cell_length_b   9.00650424
_cell_length_c   12.91255899
_cell_angle_alpha   73.02444896
_cell_angle_beta   73.02444896
_cell_angle_gamma   25.01699025
_symmetry_Int_Tables_number   1
_chemical_formula_structural   Cu4(BiS2)5
_chemical_formula_sum   'Cu4 Bi5 S10'
_cell_volume   422.67239163
_cell_formula_units_Z   1
loop_
 _symmetry_equiv_pos_site_id
 _symmetry_equiv_pos_as_xyz
  1  'x, y, z'
loop_
 _atom_site_type_symbol
 _atom_site_label
 _atom_site_symmetry_multiplicity
 _atom_site_fract_x
 _atom_site_fract_y
 _atom_site_fract_z
 _atom_site_occupancy
  Cu  Cu0  1  0.90377900  0.90377900  0.51301700  1
  Cu  Cu1  1  0.09622100  0.09622100  0.48698300  1
  Cu  Cu2  1  0.71330900  0.71330900  0.94522500  1
  Cu  Cu3  1  0.28669100  0.28669100  0.05477500  1
  Bi  Bi4  1  0.41159100  0.41159100  0.77518500  1
  Bi  Bi5  1  0.58840900  0.58840900  0.22481500  1
  Bi  Bi6  1  0.19827600  0.19827600  0.66233300  1
  Bi  Bi7  1  0.80172400  0.80172400  0.33766700  1
  Bi  Bi8  1  0.00000000  0.00000000  0.00000000  1
  S  S9  1  0.97778300  0.97778300  0.63341200  1
  S  S10  1  0.02221700  0.02221700  0.36658800  1
  S  S11  1  0.84656400  0.84656400  0.97170900  1
  S  S12  1  0.15343600  0.15343600  0.02829100  1
  S  S13  1  0.33602500  0.33602500  0.50336900  1
  S  S14  1  0.66397500  0.66397500  0.49663100  1
  S  S15  1  0.75926700  0.75926700  0.76037600  1
  S  S16  1  0.24073300  0.24073300  0.23962400  1
  S  S17  1  0.54284700  0.54284700  0.83413400  1
  S  S18  1  0.45715300  0.45715300  0.16586600  1
