# generated using pymatgen
data_Zr2P2O9
_symmetry_space_group_name_H-M   'P 1'
_cell_length_a   5.54342287
_cell_length_b   5.54342287
_cell_length_c   12.03667400
_cell_angle_alpha   90.00000000
_cell_angle_beta   90.00000000
_cell_angle_gamma   105.04116358
_symmetry_Int_Tables_number   1
_chemical_formula_structural   Zr2P2O9
_chemical_formula_sum   'Zr4 P4 O18'
_cell_volume   357.20914672
_cell_formula_units_Z   2
loop_
 _symmetry_equiv_pos_site_id
 _symmetry_equiv_pos_as_xyz
  1  'x, y, z'
loop_
 _atom_site_type_symbol
 _atom_site_label
 _atom_site_symmetry_multiplicity
 _atom_site_fract_x
 _atom_site_fract_y
 _atom_site_fract_z
 _atom_site_occupancy
  Zr  Zr0  1  0.70610800  0.29389200  0.93696800  1
  Zr  Zr1  1  0.79389200  0.20610800  0.43696800  1
  Zr  Zr2  1  0.29389200  0.70610800  0.06303200  1
  Zr  Zr3  1  0.20610800  0.79389200  0.56303200  1
  P  P4  1  0.60674500  0.39325500  0.64661100  1
  P  P5  1  0.89325500  0.10674500  0.14661100  1
  P  P6  1  0.39325500  0.60674500  0.35338900  1
  P  P7  1  0.10674500  0.89325500  0.85338900  1
  O  O8  1  0.43723300  0.56276700  0.62360200  1
  O  O9  1  0.06276700  0.93723300  0.12360200  1
  O  O10  1  0.56276700  0.43723300  0.37639800  1
  O  O11  1  0.93723300  0.06276700  0.87639800  1
  O  O12  1  0.00000000  0.00000000  0.50000000  1
  O  O13  1  0.50000000  0.50000000  0.00000000  1
  O  O14  1  0.13875100  0.86124900  0.72934300  1
  O  O15  1  0.36124900  0.63875100  0.22934300  1
  O  O16  1  0.36500100  0.98447700  0.91515400  1
  O  O17  1  0.13499900  0.51552300  0.41515400  1
  O  O18  1  0.98447700  0.36500100  0.08484600  1
  O  O19  1  0.51552300  0.13499900  0.58484600  1
  O  O20  1  0.63499900  0.01552300  0.08484600  1
  O  O21  1  0.86500100  0.48447700  0.58484600  1
  O  O22  1  0.01552300  0.63499900  0.91515400  1
  O  O23  1  0.48447700  0.86500100  0.41515400  1
  O  O24  1  0.63875100  0.36124900  0.77065700  1
  O  O25  1  0.86124900  0.13875100  0.27065700  1
