# generated using pymatgen
data_WCl5
_symmetry_space_group_name_H-M   'P 1'
_cell_length_a   13.17168233
_cell_length_b   13.17168233
_cell_length_c   6.60088397
_cell_angle_alpha   85.82489347
_cell_angle_beta   85.82489347
_cell_angle_gamma   89.27989982
_symmetry_Int_Tables_number   1
_chemical_formula_structural   WCl5
_chemical_formula_sum   'W6 Cl30'
_cell_volume   1139.10794643
_cell_formula_units_Z   6
loop_
 _symmetry_equiv_pos_site_id
 _symmetry_equiv_pos_as_xyz
  1  'x, y, z'
loop_
 _atom_site_type_symbol
 _atom_site_label
 _atom_site_symmetry_multiplicity
 _atom_site_fract_x
 _atom_site_fract_y
 _atom_site_fract_z
 _atom_site_occupancy
  W  W0  1  0.77125700  0.56284000  0.43310200  1
  W  W1  1  0.43716000  0.22874300  0.56689800  1
  W  W2  1  0.22874300  0.43716000  0.56689800  1
  W  W3  1  0.56284000  0.77125700  0.43310200  1
  W  W4  1  0.10420300  0.89579700  0.00000000  1
  W  W5  1  0.89579700  0.10420300  0.00000000  1
  Cl  Cl6  1  0.68285400  0.49790300  0.18813700  1
  Cl  Cl7  1  0.50209700  0.31714600  0.81186300  1
  Cl  Cl8  1  0.31714600  0.50209700  0.81186300  1
  Cl  Cl9  1  0.49790300  0.68285400  0.18813700  1
  Cl  Cl10  1  0.78387200  0.41028900  0.61544500  1
  Cl  Cl11  1  0.58971100  0.21612800  0.38455500  1
  Cl  Cl12  1  0.92900900  0.92900900  0.87144700  1
  Cl  Cl13  1  0.07099100  0.07099100  0.12855300  1
  Cl  Cl14  1  0.73989100  0.11350900  0.87088700  1
  Cl  Cl15  1  0.88649100  0.26010900  0.12911300  1
  Cl  Cl16  1  0.26010900  0.88649100  0.12911300  1
  Cl  Cl17  1  0.11350900  0.73989100  0.87088700  1
  Cl  Cl18  1  0.83548800  0.01987900  0.29754600  1
  Cl  Cl19  1  0.98012100  0.16451200  0.70245400  1
  Cl  Cl20  1  0.16451200  0.98012100  0.70245400  1
  Cl  Cl21  1  0.01987900  0.83548800  0.29754600  1
  Cl  Cl22  1  0.73562900  0.73562900  0.25577900  1
  Cl  Cl23  1  0.26437100  0.26437100  0.74422100  1
  Cl  Cl24  1  0.55065200  0.92413100  0.25152100  1
  Cl  Cl25  1  0.07586900  0.44934800  0.74847900  1
  Cl  Cl26  1  0.44934800  0.07586900  0.74847900  1
  Cl  Cl27  1  0.92413100  0.55065200  0.25152100  1
  Cl  Cl28  1  0.65169600  0.83598800  0.67768700  1
  Cl  Cl29  1  0.16401200  0.34830400  0.32231300  1
  Cl  Cl30  1  0.34830400  0.16401200  0.32231300  1
  Cl  Cl31  1  0.83598800  0.65169600  0.67768700  1
  Cl  Cl32  1  0.59826900  0.59826900  0.61003200  1
  Cl  Cl33  1  0.40173100  0.40173100  0.38996800  1
  Cl  Cl34  1  0.41028900  0.78387200  0.61544500  1
  Cl  Cl35  1  0.21612800  0.58971100  0.38455500  1
