# generated using pymatgen
data_Ba2Cr7O14
_symmetry_space_group_name_H-M   'P 1'
_cell_length_a   9.95558456
_cell_length_b   9.95558456
_cell_length_c   9.95558536
_cell_angle_alpha   34.39628439
_cell_angle_beta   34.39628439
_cell_angle_gamma   34.39628290
_symmetry_Int_Tables_number   1
_chemical_formula_structural   Ba2Cr7O14
_chemical_formula_sum   'Ba2 Cr7 O14'
_cell_volume   280.87505013
_cell_formula_units_Z   1
loop_
 _symmetry_equiv_pos_site_id
 _symmetry_equiv_pos_as_xyz
  1  'x, y, z'
loop_
 _atom_site_type_symbol
 _atom_site_label
 _atom_site_symmetry_multiplicity
 _atom_site_fract_x
 _atom_site_fract_y
 _atom_site_fract_z
 _atom_site_occupancy
  Ba  Ba0  1  0.71094800  0.71094800  0.71094800  1
  Ba  Ba1  1  0.28905200  0.28905200  0.28905200  1
  Cr  Cr2  1  0.93787400  0.93787400  0.93787400  1
  Cr  Cr3  1  0.06212600  0.06212600  0.06212600  1
  Cr  Cr4  1  0.57255600  0.57255600  0.57255600  1
  Cr  Cr5  1  0.42744400  0.42744400  0.42744400  1
  Cr  Cr6  1  0.50000000  0.00000000  0.00000000  1
  Cr  Cr7  1  0.00000000  0.50000000  0.00000000  1
  Cr  Cr8  1  0.00000000  0.00000000  0.50000000  1
  O  O9  1  0.87074900  0.87074900  0.87074900  1
  O  O10  1  0.12925100  0.12925100  0.12925100  1
  O  O11  1  0.36445300  0.36445300  0.88688800  1
  O  O12  1  0.88688800  0.36445300  0.36445300  1
  O  O13  1  0.36445300  0.88688800  0.36445300  1
  O  O14  1  0.63554700  0.11311200  0.63554700  1
  O  O15  1  0.63554700  0.63554700  0.11311200  1
  O  O16  1  0.11311200  0.63554700  0.63554700  1
  O  O17  1  0.21918800  0.21918800  0.70676100  1
  O  O18  1  0.29323900  0.78081200  0.78081200  1
  O  O19  1  0.78081200  0.78081200  0.29323900  1
  O  O20  1  0.78081200  0.29323900  0.78081200  1
  O  O21  1  0.21918800  0.70676100  0.21918800  1
  O  O22  1  0.70676100  0.21918800  0.21918800  1
