# generated using pymatgen
data_CeSe2
_symmetry_space_group_name_H-M   'P 1'
_cell_length_a   8.48313907
_cell_length_b   8.48313907
_cell_length_c   11.30409187
_cell_angle_alpha   82.02330419
_cell_angle_beta   82.02330419
_cell_angle_gamma   94.68268126
_symmetry_Int_Tables_number   1
_chemical_formula_structural   CeSe2
_chemical_formula_sum   'Ce4 Se8'
_cell_volume   793.58523966
_cell_formula_units_Z   4
loop_
 _symmetry_equiv_pos_site_id
 _symmetry_equiv_pos_as_xyz
  1  'x, y, z'
loop_
 _atom_site_type_symbol
 _atom_site_label
 _atom_site_symmetry_multiplicity
 _atom_site_fract_x
 _atom_site_fract_y
 _atom_site_fract_z
 _atom_site_occupancy
  Ce  Ce0  1  0.98887300  0.98971800  0.23590000  1
  Ce  Ce1  1  0.01028200  0.01112700  0.76410000  1
  Ce  Ce2  1  0.56246100  0.81758500  0.57761100  1
  Ce  Ce3  1  0.18241500  0.43753900  0.42238900  1
  Se  Se4  1  0.45624300  0.54375700  0.50000000  1
  Se  Se5  1  0.94945000  0.05055000  0.00000000  1
  Se  Se6  1  0.06112600  0.68431500  0.29334900  1
  Se  Se7  1  0.31568500  0.93887400  0.70665100  1
  Se  Se8  1  0.70904800  0.02120200  0.37840200  1
  Se  Se9  1  0.97879800  0.29095200  0.62159800  1
  Se  Se10  1  0.79568700  0.77813700  0.71915900  1
  Se  Se11  1  0.22186300  0.20431300  0.28084100  1
