# generated using pymatgen
data_Ca2Hf7O16
_symmetry_space_group_name_H-M   'P 1'
_cell_length_a   9.56535070
_cell_length_b   9.56535070
_cell_length_c   9.56535127
_cell_angle_alpha   38.81819031
_cell_angle_beta   38.81819031
_cell_angle_gamma   38.81819192
_symmetry_Int_Tables_number   1
_chemical_formula_structural   Ca2Hf7O16
_chemical_formula_sum   'Ca2 Hf7 O16'
_cell_volume   309.16879111
_cell_formula_units_Z   1
loop_
 _symmetry_equiv_pos_site_id
 _symmetry_equiv_pos_as_xyz
  1  'x, y, z'
loop_
 _atom_site_type_symbol
 _atom_site_label
 _atom_site_symmetry_multiplicity
 _atom_site_fract_x
 _atom_site_fract_y
 _atom_site_fract_z
 _atom_site_occupancy
  Ca  Ca0  1  0.33300100  0.33300100  0.33300100  1
  Ca  Ca1  1  0.66699900  0.66699900  0.66699900  1
  Hf  Hf2  1  0.48677200  0.74276900  0.11310500  1
  Hf  Hf3  1  0.74276900  0.11310500  0.48677200  1
  Hf  Hf4  1  0.11310500  0.48677200  0.74276900  1
  Hf  Hf5  1  0.51322800  0.25723100  0.88689500  1
  Hf  Hf6  1  0.25723100  0.88689500  0.51322800  1
  Hf  Hf7  1  0.88689500  0.51322800  0.25723100  1
  Hf  Hf8  1  0.00000000  0.00000000  0.00000000  1
  O  O9  1  0.58901600  0.84951500  0.15272200  1
  O  O10  1  0.84951500  0.15272200  0.58901600  1
  O  O11  1  0.15272200  0.58901600  0.84951500  1
  O  O12  1  0.41098400  0.15048500  0.84727800  1
  O  O13  1  0.15048500  0.84727800  0.41098400  1
  O  O14  1  0.84727800  0.41098400  0.15048500  1
  O  O15  1  0.32854900  0.76244700  0.03120600  1
  O  O16  1  0.76244700  0.03120600  0.32854900  1
  O  O17  1  0.03120600  0.32854900  0.76244700  1
  O  O18  1  0.76259000  0.76259000  0.76259000  1
  O  O19  1  0.23741000  0.23741000  0.23741000  1
  O  O20  1  0.57400500  0.57400500  0.57400500  1
  O  O21  1  0.42599500  0.42599500  0.42599500  1
  O  O22  1  0.96879400  0.67145100  0.23755300  1
  O  O23  1  0.23755300  0.96879400  0.67145100  1
  O  O24  1  0.67145100  0.23755300  0.96879400  1
