# generated using pymatgen
data_Na2W4O13
_symmetry_space_group_name_H-M   'P 1'
_cell_length_a   3.90123700
_cell_length_b   8.43535966
_cell_length_c   8.61759294
_cell_angle_alpha   96.23224473
_cell_angle_beta   102.77592108
_cell_angle_gamma   90.49173705
_symmetry_Int_Tables_number   1
_chemical_formula_structural   Na2W4O13
_chemical_formula_sum   'Na2 W4 O13'
_cell_volume   274.77972812
_cell_formula_units_Z   1
loop_
 _symmetry_equiv_pos_site_id
 _symmetry_equiv_pos_as_xyz
  1  'x, y, z'
loop_
 _atom_site_type_symbol
 _atom_site_label
 _atom_site_symmetry_multiplicity
 _atom_site_fract_x
 _atom_site_fract_y
 _atom_site_fract_z
 _atom_site_occupancy
  Na  Na0  1  0.70710900  0.69756500  0.42282900  1
  Na  Na1  1  0.29289100  0.30243500  0.57717100  1
  W  W2  1  0.03422700  0.36989600  0.17189300  1
  W  W3  1  0.96577300  0.63010400  0.82810700  1
  W  W4  1  0.85232800  0.02128300  0.80611300  1
  W  W5  1  0.14767200  0.97871700  0.19388700  1
  O  O6  1  0.99830900  0.84546300  0.99742600  1
  O  O7  1  0.60582800  0.99111100  0.18649700  1
  O  O8  1  0.43556500  0.64138800  0.84460100  1
  O  O9  1  0.56443500  0.35861200  0.15539900  1
  O  O10  1  0.00000000  0.50000000  0.00000000  1
  O  O11  1  0.84199300  0.48556500  0.65941200  1
  O  O12  1  0.15800700  0.51443500  0.34058800  1
  O  O13  1  0.82337700  0.14734600  0.65373600  1
  O  O14  1  0.15022600  0.19347300  0.30404000  1
  O  O15  1  0.84977400  0.80652700  0.69596000  1
  O  O16  1  0.00169100  0.15453700  0.00257400  1
  O  O17  1  0.17662300  0.85265400  0.34626400  1
  O  O18  1  0.39417200  0.00888900  0.81350300  1
