# generated using pymatgen
data_CeSe2
_symmetry_space_group_name_H-M   'P 1'
_cell_length_a   4.18372960
_cell_length_b   4.18372960
_cell_length_c   26.13211800
_cell_angle_alpha   90.00000000
_cell_angle_beta   90.00000000
_cell_angle_gamma   119.99999367
_symmetry_Int_Tables_number   1
_chemical_formula_structural   CeSe2
_chemical_formula_sum   'Ce4 Se8'
_cell_volume   396.12521266
_cell_formula_units_Z   4
loop_
 _symmetry_equiv_pos_site_id
 _symmetry_equiv_pos_as_xyz
  1  'x, y, z'
loop_
 _atom_site_type_symbol
 _atom_site_label
 _atom_site_symmetry_multiplicity
 _atom_site_fract_x
 _atom_site_fract_y
 _atom_site_fract_z
 _atom_site_occupancy
  Ce  Ce0  1  0.66666700  0.33333300  0.50000000  1
  Ce  Ce1  1  0.33333300  0.66666700  0.00000000  1
  Ce  Ce2  1  0.66666700  0.33333300  0.74978900  1
  Ce  Ce3  1  0.66666700  0.33333300  0.25021100  1
  Se  Se4  1  0.66666700  0.33333300  0.93728600  1
  Se  Se5  1  0.66666700  0.33333300  0.06271400  1
  Se  Se6  1  0.33333300  0.66666700  0.69121200  1
  Se  Se7  1  0.33333300  0.66666700  0.30878800  1
  Se  Se8  1  0.00000000  0.00000000  0.80808900  1
  Se  Se9  1  0.00000000  0.00000000  0.19191100  1
  Se  Se10  1  0.00000000  0.00000000  0.56269300  1
  Se  Se11  1  0.00000000  0.00000000  0.43730700  1
