# generated using pymatgen
data_RbCrI3
_symmetry_space_group_name_H-M   'P 1'
_cell_length_a   8.11166476
_cell_length_b   8.11166476
_cell_length_c   14.42091642
_cell_angle_alpha   84.76938546
_cell_angle_beta   84.76938546
_cell_angle_gamma   60.11998986
_symmetry_Int_Tables_number   1
_chemical_formula_structural   RbCrI3
_chemical_formula_sum   'Rb4 Cr4 I12'
_cell_volume   818.17207796
_cell_formula_units_Z   4
loop_
 _symmetry_equiv_pos_site_id
 _symmetry_equiv_pos_as_xyz
  1  'x, y, z'
loop_
 _atom_site_type_symbol
 _atom_site_label
 _atom_site_symmetry_multiplicity
 _atom_site_fract_x
 _atom_site_fract_y
 _atom_site_fract_z
 _atom_site_occupancy
  Rb  Rb0  1  0.31977000  0.34796100  0.11784400  1
  Rb  Rb1  1  0.65203900  0.68023000  0.88215600  1
  Rb  Rb2  1  0.29139800  0.38536800  0.61942400  1
  Rb  Rb3  1  0.61463200  0.70860200  0.38057600  1
  Cr  Cr4  1  0.96707100  0.03470300  0.24968800  1
  Cr  Cr5  1  0.96529700  0.03292900  0.75031200  1
  Cr  Cr6  1  0.93268800  0.06731200  0.50000000  1
  Cr  Cr7  1  0.00379900  0.99620100  0.00000000  1
  I  I8  1  0.14421100  0.18885600  0.83582700  1
  I  I9  1  0.81114400  0.85578900  0.16417300  1
  I  I10  1  0.78317400  0.88211000  0.66365100  1
  I  I11  1  0.11789000  0.21682600  0.33634900  1
  I  I12  1  0.61177200  0.21851900  0.39749300  1
  I  I13  1  0.78148100  0.38822800  0.60250700  1
  I  I14  1  0.68201300  0.15896700  0.89377700  1
  I  I15  1  0.84103300  0.31798700  0.10622300  1
  I  I16  1  0.09851100  0.74864500  0.39182700  1
  I  I17  1  0.25135500  0.90148900  0.60817300  1
  I  I18  1  0.15836600  0.67664600  0.89628900  1
  I  I19  1  0.32335400  0.84163400  0.10371100  1
