# generated using pymatgen
data_Na5Fe3F14
_symmetry_space_group_name_H-M   'P 1'
_cell_length_a   7.74013700
_cell_length_b   7.74013700
_cell_length_c   10.24011600
_cell_angle_alpha   90.00000000
_cell_angle_beta   90.00000000
_cell_angle_gamma   90.00000000
_symmetry_Int_Tables_number   1
_chemical_formula_structural   Na5Fe3F14
_chemical_formula_sum   'Na10 Fe6 F28'
_cell_volume   613.48249030
_cell_formula_units_Z   2
loop_
 _symmetry_equiv_pos_site_id
 _symmetry_equiv_pos_as_xyz
  1  'x, y, z'
loop_
 _atom_site_type_symbol
 _atom_site_label
 _atom_site_symmetry_multiplicity
 _atom_site_fract_x
 _atom_site_fract_y
 _atom_site_fract_z
 _atom_site_occupancy
  Na  Na0  1  0.50000000  0.50000000  0.00000000  1
  Na  Na1  1  0.00000000  0.00000000  0.50000000  1
  Na  Na2  1  0.26649400  0.73350600  0.74018100  1
  Na  Na3  1  0.73350600  0.26649400  0.74018100  1
  Na  Na4  1  0.73350600  0.26649400  0.25981900  1
  Na  Na5  1  0.23350600  0.23350600  0.24018100  1
  Na  Na6  1  0.76649400  0.76649400  0.24018100  1
  Na  Na7  1  0.23350600  0.23350600  0.75981900  1
  Na  Na8  1  0.76649400  0.76649400  0.75981900  1
  Na  Na9  1  0.26649400  0.73350600  0.25981900  1
  Fe  Fe10  1  0.50000000  0.50000000  0.50000000  1
  Fe  Fe11  1  0.00000000  0.00000000  0.00000000  1
  Fe  Fe12  1  0.50000000  0.00000000  0.50000000  1
  Fe  Fe13  1  0.50000000  0.00000000  0.00000000  1
  Fe  Fe14  1  0.00000000  0.50000000  0.00000000  1
  Fe  Fe15  1  0.00000000  0.50000000  0.50000000  1
  F  F16  1  0.00000000  0.00000000  0.81238900  1
  F  F17  1  0.50000000  0.50000000  0.31238900  1
  F  F18  1  0.50000000  0.50000000  0.68761100  1
  F  F19  1  0.00000000  0.00000000  0.18761100  1
  F  F20  1  0.49741400  0.74918100  0.50000000  1
  F  F21  1  0.50258600  0.25081900  0.50000000  1
  F  F22  1  0.74918100  0.49741400  0.50000000  1
  F  F23  1  0.24918100  0.00258600  0.00000000  1
  F  F24  1  0.75081900  0.99741400  0.00000000  1
  F  F25  1  0.00258600  0.24918100  0.00000000  1
  F  F26  1  0.99741400  0.75081900  0.00000000  1
  F  F27  1  0.25081900  0.50258600  0.50000000  1
  F  F28  1  0.00281700  0.68536200  0.62947300  1
  F  F29  1  0.99718300  0.31463800  0.62947300  1
  F  F30  1  0.68536200  0.00281700  0.37052700  1
  F  F31  1  0.18536200  0.49718300  0.12947300  1
  F  F32  1  0.99718300  0.31463800  0.37052700  1
  F  F33  1  0.18536200  0.49718300  0.87052700  1
  F  F34  1  0.81463800  0.50281700  0.87052700  1
  F  F35  1  0.49718300  0.18536200  0.12947300  1
  F  F36  1  0.50281700  0.81463800  0.12947300  1
  F  F37  1  0.00281700  0.68536200  0.37052700  1
  F  F38  1  0.31463800  0.99718300  0.62947300  1
  F  F39  1  0.68536200  0.00281700  0.62947300  1
  F  F40  1  0.31463800  0.99718300  0.37052700  1
  F  F41  1  0.50281700  0.81463800  0.87052700  1
  F  F42  1  0.49718300  0.18536200  0.87052700  1
  F  F43  1  0.81463800  0.50281700  0.12947300  1
