# generated using pymatgen
data_Ag4P2S7
_symmetry_space_group_name_H-M   'P 1'
_cell_length_a   6.40783236
_cell_length_b   6.40783236
_cell_length_c   16.53335431
_cell_angle_alpha   76.27878790
_cell_angle_beta   76.27878790
_cell_angle_gamma   62.57489976
_symmetry_Int_Tables_number   1
_chemical_formula_structural   Ag4P2S7
_chemical_formula_sum   'Ag8 P4 S14'
_cell_volume   578.89312359
_cell_formula_units_Z   2
loop_
 _symmetry_equiv_pos_site_id
 _symmetry_equiv_pos_as_xyz
  1  'x, y, z'
loop_
 _atom_site_type_symbol
 _atom_site_label
 _atom_site_symmetry_multiplicity
 _atom_site_fract_x
 _atom_site_fract_y
 _atom_site_fract_z
 _atom_site_occupancy
  Ag  Ag0  1  0.82194700  0.26106800  0.44504800  1
  Ag  Ag1  1  0.73893200  0.17805300  0.05495200  1
  Ag  Ag2  1  0.17805300  0.73893200  0.55495200  1
  Ag  Ag3  1  0.26106800  0.82194700  0.94504800  1
  Ag  Ag4  1  0.96187000  0.55454400  0.16294800  1
  Ag  Ag5  1  0.44545600  0.03813000  0.33705200  1
  Ag  Ag6  1  0.03813000  0.44545600  0.83705200  1
  Ag  Ag7  1  0.55454400  0.96187000  0.66294800  1
  P  P8  1  0.71697700  0.06687800  0.85643200  1
  P  P9  1  0.06687800  0.71697700  0.35643200  1
  P  P10  1  0.28302300  0.93312200  0.14356800  1
  P  P11  1  0.93312200  0.28302300  0.64356800  1
  S  S12  1  0.63761700  0.35196100  0.59742400  1
  S  S13  1  0.64803900  0.36238300  0.90257600  1
  S  S14  1  0.06316700  0.42467400  0.32375900  1
  S  S15  1  0.57532600  0.93683300  0.17624100  1
  S  S16  1  0.00524600  0.99475400  0.25000000  1
  S  S17  1  0.35196100  0.63761700  0.09742400  1
  S  S18  1  0.36238300  0.64803900  0.40257600  1
  S  S19  1  0.99475400  0.00524600  0.75000000  1
  S  S20  1  0.23932400  0.10024200  0.56805200  1
  S  S21  1  0.89975800  0.76067600  0.93194800  1
  S  S22  1  0.76067600  0.89975800  0.43194800  1
  S  S23  1  0.10024200  0.23932400  0.06805200  1
  S  S24  1  0.42467400  0.06316700  0.82375900  1
  S  S25  1  0.93683300  0.57532600  0.67624100  1
