# generated using pymatgen
data_As4S3
_symmetry_space_group_name_H-M   'P 1'
_cell_length_a   8.86684800
_cell_length_b   9.74478900
_cell_length_c   10.94458600
_cell_angle_alpha   90.00000000
_cell_angle_beta   90.00000000
_cell_angle_gamma   90.00000000
_symmetry_Int_Tables_number   1
_chemical_formula_structural   As4S3
_chemical_formula_sum   'As16 S12'
_cell_volume   945.67311355
_cell_formula_units_Z   4
loop_
 _symmetry_equiv_pos_site_id
 _symmetry_equiv_pos_as_xyz
  1  'x, y, z'
loop_
 _atom_site_type_symbol
 _atom_site_label
 _atom_site_symmetry_multiplicity
 _atom_site_fract_x
 _atom_site_fract_y
 _atom_site_fract_z
 _atom_site_occupancy
  As  As0  1  0.10736800  0.15117600  0.28892100  1
  As  As1  1  0.60736800  0.84882400  0.71107900  1
  As  As2  1  0.39263200  0.65117600  0.21107900  1
  As  As3  1  0.89263200  0.34882400  0.78892100  1
  As  As4  1  0.10736800  0.65117600  0.21107900  1
  As  As5  1  0.60736800  0.34882400  0.78892100  1
  As  As6  1  0.39263200  0.15117600  0.28892100  1
  As  As7  1  0.89263200  0.84882400  0.71107900  1
  As  As8  1  0.25000000  0.49196400  0.07140300  1
  As  As9  1  0.75000000  0.50803600  0.92859700  1
  As  As10  1  0.25000000  0.99196400  0.42859700  1
  As  As11  1  0.75000000  0.00803600  0.57140300  1
  As  As12  1  0.25000000  0.83445200  0.95000800  1
  As  As13  1  0.75000000  0.16554800  0.04999200  1
  As  As14  1  0.25000000  0.33445200  0.54999200  1
  As  As15  1  0.75000000  0.66554800  0.45000800  1
  S  S16  1  0.25000000  0.60968700  0.89647600  1
  S  S17  1  0.75000000  0.39031300  0.10352400  1
  S  S18  1  0.25000000  0.10968700  0.60352400  1
  S  S19  1  0.75000000  0.89031300  0.39647600  1
  S  S20  1  0.94236700  0.17278600  0.91357400  1
  S  S21  1  0.44236700  0.82721400  0.08642600  1
  S  S22  1  0.55763300  0.67278600  0.58642600  1
  S  S23  1  0.05763300  0.32721400  0.41357400  1
  S  S24  1  0.05763300  0.82721400  0.08642600  1
  S  S25  1  0.55763300  0.17278600  0.91357400  1
  S  S26  1  0.44236700  0.32721400  0.41357400  1
  S  S27  1  0.94236700  0.67278600  0.58642600  1
