# generated using pymatgen
data_TlPbI3
_symmetry_space_group_name_H-M   'P 1'
_cell_length_a   8.07142860
_cell_length_b   8.07142860
_cell_length_c   12.00853400
_cell_angle_alpha   90.00000000
_cell_angle_beta   90.00000000
_cell_angle_gamma   146.16351163
_symmetry_Int_Tables_number   1
_chemical_formula_structural   TlPbI3
_chemical_formula_sum   'Tl2 Pb2 I6'
_cell_volume   435.62150326
_cell_formula_units_Z   2
loop_
 _symmetry_equiv_pos_site_id
 _symmetry_equiv_pos_as_xyz
  1  'x, y, z'
loop_
 _atom_site_type_symbol
 _atom_site_label
 _atom_site_symmetry_multiplicity
 _atom_site_fract_x
 _atom_site_fract_y
 _atom_site_fract_z
 _atom_site_occupancy
  Tl  Tl0  1  0.74955300  0.25044700  0.75000000  1
  Tl  Tl1  1  0.25044700  0.74955300  0.25000000  1
  Pb  Pb2  1  0.00000000  0.00000000  0.00000000  1
  Pb  Pb3  1  0.00000000  0.00000000  0.50000000  1
  I  I4  1  0.91893200  0.08106800  0.25000000  1
  I  I5  1  0.08106800  0.91893200  0.75000000  1
  I  I6  1  0.35937900  0.64062100  0.55702800  1
  I  I7  1  0.64062100  0.35937900  0.44297200  1
  I  I8  1  0.35937900  0.64062100  0.94297200  1
  I  I9  1  0.64062100  0.35937900  0.05702800  1
