# generated using pymatgen
data_Ta2SnO7
_symmetry_space_group_name_H-M   'P 1'
_cell_length_a   8.72517981
_cell_length_b   8.72517981
_cell_length_c   5.21373993
_cell_angle_alpha   83.73798221
_cell_angle_beta   83.73798221
_cell_angle_gamma   33.00372641
_symmetry_Int_Tables_number   1
_chemical_formula_structural   Ta2SnO7
_chemical_formula_sum   'Ta4 Sn2 O14'
_cell_volume   214.79383694
_cell_formula_units_Z   2
loop_
 _symmetry_equiv_pos_site_id
 _symmetry_equiv_pos_as_xyz
  1  'x, y, z'
loop_
 _atom_site_type_symbol
 _atom_site_label
 _atom_site_symmetry_multiplicity
 _atom_site_fract_x
 _atom_site_fract_y
 _atom_site_fract_z
 _atom_site_occupancy
  Ta  Ta0  1  0.39079700  0.93495600  0.19679000  1
  Ta  Ta1  1  0.06504400  0.60920300  0.30321000  1
  Ta  Ta2  1  0.93495600  0.39079700  0.69679000  1
  Ta  Ta3  1  0.60920300  0.06504400  0.80321000  1
  Sn  Sn4  1  0.22717700  0.77282300  0.75000000  1
  Sn  Sn5  1  0.77282300  0.22717700  0.25000000  1
  O  O6  1  0.68585000  0.86613900  0.16278600  1
  O  O7  1  0.13386100  0.31415000  0.33721400  1
  O  O8  1  0.31415000  0.13386100  0.83721400  1
  O  O9  1  0.86613900  0.68585000  0.66278600  1
  O  O10  1  0.31333400  0.40198100  0.01016000  1
  O  O11  1  0.59801900  0.68666600  0.48984000  1
  O  O12  1  0.38073500  0.61926500  0.25000000  1
  O  O13  1  0.61926500  0.38073500  0.75000000  1
  O  O14  1  0.93071000  0.90731400  0.52471000  1
  O  O15  1  0.09268600  0.06929000  0.97529000  1
  O  O16  1  0.06929000  0.09268600  0.47529000  1
  O  O17  1  0.90731400  0.93071000  0.02471000  1
  O  O18  1  0.40198100  0.31333400  0.51016000  1
  O  O19  1  0.68666600  0.59801900  0.98984000  1
