# generated using pymatgen
data_CeSe2
_symmetry_space_group_name_H-M   'P 1'
_cell_length_a   19.06816207
_cell_length_b   18.09961904
_cell_length_c   9.36576427
_cell_angle_alpha   81.22537417
_cell_angle_beta   69.73435593
_cell_angle_gamma   29.04026990
_symmetry_Int_Tables_number   1
_chemical_formula_structural   CeSe2
_chemical_formula_sum   'Ce8 Se16'
_cell_volume   1389.47935028
_cell_formula_units_Z   8
loop_
 _symmetry_equiv_pos_site_id
 _symmetry_equiv_pos_as_xyz
  1  'x, y, z'
loop_
 _atom_site_type_symbol
 _atom_site_label
 _atom_site_symmetry_multiplicity
 _atom_site_fract_x
 _atom_site_fract_y
 _atom_site_fract_z
 _atom_site_occupancy
  Ce  Ce0  1  0.44670900  0.18458100  0.39441700  1
  Ce  Ce1  1  0.97429300  0.39441700  0.18458100  1
  Ce  Ce2  1  0.80329100  0.06541900  0.85558300  1
  Ce  Ce3  1  0.27570700  0.85558300  0.06541900  1
  Ce  Ce4  1  0.18458100  0.44670900  0.97429300  1
  Ce  Ce5  1  0.39441700  0.97429300  0.44670900  1
  Ce  Ce6  1  0.06541900  0.80329100  0.27570700  1
  Ce  Ce7  1  0.85558300  0.27570700  0.80329100  1
  Se  Se8  1  0.62500000  0.12500000  0.12500000  1
  Se  Se9  1  0.12500000  0.12500000  0.12500000  1
  Se  Se10  1  0.12500000  0.62500000  0.12500000  1
  Se  Se11  1  0.12500000  0.12500000  0.62500000  1
  Se  Se12  1  0.51281000  0.98719000  0.51281000  1
  Se  Se13  1  0.98719000  0.51281000  0.98719000  1
  Se  Se14  1  0.73719000  0.26281000  0.73719000  1
  Se  Se15  1  0.26281000  0.73719000  0.26281000  1
  Se  Se16  1  0.28541800  0.28541800  0.21458200  1
  Se  Se17  1  0.21458200  0.21458200  0.28541800  1
  Se  Se18  1  0.96458200  0.96458200  0.03541800  1
  Se  Se19  1  0.03541800  0.03541800  0.96458200  1
  Se  Se20  1  0.34846400  0.34846400  0.65153600  1
  Se  Se21  1  0.65153600  0.65153600  0.34846400  1
  Se  Se22  1  0.90153600  0.90153600  0.59846400  1
  Se  Se23  1  0.59846400  0.59846400  0.90153600  1
