# generated using pymatgen
data_Pb7(ClF6)2
_symmetry_space_group_name_H-M   'P 1'
_cell_length_a   10.44164317
_cell_length_b   10.44164317
_cell_length_c   4.03498700
_cell_angle_alpha   90.00000000
_cell_angle_beta   90.00000000
_cell_angle_gamma   119.99999473
_symmetry_Int_Tables_number   1
_chemical_formula_structural   Pb7(ClF6)2
_chemical_formula_sum   'Pb7 Cl2 F12'
_cell_volume   380.98729192
_cell_formula_units_Z   1
loop_
 _symmetry_equiv_pos_site_id
 _symmetry_equiv_pos_as_xyz
  1  'x, y, z'
loop_
 _atom_site_type_symbol
 _atom_site_label
 _atom_site_symmetry_multiplicity
 _atom_site_fract_x
 _atom_site_fract_y
 _atom_site_fract_z
 _atom_site_occupancy
  Pb  Pb0  1  0.98706800  0.22813900  0.50000000  1
  Pb  Pb1  1  0.77186100  0.75892900  0.50000000  1
  Pb  Pb2  1  0.24107100  0.01293200  0.50000000  1
  Pb  Pb3  1  0.06081200  0.61169500  0.00000000  1
  Pb  Pb4  1  0.55088300  0.93918800  0.00000000  1
  Pb  Pb5  1  0.38830500  0.44911700  0.00000000  1
  Pb  Pb6  1  0.66666700  0.33333300  0.50000000  1
  Cl  Cl7  1  0.00000000  0.00000000  0.00000000  1
  Cl  Cl8  1  0.33333300  0.66666700  0.50000000  1
  F  F9  1  0.73570500  0.19855300  0.00000000  1
  F  F10  1  0.71619000  0.96208200  0.50000000  1
  F  F11  1  0.80144700  0.53715200  0.00000000  1
  F  F12  1  0.24589200  0.28381000  0.50000000  1
  F  F13  1  0.94386700  0.43511300  0.50000000  1
  F  F14  1  0.03791800  0.75410800  0.50000000  1
  F  F15  1  0.26563500  0.89969400  0.00000000  1
  F  F16  1  0.46284800  0.26429500  0.00000000  1
  F  F17  1  0.10030600  0.36594100  0.00000000  1
  F  F18  1  0.49124600  0.05613300  0.50000000  1
  F  F19  1  0.63405900  0.73436500  0.00000000  1
  F  F20  1  0.56488700  0.50875400  0.50000000  1
