# generated using pymatgen
data_Cd3(PO4)2
_symmetry_space_group_name_H-M   'P 1'
_cell_length_a   9.74361361
_cell_length_b   9.74361361
_cell_length_c   7.76665200
_cell_angle_alpha   90.00000000
_cell_angle_beta   90.00000000
_cell_angle_gamma   106.90114650
_symmetry_Int_Tables_number   1
_chemical_formula_structural   Cd3(PO4)2
_chemical_formula_sum   'Cd12 P8 O32'
_cell_volume   705.50264317
_cell_formula_units_Z   4
loop_
 _symmetry_equiv_pos_site_id
 _symmetry_equiv_pos_as_xyz
  1  'x, y, z'
loop_
 _atom_site_type_symbol
 _atom_site_label
 _atom_site_symmetry_multiplicity
 _atom_site_fract_x
 _atom_site_fract_y
 _atom_site_fract_z
 _atom_site_occupancy
  Cd  Cd0  1  0.89189800  0.10810200  0.00000000  1
  Cd  Cd1  1  0.60810200  0.39189800  0.50000000  1
  Cd  Cd2  1  0.10810200  0.89189800  0.00000000  1
  Cd  Cd3  1  0.39189800  0.60810200  0.50000000  1
  Cd  Cd4  1  0.31087600  0.03063900  0.44309300  1
  Cd  Cd5  1  0.18912400  0.46936100  0.94309300  1
  Cd  Cd6  1  0.53063900  0.81087600  0.05690700  1
  Cd  Cd7  1  0.96936100  0.68912400  0.55690700  1
  Cd  Cd8  1  0.68912400  0.96936100  0.55690700  1
  Cd  Cd9  1  0.81087600  0.53063900  0.05690700  1
  Cd  Cd10  1  0.46936100  0.18912400  0.94309300  1
  Cd  Cd11  1  0.03063900  0.31087600  0.44309300  1
  P  P12  1  0.81921700  0.81921700  0.29143300  1
  P  P13  1  0.68078300  0.68078300  0.79143300  1
  P  P14  1  0.31921700  0.31921700  0.20856700  1
  P  P15  1  0.18078300  0.18078300  0.70856700  1
  P  P16  1  0.81316600  0.31316600  0.75000000  1
  P  P17  1  0.68683400  0.18683400  0.25000000  1
  P  P18  1  0.18683400  0.68683400  0.25000000  1
  P  P19  1  0.31316600  0.81316600  0.75000000  1
  O  O20  1  0.89829200  0.89829200  0.12669800  1
  O  O21  1  0.60170800  0.60170800  0.62669800  1
  O  O22  1  0.39829200  0.39829200  0.37330200  1
  O  O23  1  0.10170800  0.10170800  0.87330200  1
  O  O24  1  0.88279400  0.88279400  0.46618800  1
  O  O25  1  0.61720600  0.61720600  0.96618800  1
  O  O26  1  0.38279400  0.38279400  0.03381200  1
  O  O27  1  0.11720600  0.11720600  0.53381200  1
  O  O28  1  0.90187200  0.37361500  0.91527800  1
  O  O29  1  0.59812800  0.12638500  0.41527800  1
  O  O30  1  0.87361500  0.40187200  0.58472200  1
  O  O31  1  0.62638500  0.09812800  0.08472200  1
  O  O32  1  0.09812800  0.62638500  0.08472200  1
  O  O33  1  0.40187200  0.87361500  0.58472200  1
  O  O34  1  0.12638500  0.59812800  0.41527800  1
  O  O35  1  0.37361500  0.90187200  0.91527800  1
  O  O36  1  0.81991700  0.15578500  0.73109300  1
  O  O37  1  0.68008300  0.34421500  0.23109300  1
  O  O38  1  0.65578500  0.31991700  0.76890700  1
  O  O39  1  0.84421500  0.18008300  0.26890700  1
  O  O40  1  0.17097600  0.33840400  0.70859500  1
  O  O41  1  0.32902400  0.16159600  0.20859500  1
  O  O42  1  0.83840400  0.67097600  0.79140500  1
  O  O43  1  0.66159600  0.82902400  0.29140500  1
  O  O44  1  0.82902400  0.66159600  0.29140500  1
  O  O45  1  0.67097600  0.83840400  0.79140500  1
  O  O46  1  0.16159600  0.32902400  0.20859500  1
  O  O47  1  0.33840400  0.17097600  0.70859500  1
  O  O48  1  0.15578500  0.81991700  0.73109300  1
  O  O49  1  0.34421500  0.68008300  0.23109300  1
  O  O50  1  0.31991700  0.65578500  0.76890700  1
  O  O51  1  0.18008300  0.84421500  0.26890700  1
