# generated using pymatgen
data_CeSe2
_symmetry_space_group_name_H-M   'P 1'
_cell_length_a   14.34416409
_cell_length_b   14.34416409
_cell_length_c   14.34416409
_cell_angle_alpha   109.47122063
_cell_angle_beta   109.47122063
_cell_angle_gamma   109.47122063
_symmetry_Int_Tables_number   1
_chemical_formula_structural   CeSe2
_chemical_formula_sum   'Ce12 Se24'
_cell_volume   2271.97654479
_cell_formula_units_Z   12
loop_
 _symmetry_equiv_pos_site_id
 _symmetry_equiv_pos_as_xyz
  1  'x, y, z'
loop_
 _atom_site_type_symbol
 _atom_site_label
 _atom_site_symmetry_multiplicity
 _atom_site_fract_x
 _atom_site_fract_y
 _atom_site_fract_z
 _atom_site_occupancy
  Ce  Ce0  1  0.23432000  0.06689800  0.61366400  1
  Ce  Ce1  1  0.62065600  0.88633600  0.95323500  1
  Ce  Ce2  1  0.66742200  0.54676500  0.43310200  1
  Ce  Ce3  1  0.54676500  0.43310200  0.66742200  1
  Ce  Ce4  1  0.06689800  0.61366400  0.23432000  1
  Ce  Ce5  1  0.88633600  0.95323500  0.62065600  1
  Ce  Ce6  1  0.26568000  0.87934400  0.83257800  1
  Ce  Ce7  1  0.87934400  0.83257800  0.26568000  1
  Ce  Ce8  1  0.83257800  0.26568000  0.87934400  1
  Ce  Ce9  1  0.95323500  0.62065600  0.88633600  1
  Ce  Ce10  1  0.43310200  0.66742200  0.54676500  1
  Ce  Ce11  1  0.61366400  0.23432000  0.06689800  1
  Se  Se12  1  0.10514800  0.99136700  0.38765500  1
  Se  Se13  1  0.71749300  0.11234500  0.10371200  1
  Se  Se14  1  0.61378200  0.39628800  0.50863300  1
  Se  Se15  1  0.39628800  0.50863300  0.61378200  1
  Se  Se16  1  0.99136700  0.38765500  0.10514800  1
  Se  Se17  1  0.11234500  0.10371200  0.71749300  1
  Se  Se18  1  0.39485200  0.78250700  0.88621800  1
  Se  Se19  1  0.78250700  0.88621800  0.39485200  1
  Se  Se20  1  0.88621800  0.39485200  0.78250700  1
  Se  Se21  1  0.10371200  0.71749300  0.11234500  1
  Se  Se22  1  0.50863300  0.61378200  0.39628800  1
  Se  Se23  1  0.38765500  0.10514800  0.99136700  1
  Se  Se24  1  0.64366000  0.25000000  0.89366000  1
  Se  Se25  1  0.75000000  0.60634000  0.85634000  1
  Se  Se26  1  0.89366000  0.64366000  0.25000000  1
  Se  Se27  1  0.25000000  0.89366000  0.64366000  1
  Se  Se28  1  0.60634000  0.85634000  0.75000000  1
  Se  Se29  1  0.85634000  0.75000000  0.60634000  1
  Se  Se30  1  0.43672100  0.25000000  0.68672100  1
  Se  Se31  1  0.75000000  0.81327900  0.06327900  1
  Se  Se32  1  0.68672100  0.43672100  0.25000000  1
  Se  Se33  1  0.25000000  0.68672100  0.43672100  1
  Se  Se34  1  0.81327900  0.06327900  0.75000000  1
  Se  Se35  1  0.06327900  0.75000000  0.81327900  1
