# generated using pymatgen
data_CeSe2
_symmetry_space_group_name_H-M   'P 1'
_cell_length_a   12.52387528
_cell_length_b   16.39148480
_cell_length_c   33.13828606
_cell_angle_alpha   90.00000000
_cell_angle_beta   90.00000000
_cell_angle_gamma   98.86467926
_symmetry_Int_Tables_number   1
_chemical_formula_structural   CeSe2
_chemical_formula_sum   'Ce24 Se48'
_cell_volume   6721.53113753
_cell_formula_units_Z   24
loop_
 _symmetry_equiv_pos_site_id
 _symmetry_equiv_pos_as_xyz
  1  'x, y, z'
loop_
 _atom_site_type_symbol
 _atom_site_label
 _atom_site_symmetry_multiplicity
 _atom_site_fract_x
 _atom_site_fract_y
 _atom_site_fract_z
 _atom_site_occupancy
  Ce  Ce0  1  0.06065024  0.78479071  0.50265452  1
  Ce  Ce1  1  0.93934976  0.21520929  0.00265452  1
  Ce  Ce2  1  0.93934976  0.21520929  0.49734548  1
  Ce  Ce3  1  0.06065024  0.78479071  0.99734548  1
  Ce  Ce4  1  0.07762317  0.02574163  0.60666419  1
  Ce  Ce5  1  0.92237683  0.97425837  0.10666419  1
  Ce  Ce6  1  0.92237683  0.97425837  0.39333581  1
  Ce  Ce7  1  0.07762317  0.02574163  0.89333581  1
  Ce  Ce8  1  0.69217025  0.65565737  0.55694147  1
  Ce  Ce9  1  0.30782975  0.34434263  0.05694147  1
  Ce  Ce10  1  0.30782975  0.34434263  0.44305853  1
  Ce  Ce11  1  0.69217025  0.65565737  0.94305853  1
  Ce  Ce12  1  0.70865204  0.88056062  0.67105018  1
  Ce  Ce13  1  0.29134796  0.11943938  0.17105018  1
  Ce  Ce14  1  0.29134796  0.11943938  0.32894982  1
  Ce  Ce15  1  0.70865204  0.88056062  0.82894982  1
  Ce  Ce16  1  0.40969473  0.67053105  0.44565244  1
  Ce  Ce17  1  0.59030527  0.32946895  0.94565244  1
  Ce  Ce18  1  0.59030527  0.32946895  0.55434756  1
  Ce  Ce19  1  0.40969473  0.67053105  0.05434756  1
  Ce  Ce20  1  0.46543033  0.11595919  0.67092454  1
  Ce  Ce21  1  0.53456967  0.88404081  0.17092454  1
  Ce  Ce22  1  0.53456967  0.88404081  0.32907546  1
  Ce  Ce23  1  0.46543033  0.11595919  0.82907546  1
  Se  Se24  1  0.12659902  0.90980812  0.55462744  1
  Se  Se25  1  0.87340098  0.09019188  0.05462744  1
  Se  Se26  1  0.87340098  0.09019188  0.44537256  1
  Se  Se27  1  0.12659902  0.90980812  0.94537256  1
  Se  Se28  1  0.97872073  0.84612288  0.43563381  1
  Se  Se29  1  0.02127927  0.15387712  0.93563381  1
  Se  Se30  1  0.02127927  0.15387712  0.56436619  1
  Se  Se31  1  0.97872073  0.84612288  0.06436619  1
  Se  Se32  1  0.23026346  0.70862783  0.48218885  1
  Se  Se33  1  0.76973654  0.29137217  0.98218885  1
  Se  Se34  1  0.76973654  0.29137217  0.51781115  1
  Se  Se35  1  0.23026346  0.70862783  0.01781115  1
  Se  Se36  1  0.90519254  0.67513669  0.53836866  1
  Se  Se37  1  0.09480746  0.32486331  0.03836866  1
  Se  Se38  1  0.09480746  0.32486331  0.46163134  1
  Se  Se39  1  0.90519254  0.67513669  0.96163134  1
  Se  Se40  1  0.90975995  0.95920925  0.65377890  1
  Se  Se41  1  0.09024005  0.04079075  0.15377890  1
  Se  Se42  1  0.09024005  0.04079075  0.34622110  1
  Se  Se43  1  0.90975995  0.95920925  0.84622110  1
  Se  Se44  1  0.25202745  0.07968972  0.65341034  1
  Se  Se45  1  0.74797255  0.92031028  0.15341034  1
  Se  Se46  1  0.74797255  0.92031028  0.34658966  1
  Se  Se47  1  0.25202745  0.07968972  0.84658966  1
  Se  Se48  1  0.58209141  0.71100547  0.49496004  1
  Se  Se49  1  0.41790859  0.28899453  0.99496004  1
  Se  Se50  1  0.41790859  0.28899453  0.50503996  1
  Se  Se51  1  0.58209141  0.71100547  0.00503996  1
  Se  Se52  1  0.61720114  0.49369698  0.56968987  1
  Se  Se53  1  0.38279886  0.50630302  0.06968987  1
  Se  Se54  1  0.38279886  0.50630302  0.43031013  1
  Se  Se55  1  0.61720114  0.49369698  0.93031013  1
  Se  Se56  1  0.66467166  0.74373964  0.62434410  1
  Se  Se57  1  0.33532834  0.25626036  0.12434410  1
  Se  Se58  1  0.33532834  0.25626036  0.37565590  1
  Se  Se59  1  0.66467166  0.74373964  0.87565590  1
  Se  Se60  1  0.56285718  0.98272814  0.65593504  1
  Se  Se61  1  0.43714282  0.01727186  0.15593504  1
  Se  Se62  1  0.43714282  0.01727186  0.34406496  1
  Se  Se63  1  0.56285718  0.98272814  0.84406496  1
  Se  Se64  1  0.69759039  0.83665598  0.75000000  1
  Se  Se65  1  0.30240961  0.16334402  0.25000000  1
  Se  Se66  1  0.44375364  0.75601010  0.37564520  1
  Se  Se67  1  0.55624636  0.24398990  0.87564520  1
  Se  Se68  1  0.55624636  0.24398990  0.62435480  1
  Se  Se69  1  0.44375364  0.75601010  0.12435480  1
  Se  Se70  1  0.49043662  0.15677491  0.75000000  1
  Se  Se71  1  0.50956338  0.84322509  0.25000000  1
