# generated using pymatgen
data_BaMn2O8
_symmetry_space_group_name_H-M   'P 1'
_cell_length_a   9.71322174
_cell_length_b   8.44444409
_cell_length_c   7.14540036
_cell_angle_alpha   76.57468598
_cell_angle_beta   57.73833105
_cell_angle_gamma   45.68698296
_symmetry_Int_Tables_number   1
_chemical_formula_structural   BaMn2O8
_chemical_formula_sum   'Ba2 Mn4 O16'
_cell_volume   344.89941304
_cell_formula_units_Z   2
loop_
 _symmetry_equiv_pos_site_id
 _symmetry_equiv_pos_as_xyz
  1  'x, y, z'
loop_
 _atom_site_type_symbol
 _atom_site_label
 _atom_site_symmetry_multiplicity
 _atom_site_fract_x
 _atom_site_fract_y
 _atom_site_fract_z
 _atom_site_occupancy
  Ba  Ba0  1  0.25000000  0.25000000  0.25000000  1
  Ba  Ba1  1  0.00000000  0.00000000  0.00000000  1
  Mn  Mn2  1  0.55195600  0.94804400  0.55195600  1
  Mn  Mn3  1  0.94804400  0.55195600  0.94804400  1
  Mn  Mn4  1  0.69804400  0.30195600  0.69804400  1
  Mn  Mn5  1  0.30195600  0.69804400  0.30195600  1
  O  O6  1  0.91059100  0.25633100  0.64306000  1
  O  O7  1  0.19001800  0.64306000  0.25633100  1
  O  O8  1  0.64306000  0.19001800  0.91059100  1
  O  O9  1  0.25633100  0.91059100  0.19001800  1
  O  O10  1  0.33940900  0.99366900  0.60694000  1
  O  O11  1  0.05998200  0.60694000  0.99366900  1
  O  O12  1  0.47826400  0.57121500  0.76576900  1
  O  O13  1  0.18475200  0.76576900  0.57121500  1
  O  O14  1  0.76576900  0.18475200  0.47826400  1
  O  O15  1  0.57121500  0.47826400  0.18475200  1
  O  O16  1  0.77173600  0.67878500  0.48423100  1
  O  O17  1  0.06524800  0.48423100  0.67878500  1
  O  O18  1  0.48423100  0.06524800  0.77173600  1
  O  O19  1  0.67878500  0.77173600  0.06524800  1
  O  O20  1  0.99366900  0.33940900  0.05998200  1
  O  O21  1  0.60694000  0.05998200  0.33940900  1
