# generated using pymatgen
data_CeSe2
_symmetry_space_group_name_H-M   'P 1'
_cell_length_a   18.11807781
_cell_length_b   18.11807781
_cell_length_c   18.11807781
_cell_angle_alpha   90.00000000
_cell_angle_beta   90.00000000
_cell_angle_gamma   90.00000000
_symmetry_Int_Tables_number   1
_chemical_formula_structural   CeSe2
_chemical_formula_sum   'Ce24 Se48'
_cell_volume   5947.52616554
_cell_formula_units_Z   24
loop_
 _symmetry_equiv_pos_site_id
 _symmetry_equiv_pos_as_xyz
  1  'x, y, z'
loop_
 _atom_site_type_symbol
 _atom_site_label
 _atom_site_symmetry_multiplicity
 _atom_site_fract_x
 _atom_site_fract_y
 _atom_site_fract_z
 _atom_site_occupancy
  Ce  Ce0  1  0.63743274  0.25000000  0.13743274  1
  Ce  Ce1  1  0.75000000  0.86256726  0.63743274  1
  Ce  Ce2  1  0.13743274  0.36256726  0.75000000  1
  Ce  Ce3  1  0.36256726  0.75000000  0.86256726  1
  Ce  Ce4  1  0.25000000  0.13743274  0.36256726  1
  Ce  Ce5  1  0.86256726  0.63743274  0.25000000  1
  Ce  Ce6  1  0.63743274  0.75000000  0.86256726  1
  Ce  Ce7  1  0.75000000  0.13743274  0.36256726  1
  Ce  Ce8  1  0.13743274  0.63743274  0.25000000  1
  Ce  Ce9  1  0.36256726  0.25000000  0.13743274  1
  Ce  Ce10  1  0.25000000  0.86256726  0.63743274  1
  Ce  Ce11  1  0.86256726  0.36256726  0.75000000  1
  Ce  Ce12  1  0.36256726  0.75000000  0.13743274  1
  Ce  Ce13  1  0.25000000  0.13743274  0.63743274  1
  Ce  Ce14  1  0.86256726  0.63743274  0.75000000  1
  Ce  Ce15  1  0.63743274  0.25000000  0.86256726  1
  Ce  Ce16  1  0.75000000  0.86256726  0.36256726  1
  Ce  Ce17  1  0.13743274  0.36256726  0.25000000  1
  Ce  Ce18  1  0.36256726  0.25000000  0.86256726  1
  Ce  Ce19  1  0.25000000  0.86256726  0.36256726  1
  Ce  Ce20  1  0.86256726  0.36256726  0.25000000  1
  Ce  Ce21  1  0.63743274  0.75000000  0.13743274  1
  Ce  Ce22  1  0.75000000  0.13743274  0.63743274  1
  Ce  Ce23  1  0.13743274  0.63743274  0.75000000  1
  Se  Se24  1  0.75000000  0.34961356  0.15038644  1
  Se  Se25  1  0.65038644  0.84961356  0.75000000  1
  Se  Se26  1  0.15038644  0.25000000  0.65038644  1
  Se  Se27  1  0.25000000  0.65038644  0.84961356  1
  Se  Se28  1  0.34961356  0.15038644  0.25000000  1
  Se  Se29  1  0.84961356  0.75000000  0.34961356  1
  Se  Se30  1  0.75000000  0.65038644  0.84961356  1
  Se  Se31  1  0.65038644  0.15038644  0.25000000  1
  Se  Se32  1  0.15038644  0.75000000  0.34961356  1
  Se  Se33  1  0.25000000  0.34961356  0.15038644  1
  Se  Se34  1  0.34961356  0.84961356  0.75000000  1
  Se  Se35  1  0.84961356  0.25000000  0.65038644  1
  Se  Se36  1  0.25000000  0.65038644  0.15038644  1
  Se  Se37  1  0.34961356  0.15038644  0.75000000  1
  Se  Se38  1  0.84961356  0.75000000  0.65038644  1
  Se  Se39  1  0.75000000  0.34961356  0.84961356  1
  Se  Se40  1  0.65038644  0.84961356  0.25000000  1
  Se  Se41  1  0.15038644  0.25000000  0.34961356  1
  Se  Se42  1  0.25000000  0.34961356  0.84961356  1
  Se  Se43  1  0.34961356  0.84961356  0.25000000  1
  Se  Se44  1  0.84961356  0.25000000  0.34961356  1
  Se  Se45  1  0.75000000  0.65038644  0.15038644  1
  Se  Se46  1  0.65038644  0.15038644  0.75000000  1
  Se  Se47  1  0.15038644  0.75000000  0.65038644  1
  Se  Se48  1  0.14936935  0.50000000  0.31183400  1
  Se  Se49  1  0.50000000  0.68816600  0.14936935  1
  Se  Se50  1  0.31183400  0.85063065  0.50000000  1
  Se  Se51  1  0.85063065  0.50000000  0.68816600  1
  Se  Se52  1  0.50000000  0.31183400  0.85063065  1
  Se  Se53  1  0.68816600  0.14936935  0.50000000  1
  Se  Se54  1  0.14936935  0.50000000  0.68816600  1
  Se  Se55  1  0.31183400  0.14936935  0.50000000  1
  Se  Se56  1  0.85063065  0.50000000  0.31183400  1
  Se  Se57  1  0.68816600  0.85063065  0.50000000  1
  Se  Se58  1  0.50000000  0.31183400  0.14936935  1
  Se  Se59  1  0.50000000  0.68816600  0.85063065  1
  Se  Se60  1  0.64936935  0.81183400  -0.00000000  1
  Se  Se61  1  0.00000000  0.64936935  0.18816600  1
  Se  Se62  1  0.81183400  -0.00000000  0.35063065  1
  Se  Se63  1  0.35063065  0.18816600  -0.00000000  1
  Se  Se64  1  0.00000000  0.35063065  0.81183400  1
  Se  Se65  1  0.18816600  0.00000000  0.64936935  1
  Se  Se66  1  0.64936935  0.18816600  -0.00000000  1
  Se  Se67  1  0.81183400  0.00000000  0.64936935  1
  Se  Se68  1  0.35063065  0.81183400  -0.00000000  1
  Se  Se69  1  0.18816600  -0.00000000  0.35063065  1
  Se  Se70  1  0.00000000  0.64936935  0.81183400  1
  Se  Se71  1  0.00000000  0.35063065  0.18816600  1
