# generated using pymatgen
data_MnSO3
_symmetry_space_group_name_H-M   'P 1'
_cell_length_a   12.44106800
_cell_length_b   5.49630600
_cell_length_c   8.42641884
_cell_angle_alpha   79.68425209
_cell_angle_beta   90.00000000
_cell_angle_gamma   90.00000000
_symmetry_Int_Tables_number   1
_chemical_formula_structural   MnSO3
_chemical_formula_sum   'Mn8 S8 O24'
_cell_volume   566.88407432
_cell_formula_units_Z   8
loop_
 _symmetry_equiv_pos_site_id
 _symmetry_equiv_pos_as_xyz
  1  'x, y, z'
loop_
 _atom_site_type_symbol
 _atom_site_label
 _atom_site_symmetry_multiplicity
 _atom_site_fract_x
 _atom_site_fract_y
 _atom_site_fract_z
 _atom_site_occupancy
  Mn  Mn0  1  0.92043400  0.66725400  0.61672900  1
  Mn  Mn1  1  0.42043400  0.33274600  0.88327100  1
  Mn  Mn2  1  0.07956600  0.33274600  0.38327100  1
  Mn  Mn3  1  0.57956600  0.66725400  0.11672900  1
  Mn  Mn4  1  0.24596000  0.88429100  0.15822300  1
  Mn  Mn5  1  0.74596000  0.11570900  0.34177700  1
  Mn  Mn6  1  0.75404000  0.11570900  0.84177700  1
  Mn  Mn7  1  0.25404000  0.88429100  0.65822300  1
  S  S8  1  0.67577300  0.52098000  0.50926900  1
  S  S9  1  0.17577300  0.47902000  0.99073100  1
  S  S10  1  0.32422700  0.47902000  0.49073100  1
  S  S11  1  0.82422700  0.52098000  0.00926900  1
  S  S12  1  0.51857600  0.91352400  0.74538300  1
  S  S13  1  0.01857600  0.08647600  0.75461700  1
  S  S14  1  0.48142400  0.08647600  0.25461700  1
  S  S15  1  0.98142400  0.91352400  0.24538300  1
  O  O16  1  0.26078400  0.26634500  0.00401500  1
  O  O17  1  0.76078400  0.73365500  0.49598500  1
  O  O18  1  0.73921600  0.73365500  0.99598500  1
  O  O19  1  0.23921600  0.26634500  0.50401500  1
  O  O20  1  0.98459300  0.67050500  0.37158500  1
  O  O21  1  0.48459300  0.32949500  0.12841500  1
  O  O22  1  0.01540700  0.32949500  0.62841500  1
  O  O23  1  0.51540700  0.67050500  0.87158500  1
  O  O24  1  0.92118500  0.09531100  0.33730100  1
  O  O25  1  0.42118500  0.90468900  0.16269900  1
  O  O26  1  0.07881500  0.90468900  0.66269900  1
  O  O27  1  0.57881500  0.09531100  0.83730100  1
  O  O28  1  0.75970600  0.28136200  0.07620100  1
  O  O29  1  0.25970600  0.71863800  0.42379900  1
  O  O30  1  0.24029400  0.71863800  0.92379900  1
  O  O31  1  0.74029400  0.28136200  0.57620100  1
  O  O32  1  0.90355100  0.97418800  0.75613400  1
  O  O33  1  0.40355100  0.02581200  0.74386600  1
  O  O34  1  0.09644900  0.02581200  0.24386600  1
  O  O35  1  0.59644900  0.97418800  0.25613400  1
  O  O36  1  0.84041700  0.47396700  0.83397900  1
  O  O37  1  0.34041700  0.52603300  0.66602100  1
  O  O38  1  0.15958300  0.52603300  0.16602100  1
  O  O39  1  0.65958300  0.47396700  0.33397900  1
