# generated using pymatgen
data_TlAgI2
_symmetry_space_group_name_H-M   'P 1'
_cell_length_a   7.19058260
_cell_length_b   7.19058260
_cell_length_c   7.19058260
_cell_angle_alpha   107.37996110
_cell_angle_beta   107.37996110
_cell_angle_gamma   113.73993750
_symmetry_Int_Tables_number   1
_chemical_formula_structural   TlAgI2
_chemical_formula_sum   'Tl2 Ag2 I4'
_cell_volume   284.99972572
_cell_formula_units_Z   2
loop_
 _symmetry_equiv_pos_site_id
 _symmetry_equiv_pos_as_xyz
  1  'x, y, z'
loop_
 _atom_site_type_symbol
 _atom_site_label
 _atom_site_symmetry_multiplicity
 _atom_site_fract_x
 _atom_site_fract_y
 _atom_site_fract_z
 _atom_site_occupancy
  Tl  Tl0  1  0.25000000  0.25000000  0.00000000  1
  Tl  Tl1  1  0.75000000  0.75000000  0.00000000  1
  Ag  Ag2  1  0.75000000  0.25000000  0.50000000  1
  Ag  Ag3  1  0.25000000  0.75000000  0.50000000  1
  I  I4  1  0.32259900  0.82259900  0.14519800  1
  I  I5  1  0.82259900  0.67740100  0.50000000  1
  I  I6  1  0.67740100  0.17740100  0.85480200  1
  I  I7  1  0.17740100  0.32259900  0.50000000  1
