# generated using pymatgen
data_BiSe
_symmetry_space_group_name_H-M   'P 1'
_cell_length_a   4.25832197
_cell_length_b   4.25832197
_cell_length_c   24.15937800
_cell_angle_alpha   90.00000000
_cell_angle_beta   90.00000000
_cell_angle_gamma   119.99999960
_symmetry_Int_Tables_number   1
_chemical_formula_structural   BiSe
_chemical_formula_sum   'Bi6 Se6'
_cell_volume   379.39654669
_cell_formula_units_Z   6
loop_
 _symmetry_equiv_pos_site_id
 _symmetry_equiv_pos_as_xyz
  1  'x, y, z'
loop_
 _atom_site_type_symbol
 _atom_site_label
 _atom_site_symmetry_multiplicity
 _atom_site_fract_x
 _atom_site_fract_y
 _atom_site_fract_z
 _atom_site_occupancy
  Bi  Bi0  1  0.66666700  0.33333300  0.46291700  1
  Bi  Bi1  1  0.33333300  0.66666700  0.53708300  1
  Bi  Bi2  1  0.66666700  0.33333300  0.71399200  1
  Bi  Bi3  1  0.33333300  0.66666700  0.28600800  1
  Bi  Bi4  1  0.00000000  0.00000000  0.87149200  1
  Bi  Bi5  1  0.00000000  0.00000000  0.12850800  1
  Se  Se6  1  0.00000000  0.00000000  0.64928700  1
  Se  Se7  1  0.00000000  0.00000000  0.35071300  1
  Se  Se8  1  0.66666700  0.33333300  0.20830400  1
  Se  Se9  1  0.33333300  0.66666700  0.79169600  1
  Se  Se10  1  0.66666700  0.33333300  0.93432700  1
  Se  Se11  1  0.33333300  0.66666700  0.06567300  1
