# generated using pymatgen
data_B5H11N2
_symmetry_space_group_name_H-M   'P 1'
_cell_length_a   7.81417810
_cell_length_b   7.81417810
_cell_length_c   9.91147927
_cell_angle_alpha   84.18668808
_cell_angle_beta   84.18668808
_cell_angle_gamma   83.11984466
_symmetry_Int_Tables_number   1
_chemical_formula_structural   B5H11N2
_chemical_formula_sum   'B20 H44 N8'
_cell_volume   595.32019574
_cell_formula_units_Z   4
loop_
 _symmetry_equiv_pos_site_id
 _symmetry_equiv_pos_as_xyz
  1  'x, y, z'
loop_
 _atom_site_type_symbol
 _atom_site_label
 _atom_site_symmetry_multiplicity
 _atom_site_fract_x
 _atom_site_fract_y
 _atom_site_fract_z
 _atom_site_occupancy
  B  B0  1  0.56180000  0.22626500  0.14223400  1
  B  B1  1  0.77373500  0.43820000  0.35776600  1
  B  B2  1  0.43820000  0.77373500  0.85776600  1
  B  B3  1  0.22626500  0.56180000  0.64223400  1
  B  B4  1  0.78621300  0.18057500  0.16299900  1
  B  B5  1  0.81942500  0.21378700  0.33700100  1
  B  B6  1  0.21378700  0.81942500  0.83700100  1
  B  B7  1  0.18057500  0.78621300  0.66299900  1
  B  B8  1  0.71733700  0.38402900  0.07824700  1
  B  B9  1  0.61597100  0.28266300  0.42175300  1
  B  B10  1  0.28266300  0.61597100  0.92175300  1
  B  B11  1  0.38402900  0.71733700  0.57824700  1
  B  B12  1  0.86579000  0.36981000  0.20116700  1
  B  B13  1  0.63019000  0.13421000  0.29883300  1
  B  B14  1  0.13421000  0.63019000  0.79883300  1
  B  B15  1  0.36981000  0.86579000  0.70116700  1
  B  B16  1  0.72470100  0.55830400  0.19102000  1
  B  B17  1  0.44169600  0.27529900  0.30898000  1
  B  B18  1  0.27529900  0.44169600  0.80898000  1
  B  B19  1  0.55830400  0.72470100  0.69102000  1
  H  H20  1  0.54635200  0.39517300  0.10334600  1
  H  H21  1  0.60482700  0.45364800  0.39665400  1
  H  H22  1  0.45364800  0.60482700  0.89665400  1
  H  H23  1  0.39517300  0.54635200  0.60334600  1
  H  H24  1  0.17702600  0.64154900  0.28655800  1
  H  H25  1  0.35845100  0.82297400  0.21344200  1
  H  H26  1  0.82297400  0.35845100  0.71344200  1
  H  H27  1  0.64154900  0.17702600  0.78655800  1
  H  H28  1  0.74817600  0.83091700  0.12332100  1
  H  H29  1  0.16908300  0.25182400  0.37667900  1
  H  H30  1  0.25182400  0.16908300  0.87667900  1
  H  H31  1  0.83091700  0.74817600  0.62332100  1
  H  H32  1  0.50050300  0.14969200  0.06290500  1
  H  H33  1  0.85030800  0.49949700  0.43709500  1
  H  H34  1  0.49949700  0.85030800  0.93709500  1
  H  H35  1  0.14969200  0.50050300  0.56290500  1
  H  H36  1  0.75470700  0.41084800  0.95810800  1
  H  H37  1  0.92683000  0.73833700  0.19133600  1
  H  H38  1  0.58915200  0.24529300  0.54189200  1
  H  H39  1  0.41084800  0.75470700  0.45810800  1
  H  H40  1  0.01172500  0.39981600  0.16373300  1
  H  H41  1  0.60018400  0.98827500  0.33626700  1
  H  H42  1  0.98827500  0.60018400  0.83626700  1
  H  H43  1  0.39981600  0.01172500  0.66373300  1
  H  H44  1  0.87934300  0.07092800  0.10625100  1
  H  H45  1  0.92907200  0.12065700  0.39374900  1
  H  H46  1  0.12065700  0.92907200  0.89374900  1
  H  H47  1  0.07092800  0.87934300  0.60625100  1
  H  H48  1  0.79375500  0.09223500  0.88252200  1
  H  H49  1  0.90776500  0.20624500  0.61747800  1
  H  H50  1  0.20624500  0.90776500  0.11747800  1
  H  H51  1  0.09223500  0.79375500  0.38252200  1
  H  H52  1  0.60612600  0.57301600  0.71399500  1
  H  H53  1  0.42698400  0.39387400  0.78600500  1
  H  H54  1  0.39387400  0.42698400  0.28600500  1
  H  H55  1  0.57301600  0.60612600  0.21399500  1
  H  H56  1  0.69841900  0.88670200  0.53587900  1
  H  H57  1  0.11329800  0.30158100  0.96412100  1
  H  H58  1  0.30158100  0.11329800  0.46412100  1
  H  H59  1  0.88670200  0.69841900  0.03587900  1
  H  H60  1  0.73833700  0.92683000  0.69133600  1
  H  H61  1  0.07317000  0.26166300  0.80866400  1
  H  H62  1  0.26166300  0.07317000  0.30866400  1
  H  H63  1  0.24529300  0.58915200  0.04189200  1
  N  N64  1  0.82765500  0.71674400  0.13154700  1
  N  N65  1  0.28325600  0.17234500  0.36845300  1
  N  N66  1  0.17234500  0.28325600  0.86845300  1
  N  N67  1  0.71674400  0.82765500  0.63154700  1
  N  N68  1  0.11628300  0.76556400  0.28332100  1
  N  N69  1  0.23443600  0.88371700  0.21667900  1
  N  N70  1  0.88371700  0.23443600  0.71667900  1
  N  N71  1  0.76556400  0.11628300  0.78332100  1
