# generated using pymatgen
data_P(WO4)2
_symmetry_space_group_name_H-M   'P 1'
_cell_length_a   5.37434200
_cell_length_b   6.72677600
_cell_length_c   17.77983800
_cell_angle_alpha   90.00000000
_cell_angle_beta   90.00000000
_cell_angle_gamma   90.00000000
_symmetry_Int_Tables_number   1
_chemical_formula_structural   P(WO4)2
_chemical_formula_sum   'P4 W8 O32'
_cell_volume   642.77661059
_cell_formula_units_Z   4
loop_
 _symmetry_equiv_pos_site_id
 _symmetry_equiv_pos_as_xyz
  1  'x, y, z'
loop_
 _atom_site_type_symbol
 _atom_site_label
 _atom_site_symmetry_multiplicity
 _atom_site_fract_x
 _atom_site_fract_y
 _atom_site_fract_z
 _atom_site_occupancy
  P  P0  1  0.76768400  0.54958500  0.31126400  1
  P  P1  1  0.73231600  0.45041500  0.81126400  1
  P  P2  1  0.26768400  0.95041500  0.68873600  1
  P  P3  1  0.23231600  0.04958600  0.18873600  1
  W  W4  1  0.75802000  0.90926300  0.45379100  1
  W  W5  1  0.74198000  0.09073700  0.95379100  1
  W  W6  1  0.25802000  0.59073700  0.54620900  1
  W  W7  1  0.24198000  0.40926300  0.04620900  1
  W  W8  1  0.74215100  0.74967500  0.12840000  1
  W  W9  1  0.75784900  0.25032500  0.62840000  1
  W  W10  1  0.24215100  0.75032500  0.87160000  1
  W  W11  1  0.25784900  0.24967500  0.37160000  1
  O  O12  1  0.05317200  0.76717600  0.49538400  1
  O  O13  1  0.44682800  0.23282400  0.99538400  1
  O  O14  1  0.55317200  0.73282400  0.50461600  1
  O  O15  1  0.94682800  0.26717600  0.00461600  1
  O  O16  1  0.75639300  0.73787600  0.35924100  1
  O  O17  1  0.74360700  0.26212400  0.85924100  1
  O  O18  1  0.25639300  0.76212400  0.64075900  1
  O  O19  1  0.24360700  0.23787600  0.14075900  1
  O  O20  1  0.73834000  0.60874200  0.22815900  1
  O  O21  1  0.76166000  0.39125800  0.72815900  1
  O  O22  1  0.23834000  0.89125800  0.77184100  1
  O  O23  1  0.26166000  0.10874200  0.27184100  1
  O  O24  1  0.02308700  0.59876700  0.09938800  1
  O  O25  1  0.47691300  0.40123300  0.59938800  1
  O  O26  1  0.52308700  0.90123300  0.90061200  1
  O  O27  1  0.97691300  0.09876700  0.40061200  1
  O  O28  1  0.52829800  0.56181600  0.09042900  1
  O  O29  1  0.97170200  0.43818400  0.59042900  1
  O  O30  1  0.02829800  0.93818400  0.90957100  1
  O  O31  1  0.47170200  0.06181600  0.40957100  1
  O  O32  1  0.55480800  0.40477300  0.33165000  1
  O  O33  1  0.94519200  0.59522700  0.83165000  1
  O  O34  1  0.05480800  0.09522700  0.66835000  1
  O  O35  1  0.44519200  0.90477300  0.16835000  1
  O  O36  1  0.02240900  0.44500700  0.32049600  1
  O  O37  1  0.47759100  0.55499300  0.82049600  1
  O  O38  1  0.52240900  0.05499300  0.67950400  1
  O  O39  1  0.97759100  0.94500700  0.17950400  1
  O  O40  1  0.75793300  0.09424500  0.54298500  1
  O  O41  1  0.74206700  0.90575500  0.04298500  1
  O  O42  1  0.25793300  0.40575500  0.45701500  1
  O  O43  1  0.24206700  0.59424500  0.95701500  1
