# generated using pymatgen
data_P4Ru
_symmetry_space_group_name_H-M   'P 1'
_cell_length_a   4.70193400
_cell_length_b   4.72014100
_cell_length_c   7.15366224
_cell_angle_alpha   80.55323352
_cell_angle_beta   90.00000000
_cell_angle_gamma   90.00000000
_symmetry_Int_Tables_number   1
_chemical_formula_structural   P4Ru
_chemical_formula_sum   'P8 Ru2'
_cell_volume   156.61377407
_cell_formula_units_Z   2
loop_
 _symmetry_equiv_pos_site_id
 _symmetry_equiv_pos_as_xyz
  1  'x, y, z'
loop_
 _atom_site_type_symbol
 _atom_site_label
 _atom_site_symmetry_multiplicity
 _atom_site_fract_x
 _atom_site_fract_y
 _atom_site_fract_z
 _atom_site_occupancy
  P  P0  1  0.19172300  0.21500600  0.25104100  1
  P  P1  1  0.69172300  0.78499400  0.24895900  1
  P  P2  1  0.80827700  0.78499400  0.74895900  1
  P  P3  1  0.30827700  0.21500600  0.75104100  1
  P  P4  1  0.64977800  0.37872300  0.91151600  1
  P  P5  1  0.14977800  0.62127700  0.58848400  1
  P  P6  1  0.35022200  0.62127700  0.08848400  1
  P  P7  1  0.85022200  0.37872300  0.41151600  1
  Ru  Ru8  1  0.50000000  0.00000000  0.50000000  1
  Ru  Ru9  1  0.00000000  0.00000000  0.00000000  1
