# generated using pymatgen
data_BaBrCl
_symmetry_space_group_name_H-M   'P 1'
_cell_length_a   5.06240900
_cell_length_b   8.14812600
_cell_length_c   10.28632700
_cell_angle_alpha   90.00000000
_cell_angle_beta   90.00000000
_cell_angle_gamma   90.00000000
_symmetry_Int_Tables_number   1
_chemical_formula_structural   BaBrCl
_chemical_formula_sum   'Ba4 Br4 Cl4'
_cell_volume   424.30220830
_cell_formula_units_Z   4
loop_
 _symmetry_equiv_pos_site_id
 _symmetry_equiv_pos_as_xyz
  1  'x, y, z'
loop_
 _atom_site_type_symbol
 _atom_site_label
 _atom_site_symmetry_multiplicity
 _atom_site_fract_x
 _atom_site_fract_y
 _atom_site_fract_z
 _atom_site_occupancy
  Ba  Ba0  1  0.25000000  0.22826000  0.90674300  1
  Ba  Ba1  1  0.75000000  0.77174000  0.09325700  1
  Ba  Ba2  1  0.25000000  0.72826000  0.59325700  1
  Ba  Ba3  1  0.75000000  0.27174000  0.40674300  1
  Br  Br4  1  0.75000000  0.36152100  0.09199300  1
  Br  Br5  1  0.25000000  0.63847900  0.90800700  1
  Br  Br6  1  0.75000000  0.86152100  0.40800700  1
  Br  Br7  1  0.25000000  0.13847900  0.59199300  1
  Cl  Cl8  1  0.25000000  0.99691400  0.14754300  1
  Cl  Cl9  1  0.75000000  0.00308600  0.85245700  1
  Cl  Cl10  1  0.25000000  0.49691400  0.35245700  1
  Cl  Cl11  1  0.75000000  0.50308600  0.64754300  1
