# generated using pymatgen
data_B9H11C2
_symmetry_space_group_name_H-M   'P 1'
_cell_length_a   11.26214517
_cell_length_b   11.26214517
_cell_length_c   22.63239294
_cell_angle_alpha   85.74924676
_cell_angle_beta   85.74924676
_cell_angle_gamma   37.40554245
_symmetry_Int_Tables_number   1
_chemical_formula_structural   B9H11C2
_chemical_formula_sum   'B72 H88 C16'
_cell_volume   1738.40654495
_cell_formula_units_Z   8
loop_
 _symmetry_equiv_pos_site_id
 _symmetry_equiv_pos_as_xyz
  1  'x, y, z'
loop_
 _atom_site_type_symbol
 _atom_site_label
 _atom_site_symmetry_multiplicity
 _atom_site_fract_x
 _atom_site_fract_y
 _atom_site_fract_z
 _atom_site_occupancy
  B  B0  1  0.41252100  0.17126700  0.87098500  1
  B  B1  1  0.17126700  0.41252100  0.37098500  1
  B  B2  1  0.58747900  0.82873300  0.12901500  1
  B  B3  1  0.58495200  0.72691700  0.59845000  1
  B  B4  1  0.27308300  0.41504800  0.90155000  1
  B  B5  1  0.41504800  0.27308300  0.40155000  1
  B  B6  1  0.72691700  0.58495200  0.09845000  1
  B  B7  1  0.85178700  0.48399600  0.69841300  1
  B  B8  1  0.51600400  0.14821300  0.80158700  1
  B  B9  1  0.14821300  0.51600400  0.30158700  1
  B  B10  1  0.48399600  0.85178700  0.19841300  1
  B  B11  1  0.61706500  0.72550000  0.67433600  1
  B  B12  1  0.27450000  0.38293500  0.82566400  1
  B  B13  1  0.38293500  0.27450000  0.32566400  1
  B  B14  1  0.72550000  0.61706500  0.17433600  1
  B  B15  1  0.46118700  0.73300000  0.65673200  1
  B  B16  1  0.26700000  0.53881300  0.84326800  1
  B  B17  1  0.53881300  0.26700000  0.34326800  1
  B  B18  1  0.73300000  0.46118700  0.15673200  1
  B  B19  1  0.64212700  0.55777000  0.70868200  1
  B  B20  1  0.44223000  0.35787300  0.79131800  1
  B  B21  1  0.35787300  0.44223000  0.29131800  1
  B  B22  1  0.55777000  0.64212700  0.20868200  1
  B  B23  1  0.20099900  0.61923800  0.59005000  1
  B  B24  1  0.38076200  0.79900100  0.90995000  1
  B  B25  1  0.79900100  0.38076200  0.40995000  1
  B  B26  1  0.61923800  0.20099900  0.09005000  1
  B  B27  1  0.06278700  0.75882600  0.65474400  1
  B  B28  1  0.24117400  0.93721300  0.84525600  1
  B  B29  1  0.93721300  0.24117400  0.34525600  1
  B  B30  1  0.75882600  0.06278700  0.15474400  1
  B  B31  1  0.01458700  0.87848500  0.58626000  1
  B  B32  1  0.12151500  0.98541300  0.91374000  1
  B  B33  1  0.98541300  0.12151500  0.41374000  1
  B  B34  1  0.87848500  0.01458700  0.08626000  1
  B  B35  1  0.04136100  0.75668300  0.52914500  1
  B  B36  1  0.24331700  0.95863900  0.97085500  1
  B  B37  1  0.95863900  0.24331700  0.47085500  1
  B  B38  1  0.75668300  0.04136100  0.02914500  1
  B  B39  1  0.10564300  0.56282500  0.56252200  1
  B  B40  1  0.43717500  0.89435700  0.93747800  1
  B  B41  1  0.89435700  0.43717500  0.43747800  1
  B  B42  1  0.56282500  0.10564300  0.06252200  1
  B  B43  1  0.11860600  0.56481200  0.63997300  1
  B  B44  1  0.43518800  0.88139400  0.86002700  1
  B  B45  1  0.88139400  0.43518800  0.36002700  1
  B  B46  1  0.56481200  0.11860600  0.13997300  1
  B  B47  1  0.81863500  0.98288700  0.63368300  1
  B  B48  1  0.01711300  0.18136500  0.86631700  1
  B  B49  1  0.18136500  0.01711300  0.36631700  1
  B  B50  1  0.98288700  0.81863500  0.13368300  1
  B  B51  1  0.80474300  0.98127200  0.55619900  1
  B  B52  1  0.01872800  0.19525700  0.94380100  1
  B  B53  1  0.19525700  0.01872800  0.44380100  1
  B  B54  1  0.98127200  0.80474300  0.05619900  1
  B  B55  1  0.86090500  0.78697400  0.54171800  1
  B  B56  1  0.21302600  0.13909500  0.95828200  1
  B  B57  1  0.13909500  0.21302600  0.45828200  1
  B  B58  1  0.78697400  0.86090500  0.04171800  1
  B  B59  1  0.90859900  0.66489200  0.60999400  1
  B  B60  1  0.33510800  0.09140100  0.89000600  1
  B  B61  1  0.09140100  0.33510800  0.39000600  1
  B  B62  1  0.66489200  0.90859900  0.10999400  1
  B  B63  1  0.33429300  0.00020100  0.13914900  1
  B  B64  1  0.99979900  0.66570700  0.36085100  1
  B  B65  1  0.66570700  0.99979900  0.86085100  1
  B  B66  1  0.00020100  0.33429300  0.63914900  1
  B  B67  1  0.32569500  0.86244100  0.17585300  1
  B  B68  1  0.13755900  0.67430500  0.32414700  1
  B  B69  1  0.67430500  0.13755900  0.82414700  1
  B  B70  1  0.82873300  0.58747900  0.62901500  1
  B  B71  1  0.86244100  0.32569500  0.67585300  1
  H  H72  1  0.86302200  0.54915800  0.19740500  1
  H  H73  1  0.06143600  0.81744800  0.29801100  1
  H  H74  1  0.18255200  0.93856400  0.20198900  1
  H  H75  1  0.17346300  0.20513300  0.63490100  1
  H  H76  1  0.79486700  0.82653700  0.86509900  1
  H  H77  1  0.82653700  0.79486700  0.36509900  1
  H  H78  1  0.20513300  0.17346300  0.13490100  1
  H  H79  1  0.51063700  0.85409500  0.56282900  1
  H  H80  1  0.14590500  0.48936300  0.93717100  1
  H  H81  1  0.48936300  0.14590500  0.43717100  1
  H  H82  1  0.85409500  0.51063700  0.06282900  1
  H  H83  1  0.51514700  0.60097100  0.56035800  1
  H  H84  1  0.39902900  0.48485300  0.93964200  1
  H  H85  1  0.48485300  0.39902900  0.43964200  1
  H  H86  1  0.60097100  0.51514700  0.06035800  1
  H  H87  1  0.58014600  0.43377000  0.65624100  1
  H  H88  1  0.56623000  0.41985400  0.84375900  1
  H  H89  1  0.41985400  0.56623000  0.34375900  1
  H  H90  1  0.43377000  0.58014600  0.15624100  1
  H  H91  1  0.92400400  0.46246900  0.74126700  1
  H  H92  1  0.53753100  0.07599600  0.75873300  1
  H  H93  1  0.07599600  0.53753100  0.25873300  1
  H  H94  1  0.46246900  0.92400400  0.24126700  1
  H  H95  1  0.54915800  0.86302200  0.69740500  1
  H  H96  1  0.13697800  0.45084200  0.80259500  1
  H  H97  1  0.45084200  0.13697800  0.30259500  1
  H  H98  1  0.93856400  0.18255200  0.70198900  1
  H  H99  1  0.29302400  0.84920000  0.66861900  1
  H  H100  1  0.15080000  0.70697600  0.83138100  1
  H  H101  1  0.70697600  0.15080000  0.33138100  1
  H  H102  1  0.84920000  0.29302400  0.16861900  1
  H  H103  1  0.59844800  0.54938100  0.75683400  1
  H  H104  1  0.45061900  0.40155200  0.74316600  1
  H  H105  1  0.40155200  0.45061900  0.24316600  1
  H  H106  1  0.54938100  0.59844800  0.25683400  1
  H  H107  1  0.37092400  0.50848500  0.58504700  1
  H  H108  1  0.49151500  0.62907600  0.91495300  1
  H  H109  1  0.62907600  0.49151500  0.41495300  1
  H  H110  1  0.50848500  0.37092400  0.08504700  1
  H  H111  1  0.11678000  0.75488200  0.69898100  1
  H  H112  1  0.24511800  0.88322000  0.80101900  1
  H  H113  1  0.88322000  0.24511800  0.30101900  1
  H  H114  1  0.75488200  0.11678000  0.19898100  1
  H  H115  1  0.04781400  0.95607700  0.57884900  1
  H  H116  1  0.04392300  0.95218600  0.92115100  1
  H  H117  1  0.95218600  0.04392300  0.42115100  1
  H  H118  1  0.95607700  0.04781400  0.07884900  1
  H  H119  1  0.09471300  0.74725300  0.47998600  1
  H  H120  1  0.25274700  0.90528700  0.02001400  1
  H  H121  1  0.90528700  0.25274700  0.52001400  1
  H  H122  1  0.74725300  0.09471300  0.97998600  1
  H  H123  1  0.20533200  0.41473500  0.53784800  1
  H  H124  1  0.58526500  0.79466800  0.96215200  1
  H  H125  1  0.79466800  0.58526500  0.46215200  1
  H  H126  1  0.41473500  0.20533200  0.03784800  1
  H  H127  1  0.21271000  0.43019300  0.67422200  1
  H  H128  1  0.56980700  0.78729000  0.82577800  1
  H  H129  1  0.78729000  0.56980700  0.32577800  1
  H  H130  1  0.43019300  0.21271000  0.17422200  1
  H  H131  1  0.70296500  0.12578400  0.66241100  1
  H  H132  1  0.87421600  0.29703500  0.83758900  1
  H  H133  1  0.29703500  0.87421600  0.33758900  1
  H  H134  1  0.12578400  0.70296500  0.16241100  1
  H  H135  1  0.67618800  0.13440900  0.53063600  1
  H  H136  1  0.95648300  0.26136200  0.62337800  1
  H  H137  1  0.73863800  0.04351700  0.87662200  1
  H  H138  1  0.04351700  0.73863800  0.37662200  1
  H  H139  1  0.26136200  0.95648300  0.12337800  1
  H  H140  1  0.91704400  0.44902400  0.59051200  1
  H  H141  1  0.55097600  0.08295600  0.90948800  1
  H  H142  1  0.08295600  0.55097600  0.40948800  1
  H  H143  1  0.44902400  0.91704400  0.09051200  1
  H  H144  1  0.86559100  0.32381200  0.96936400  1
  H  H145  1  0.32381200  0.86559100  0.46936400  1
  H  H146  1  0.13440900  0.67618800  0.03063600  1
  H  H147  1  0.77090300  0.81100300  0.50581800  1
  H  H148  1  0.18899700  0.22909700  0.99418200  1
  H  H149  1  0.22909700  0.18899700  0.49418200  1
  H  H150  1  0.81100300  0.77090300  0.00581800  1
  H  H151  1  0.82503300  0.80848800  0.70362200  1
  H  H152  1  0.00766700  0.59321300  0.11496300  1
  H  H153  1  0.40678700  0.99233300  0.38503700  1
  H  H154  1  0.99233300  0.40678700  0.88503700  1
  H  H155  1  0.59321300  0.00766700  0.61496300  1
  H  H156  1  0.80848800  0.82503300  0.20362200  1
  H  H157  1  0.17496700  0.19151200  0.29637800  1
  H  H158  1  0.19151200  0.17496700  0.79637800  1
  H  H159  1  0.81744800  0.06143600  0.79801100  1
  C  C160  1  0.58102800  0.59561500  0.59532200  1
  C  C161  1  0.40438500  0.41897200  0.90467800  1
  C  C162  1  0.41897200  0.40438500  0.40467800  1
  C  C163  1  0.59561500  0.58102800  0.09532200  1
  C  C164  1  0.62777200  0.48845400  0.65025900  1
  C  C165  1  0.51154600  0.37222800  0.84974100  1
  C  C166  1  0.37222800  0.51154600  0.34974100  1
  C  C167  1  0.48845400  0.62777200  0.15025900  1
  C  C168  1  0.89074600  0.78641700  0.66082500  1
  C  C169  1  0.21358300  0.10925400  0.83917500  1
  C  C170  1  0.10925400  0.21358300  0.33917500  1
  C  C171  1  0.78641700  0.89074600  0.16082500  1
  C  C172  1  0.74491200  0.91218100  0.60518700  1
  C  C173  1  0.08781900  0.25508800  0.89481300  1
  C  C174  1  0.25508800  0.08781900  0.39481300  1
  C  C175  1  0.91218100  0.74491200  0.10518700  1
