# generated using pymatgen
data_La2Be2O5
_symmetry_space_group_name_H-M   'P 1'
_cell_length_a   5.29590513
_cell_length_b   5.29590513
_cell_length_c   7.45791953
_cell_angle_alpha   89.23128541
_cell_angle_beta   89.23128541
_cell_angle_gamma   88.37735835
_symmetry_Int_Tables_number   1
_chemical_formula_structural   La2Be2O5
_chemical_formula_sum   'La4 Be4 O10'
_cell_volume   209.04889166
_cell_formula_units_Z   2
loop_
 _symmetry_equiv_pos_site_id
 _symmetry_equiv_pos_as_xyz
  1  'x, y, z'
loop_
 _atom_site_type_symbol
 _atom_site_label
 _atom_site_symmetry_multiplicity
 _atom_site_fract_x
 _atom_site_fract_y
 _atom_site_fract_z
 _atom_site_occupancy
  La  La0  1  0.79981500  0.72814900  0.69403600  1
  La  La1  1  0.27185100  0.20018500  0.80596400  1
  La  La2  1  0.20018500  0.27185100  0.30596400  1
  La  La3  1  0.72814900  0.79981500  0.19403600  1
  Be  Be4  1  0.68761600  0.25202000  0.46987000  1
  Be  Be5  1  0.74798000  0.31238400  0.03013000  1
  Be  Be6  1  0.25202000  0.68761600  0.96987000  1
  Be  Be7  1  0.31238400  0.74798000  0.53013000  1
  O  O8  1  0.75296100  0.24703900  0.25000000  1
  O  O9  1  0.24703900  0.75296100  0.75000000  1
  O  O10  1  0.50000000  0.50000000  0.50000000  1
  O  O11  1  0.50000000  0.50000000  0.00000000  1
  O  O12  1  0.74383400  0.05626300  0.91599700  1
  O  O13  1  0.94373700  0.25616600  0.58400300  1
  O  O14  1  0.25616600  0.94373700  0.08400300  1
  O  O15  1  0.05626300  0.74383400  0.41599700  1
  O  O16  1  0.50000000  0.00000000  0.50000000  1
  O  O17  1  0.00000000  0.50000000  0.00000000  1
