# generated using pymatgen
data_SCl2
_symmetry_space_group_name_H-M   'P 1'
_cell_length_a   5.18133300
_cell_length_b   9.73072800
_cell_length_c   16.82401400
_cell_angle_alpha   90.00000000
_cell_angle_beta   90.00000000
_cell_angle_gamma   90.00000000
_symmetry_Int_Tables_number   1
_chemical_formula_structural   SCl2
_chemical_formula_sum   'S8 Cl16'
_cell_volume   848.23552855
_cell_formula_units_Z   8
loop_
 _symmetry_equiv_pos_site_id
 _symmetry_equiv_pos_as_xyz
  1  'x, y, z'
loop_
 _atom_site_type_symbol
 _atom_site_label
 _atom_site_symmetry_multiplicity
 _atom_site_fract_x
 _atom_site_fract_y
 _atom_site_fract_z
 _atom_site_occupancy
  S  S0  1  0.21416500  0.30098100  0.30658800  1
  S  S1  1  0.71416500  0.19901900  0.69341200  1
  S  S2  1  0.78583500  0.80098100  0.19341200  1
  S  S3  1  0.28583500  0.69901900  0.80658800  1
  S  S4  1  0.58505000  0.28973800  0.15223600  1
  S  S5  1  0.08505000  0.21026200  0.84776400  1
  S  S6  1  0.41495000  0.78973800  0.34776400  1
  S  S7  1  0.91495000  0.71026200  0.65223600  1
  Cl  Cl8  1  0.03427700  0.27680300  0.41467700  1
  Cl  Cl9  1  0.53427700  0.22319700  0.58532300  1
  Cl  Cl10  1  0.96572300  0.77680300  0.08532300  1
  Cl  Cl11  1  0.46572300  0.72319700  0.91467700  1
  Cl  Cl12  1  0.06168400  0.47936900  0.26498900  1
  Cl  Cl13  1  0.56168400  0.02063100  0.73501100  1
  Cl  Cl14  1  0.93831600  0.97936900  0.23501100  1
  Cl  Cl15  1  0.43831600  0.52063100  0.76498900  1
  Cl  Cl16  1  0.49610400  0.46507700  0.09364000  1
  Cl  Cl17  1  0.99610400  0.03492300  0.90636000  1
  Cl  Cl18  1  0.50389600  0.96507700  0.40636000  1
  Cl  Cl19  1  0.00389600  0.53492300  0.59364000  1
  Cl  Cl20  1  0.42966400  0.14027200  0.08405200  1
  Cl  Cl21  1  0.92966400  0.35972800  0.91594800  1
  Cl  Cl22  1  0.57033600  0.64027200  0.41594800  1
  Cl  Cl23  1  0.07033600  0.85972800  0.58405200  1
