# generated using pymatgen
data_Yb2O3
_symmetry_space_group_name_H-M   'P 1'
_cell_length_a   9.27624405
_cell_length_b   9.27624405
_cell_length_c   9.27624405
_cell_angle_alpha   109.47122063
_cell_angle_beta   109.47122063
_cell_angle_gamma   109.47122063
_symmetry_Int_Tables_number   1
_chemical_formula_structural   Yb2O3
_chemical_formula_sum   'Yb16 O24'
_cell_volume   614.46140208
_cell_formula_units_Z   8
loop_
 _symmetry_equiv_pos_site_id
 _symmetry_equiv_pos_as_xyz
  1  'x, y, z'
loop_
 _atom_site_type_symbol
 _atom_site_label
 _atom_site_symmetry_multiplicity
 _atom_site_fract_x
 _atom_site_fract_y
 _atom_site_fract_z
 _atom_site_occupancy
  Yb  Yb0  1  0.50000000  0.00000000  0.50000000  1
  Yb  Yb1  1  0.50000000  0.50000000  0.00000000  1
  Yb  Yb2  1  0.00000000  0.50000000  0.50000000  1
  Yb  Yb3  1  0.00000000  0.00000000  0.00000000  1
  Yb  Yb4  1  0.78077200  0.25000000  0.03077200  1
  Yb  Yb5  1  0.71922800  0.75000000  0.46922800  1
  Yb  Yb6  1  0.25000000  0.03077200  0.78077200  1
  Yb  Yb7  1  0.75000000  0.46922800  0.71922800  1
  Yb  Yb8  1  0.03077200  0.78077200  0.25000000  1
  Yb  Yb9  1  0.46922800  0.71922800  0.75000000  1
  Yb  Yb10  1  0.21922800  0.75000000  0.96922800  1
  Yb  Yb11  1  0.28077200  0.25000000  0.53077200  1
  Yb  Yb12  1  0.75000000  0.96922800  0.21922800  1
  Yb  Yb13  1  0.25000000  0.53077200  0.28077200  1
  Yb  Yb14  1  0.96922800  0.21922800  0.75000000  1
  Yb  Yb15  1  0.53077200  0.28077200  0.25000000  1
  O  O16  1  0.49405100  0.23237700  0.46393800  1
  O  O17  1  0.23156100  0.26762300  0.76167400  1
  O  O18  1  0.00594900  0.46988700  0.73832600  1
  O  O19  1  0.26843900  0.03011300  0.03606200  1
  O  O20  1  0.23237700  0.46393800  0.49405100  1
  O  O21  1  0.26762300  0.76167400  0.23156100  1
  O  O22  1  0.46988700  0.73832600  0.00594900  1
  O  O23  1  0.03011300  0.03606200  0.26843900  1
  O  O24  1  0.46393800  0.49405100  0.23237700  1
  O  O25  1  0.76167400  0.23156100  0.26762300  1
  O  O26  1  0.73832600  0.00594900  0.46988700  1
  O  O27  1  0.03606200  0.26843900  0.03011300  1
  O  O28  1  0.50594900  0.76762300  0.53606200  1
  O  O29  1  0.76843900  0.73237700  0.23832600  1
  O  O30  1  0.99405100  0.53011300  0.26167400  1
  O  O31  1  0.73156100  0.96988700  0.96393800  1
  O  O32  1  0.76762300  0.53606200  0.50594900  1
  O  O33  1  0.73237700  0.23832600  0.76843900  1
  O  O34  1  0.53011300  0.26167400  0.99405100  1
  O  O35  1  0.96988700  0.96393800  0.73156100  1
  O  O36  1  0.53606200  0.50594900  0.76762300  1
  O  O37  1  0.23832600  0.76843900  0.73237700  1
  O  O38  1  0.26167400  0.99405100  0.53011300  1
  O  O39  1  0.96393800  0.73156100  0.96988700  1
