# generated using pymatgen
data_LaNb7O19
_symmetry_space_group_name_H-M   'P 1'
_cell_length_a   6.34107608
_cell_length_b   6.34107608
_cell_length_c   20.38251000
_cell_angle_alpha   90.00000000
_cell_angle_beta   90.00000000
_cell_angle_gamma   120.00000087
_symmetry_Int_Tables_number   1
_chemical_formula_structural   LaNb7O19
_chemical_formula_sum   'La2 Nb14 O38'
_cell_volume   709.76441266
_cell_formula_units_Z   2
loop_
 _symmetry_equiv_pos_site_id
 _symmetry_equiv_pos_as_xyz
  1  'x, y, z'
loop_
 _atom_site_type_symbol
 _atom_site_label
 _atom_site_symmetry_multiplicity
 _atom_site_fract_x
 _atom_site_fract_y
 _atom_site_fract_z
 _atom_site_occupancy
  La  La0  1  0.33333300  0.66666700  0.15283400  1
  La  La1  1  0.66666700  0.33333300  0.84716600  1
  Nb  Nb2  1  0.33333300  0.66666700  0.84169300  1
  Nb  Nb3  1  0.66666700  0.33333300  0.15830700  1
  Nb  Nb4  1  0.35934900  0.00084300  0.68845800  1
  Nb  Nb5  1  0.64149400  0.64065100  0.68845800  1
  Nb  Nb6  1  0.99915700  0.35850600  0.68845800  1
  Nb  Nb7  1  0.35898500  0.00000000  0.50000000  1
  Nb  Nb8  1  0.64101500  0.64101500  0.50000000  1
  Nb  Nb9  1  0.00000000  0.35898500  0.50000000  1
  Nb  Nb10  1  0.35850600  0.99915700  0.31154200  1
  Nb  Nb11  1  0.64065100  0.64149400  0.31154200  1
  Nb  Nb12  1  0.00084300  0.35934900  0.31154200  1
  Nb  Nb13  1  0.64509400  0.00000000  0.00000000  1
  Nb  Nb14  1  0.35490600  0.35490600  0.00000000  1
  Nb  Nb15  1  0.00000000  0.64509400  0.00000000  1
  O  O16  1  0.33333300  0.66666700  0.68297800  1
  O  O17  1  0.33333300  0.66666700  0.51085400  1
  O  O18  1  0.33333300  0.66666700  0.28460500  1
  O  O19  1  0.33333300  0.66666700  0.02288000  1
  O  O20  1  0.66666700  0.33333300  0.71539500  1
  O  O21  1  0.66666700  0.33333300  0.48914600  1
  O  O22  1  0.66666700  0.33333300  0.31702200  1
  O  O23  1  0.66666700  0.33333300  0.97712000  1
  O  O24  1  0.37799800  0.94909600  0.79152800  1
  O  O25  1  0.57109900  0.62200200  0.79152800  1
  O  O26  1  0.05090400  0.42890100  0.79152800  1
  O  O27  1  0.37608600  0.96659000  0.40292600  1
  O  O28  1  0.59050400  0.62391400  0.40292600  1
  O  O29  1  0.03341000  0.40949600  0.40292600  1
  O  O30  1  0.40949600  0.03341000  0.59707400  1
  O  O31  1  0.62391400  0.59050400  0.59707400  1
  O  O32  1  0.75760300  0.75760300  0.00000000  1
  O  O33  1  0.24239700  0.00000000  0.00000000  1
  O  O34  1  0.00000000  0.24239700  0.00000000  1
  O  O35  1  0.75440300  0.00005500  0.30627600  1
  O  O36  1  0.99994500  0.75434800  0.30627600  1
  O  O37  1  0.24565200  0.24559700  0.30627600  1
  O  O38  1  0.75645600  0.00000000  0.50000000  1
  O  O39  1  0.00000000  0.75645600  0.50000000  1
  O  O40  1  0.24354400  0.24354400  0.50000000  1
  O  O41  1  0.75434800  0.99994500  0.69372400  1
  O  O42  1  0.00005500  0.75440300  0.69372400  1
  O  O43  1  0.24559700  0.24565200  0.69372400  1
  O  O44  1  0.05551500  0.61807900  0.90570900  1
  O  O45  1  0.38192100  0.43743600  0.90570900  1
  O  O46  1  0.56256400  0.94448500  0.90570900  1
  O  O47  1  0.94448500  0.56256400  0.09429100  1
  O  O48  1  0.43743600  0.38192100  0.09429100  1
  O  O49  1  0.61807900  0.05551500  0.09429100  1
  O  O50  1  0.94909600  0.37799800  0.20847200  1
  O  O51  1  0.62200200  0.57109900  0.20847200  1
  O  O52  1  0.42890100  0.05090400  0.20847200  1
  O  O53  1  0.96659000  0.37608600  0.59707400  1
