# generated using pymatgen
data_LaSe2
_symmetry_space_group_name_H-M   'P 1'
_cell_length_a   8.41530500
_cell_length_b   4.54760300
_cell_length_c   9.51204912
_cell_angle_alpha   71.87929843
_cell_angle_beta   90.00000000
_cell_angle_gamma   90.00000000
_symmetry_Int_Tables_number   1
_chemical_formula_structural   LaSe2
_chemical_formula_sum   'La4 Se8'
_cell_volume   345.96684355
_cell_formula_units_Z   4
loop_
 _symmetry_equiv_pos_site_id
 _symmetry_equiv_pos_as_xyz
  1  'x, y, z'
loop_
 _atom_site_type_symbol
 _atom_site_label
 _atom_site_symmetry_multiplicity
 _atom_site_fract_x
 _atom_site_fract_y
 _atom_site_fract_z
 _atom_site_occupancy
  La  La0  1  0.77170500  0.61916700  0.09404500  1
  La  La1  1  0.27170500  0.38083300  0.40595500  1
  La  La2  1  0.22829500  0.38083300  0.90595500  1
  La  La3  1  0.72829500  0.61916700  0.59404500  1
  Se  Se4  1  0.51230400  0.07078900  0.11663400  1
  Se  Se5  1  0.01230400  0.92921100  0.38336600  1
  Se  Se6  1  0.48769600  0.92921100  0.88336600  1
  Se  Se7  1  0.98769600  0.07078900  0.61663400  1
  Se  Se8  1  0.62576900  0.28649500  0.38903700  1
  Se  Se9  1  0.12576900  0.71350500  0.11096300  1
  Se  Se10  1  0.37423100  0.71350500  0.61096300  1
  Se  Se11  1  0.87423100  0.28649500  0.88903700  1
