# generated using pymatgen
data_ZrI2
_symmetry_space_group_name_H-M   'P 1'
_cell_length_a   9.29763931
_cell_length_b   9.29763931
_cell_length_c   9.29763915
_cell_angle_alpha   106.84701405
_cell_angle_beta   106.84701405
_cell_angle_gamma   106.84701326
_symmetry_Int_Tables_number   1
_chemical_formula_structural   ZrI2
_chemical_formula_sum   'Zr6 I12'
_cell_volume   672.14010124
_cell_formula_units_Z   6
loop_
 _symmetry_equiv_pos_site_id
 _symmetry_equiv_pos_as_xyz
  1  'x, y, z'
loop_
 _atom_site_type_symbol
 _atom_site_label
 _atom_site_symmetry_multiplicity
 _atom_site_fract_x
 _atom_site_fract_y
 _atom_site_fract_z
 _atom_site_occupancy
  Zr  Zr0  1  0.97073600  0.91059300  0.73255800  1
  Zr  Zr1  1  0.73255800  0.97073600  0.91059300  1
  Zr  Zr2  1  0.91059300  0.73255800  0.97073600  1
  Zr  Zr3  1  0.02926400  0.08940700  0.26744200  1
  Zr  Zr4  1  0.26744200  0.02926400  0.08940700  1
  Zr  Zr5  1  0.08940700  0.26744200  0.02926400  1
  I  I6  1  0.44106700  0.36688400  0.14201500  1
  I  I7  1  0.36688400  0.14201500  0.44106700  1
  I  I8  1  0.14201500  0.44106700  0.36688400  1
  I  I9  1  0.55893300  0.63311600  0.85798500  1
  I  I10  1  0.63311600  0.85798500  0.55893300  1
  I  I11  1  0.85798500  0.55893300  0.63311600  1
  I  I12  1  0.07564200  0.22277100  0.69523200  1
  I  I13  1  0.69523200  0.07564200  0.22277100  1
  I  I14  1  0.22277100  0.69523200  0.07564200  1
  I  I15  1  0.92435800  0.77722900  0.30476800  1
  I  I16  1  0.30476800  0.92435800  0.77722900  1
  I  I17  1  0.77722900  0.30476800  0.92435800  1
