# generated using pymatgen
data_CS3N4
_symmetry_space_group_name_H-M   'P 1'
_cell_length_a   9.28008700
_cell_length_b   5.67658400
_cell_length_c   12.69773842
_cell_angle_alpha   75.62823021
_cell_angle_beta   90.00000000
_cell_angle_gamma   90.00000000
_symmetry_Int_Tables_number   1
_chemical_formula_structural   CS3N4
_chemical_formula_sum   'C4 S12 N16'
_cell_volume   647.97356991
_cell_formula_units_Z   4
loop_
 _symmetry_equiv_pos_site_id
 _symmetry_equiv_pos_as_xyz
  1  'x, y, z'
loop_
 _atom_site_type_symbol
 _atom_site_label
 _atom_site_symmetry_multiplicity
 _atom_site_fract_x
 _atom_site_fract_y
 _atom_site_fract_z
 _atom_site_occupancy
  C  C0  1  0.17055200  0.39086500  0.27636300  1
  C  C1  1  0.67055200  0.60913500  0.22363700  1
  C  C2  1  0.82944800  0.60913500  0.72363700  1
  C  C3  1  0.32944800  0.39086500  0.77636300  1
  S  S4  1  0.21852200  0.65729800  0.99890200  1
  S  S5  1  0.71852200  0.34270200  0.50109800  1
  S  S6  1  0.78147800  0.34270200  0.00109800  1
  S  S7  1  0.28147800  0.65729800  0.49890200  1
  S  S8  1  0.32546100  0.94406500  0.12661000  1
  S  S9  1  0.82546100  0.05593500  0.37339000  1
  S  S10  1  0.67453900  0.05593500  0.87339000  1
  S  S11  1  0.17453900  0.94406500  0.62661000  1
  S  S12  1  0.09258000  0.81509900  0.17055500  1
  S  S13  1  0.59258000  0.18490100  0.32944500  1
  S  S14  1  0.90742000  0.18490100  0.82944500  1
  S  S15  1  0.40742000  0.81509900  0.67055500  1
  N  N16  1  0.22782100  0.20167500  0.28318600  1
  N  N17  1  0.72782100  0.79832500  0.21681400  1
  N  N18  1  0.77217900  0.79832500  0.71681400  1
  N  N19  1  0.27217900  0.20167500  0.78318600  1
  N  N20  1  0.10254600  0.59322300  0.27620300  1
  N  N21  1  0.60254600  0.40677700  0.22379700  1
  N  N22  1  0.89745400  0.40677700  0.72379700  1
  N  N23  1  0.39745400  0.59322300  0.77620300  1
  N  N24  1  0.14951200  0.78548900  0.53873200  1
  N  N25  1  0.64951200  0.21451100  0.96126800  1
  N  N26  1  0.85048800  0.21451100  0.46126800  1
  N  N27  1  0.35048800  0.78548900  0.03873200  1
  N  N28  1  0.42288200  0.71702500  0.56011600  1
  N  N29  1  0.92288200  0.28297500  0.93988400  1
  N  N30  1  0.57711800  0.28297500  0.43988400  1
  N  N31  1  0.07711800  0.71702500  0.06011600  1
