# generated using pymatgen
data_Br2O
_symmetry_space_group_name_H-M   'P 1'
_cell_length_a   4.34793200
_cell_length_b   7.08529000
_cell_length_c   10.40958000
_cell_angle_alpha   90.00000000
_cell_angle_beta   90.00000000
_cell_angle_gamma   90.00000000
_symmetry_Int_Tables_number   1
_chemical_formula_structural   Br2O
_chemical_formula_sum   'Br8 O4'
_cell_volume   320.68125977
_cell_formula_units_Z   4
loop_
 _symmetry_equiv_pos_site_id
 _symmetry_equiv_pos_as_xyz
  1  'x, y, z'
loop_
 _atom_site_type_symbol
 _atom_site_label
 _atom_site_symmetry_multiplicity
 _atom_site_fract_x
 _atom_site_fract_y
 _atom_site_fract_z
 _atom_site_occupancy
  Br  Br0  1  0.62252600  0.32190200  0.50704000  1
  Br  Br1  1  0.37747400  0.82190200  0.49296000  1
  Br  Br2  1  0.87747400  0.32190200  0.00704000  1
  Br  Br3  1  0.12252600  0.82190200  0.99296000  1
  Br  Br4  1  0.07190500  0.50311000  0.21579900  1
  Br  Br5  1  0.92809500  0.00311000  0.78420100  1
  Br  Br6  1  0.42809500  0.50311000  0.71579900  1
  Br  Br7  1  0.57190500  0.00311000  0.28420100  1
  O  O8  1  0.30768200  0.69688800  0.14479100  1
  O  O9  1  0.69231800  0.19688800  0.85520900  1
  O  O10  1  0.19231800  0.69688800  0.64479100  1
  O  O11  1  0.80768200  0.19688800  0.35520900  1
