# generated using pymatgen
data_TlMo6O17
_symmetry_space_group_name_H-M   'P 1'
_cell_length_a   5.63087766
_cell_length_b   5.63087766
_cell_length_c   14.39830400
_cell_angle_alpha   90.00000000
_cell_angle_beta   90.00000000
_cell_angle_gamma   119.99999599
_symmetry_Int_Tables_number   1
_chemical_formula_structural   TlMo6O17
_chemical_formula_sum   'Tl1 Mo6 O17'
_cell_volume   395.36131386
_cell_formula_units_Z   1
loop_
 _symmetry_equiv_pos_site_id
 _symmetry_equiv_pos_as_xyz
  1  'x, y, z'
loop_
 _atom_site_type_symbol
 _atom_site_label
 _atom_site_symmetry_multiplicity
 _atom_site_fract_x
 _atom_site_fract_y
 _atom_site_fract_z
 _atom_site_occupancy
  Tl  Tl0  1  0.00000000  0.00000000  0.50000000  1
  Mo  Mo1  1  0.00000000  0.00000000  0.78739800  1
  Mo  Mo2  1  0.00000000  0.00000000  0.21260200  1
  Mo  Mo3  1  0.66666700  0.33333300  0.06898400  1
  Mo  Mo4  1  0.33333300  0.66666700  0.93101600  1
  Mo  Mo5  1  0.66666700  0.33333300  0.64472500  1
  Mo  Mo6  1  0.33333300  0.66666700  0.35527500  1
  O  O7  1  0.50000000  0.50000000  0.00000000  1
  O  O8  1  0.00000000  0.50000000  0.00000000  1
  O  O9  1  0.50000000  0.00000000  0.00000000  1
  O  O10  1  0.66666700  0.33333300  0.52278400  1
  O  O11  1  0.33333300  0.66666700  0.47721600  1
  O  O12  1  0.83618000  0.16382000  0.15257400  1
  O  O13  1  0.83618000  0.67235900  0.15257400  1
  O  O14  1  0.15816300  0.84183700  0.31502400  1
  O  O15  1  0.15816300  0.31632600  0.31502400  1
  O  O16  1  0.68367400  0.84183700  0.31502400  1
  O  O17  1  0.31632600  0.15816300  0.68497600  1
  O  O18  1  0.84183700  0.68367400  0.68497600  1
  O  O19  1  0.84183700  0.15816300  0.68497600  1
  O  O20  1  0.16382000  0.83618000  0.84742600  1
  O  O21  1  0.16382000  0.32764100  0.84742600  1
  O  O22  1  0.67235900  0.83618000  0.84742600  1
  O  O23  1  0.32764100  0.16382000  0.15257400  1
