# generated using pymatgen
data_Zr3SO9
_symmetry_space_group_name_H-M   'P 1'
_cell_length_a   6.43949006
_cell_length_b   6.43949006
_cell_length_c   9.91205300
_cell_angle_alpha   90.00000000
_cell_angle_beta   90.00000000
_cell_angle_gamma   120.00000065
_symmetry_Int_Tables_number   1
_chemical_formula_structural   Zr3SO9
_chemical_formula_sum   'Zr6 S2 O18'
_cell_volume   355.95672235
_cell_formula_units_Z   2
loop_
 _symmetry_equiv_pos_site_id
 _symmetry_equiv_pos_as_xyz
  1  'x, y, z'
loop_
 _atom_site_type_symbol
 _atom_site_label
 _atom_site_symmetry_multiplicity
 _atom_site_fract_x
 _atom_site_fract_y
 _atom_site_fract_z
 _atom_site_occupancy
  Zr  Zr0  1  0.69947200  0.66656800  0.35514500  1
  Zr  Zr1  1  0.96709600  0.30052800  0.35514500  1
  Zr  Zr2  1  0.33343200  0.03290400  0.35514500  1
  Zr  Zr3  1  0.30052800  0.33343200  0.64485500  1
  Zr  Zr4  1  0.03290400  0.69947200  0.64485500  1
  Zr  Zr5  1  0.66656800  0.96709600  0.64485500  1
  S  S6  1  0.33333300  0.66666700  0.15769600  1
  S  S7  1  0.66666700  0.33333300  0.84230400  1
  O  O8  1  0.11271100  0.43984400  0.12548200  1
  O  O9  1  0.32713300  0.88728900  0.12548200  1
  O  O10  1  0.56015600  0.67286700  0.12548200  1
  O  O11  1  0.88728900  0.56015600  0.87451800  1
  O  O12  1  0.67286700  0.11271100  0.87451800  1
  O  O13  1  0.43984400  0.32713300  0.87451800  1
  O  O14  1  0.33223200  0.33382300  0.43057700  1
  O  O15  1  0.00159200  0.66776800  0.43057700  1
  O  O16  1  0.00000000  0.00000000  0.71156700  1
  O  O17  1  0.00000000  0.00000000  0.28843300  1
  O  O18  1  0.66666700  0.33333300  0.68529900  1
  O  O19  1  0.33333300  0.66666700  0.31470100  1
  O  O20  1  0.33333300  0.66666700  0.71277800  1
  O  O21  1  0.66666700  0.33333300  0.28722200  1
  O  O22  1  0.33382300  0.00159200  0.56942300  1
  O  O23  1  0.99840800  0.33223200  0.56942300  1
  O  O24  1  0.66776800  0.66617700  0.56942300  1
  O  O25  1  0.66617700  0.99840800  0.43057700  1
