# generated using pymatgen
data_SrTiS3
_symmetry_space_group_name_H-M   'P 1'
_cell_length_a   6.62238779
_cell_length_b   6.62238779
_cell_length_c   5.81236800
_cell_angle_alpha   90.00000000
_cell_angle_beta   90.00000000
_cell_angle_gamma   119.99999791
_symmetry_Int_Tables_number   1
_chemical_formula_structural   SrTiS3
_chemical_formula_sum   'Sr2 Ti2 S6'
_cell_volume   220.75622592
_cell_formula_units_Z   2
loop_
 _symmetry_equiv_pos_site_id
 _symmetry_equiv_pos_as_xyz
  1  'x, y, z'
loop_
 _atom_site_type_symbol
 _atom_site_label
 _atom_site_symmetry_multiplicity
 _atom_site_fract_x
 _atom_site_fract_y
 _atom_site_fract_z
 _atom_site_occupancy
  Sr  Sr0  1  0.33333300  0.66666700  0.75000000  1
  Sr  Sr1  1  0.66666700  0.33333300  0.25000000  1
  Ti  Ti2  1  0.00000000  0.00000000  0.50000000  1
  Ti  Ti3  1  0.00000000  0.00000000  0.00000000  1
  S  S4  1  0.16966700  0.83033300  0.25000000  1
  S  S5  1  0.16966700  0.33933300  0.25000000  1
  S  S6  1  0.66066700  0.83033300  0.25000000  1
  S  S7  1  0.83033300  0.16966700  0.75000000  1
  S  S8  1  0.83033300  0.66066700  0.75000000  1
  S  S9  1  0.33933300  0.16966700  0.75000000  1
