# generated using pymatgen
data_SrHgO2
_symmetry_space_group_name_H-M   'P 1'
_cell_length_a   3.89983500
_cell_length_b   3.89983459
_cell_length_c   19.24411100
_cell_angle_alpha   90.00000000
_cell_angle_beta   90.00000000
_cell_angle_gamma   119.99999496
_symmetry_Int_Tables_number   1
_chemical_formula_structural   SrHgO2
_chemical_formula_sum   'Sr3 Hg3 O6'
_cell_volume   253.46670958
_cell_formula_units_Z   3
loop_
 _symmetry_equiv_pos_site_id
 _symmetry_equiv_pos_as_xyz
  1  'x, y, z'
loop_
 _atom_site_type_symbol
 _atom_site_label
 _atom_site_symmetry_multiplicity
 _atom_site_fract_x
 _atom_site_fract_y
 _atom_site_fract_z
 _atom_site_occupancy
  Sr  Sr0  1  0.32887500  0.00000000  0.16666700  1
  Sr  Sr1  1  0.00000000  0.32887500  0.83333300  1
  Sr  Sr2  1  0.67112500  0.67112500  0.50000000  1
  Hg  Hg3  1  0.66407500  0.66407500  0.00000000  1
  Hg  Hg4  1  0.00000000  0.33592500  0.33333300  1
  Hg  Hg5  1  0.33592500  0.00000000  0.66666700  1
  O  O6  1  0.66589300  0.66157700  0.89601400  1
  O  O7  1  0.33842300  0.00431600  0.56268000  1
  O  O8  1  0.99568400  0.33410700  0.22934700  1
  O  O9  1  0.00431600  0.33842300  0.43732000  1
  O  O10  1  0.66157700  0.66589300  0.10398600  1
  O  O11  1  0.33410700  0.99568400  0.77065300  1
