# generated using pymatgen
data_Fe2Pb3F12
_symmetry_space_group_name_H-M   'P 1'
_cell_length_a   7.53798500
_cell_length_b   7.81274816
_cell_length_c   10.04000433
_cell_angle_alpha   110.16625876
_cell_angle_beta   107.96367137
_cell_angle_gamma   96.47284428
_symmetry_Int_Tables_number   1
_chemical_formula_structural   Fe2Pb3F12
_chemical_formula_sum   'Fe4 Pb6 F24'
_cell_volume   511.84149671
_cell_formula_units_Z   2
loop_
 _symmetry_equiv_pos_site_id
 _symmetry_equiv_pos_as_xyz
  1  'x, y, z'
loop_
 _atom_site_type_symbol
 _atom_site_label
 _atom_site_symmetry_multiplicity
 _atom_site_fract_x
 _atom_site_fract_y
 _atom_site_fract_z
 _atom_site_occupancy
  Fe  Fe0  1  0.67303000  0.73536000  0.43452800  1
  Fe  Fe1  1  0.32697000  0.26464000  0.56547200  1
  Fe  Fe2  1  0.01098700  0.20538200  0.79033900  1
  Fe  Fe3  1  0.98901300  0.79461800  0.20966100  1
  Pb  Pb4  1  0.59474700  0.23127500  0.96920000  1
  Pb  Pb5  1  0.40525300  0.76872500  0.03080000  1
  Pb  Pb6  1  0.23510700  0.78087000  0.61848200  1
  Pb  Pb7  1  0.76489300  0.21913000  0.38151800  1
  Pb  Pb8  1  0.81059200  0.66869300  0.79735400  1
  Pb  Pb9  1  0.18940800  0.33130700  0.20264600  1
  F  F10  1  0.85926500  0.31845800  0.20383500  1
  F  F11  1  0.14073500  0.68154200  0.79616500  1
  F  F12  1  0.51604700  0.88829600  0.85938900  1
  F  F13  1  0.48395300  0.11170400  0.14061100  1
  F  F14  1  0.56741800  0.89770100  0.34136200  1
  F  F15  1  0.43258200  0.10229900  0.65863800  1
  F  F16  1  0.82164000  0.58400300  0.53076100  1
  F  F17  1  0.17836000  0.41599700  0.46923900  1
  F  F18  1  0.48738700  0.28956500  0.45404800  1
  F  F19  1  0.51261300  0.71043500  0.54595200  1
  F  F20  1  0.10755100  0.84892600  0.07577500  1
  F  F21  1  0.89244900  0.15107400  0.92422500  1
  F  F22  1  0.19207000  0.41834400  0.96942700  1
  F  F23  1  0.80793000  0.58165600  0.03057300  1
  F  F24  1  0.20221800  0.06475400  0.83258000  1
  F  F25  1  0.79778200  0.93524600  0.16742000  1
  F  F26  1  0.16892100  0.64902400  0.26799900  1
  F  F27  1  0.83107900  0.35097600  0.73200100  1
  F  F28  1  0.15855900  0.03708500  0.37649300  1
  F  F29  1  0.84144100  0.96291500  0.62350700  1
  F  F30  1  0.10766700  0.24180400  0.63665000  1
  F  F31  1  0.89233300  0.75819600  0.36335000  1
  F  F32  1  0.47655100  0.48520400  0.74775700  1
  F  F33  1  0.52344900  0.51479600  0.25224300  1
