# generated using pymatgen
data_Ta7Cu3O19
_symmetry_space_group_name_H-M   'P 1'
_cell_length_a   6.28571623
_cell_length_b   6.28571623
_cell_length_c   20.43969900
_cell_angle_alpha   90.00000000
_cell_angle_beta   90.00000000
_cell_angle_gamma   120.00000240
_symmetry_Int_Tables_number   1
_chemical_formula_structural   Ta7Cu3O19
_chemical_formula_sum   'Ta14 Cu6 O38'
_cell_volume   699.38233467
_cell_formula_units_Z   2
loop_
 _symmetry_equiv_pos_site_id
 _symmetry_equiv_pos_as_xyz
  1  'x, y, z'
loop_
 _atom_site_type_symbol
 _atom_site_label
 _atom_site_symmetry_multiplicity
 _atom_site_fract_x
 _atom_site_fract_y
 _atom_site_fract_z
 _atom_site_occupancy
  Ta  Ta0  1  0.69352600  0.02865800  0.34334100  1
  Ta  Ta1  1  0.66486700  0.69352600  0.84334100  1
  Ta  Ta2  1  0.02865800  0.33513300  0.84334100  1
  Ta  Ta3  1  0.97134200  0.66486700  0.34334100  1
  Ta  Ta4  1  0.33513300  0.30647400  0.34334100  1
  Ta  Ta5  1  0.30647400  0.97134200  0.84334100  1
  Ta  Ta6  1  0.30647400  0.97134200  0.65665900  1
  Ta  Ta7  1  0.33513300  0.30647400  0.15665900  1
  Ta  Ta8  1  0.97134200  0.66486700  0.15665900  1
  Ta  Ta9  1  0.02865800  0.33513300  0.65665900  1
  Ta  Ta10  1  0.66486700  0.69352600  0.65665900  1
  Ta  Ta11  1  0.69352600  0.02865800  0.15665900  1
  Ta  Ta12  1  0.00000000  0.00000000  0.50000000  1
  Ta  Ta13  1  0.00000000  0.00000000  0.00000000  1
  Cu  Cu14  1  0.50000000  0.00000000  0.50000000  1
  Cu  Cu15  1  0.50000000  0.50000000  0.00000000  1
  Cu  Cu16  1  0.00000000  0.50000000  0.00000000  1
  Cu  Cu17  1  0.00000000  0.50000000  0.50000000  1
  Cu  Cu18  1  0.50000000  0.50000000  0.50000000  1
  Cu  Cu19  1  0.50000000  0.00000000  0.00000000  1
  O  O20  1  0.29078500  0.93030900  0.75000000  1
  O  O21  1  0.36047600  0.29078500  0.25000000  1
  O  O22  1  0.93030900  0.63952400  0.25000000  1
  O  O23  1  0.06969100  0.36047600  0.75000000  1
  O  O24  1  0.63952400  0.70921500  0.75000000  1
  O  O25  1  0.70921500  0.06969100  0.25000000  1
  O  O26  1  0.00000000  0.00000000  0.33742900  1
  O  O27  1  0.00000000  0.00000000  0.83742900  1
  O  O28  1  0.00000000  0.00000000  0.66257100  1
  O  O29  1  0.00000000  0.00000000  0.16257100  1
  O  O30  1  0.33413300  0.91403400  0.34578400  1
  O  O31  1  0.42010000  0.33413300  0.84578400  1
  O  O32  1  0.91403400  0.57990000  0.84578400  1
  O  O33  1  0.08596600  0.42010000  0.34578400  1
  O  O34  1  0.57990000  0.66586700  0.34578400  1
  O  O35  1  0.66586700  0.08596600  0.84578400  1
  O  O36  1  0.66586700  0.08596600  0.65421600  1
  O  O37  1  0.57990000  0.66586700  0.15421600  1
  O  O38  1  0.08596600  0.42010000  0.15421600  1
  O  O39  1  0.91403400  0.57990000  0.65421600  1
  O  O40  1  0.75122400  0.02801000  0.05649300  1
  O  O41  1  0.72321400  0.75122400  0.55649300  1
  O  O42  1  0.02801000  0.27678600  0.55649300  1
  O  O43  1  0.97199000  0.72321400  0.05649300  1
  O  O44  1  0.27678600  0.24877600  0.05649300  1
  O  O45  1  0.24877600  0.97199000  0.55649300  1
  O  O46  1  0.24877600  0.97199000  0.94350700  1
  O  O47  1  0.27678600  0.24877600  0.44350700  1
  O  O48  1  0.97199000  0.72321400  0.44350700  1
  O  O49  1  0.02801000  0.27678600  0.94350700  1
  O  O50  1  0.72321400  0.75122400  0.94350700  1
  O  O51  1  0.75122400  0.02801000  0.44350700  1
  O  O52  1  0.66666700  0.33333300  0.13864000  1
  O  O53  1  0.33333300  0.66666700  0.63864000  1
  O  O54  1  0.33333300  0.66666700  0.86136000  1
  O  O55  1  0.66666700  0.33333300  0.36136000  1
  O  O56  1  0.33413300  0.91403400  0.15421600  1
  O  O57  1  0.42010000  0.33413300  0.65421600  1
