# generated using pymatgen
data_Pr4RuI5
_symmetry_space_group_name_H-M   'P 1'
_cell_length_a   10.13596698
_cell_length_b   10.13596698
_cell_length_c   9.39585604
_cell_angle_alpha   76.49655525
_cell_angle_beta   76.49655525
_cell_angle_gamma   24.63980637
_symmetry_Int_Tables_number   1
_chemical_formula_structural   Pr4RuI5
_chemical_formula_sum   'Pr4 Ru1 I5'
_cell_volume   390.78568508
_cell_formula_units_Z   1
loop_
 _symmetry_equiv_pos_site_id
 _symmetry_equiv_pos_as_xyz
  1  'x, y, z'
loop_
 _atom_site_type_symbol
 _atom_site_label
 _atom_site_symmetry_multiplicity
 _atom_site_fract_x
 _atom_site_fract_y
 _atom_site_fract_z
 _atom_site_occupancy
  Pr  Pr0  1  0.35987100  0.35987100  0.07284900  1
  Pr  Pr1  1  0.64012900  0.64012900  0.92715100  1
  Pr  Pr2  1  0.00098500  0.00098500  0.78875100  1
  Pr  Pr3  1  0.99901500  0.99901500  0.21124900  1
  Ru  Ru4  1  0.50000000  0.50000000  0.00000000  1
  I  I5  1  0.50000000  0.50000000  0.50000000  1
  I  I6  1  0.17226100  0.17226100  0.16786700  1
  I  I7  1  0.82773900  0.82773900  0.83213300  1
  I  I8  1  0.83041000  0.83041000  0.33947900  1
  I  I9  1  0.16959000  0.16959000  0.66052100  1
