# generated using pymatgen
data_CuBr4(NO)2
_symmetry_space_group_name_H-M   'P 1'
_cell_length_a   6.82971733
_cell_length_b   6.82971733
_cell_length_c   6.82971733
_cell_angle_alpha   109.49929132
_cell_angle_beta   109.49929132
_cell_angle_gamma   109.41509384
_symmetry_Int_Tables_number   1
_chemical_formula_structural   CuBr4(NO)2
_chemical_formula_sum   'Cu1 Br4 N2 O2'
_cell_volume   245.23699453
_cell_formula_units_Z   1
loop_
 _symmetry_equiv_pos_site_id
 _symmetry_equiv_pos_as_xyz
  1  'x, y, z'
loop_
 _atom_site_type_symbol
 _atom_site_label
 _atom_site_symmetry_multiplicity
 _atom_site_fract_x
 _atom_site_fract_y
 _atom_site_fract_z
 _atom_site_occupancy
  Cu  Cu0  1  0.00000000  0.00000000  0.00000000  1
  Br  Br1  1  0.20604700  0.79395300  0.00000000  1
  Br  Br2  1  0.79395300  0.20604700  0.00000000  1
  Br  Br3  1  0.20604700  0.20604700  0.41209500  1
  Br  Br4  1  0.79395300  0.79395300  0.58790500  1
  N  N5  1  0.75000000  0.25000000  0.50000000  1
  N  N6  1  0.25000000  0.75000000  0.50000000  1
  O  O7  1  0.57811400  0.57811400  0.00000000  1
  O  O8  1  0.42188600  0.42188600  0.00000000  1
