# generated using pymatgen
data_Ba7Ir6O19
_symmetry_space_group_name_H-M   'P 1'
_cell_length_a   8.06173539
_cell_length_b   8.06173539
_cell_length_c   11.19623560
_cell_angle_alpha   81.61352348
_cell_angle_beta   81.61352348
_cell_angle_gamma   42.38151333
_symmetry_Int_Tables_number   1
_chemical_formula_structural   Ba7Ir6O19
_chemical_formula_sum   'Ba7 Ir6 O19'
_cell_volume   484.45200635
_cell_formula_units_Z   1
loop_
 _symmetry_equiv_pos_site_id
 _symmetry_equiv_pos_as_xyz
  1  'x, y, z'
loop_
 _atom_site_type_symbol
 _atom_site_label
 _atom_site_symmetry_multiplicity
 _atom_site_fract_x
 _atom_site_fract_y
 _atom_site_fract_z
 _atom_site_occupancy
  Ba  Ba0  1  0.50000000  0.50000000  0.50000000  1
  Ba  Ba1  1  0.85557400  0.85557400  0.94525200  1
  Ba  Ba2  1  0.14442600  0.14442600  0.05474800  1
  Ba  Ba3  1  0.57387700  0.57387700  0.83750300  1
  Ba  Ba4  1  0.42612300  0.42612300  0.16249700  1
  Ba  Ba5  1  0.80477600  0.80477600  0.58977700  1
  Ba  Ba6  1  0.19522400  0.19522400  0.41022300  1
  Ir  Ir7  1  0.18323000  0.18323000  0.73449100  1
  Ir  Ir8  1  0.81677000  0.81677000  0.26550900  1
  Ir  Ir9  1  0.34535200  0.34535200  0.78152800  1
  Ir  Ir10  1  0.65464800  0.65464800  0.21847200  1
  Ir  Ir11  1  0.02338900  0.02338900  0.67734500  1
  Ir  Ir12  1  0.97661100  0.97661100  0.32265500  1
  O  O13  1  0.00000000  0.00000000  0.50000000  1
  O  O14  1  0.70210900  0.70210900  0.38654200  1
  O  O15  1  0.29789100  0.29789100  0.61345800  1
  O  O16  1  0.05775500  0.05775500  0.84952700  1
  O  O17  1  0.94224500  0.94224500  0.15047300  1
  O  O18  1  0.39756200  0.39756200  0.93564200  1
  O  O19  1  0.60243800  0.60243800  0.06435800  1
  O  O20  1  0.82216500  0.32012600  0.29385200  1
  O  O21  1  0.67987400  0.17783500  0.70614800  1
  O  O22  1  0.17783500  0.67987400  0.70614800  1
  O  O23  1  0.32012600  0.82216500  0.29385200  1
  O  O24  1  0.52700700  0.98526900  0.16309100  1
  O  O25  1  0.01473100  0.47299300  0.83690900  1
  O  O26  1  0.64207600  0.10742500  0.36735100  1
  O  O27  1  0.89257500  0.35792400  0.63264900  1
  O  O28  1  0.35792400  0.89257500  0.63264900  1
  O  O29  1  0.10742500  0.64207600  0.36735100  1
  O  O30  1  0.98526900  0.52700700  0.16309100  1
  O  O31  1  0.47299300  0.01473100  0.83690900  1
