# generated using pymatgen
data_In3SnI5
_symmetry_space_group_name_H-M   'P 1'
_cell_length_a   9.08662915
_cell_length_b   9.08662915
_cell_length_c   17.83981326
_cell_angle_alpha   82.53458072
_cell_angle_beta   82.53458072
_cell_angle_gamma   90.20803250
_symmetry_Int_Tables_number   1
_chemical_formula_structural   In3SnI5
_chemical_formula_sum   'In12 Sn4 I20'
_cell_volume   1447.79592711
_cell_formula_units_Z   4
loop_
 _symmetry_equiv_pos_site_id
 _symmetry_equiv_pos_as_xyz
  1  'x, y, z'
loop_
 _atom_site_type_symbol
 _atom_site_label
 _atom_site_symmetry_multiplicity
 _atom_site_fract_x
 _atom_site_fract_y
 _atom_site_fract_z
 _atom_site_occupancy
  In  In0  1  0.96080200  0.03919800  0.75000000  1
  In  In1  1  0.03919800  0.96080200  0.25000000  1
  In  In2  1  0.74405100  0.53360700  0.74890700  1
  In  In3  1  0.46639300  0.25594900  0.75109300  1
  In  In4  1  0.25594900  0.46639300  0.25109300  1
  In  In5  1  0.53360700  0.74405100  0.24890700  1
  In  In6  1  0.24440200  0.75559800  0.75000000  1
  In  In7  1  0.75559800  0.24440200  0.25000000  1
  In  In8  1  0.20548300  0.44375800  0.52731200  1
  In  In9  1  0.55624200  0.79451700  0.97268800  1
  In  In10  1  0.79451700  0.55624200  0.47268800  1
  In  In11  1  0.44375800  0.20548300  0.02731200  1
  Sn  Sn12  1  0.65385700  0.94053500  0.58586000  1
  Sn  Sn13  1  0.05946500  0.34614300  0.91414000  1
  Sn  Sn14  1  0.34614300  0.05946500  0.41414000  1
  Sn  Sn15  1  0.94053500  0.65385700  0.08586000  1
  I  I16  1  0.80370200  0.24863700  0.61340100  1
  I  I17  1  0.75136300  0.19629800  0.88659900  1
  I  I18  1  0.19629800  0.75136300  0.38659900  1
  I  I19  1  0.24863700  0.80370200  0.11340100  1
  I  I20  1  0.59577700  0.89212900  0.76146400  1
  I  I21  1  0.10787100  0.40422300  0.73853600  1
  I  I22  1  0.40422300  0.10787100  0.23853600  1
  I  I23  1  0.89212900  0.59577700  0.26146400  1
  I  I24  1  0.94272400  0.76418200  0.60529400  1
  I  I25  1  0.23581800  0.05727600  0.89470600  1
  I  I26  1  0.05727600  0.23581800  0.39470600  1
  I  I27  1  0.76418200  0.94272400  0.10529400  1
  I  I28  1  0.32209400  0.09326800  0.60361100  1
  I  I29  1  0.90673200  0.67790600  0.89638900  1
  I  I30  1  0.67790600  0.90673200  0.39638900  1
  I  I31  1  0.09326800  0.32209400  0.10361100  1
  I  I32  1  0.48491800  0.62370500  0.60292100  1
  I  I33  1  0.37629500  0.51508200  0.89707900  1
  I  I34  1  0.51508200  0.37629500  0.39707900  1
  I  I35  1  0.62370500  0.48491800  0.10292100  1
