# generated using pymatgen
data_CrS2
_symmetry_space_group_name_H-M   'P 1'
_cell_length_a   3.31264747
_cell_length_b   3.31264691
_cell_length_c   21.44146744
_cell_angle_alpha   94.73582232
_cell_angle_beta   90.28541895
_cell_angle_gamma   60.14186538
_symmetry_Int_Tables_number   1
_chemical_formula_structural   CrS2
_chemical_formula_sum   'Cr2 S4'
_cell_volume   203.18409621
_cell_formula_units_Z   2
loop_
 _symmetry_equiv_pos_site_id
 _symmetry_equiv_pos_as_xyz
  1  'x, y, z'
loop_
 _atom_site_type_symbol
 _atom_site_label
 _atom_site_symmetry_multiplicity
 _atom_site_fract_x
 _atom_site_fract_y
 _atom_site_fract_z
 _atom_site_occupancy
  Cr  Cr0  1  0.00000000  0.00000000  0.00000000  1
  Cr  Cr1  1  0.00000000  0.50000000  0.50000000  1
  S  S2  1  0.31346200  0.37739700  0.06393500  1
  S  S3  1  0.31344300  0.87745000  0.56400700  1
  S  S4  1  0.68655700  0.12255000  0.43599300  1
  S  S5  1  0.68653800  0.62260300  0.93606500  1
