# generated using pymatgen
data_Ba(NiP2)2
_symmetry_space_group_name_H-M   'P 1'
_cell_length_a   5.47599132
_cell_length_b   5.47599132
_cell_length_c   5.47599132
_cell_angle_alpha   106.17626229
_cell_angle_beta   106.17626229
_cell_angle_gamma   116.28353415
_symmetry_Int_Tables_number   1
_chemical_formula_structural   Ba(NiP2)2
_chemical_formula_sum   'Ba1 Ni2 P4'
_cell_volume   125.05001347
_cell_formula_units_Z   1
loop_
 _symmetry_equiv_pos_site_id
 _symmetry_equiv_pos_as_xyz
  1  'x, y, z'
loop_
 _atom_site_type_symbol
 _atom_site_label
 _atom_site_symmetry_multiplicity
 _atom_site_fract_x
 _atom_site_fract_y
 _atom_site_fract_z
 _atom_site_occupancy
  Ba  Ba0  1  0.00000000  0.00000000  0.00000000  1
  Ni  Ni1  1  0.75000000  0.25000000  0.50000000  1
  Ni  Ni2  1  0.25000000  0.75000000  0.50000000  1
  P  P3  1  0.50000000  0.74194200  0.24194200  1
  P  P4  1  0.74194200  0.50000000  0.24194200  1
  P  P5  1  0.25805800  0.50000000  0.75805800  1
  P  P6  1  0.50000000  0.25805800  0.75805800  1
