# generated using pymatgen
data_KO2F
_symmetry_space_group_name_H-M   'P 1'
_cell_length_a   3.48086400
_cell_length_b   3.97991300
_cell_length_c   9.70194700
_cell_angle_alpha   90.00000000
_cell_angle_beta   90.00000000
_cell_angle_gamma   90.00000000
_symmetry_Int_Tables_number   1
_chemical_formula_structural   KO2F
_chemical_formula_sum   'K2 O4 F2'
_cell_volume   134.40627092
_cell_formula_units_Z   2
loop_
 _symmetry_equiv_pos_site_id
 _symmetry_equiv_pos_as_xyz
  1  'x, y, z'
loop_
 _atom_site_type_symbol
 _atom_site_label
 _atom_site_symmetry_multiplicity
 _atom_site_fract_x
 _atom_site_fract_y
 _atom_site_fract_z
 _atom_site_occupancy
  K  K0  1  0.50000000  0.59624600  0.56526000  1
  K  K1  1  0.50000000  0.40375400  0.06526000  1
  O  O2  1  0.50000000  0.86735600  0.29443500  1
  O  O3  1  0.50000000  0.13264400  0.79443500  1
  O  O4  1  0.00000000  0.81427300  0.82709300  1
  O  O5  1  0.00000000  0.18572700  0.32709300  1
  F  F6  1  0.00000000  0.09267400  0.54021100  1
  F  F7  1  0.00000000  0.90732600  0.04021100  1
