# generated using pymatgen
data_HfAg2S3
_symmetry_space_group_name_H-M   'P 1'
_cell_length_a   6.69093844
_cell_length_b   6.69093844
_cell_length_c   12.77342400
_cell_angle_alpha   90.00000000
_cell_angle_beta   90.00000000
_cell_angle_gamma   119.86874818
_symmetry_Int_Tables_number   1
_chemical_formula_structural   HfAg2S3
_chemical_formula_sum   'Hf4 Ag8 S12'
_cell_volume   495.88948474
_cell_formula_units_Z   4
loop_
 _symmetry_equiv_pos_site_id
 _symmetry_equiv_pos_as_xyz
  1  'x, y, z'
loop_
 _atom_site_type_symbol
 _atom_site_label
 _atom_site_symmetry_multiplicity
 _atom_site_fract_x
 _atom_site_fract_y
 _atom_site_fract_z
 _atom_site_occupancy
  Hf  Hf0  1  0.33778400  0.66221600  0.50000000  1
  Hf  Hf1  1  0.16221600  0.83778400  0.00000000  1
  Hf  Hf2  1  0.66221600  0.33778400  0.50000000  1
  Hf  Hf3  1  0.83778400  0.16221600  0.00000000  1
  Ag  Ag4  1  0.85198700  0.35198700  0.75000000  1
  Ag  Ag5  1  0.47514000  0.47514000  0.18024300  1
  Ag  Ag6  1  0.52486000  0.52486000  0.81975700  1
  Ag  Ag7  1  0.97514000  0.97514000  0.31975700  1
  Ag  Ag8  1  0.14801300  0.64801300  0.25000000  1
  Ag  Ag9  1  0.35198700  0.85198700  0.75000000  1
  Ag  Ag10  1  0.64801300  0.14801300  0.25000000  1
  Ag  Ag11  1  0.02486000  0.02486000  0.68024300  1
  S  S12  1  0.61053900  0.61053900  0.37648100  1
  S  S13  1  0.88946100  0.88946100  0.87648100  1
  S  S14  1  0.11053900  0.11053900  0.12351900  1
  S  S15  1  0.38946100  0.38946100  0.62351900  1
  S  S16  1  0.49789700  0.84649800  0.10279000  1
  S  S17  1  0.00210300  0.65350200  0.60279000  1
  S  S18  1  0.34649800  0.99789700  0.39721000  1
  S  S19  1  0.15350200  0.50210300  0.89721000  1
  S  S20  1  0.50210300  0.15350200  0.89721000  1
  S  S21  1  0.84649800  0.49789700  0.10279000  1
  S  S22  1  0.65350200  0.00210300  0.60279000  1
  S  S23  1  0.99789700  0.34649800  0.39721000  1
