# generated using pymatgen
data_BaV3O8
_symmetry_space_group_name_H-M   'P 1'
_cell_length_a   5.63825400
_cell_length_b   7.60836600
_cell_length_c   8.38565679
_cell_angle_alpha   72.60514420
_cell_angle_beta   90.00000000
_cell_angle_gamma   90.00000000
_symmetry_Int_Tables_number   1
_chemical_formula_structural   BaV3O8
_chemical_formula_sum   'Ba2 V6 O16'
_cell_volume   343.27573103
_cell_formula_units_Z   2
loop_
 _symmetry_equiv_pos_site_id
 _symmetry_equiv_pos_as_xyz
  1  'x, y, z'
loop_
 _atom_site_type_symbol
 _atom_site_label
 _atom_site_symmetry_multiplicity
 _atom_site_fract_x
 _atom_site_fract_y
 _atom_site_fract_z
 _atom_site_occupancy
  Ba  Ba0  1  0.25000000  0.78427700  0.89816700  1
  Ba  Ba1  1  0.75000000  0.21572300  0.10183300  1
  V  V2  1  0.75000000  0.06937700  0.63890200  1
  V  V3  1  0.25000000  0.41453300  0.31822100  1
  V  V4  1  0.25000000  0.29505800  0.77809500  1
  V  V5  1  0.75000000  0.58546700  0.68177900  1
  V  V6  1  0.75000000  0.70494200  0.22190500  1
  V  V7  1  0.25000000  0.93062300  0.36109800  1
  O  O8  1  0.50299000  0.47683000  0.79867400  1
  O  O9  1  0.99701000  0.47683000  0.79867400  1
  O  O10  1  0.99724300  0.86952100  0.27112100  1
  O  O11  1  0.25000000  0.42779400  0.51438800  1
  O  O12  1  0.75000000  0.16789100  0.43319300  1
  O  O13  1  0.00299000  0.52317000  0.20132600  1
  O  O14  1  0.25000000  0.17724200  0.98359800  1
  O  O15  1  0.75000000  0.81794400  0.68860200  1
  O  O16  1  0.50275700  0.86952100  0.27112100  1
  O  O17  1  0.49701000  0.52317000  0.20132600  1
  O  O18  1  0.75000000  0.82275800  0.01640200  1
  O  O19  1  0.75000000  0.57220600  0.48561200  1
  O  O20  1  0.49724300  0.13047900  0.72887900  1
  O  O21  1  0.25000000  0.83210900  0.56680700  1
  O  O22  1  0.00275700  0.13047900  0.72887900  1
  O  O23  1  0.25000000  0.18205600  0.31139800  1
