# generated using pymatgen
data_SrCuO3
_symmetry_space_group_name_H-M   'P 1'
_cell_length_a   3.85589300
_cell_length_b   5.40955900
_cell_length_c   8.55260600
_cell_angle_alpha   90.00000000
_cell_angle_beta   90.00000000
_cell_angle_gamma   90.00000000
_symmetry_Int_Tables_number   1
_chemical_formula_structural   SrCuO3
_chemical_formula_sum   'Sr3 Cu3 O9'
_cell_volume   178.39607755
_cell_formula_units_Z   3
loop_
 _symmetry_equiv_pos_site_id
 _symmetry_equiv_pos_as_xyz
  1  'x, y, z'
loop_
 _atom_site_type_symbol
 _atom_site_label
 _atom_site_symmetry_multiplicity
 _atom_site_fract_x
 _atom_site_fract_y
 _atom_site_fract_z
 _atom_site_occupancy
  Sr  Sr0  1  0.50000000  0.50000000  0.69687900  1
  Sr  Sr1  1  0.50000000  0.50000000  0.30312100  1
  Sr  Sr2  1  0.50000000  0.00000000  0.00000000  1
  Cu  Cu3  1  0.00000000  0.50000000  0.00000000  1
  Cu  Cu4  1  0.00000000  0.00000000  0.66582300  1
  Cu  Cu5  1  0.00000000  0.00000000  0.33417700  1
  O  O6  1  0.50000000  0.50000000  0.00000000  1
  O  O7  1  0.50000000  0.00000000  0.69288900  1
  O  O8  1  0.50000000  0.00000000  0.30711100  1
  O  O9  1  0.00000000  0.25024900  0.83066100  1
  O  O10  1  0.00000000  0.74975100  0.83066100  1
  O  O11  1  0.00000000  0.24860900  0.50000000  1
  O  O12  1  0.00000000  0.75139100  0.50000000  1
  O  O13  1  0.00000000  0.25024900  0.16933900  1
  O  O14  1  0.00000000  0.74975100  0.16933900  1
