# generated using pymatgen
data_La5Ti5O17
_symmetry_space_group_name_H-M   'P 1'
_cell_length_a   3.96781500
_cell_length_b   5.54592700
_cell_length_c   31.76261100
_cell_angle_alpha   90.00000000
_cell_angle_beta   90.00000000
_cell_angle_gamma   90.00000000
_symmetry_Int_Tables_number   1
_chemical_formula_structural   La5Ti5O17
_chemical_formula_sum   'La10 Ti10 O34'
_cell_volume   698.94299951
_cell_formula_units_Z   2
loop_
 _symmetry_equiv_pos_site_id
 _symmetry_equiv_pos_as_xyz
  1  'x, y, z'
loop_
 _atom_site_type_symbol
 _atom_site_label
 _atom_site_symmetry_multiplicity
 _atom_site_fract_x
 _atom_site_fract_y
 _atom_site_fract_z
 _atom_site_occupancy
  La  La0  1  0.00000000  0.23864800  0.11245600  1
  La  La1  1  0.50000000  0.76135200  0.61245600  1
  La  La2  1  0.00000000  0.75574100  0.20546900  1
  La  La3  1  0.50000000  0.24425900  0.70546900  1
  La  La4  1  0.00000000  0.27053900  0.29779600  1
  La  La5  1  0.50000000  0.72946100  0.79779600  1
  La  La6  1  0.00000000  0.67422400  0.42035700  1
  La  La7  1  0.50000000  0.32577600  0.92035700  1
  La  La8  1  0.50000000  0.17264900  0.49023100  1
  La  La9  1  0.00000000  0.82735100  0.99023100  1
  Ti  Ti10  1  0.50000000  0.28928600  0.02870700  1
  Ti  Ti11  1  0.00000000  0.71071400  0.52870700  1
  Ti  Ti12  1  0.50000000  0.76039700  0.11451800  1
  Ti  Ti13  1  0.00000000  0.23960300  0.61451800  1
  Ti  Ti14  1  0.50000000  0.25739600  0.20513800  1
  Ti  Ti15  1  0.00000000  0.74260400  0.70513800  1
  Ti  Ti16  1  0.50000000  0.75064800  0.29641100  1
  Ti  Ti17  1  0.00000000  0.24935200  0.79641100  1
  Ti  Ti18  1  0.50000000  0.21634800  0.38200200  1
  Ti  Ti19  1  0.00000000  0.78365200  0.88200200  1
  O  O20  1  0.00000000  0.24968800  0.03412300  1
  O  O21  1  0.50000000  0.75031200  0.53412300  1
  O  O22  1  0.50000000  0.97533700  0.07048700  1
  O  O23  1  0.00000000  0.02466300  0.57048700  1
  O  O24  1  0.50000000  0.45442000  0.08486600  1
  O  O25  1  0.00000000  0.54558000  0.58486600  1
  O  O26  1  0.00000000  0.75152700  0.12302700  1
  O  O27  1  0.50000000  0.24847300  0.62302700  1
  O  O28  1  0.50000000  0.05656600  0.15387100  1
  O  O29  1  0.00000000  0.94343400  0.65387100  1
  O  O30  1  0.50000000  0.55835400  0.17185300  1
  O  O31  1  0.00000000  0.44164600  0.67185300  1
  O  O32  1  0.00000000  0.26011500  0.20498100  1
  O  O33  1  0.50000000  0.73988500  0.70498100  1
  O  O34  1  0.50000000  0.96272700  0.23901200  1
  O  O35  1  0.00000000  0.03727300  0.73901200  1
  O  O36  1  0.50000000  0.46209900  0.25650200  1
  O  O37  1  0.00000000  0.53790100  0.75650200  1
  O  O38  1  0.00000000  0.76378500  0.28770400  1
  O  O39  1  0.50000000  0.23621500  0.78770400  1
  O  O40  1  0.50000000  0.06649900  0.98167300  1
  O  O41  1  0.00000000  0.93350100  0.48167300  1
  O  O42  1  0.50000000  0.55362800  0.99385400  1
  O  O43  1  0.00000000  0.44637200  0.49385400  1
  O  O44  1  0.00000000  0.04844800  0.91654200  1
  O  O45  1  0.50000000  0.95155200  0.41654200  1
  O  O46  1  0.00000000  0.56278100  0.92913400  1
  O  O47  1  0.50000000  0.43721900  0.42913400  1
  O  O48  1  0.50000000  0.74134500  0.87627900  1
  O  O49  1  0.00000000  0.25865500  0.37627900  1
  O  O50  1  0.00000000  0.46184400  0.84048700  1
  O  O51  1  0.50000000  0.53815600  0.34048700  1
  O  O52  1  0.00000000  0.94038400  0.82551800  1
  O  O53  1  0.50000000  0.05961600  0.32551800  1
