# generated using pymatgen
data_LiB
_symmetry_space_group_name_H-M   'P 1'
_cell_length_a   7.30397400
_cell_length_b   3.08439500
_cell_length_c   13.54308200
_cell_angle_alpha   90.00000000
_cell_angle_beta   90.00000000
_cell_angle_gamma   90.00000000
_symmetry_Int_Tables_number   1
_chemical_formula_structural   LiB
_chemical_formula_sum   'Li4 B4'
_cell_volume   305.10316794
_cell_formula_units_Z   4
loop_
 _symmetry_equiv_pos_site_id
 _symmetry_equiv_pos_as_xyz
  1  'x, y, z'
loop_
 _atom_site_type_symbol
 _atom_site_label
 _atom_site_symmetry_multiplicity
 _atom_site_fract_x
 _atom_site_fract_y
 _atom_site_fract_z
 _atom_site_occupancy
  Li  Li0  1  0.28875200  0.75000000  0.00000000  1
  Li  Li1  1  0.71124800  0.25000000  0.00000000  1
  Li  Li2  1  0.78153200  0.75000000  0.50000000  1
  Li  Li3  1  0.21846800  0.25000000  0.50000000  1
  B  B4  1  0.00000000  0.50000000  0.00000000  1
  B  B5  1  0.00000000  0.00000000  0.00000000  1
  B  B6  1  0.48537000  0.75000000  0.50000000  1
  B  B7  1  0.51463000  0.25000000  0.50000000  1
