# generated using pymatgen
data_Na8Si7O18
_symmetry_space_group_name_H-M   'P 1'
_cell_length_a   7.25900786
_cell_length_b   7.25900786
_cell_length_c   7.25900793
_cell_angle_alpha   87.18636377
_cell_angle_beta   87.18636377
_cell_angle_gamma   87.18636146
_symmetry_Int_Tables_number   1
_chemical_formula_structural   Na8Si7O18
_chemical_formula_sum   'Na8 Si7 O18'
_cell_volume   381.16071909
_cell_formula_units_Z   1
loop_
 _symmetry_equiv_pos_site_id
 _symmetry_equiv_pos_as_xyz
  1  'x, y, z'
loop_
 _atom_site_type_symbol
 _atom_site_label
 _atom_site_symmetry_multiplicity
 _atom_site_fract_x
 _atom_site_fract_y
 _atom_site_fract_z
 _atom_site_occupancy
  Na  Na0  1  0.23619500  0.23619500  0.23619500  1
  Na  Na1  1  0.76380500  0.76380500  0.76380500  1
  Na  Na2  1  0.50000000  0.50000000  0.00000000  1
  Na  Na3  1  0.50000000  0.00000000  0.50000000  1
  Na  Na4  1  0.00000000  0.50000000  0.50000000  1
  Na  Na5  1  0.00000000  0.00000000  0.50000000  1
  Na  Na6  1  0.00000000  0.50000000  0.00000000  1
  Na  Na7  1  0.50000000  0.00000000  0.00000000  1
  Si  Si8  1  0.00000000  0.00000000  0.00000000  1
  Si  Si9  1  0.27207400  0.73911000  0.27207400  1
  Si  Si10  1  0.73911000  0.27207400  0.27207400  1
  Si  Si11  1  0.27207400  0.27207400  0.73911000  1
  Si  Si12  1  0.72792600  0.26089000  0.72792600  1
  Si  Si13  1  0.26089000  0.72792600  0.72792600  1
  Si  Si14  1  0.72792600  0.72792600  0.26089000  1
  O  O15  1  0.76558200  0.50000000  0.23441800  1
  O  O16  1  0.23441800  0.76558200  0.50000000  1
  O  O17  1  0.50000000  0.23441800  0.76558200  1
  O  O18  1  0.23441800  0.50000000  0.76558200  1
  O  O19  1  0.76558200  0.23441800  0.50000000  1
  O  O20  1  0.50000000  0.76558200  0.23441800  1
  O  O21  1  0.83092500  0.83092500  0.08126500  1
  O  O22  1  0.08126500  0.83092500  0.83092500  1
  O  O23  1  0.83092500  0.08126500  0.83092500  1
  O  O24  1  0.16907500  0.16907500  0.91873500  1
  O  O25  1  0.91873500  0.16907500  0.16907500  1
  O  O26  1  0.16907500  0.91873500  0.16907500  1
  O  O27  1  0.78741200  0.78741200  0.45580700  1
  O  O28  1  0.45580700  0.78741200  0.78741200  1
  O  O29  1  0.78741200  0.45580700  0.78741200  1
  O  O30  1  0.21258900  0.54419300  0.21258900  1
  O  O31  1  0.54419300  0.21258900  0.21258900  1
  O  O32  1  0.21258900  0.21258900  0.54419300  1
