# generated using pymatgen
data_SrMnBi2
_symmetry_space_group_name_H-M   'P 1'
_cell_length_a   4.60716263
_cell_length_b   4.60718063
_cell_length_c   11.89671124
_cell_angle_alpha   78.81817171
_cell_angle_beta   78.81800307
_cell_angle_gamma   89.94010706
_symmetry_Int_Tables_number   1
_chemical_formula_structural   SrMnBi2
_chemical_formula_sum   'Sr2 Mn2 Bi4'
_cell_volume   242.84805835
_cell_formula_units_Z   2
loop_
 _symmetry_equiv_pos_site_id
 _symmetry_equiv_pos_as_xyz
  1  'x, y, z'
loop_
 _atom_site_type_symbol
 _atom_site_label
 _atom_site_symmetry_multiplicity
 _atom_site_fract_x
 _atom_site_fract_y
 _atom_site_fract_z
 _atom_site_occupancy
  Sr  Sr0  1  0.88240600  0.88241800  0.23524000  1
  Sr  Sr1  1  0.11757100  0.11758200  0.76476300  1
  Mn  Mn2  1  0.74973900  0.25020200  0.50004400  1
  Mn  Mn3  1  0.25032400  0.74980000  0.49994600  1
  Bi  Bi4  1  0.99998700  0.50000000  0.00000400  1
  Bi  Bi5  1  0.49998800  0.00000100  0.99999900  1
  Bi  Bi6  1  0.67762200  0.67762600  0.64489300  1
  Bi  Bi7  1  0.32236300  0.32237100  0.35510900  1
