# generated using pymatgen
data_Cs2PtCl4
_symmetry_space_group_name_H-M   'P 1'
_cell_length_a   7.52691595
_cell_length_b   7.52691595
_cell_length_c   9.64487100
_cell_angle_alpha   90.00000000
_cell_angle_beta   90.00000000
_cell_angle_gamma   90.06313768
_symmetry_Int_Tables_number   1
_chemical_formula_structural   Cs2PtCl4
_chemical_formula_sum   'Cs4 Pt2 Cl8'
_cell_volume   546.42466200
_cell_formula_units_Z   2
loop_
 _symmetry_equiv_pos_site_id
 _symmetry_equiv_pos_as_xyz
  1  'x, y, z'
loop_
 _atom_site_type_symbol
 _atom_site_label
 _atom_site_symmetry_multiplicity
 _atom_site_fract_x
 _atom_site_fract_y
 _atom_site_fract_z
 _atom_site_occupancy
  Cs  Cs0  1  0.00568900  0.50520400  0.75000000  1
  Cs  Cs1  1  0.50520400  0.00568900  0.25000000  1
  Cs  Cs2  1  0.99431100  0.49479600  0.25000000  1
  Cs  Cs3  1  0.49479600  0.99431100  0.75000000  1
  Pt  Pt4  1  0.00000000  0.00000000  0.50000000  1
  Pt  Pt5  1  0.00000000  0.00000000  0.00000000  1
  Cl  Cl6  1  0.21875300  0.78124700  0.49242500  1
  Cl  Cl7  1  0.21875300  0.78124700  0.00757500  1
  Cl  Cl8  1  0.21914800  0.21914800  0.00000000  1
  Cl  Cl9  1  0.78085200  0.78085200  0.50000000  1
  Cl  Cl10  1  0.78085200  0.78085200  0.00000000  1
  Cl  Cl11  1  0.78124700  0.21875300  0.50757500  1
  Cl  Cl12  1  0.78124700  0.21875300  0.99242500  1
  Cl  Cl13  1  0.21914800  0.21914800  0.50000000  1
