# generated using pymatgen
data_Cd2P3I
_symmetry_space_group_name_H-M   'P 1'
_cell_length_a   6.30839854
_cell_length_b   6.30839854
_cell_length_c   7.64209458
_cell_angle_alpha   83.71224946
_cell_angle_beta   83.71224946
_cell_angle_gamma   96.65475764
_symmetry_Int_Tables_number   1
_chemical_formula_structural   Cd2P3I
_chemical_formula_sum   'Cd4 P6 I2'
_cell_volume   297.94840218
_cell_formula_units_Z   2
loop_
 _symmetry_equiv_pos_site_id
 _symmetry_equiv_pos_as_xyz
  1  'x, y, z'
loop_
 _atom_site_type_symbol
 _atom_site_label
 _atom_site_symmetry_multiplicity
 _atom_site_fract_x
 _atom_site_fract_y
 _atom_site_fract_z
 _atom_site_occupancy
  Cd  Cd0  1  0.89315300  0.60511800  0.28131000  1
  Cd  Cd1  1  0.39488200  0.10684700  0.21869000  1
  Cd  Cd2  1  0.10684700  0.39488200  0.71869000  1
  Cd  Cd3  1  0.60511800  0.89315300  0.78131000  1
  P  P4  1  0.19390900  0.80609100  0.75000000  1
  P  P5  1  0.15397500  0.06469300  0.54150400  1
  P  P6  1  0.06469300  0.15397500  0.04150400  1
  P  P7  1  0.80609100  0.19390900  0.25000000  1
  P  P8  1  0.93530700  0.84602500  0.95849600  1
  P  P9  1  0.84602500  0.93530700  0.45849600  1
  I  I10  1  0.61951200  0.38048800  0.75000000  1
  I  I11  1  0.38048800  0.61951200  0.25000000  1
