# generated using pymatgen
data_Ca2Fe7O11
_symmetry_space_group_name_H-M   'P 1'
_cell_length_a   3.05927100
_cell_length_b   5.23908416
_cell_length_c   14.43192535
_cell_angle_alpha   99.80959569
_cell_angle_beta   90.00000000
_cell_angle_gamma   106.97570064
_symmetry_Int_Tables_number   1
_chemical_formula_structural   Ca2Fe7O11
_chemical_formula_sum   'Ca2 Fe7 O11'
_cell_volume   217.69470319
_cell_formula_units_Z   1
loop_
 _symmetry_equiv_pos_site_id
 _symmetry_equiv_pos_as_xyz
  1  'x, y, z'
loop_
 _atom_site_type_symbol
 _atom_site_label
 _atom_site_symmetry_multiplicity
 _atom_site_fract_x
 _atom_site_fract_y
 _atom_site_fract_z
 _atom_site_occupancy
  Ca  Ca0  1  0.42110300  0.84220700  0.27587500  1
  Ca  Ca1  1  0.57889700  0.15779300  0.72412500  1
  Fe  Fe2  1  0.36136200  0.72272300  0.85256200  1
  Fe  Fe3  1  0.63863800  0.27727700  0.14743800  1
  Fe  Fe4  1  0.12391400  0.24782800  0.95121900  1
  Fe  Fe5  1  0.87608600  0.75217200  0.04878100  1
  Fe  Fe6  1  0.00000000  0.00000000  0.50000000  1
  Fe  Fe7  1  0.70823400  0.41646800  0.40129400  1
  Fe  Fe8  1  0.29176600  0.58353200  0.59870600  1
  O  O9  1  0.65145300  0.30290500  0.54433400  1
  O  O10  1  0.34854700  0.69709500  0.45566600  1
  O  O11  1  0.93807300  0.87614500  0.62245200  1
  O  O12  1  0.06192700  0.12385500  0.37754800  1
  O  O13  1  0.25246100  0.50492100  0.72694300  1
  O  O14  1  0.74753900  0.49507900  0.27305700  1
  O  O15  1  0.99421200  0.98842400  0.82931600  1
  O  O16  1  0.00578800  0.01157600  0.17068400  1
  O  O17  1  0.75265300  0.50530500  0.91273100  1
  O  O18  1  0.50000000  0.00000000  0.00000000  1
  O  O19  1  0.24734700  0.49469500  0.08726900  1
