# generated using pymatgen
data_Tl4Sn5S12
_symmetry_space_group_name_H-M   'P 1'
_cell_length_a   7.50399283
_cell_length_b   9.87483591
_cell_length_c   17.36787752
_cell_angle_alpha   104.99746398
_cell_angle_beta   90.12189806
_cell_angle_gamma   111.92491127
_symmetry_Int_Tables_number   1
_chemical_formula_structural   Tl4Sn5S12
_chemical_formula_sum   'Tl8 Sn10 S24'
_cell_volume   1146.19869044
_cell_formula_units_Z   2
loop_
 _symmetry_equiv_pos_site_id
 _symmetry_equiv_pos_as_xyz
  1  'x, y, z'
loop_
 _atom_site_type_symbol
 _atom_site_label
 _atom_site_symmetry_multiplicity
 _atom_site_fract_x
 _atom_site_fract_y
 _atom_site_fract_z
 _atom_site_occupancy
  Tl  Tl0  1  0.31260800  0.76162800  0.70198300  1
  Tl  Tl1  1  0.68739200  0.23837200  0.29801700  1
  Tl  Tl2  1  0.10140700  0.46254400  0.85466400  1
  Tl  Tl3  1  0.89859300  0.53745600  0.14533600  1
  Tl  Tl4  1  0.41740600  0.15287500  0.61265400  1
  Tl  Tl5  1  0.58259400  0.84712500  0.38734600  1
  Tl  Tl6  1  0.62462400  0.51741100  0.85683200  1
  Tl  Tl7  1  0.37537600  0.48258900  0.14316800  1
  Sn  Sn8  1  0.68314700  0.57436900  0.58249700  1
  Sn  Sn9  1  0.31685300  0.42563100  0.41750300  1
  Sn  Sn10  1  0.01777100  0.32359000  0.59724400  1
  Sn  Sn11  1  0.98222900  0.67641000  0.40275600  1
  Sn  Sn12  1  0.88446200  0.03179800  0.72998600  1
  Sn  Sn13  1  0.11553800  0.96820200  0.27001400  1
  Sn  Sn14  1  0.68758900  0.12735800  0.94751000  1
  Sn  Sn15  1  0.31241100  0.87264200  0.05249000  1
  Sn  Sn16  1  0.18471300  0.11932100  0.94212300  1
  Sn  Sn17  1  0.81528700  0.88067900  0.05787700  1
  S  S18  1  0.47158300  0.67608600  0.52190600  1
  S  S19  1  0.52841700  0.32391400  0.47809400  1
  S  S20  1  0.01213200  0.70755600  0.54555300  1
  S  S21  1  0.98786800  0.29244400  0.45444700  1
  S  S22  1  0.73051200  0.76264000  0.72150100  1
  S  S23  1  0.26948800  0.23736000  0.27849900  1
  S  S24  1  0.33036200  0.44329100  0.67282100  1
  S  S25  1  0.66963800  0.55670900  0.32717900  1
  S  S26  1  0.88197900  0.05149700  0.59270400  1
  S  S27  1  0.11802100  0.94850300  0.40729600  1
  S  S28  1  0.81043700  0.43952500  0.67068200  1
  S  S29  1  0.18956300  0.56047500  0.32931800  1
  S  S30  1  0.21046100  0.15230400  0.79813700  1
  S  S31  1  0.78953900  0.84769600  0.20186300  1
  S  S32  1  0.33742900  0.91426000  0.90801400  1
  S  S33  1  0.66257100  0.08574000  0.09198600  1
  S  S34  1  0.69342500  0.16380200  0.80325300  1
  S  S35  1  0.30657500  0.83619800  0.19674700  1
  S  S36  1  0.96189500  0.67960800  0.00798400  1
  S  S37  1  0.03810500  0.32039200  0.99201600  1
  S  S38  1  0.46995800  0.67877100  0.01685200  1
  S  S39  1  0.53004200  0.32122900  0.98314800  1
  S  S40  1  0.17035400  0.08202200  0.08759200  1
  S  S41  1  0.82964600  0.91797800  0.91240800  1
