# generated using pymatgen
data_HSN
_symmetry_space_group_name_H-M   'P 1'
_cell_length_a   6.96444000
_cell_length_b   8.33415500
_cell_length_c   12.61064500
_cell_angle_alpha   90.00000000
_cell_angle_beta   90.00000000
_cell_angle_gamma   90.00000000
_symmetry_Int_Tables_number   1
_chemical_formula_structural   HSN
_chemical_formula_sum   'H16 S16 N16'
_cell_volume   731.95616763
_cell_formula_units_Z   16
loop_
 _symmetry_equiv_pos_site_id
 _symmetry_equiv_pos_as_xyz
  1  'x, y, z'
loop_
 _atom_site_type_symbol
 _atom_site_label
 _atom_site_symmetry_multiplicity
 _atom_site_fract_x
 _atom_site_fract_y
 _atom_site_fract_z
 _atom_site_occupancy
  H  H0  1  0.02326300  0.25959000  0.44559200  1
  H  H1  1  0.52326300  0.24041000  0.55440800  1
  H  H2  1  0.47673700  0.75959000  0.05440800  1
  H  H3  1  0.97673700  0.74041000  0.94559200  1
  H  H4  1  0.97673700  0.74041000  0.55440800  1
  H  H5  1  0.47673700  0.75959000  0.44559200  1
  H  H6  1  0.52326300  0.24041000  0.94559200  1
  H  H7  1  0.02326300  0.25959000  0.05440800  1
  H  H8  1  0.64666000  0.80559000  0.75000000  1
  H  H9  1  0.14666000  0.69441000  0.25000000  1
  H  H10  1  0.85334000  0.30559000  0.75000000  1
  H  H11  1  0.35334000  0.19441000  0.25000000  1
  H  H12  1  0.29303600  0.65225400  0.75000000  1
  H  H13  1  0.79303600  0.84774600  0.25000000  1
  H  H14  1  0.20696400  0.15225400  0.75000000  1
  H  H15  1  0.70696400  0.34774600  0.25000000  1
  S  S16  1  0.75844100  0.13459800  0.36794400  1
  S  S17  1  0.25844100  0.36540200  0.63205600  1
  S  S18  1  0.74155900  0.63459800  0.13205600  1
  S  S19  1  0.24155900  0.86540200  0.86794400  1
  S  S20  1  0.24155900  0.86540200  0.63205600  1
  S  S21  1  0.74155900  0.63459800  0.36794400  1
  S  S22  1  0.25844100  0.36540200  0.86794400  1
  S  S23  1  0.75844100  0.13459800  0.13205600  1
  S  S24  1  0.17290200  0.03883700  0.36793100  1
  S  S25  1  0.67290200  0.46116300  0.63206900  1
  S  S26  1  0.32709800  0.53883700  0.13206900  1
  S  S27  1  0.82709800  0.96116300  0.86793100  1
  S  S28  1  0.82709800  0.96116300  0.63206900  1
  S  S29  1  0.32709800  0.53883700  0.36793100  1
  S  S30  1  0.67290200  0.46116300  0.86793100  1
  S  S31  1  0.17290200  0.03883700  0.13206900  1
  N  N32  1  0.71878100  0.22464000  0.25000000  1
  N  N33  1  0.21878100  0.27536000  0.75000000  1
  N  N34  1  0.78121900  0.72464000  0.25000000  1
  N  N35  1  0.28121900  0.77536000  0.75000000  1
  N  N36  1  0.25973700  0.09966100  0.25000000  1
  N  N37  1  0.75973700  0.40033900  0.75000000  1
  N  N38  1  0.24026300  0.59966100  0.25000000  1
  N  N39  1  0.74026300  0.90033900  0.75000000  1
  N  N40  1  0.98899900  0.15771200  0.09535900  1
  N  N41  1  0.48899900  0.34228800  0.90464100  1
  N  N42  1  0.51100100  0.65771200  0.40464100  1
  N  N43  1  0.01100100  0.84228800  0.59535900  1
  N  N44  1  0.01100100  0.84228800  0.90464100  1
  N  N45  1  0.51100100  0.65771200  0.09535900  1
  N  N46  1  0.48899900  0.34228800  0.59535900  1
  N  N47  1  0.98899900  0.15771200  0.40464100  1
