# generated using pymatgen
data_CeSe2
_symmetry_space_group_name_H-M   'P 1'
_cell_length_a   12.98005000
_cell_length_b   14.83020700
_cell_length_c   14.83508003
_cell_angle_alpha   89.40607460
_cell_angle_beta   90.00000000
_cell_angle_gamma   90.00000000
_symmetry_Int_Tables_number   1
_chemical_formula_structural   CeSe2
_chemical_formula_sum   'Ce16 Se32'
_cell_volume   2855.55242865
_cell_formula_units_Z   16
loop_
 _symmetry_equiv_pos_site_id
 _symmetry_equiv_pos_as_xyz
  1  'x, y, z'
loop_
 _atom_site_type_symbol
 _atom_site_label
 _atom_site_symmetry_multiplicity
 _atom_site_fract_x
 _atom_site_fract_y
 _atom_site_fract_z
 _atom_site_occupancy
  Ce  Ce0  1  0.37426900  0.83505000  0.85218000  1
  Ce  Ce1  1  0.87426900  0.16495000  0.64782000  1
  Ce  Ce2  1  0.62573100  0.16495000  0.14782000  1
  Ce  Ce3  1  0.12573100  0.83505000  0.35218000  1
  Ce  Ce4  1  0.90228000  0.34180600  0.34275500  1
  Ce  Ce5  1  0.40228000  0.65819400  0.15724500  1
  Ce  Ce6  1  0.09772000  0.65819400  0.65724500  1
  Ce  Ce7  1  0.59772000  0.34180600  0.84275500  1
  Ce  Ce8  1  0.14880400  0.40519300  0.08813100  1
  Ce  Ce9  1  0.64880400  0.59480700  0.41186900  1
  Ce  Ce10  1  0.85119600  0.59480700  0.91186900  1
  Ce  Ce11  1  0.35119600  0.40519300  0.58813100  1
  Ce  Ce12  1  0.63429400  0.89582200  0.59446900  1
  Ce  Ce13  1  0.13429400  0.10417800  0.90553100  1
  Ce  Ce14  1  0.36570600  0.10417800  0.40553100  1
  Ce  Ce15  1  0.86570600  0.89582200  0.09446900  1
  Se  Se16  1  0.77128200  0.27669100  0.21637700  1
  Se  Se17  1  0.27128200  0.72330900  0.28362300  1
  Se  Se18  1  0.22871800  0.72330900  0.78362300  1
  Se  Se19  1  0.72871800  0.27669100  0.71637700  1
  Se  Se20  1  0.00000000  0.50000000  0.00000000  1
  Se  Se21  1  0.50000000  0.50000000  0.50000000  1
  Se  Se22  1  0.50000000  0.00000000  0.50000000  1
  Se  Se23  1  0.00000000  0.00000000  0.00000000  1
  Se  Se24  1  0.92475500  0.21823900  0.47798700  1
  Se  Se25  1  0.42475500  0.78176100  0.02201300  1
  Se  Se26  1  0.07524500  0.78176100  0.52201300  1
  Se  Se27  1  0.57524500  0.21823900  0.97798700  1
  Se  Se28  1  0.69252600  0.75296500  0.49398400  1
  Se  Se29  1  0.19252600  0.24703500  0.00601600  1
  Se  Se30  1  0.30747400  0.24703500  0.50601600  1
  Se  Se31  1  0.80747400  0.75296500  0.99398400  1
  Se  Se32  1  0.30405500  0.00736600  0.86151000  1
  Se  Se33  1  0.80405500  0.99263400  0.63849000  1
  Se  Se34  1  0.69594500  0.99263400  0.13849000  1
  Se  Se35  1  0.19594500  0.00736600  0.36151000  1
  Se  Se36  1  0.82860600  0.50051400  0.40770300  1
  Se  Se37  1  0.32860600  0.49948600  0.09229700  1
  Se  Se38  1  0.17139400  0.49948600  0.59229700  1
  Se  Se39  1  0.67139400  0.50051400  0.90770300  1
  Se  Se40  1  0.08699200  0.37066600  0.26048000  1
  Se  Se41  1  0.58699200  0.62933400  0.23952000  1
  Se  Se42  1  0.91300800  0.62933400  0.73952000  1
  Se  Se43  1  0.41300800  0.37066600  0.76048000  1
  Se  Se44  1  0.54630000  0.83207600  0.74826100  1
  Se  Se45  1  0.04630000  0.16792400  0.75173900  1
  Se  Se46  1  0.45370000  0.16792400  0.25173900  1
  Se  Se47  1  0.95370000  0.83207600  0.24826100  1
