# generated using pymatgen
data_CeSe2
_symmetry_space_group_name_H-M   'P 1'
_cell_length_a   15.14308825
_cell_length_b   23.01551565
_cell_length_c   23.01551565
_cell_angle_alpha   120.00000044
_cell_angle_beta   90.00000000
_cell_angle_gamma   90.00000000
_symmetry_Int_Tables_number   1
_chemical_formula_structural   CeSe2
_chemical_formula_sum   'Ce24 Se48'
_cell_volume   6946.82729655
_cell_formula_units_Z   24
loop_
 _symmetry_equiv_pos_site_id
 _symmetry_equiv_pos_as_xyz
  1  'x, y, z'
loop_
 _atom_site_type_symbol
 _atom_site_label
 _atom_site_symmetry_multiplicity
 _atom_site_fract_x
 _atom_site_fract_y
 _atom_site_fract_z
 _atom_site_occupancy
  Ce  Ce0  1  0.07362552  0.13044270  0.66909619  1
  Ce  Ce1  1  0.07362552  0.53865349  0.86955730  1
  Ce  Ce2  1  0.07362552  0.33090381  0.46134651  1
  Ce  Ce3  1  0.07362552  0.46134651  0.33090381  1
  Ce  Ce4  1  0.07362552  0.66909619  0.13044270  1
  Ce  Ce5  1  0.07362552  0.86955730  0.53865349  1
  Ce  Ce6  1  0.92637448  0.86955730  0.33090381  1
  Ce  Ce7  1  0.92637448  0.46134651  0.13044270  1
  Ce  Ce8  1  0.92637448  0.66909619  0.53865349  1
  Ce  Ce9  1  0.92637448  0.53865349  0.66909619  1
  Ce  Ce10  1  0.92637448  0.33090381  0.86955730  1
  Ce  Ce11  1  0.92637448  0.13044270  0.46134651  1
  Ce  Ce12  1  0.57362552  0.86955730  0.33090381  1
  Ce  Ce13  1  0.57362552  0.46134651  0.13044270  1
  Ce  Ce14  1  0.57362552  0.66909619  0.53865349  1
  Ce  Ce15  1  0.57362552  0.53865349  0.66909619  1
  Ce  Ce16  1  0.57362552  0.33090381  0.86955730  1
  Ce  Ce17  1  0.57362552  0.13044270  0.46134651  1
  Ce  Ce18  1  0.42637448  0.13044270  0.66909619  1
  Ce  Ce19  1  0.42637448  0.53865349  0.86955730  1
  Ce  Ce20  1  0.42637448  0.33090381  0.46134651  1
  Ce  Ce21  1  0.42637448  0.46134651  0.33090381  1
  Ce  Ce22  1  0.42637448  0.66909619  0.13044270  1
  Ce  Ce23  1  0.42637448  0.86955730  0.53865349  1
  Se  Se24  1  0.75000000  0.84480031  0.32576285  1
  Se  Se25  1  0.75000000  0.48096254  0.15519969  1
  Se  Se26  1  0.75000000  0.67423715  0.51903746  1
  Se  Se27  1  0.75000000  0.51903746  0.67423715  1
  Se  Se28  1  0.75000000  0.32576285  0.84480031  1
  Se  Se29  1  0.75000000  0.15519969  0.48096254  1
  Se  Se30  1  0.25000000  0.15519969  0.67423715  1
  Se  Se31  1  0.25000000  0.51903746  0.84480031  1
  Se  Se32  1  0.25000000  0.32576285  0.48096254  1
  Se  Se33  1  0.25000000  0.48096254  0.32576285  1
  Se  Se34  1  0.25000000  0.67423715  0.15519969  1
  Se  Se35  1  0.25000000  0.84480031  0.51903746  1
  Se  Se36  1  0.50000000  0.79252551  0.20747449  1
  Se  Se37  1  0.50000000  0.41494899  0.20747449  1
  Se  Se38  1  0.50000000  0.79252551  0.58505101  1
  Se  Se39  1  0.50000000  0.58505101  0.79252551  1
  Se  Se40  1  0.50000000  0.20747449  0.79252551  1
  Se  Se41  1  0.50000000  0.20747449  0.41494899  1
  Se  Se42  1  -0.00000000  0.20747449  0.79252551  1
  Se  Se43  1  -0.00000000  0.58505101  0.79252551  1
  Se  Se44  1  -0.00000000  0.20747449  0.41494899  1
  Se  Se45  1  -0.00000000  0.41494899  0.20747449  1
  Se  Se46  1  -0.00000000  0.79252551  0.20747449  1
  Se  Se47  1  -0.00000000  0.79252551  0.58505101  1
  Se  Se48  1  0.50000000  0.58182211  0.16364422  1
  Se  Se49  1  0.50000000  0.58182211  0.41817789  1
  Se  Se50  1  0.50000000  0.83635578  0.41817789  1
  Se  Se51  1  0.50000000  0.41817789  0.83635578  1
  Se  Se52  1  0.50000000  0.16364422  0.58182211  1
  Se  Se53  1  0.50000000  0.41817789  0.58182211  1
  Se  Se54  1  -0.00000000  0.41817789  0.83635578  1
  Se  Se55  1  -0.00000000  0.41817789  0.58182211  1
  Se  Se56  1  -0.00000000  0.16364422  0.58182211  1
  Se  Se57  1  -0.00000000  0.58182211  0.16364422  1
  Se  Se58  1  -0.00000000  0.83635578  0.41817789  1
  Se  Se59  1  -0.00000000  0.58182211  0.41817789  1
  Se  Se60  1  0.95964401  0.00000000  0.36907923  1
  Se  Se61  1  0.95964401  0.36907923  0.00000000  1
  Se  Se62  1  0.95964401  0.63092077  0.63092077  1
  Se  Se63  1  0.04035599  1.00000000  0.63092077  1
  Se  Se64  1  0.04035599  0.63092077  1.00000000  1
  Se  Se65  1  0.04035599  0.36907923  0.36907923  1
  Se  Se66  1  0.45964401  1.00000000  0.63092077  1
  Se  Se67  1  0.45964401  0.63092077  1.00000000  1
  Se  Se68  1  0.45964401  0.36907923  0.36907923  1
  Se  Se69  1  0.54035599  0.00000000  0.36907923  1
  Se  Se70  1  0.54035599  0.36907923  0.00000000  1
  Se  Se71  1  0.54035599  0.63092077  0.63092077  1
