# generated using pymatgen
data_Zn4As2O9
_symmetry_space_group_name_H-M   'P 1'
_cell_length_a   8.35963000
_cell_length_b   9.93055900
_cell_length_c   10.59926663
_cell_angle_alpha   59.07728437
_cell_angle_beta   90.00000000
_cell_angle_gamma   90.00000000
_symmetry_Int_Tables_number   1
_chemical_formula_structural   Zn4As2O9
_chemical_formula_sum   'Zn16 As8 O36'
_cell_volume   754.83775496
_cell_formula_units_Z   4
loop_
 _symmetry_equiv_pos_site_id
 _symmetry_equiv_pos_as_xyz
  1  'x, y, z'
loop_
 _atom_site_type_symbol
 _atom_site_label
 _atom_site_symmetry_multiplicity
 _atom_site_fract_x
 _atom_site_fract_y
 _atom_site_fract_z
 _atom_site_occupancy
  Zn  Zn0  1  0.68153100  0.84730600  0.47668000  1
  Zn  Zn1  1  0.18153100  0.15269400  0.02332000  1
  Zn  Zn2  1  0.31846900  0.15269400  0.52332000  1
  Zn  Zn3  1  0.81846900  0.84730600  0.97668000  1
  Zn  Zn4  1  0.97965100  0.89933800  0.65424400  1
  Zn  Zn5  1  0.47965100  0.10066200  0.84575600  1
  Zn  Zn6  1  0.02034900  0.10066200  0.34575600  1
  Zn  Zn7  1  0.52034900  0.89933800  0.15424400  1
  Zn  Zn8  1  0.30716800  0.48449600  0.00554700  1
  Zn  Zn9  1  0.80716800  0.51550400  0.49445300  1
  Zn  Zn10  1  0.69283200  0.51550400  0.99445300  1
  Zn  Zn11  1  0.19283200  0.48449600  0.50554700  1
  Zn  Zn12  1  0.24361100  0.79402600  0.04365500  1
  Zn  Zn13  1  0.74361100  0.20597400  0.45634500  1
  Zn  Zn14  1  0.75638900  0.20597400  0.95634500  1
  Zn  Zn15  1  0.25638900  0.79402600  0.54365500  1
  As  As16  1  0.01636500  0.50001500  0.78607600  1
  As  As17  1  0.51636500  0.49998500  0.71392400  1
  As  As18  1  0.98363500  0.49998500  0.21392400  1
  As  As19  1  0.48363500  0.50001500  0.28607600  1
  As  As20  1  0.00554800  0.84081000  0.26671000  1
  As  As21  1  0.50554800  0.15919000  0.23329000  1
  As  As22  1  0.99445200  0.15919000  0.73329000  1
  As  As23  1  0.49445200  0.84081000  0.76671000  1
  O  O24  1  0.33527400  0.75817800  0.88552300  1
  O  O25  1  0.83527400  0.24182200  0.61447700  1
  O  O26  1  0.66472600  0.24182200  0.11447700  1
  O  O27  1  0.16472600  0.75817800  0.38552300  1
  O  O28  1  0.48344600  0.04490600  0.69349000  1
  O  O29  1  0.98344600  0.95509400  0.80651000  1
  O  O30  1  0.51655400  0.95509400  0.30651000  1
  O  O31  1  0.01655400  0.04490600  0.19349000  1
  O  O32  1  0.67347200  0.99529700  0.99136500  1
  O  O33  1  0.17347200  0.00470300  0.50863500  1
  O  O34  1  0.32652800  0.00470300  0.00863500  1
  O  O35  1  0.82652800  0.99529700  0.49136500  1
  O  O36  1  0.49932800  0.47642700  0.13654500  1
  O  O37  1  0.99932800  0.52357300  0.36345500  1
  O  O38  1  0.47562900  0.82454700  0.61291000  1
  O  O39  1  0.50067200  0.52357300  0.86345500  1
  O  O40  1  0.65806200  0.44361500  0.38660400  1
  O  O41  1  0.15806200  0.55638500  0.11339600  1
  O  O42  1  0.34193800  0.55638500  0.61339600  1
  O  O43  1  0.84193800  0.44361500  0.88660400  1
  O  O44  1  0.42767900  0.69307200  0.21637300  1
  O  O45  1  0.92767900  0.30692800  0.28362700  1
  O  O46  1  0.57232100  0.30692800  0.78362700  1
  O  O47  1  0.07232100  0.69307200  0.71637300  1
  O  O48  1  0.82078200  0.77725600  0.34676600  1
  O  O49  1  0.32078200  0.22274400  0.15323400  1
  O  O50  1  0.17921800  0.22274400  0.65323400  1
  O  O51  1  0.67921800  0.77725600  0.84676600  1
  O  O52  1  0.17072900  0.39395100  0.90571400  1
  O  O53  1  0.67072900  0.60604900  0.59428600  1
  O  O54  1  0.82927100  0.60604900  0.09428600  1
  O  O55  1  0.32927100  0.39395100  0.40571400  1
  O  O56  1  0.02437100  0.82454700  0.11291000  1
  O  O57  1  0.52437100  0.17545300  0.38709000  1
  O  O58  1  0.97562900  0.17545300  0.88709000  1
  O  O59  1  0.00067200  0.47642700  0.63654500  1
