# generated using pymatgen
data_Ta(TeBr3)2
_symmetry_space_group_name_H-M   'P 1'
_cell_length_a   7.66791300
_cell_length_b   7.75839421
_cell_length_c   13.49609381
_cell_angle_alpha   80.93524492
_cell_angle_beta   77.94033157
_cell_angle_gamma   77.62697252
_symmetry_Int_Tables_number   1
_chemical_formula_structural   Ta(TeBr3)2
_chemical_formula_sum   'Ta2 Te4 Br12'
_cell_volume   761.57110742
_cell_formula_units_Z   2
loop_
 _symmetry_equiv_pos_site_id
 _symmetry_equiv_pos_as_xyz
  1  'x, y, z'
loop_
 _atom_site_type_symbol
 _atom_site_label
 _atom_site_symmetry_multiplicity
 _atom_site_fract_x
 _atom_site_fract_y
 _atom_site_fract_z
 _atom_site_occupancy
  Ta  Ta0  1  0.79856100  0.34248400  0.80517100  1
  Ta  Ta1  1  0.20143900  0.65751600  0.19482900  1
  Te  Te2  1  0.27156800  0.15959300  0.54092500  1
  Te  Te3  1  0.72843200  0.84040700  0.45907500  1
  Te  Te4  1  0.43359500  0.82544500  0.61354500  1
  Te  Te5  1  0.56640500  0.17455500  0.38645500  1
  Br  Br6  1  0.90338700  0.24727900  0.96846200  1
  Br  Br7  1  0.09661300  0.75272100  0.03153800  1
  Br  Br8  1  0.97381800  0.04694000  0.72877200  1
  Br  Br9  1  0.02618200  0.95306000  0.27122800  1
  Br  Br10  1  0.08079300  0.47081400  0.72667000  1
  Br  Br11  1  0.91920700  0.52918600  0.27333000  1
  Br  Br12  1  0.30063400  0.56324300  0.37795400  1
  Br  Br13  1  0.69936600  0.43675700  0.62204600  1
  Br  Br14  1  0.46651800  0.80950000  0.14352500  1
  Br  Br15  1  0.53348200  0.19050000  0.85647500  1
  Br  Br16  1  0.37506400  0.36705300  0.14544000  1
  Br  Br17  1  0.62493600  0.63294700  0.85456000  1
