# generated using pymatgen
data_B3H4
_symmetry_space_group_name_H-M   'P 1'
_cell_length_a   10.43001100
_cell_length_b   11.89933800
_cell_length_c   13.07799800
_cell_angle_alpha   90.00000000
_cell_angle_beta   90.00000000
_cell_angle_gamma   90.00000000
_symmetry_Int_Tables_number   1
_chemical_formula_structural   B3H4
_chemical_formula_sum   'B48 H64'
_cell_volume   1623.11329045
_cell_formula_units_Z   16
loop_
 _symmetry_equiv_pos_site_id
 _symmetry_equiv_pos_as_xyz
  1  'x, y, z'
loop_
 _atom_site_type_symbol
 _atom_site_label
 _atom_site_symmetry_multiplicity
 _atom_site_fract_x
 _atom_site_fract_y
 _atom_site_fract_z
 _atom_site_occupancy
  B  B0  1  0.40988100  0.40767000  0.36610300  1
  B  B1  1  0.59011900  0.59233000  0.86610300  1
  B  B2  1  0.09011900  0.90767000  0.36610300  1
  B  B3  1  0.90988100  0.09233000  0.86610300  1
  B  B4  1  0.37894700  0.50215700  0.11466900  1
  B  B5  1  0.62105300  0.49784300  0.61466900  1
  B  B6  1  0.12105300  0.00215700  0.11466900  1
  B  B7  1  0.87894700  0.99784300  0.61466900  1
  B  B8  1  0.26996300  0.34475700  0.33231200  1
  B  B9  1  0.73003700  0.65524300  0.83231200  1
  B  B10  1  0.23003700  0.84475700  0.33231200  1
  B  B11  1  0.76996300  0.15524300  0.83231200  1
  B  B12  1  0.26391300  0.47321200  0.40329400  1
  B  B13  1  0.73608700  0.52678800  0.90329400  1
  B  B14  1  0.23608700  0.97321200  0.40329400  1
  B  B15  1  0.76391300  0.02678800  0.90329400  1
  B  B16  1  0.40054500  0.55200100  0.33322000  1
  B  B17  1  0.59945500  0.44799900  0.83322000  1
  B  B18  1  0.09945500  0.05200100  0.33322000  1
  B  B19  1  0.90054500  0.94799900  0.83322000  1
  B  B20  1  0.45058600  0.46408300  0.23077800  1
  B  B21  1  0.54941400  0.53591700  0.73077800  1
  B  B22  1  0.04941400  0.96408300  0.23077800  1
  B  B23  1  0.95058600  0.03591700  0.73077800  1
  B  B24  1  0.21129800  0.47632500  0.10338000  1
  B  B25  1  0.78870200  0.52367500  0.60338000  1
  B  B26  1  0.28870200  0.97632500  0.10338000  1
  B  B27  1  0.71129800  0.02367500  0.60338000  1
  B  B28  1  0.17144300  0.71670300  0.08529100  1
  B  B29  1  0.82855700  0.28329700  0.58529100  1
  B  B30  1  0.32855700  0.21670300  0.08529100  1
  B  B31  1  0.67144300  0.78329700  0.58529100  1
  B  B32  1  0.26445200  0.60777000  0.13314200  1
  B  B33  1  0.73554800  0.39223000  0.63314200  1
  B  B34  1  0.23554800  0.10777000  0.13314200  1
  B  B35  1  0.76445200  0.89223000  0.63314200  1
  B  B36  1  0.40200100  0.60457300  0.21023200  1
  B  B37  1  0.59799900  0.39542700  0.71023200  1
  B  B38  1  0.09799900  0.10457300  0.21023200  1
  B  B39  1  0.90200100  0.89542700  0.71023200  1
  B  B40  1  0.31240900  0.38569900  0.17698500  1
  B  B41  1  0.68759100  0.61430100  0.67698500  1
  B  B42  1  0.18759100  0.88569900  0.17698500  1
  B  B43  1  0.81240900  0.11430100  0.67698500  1
  B  B44  1  0.11129800  0.58791900  0.13155300  1
  B  B45  1  0.88870200  0.41208100  0.63155300  1
  B  B46  1  0.38870200  0.08791900  0.13155300  1
  B  B47  1  0.61129800  0.91208100  0.63155300  1
  H  H48  1  0.21778800  0.37129700  0.23775900  1
  H  H49  1  0.78221200  0.62870300  0.73775900  1
  H  H50  1  0.28221200  0.87129700  0.23775900  1
  H  H51  1  0.71778800  0.12870300  0.73775900  1
  H  H52  1  0.15318400  0.47488200  0.37272800  1
  H  H53  1  0.84681600  0.52511800  0.87272800  1
  H  H54  1  0.34681600  0.97488200  0.37272800  1
  H  H55  1  0.65318400  0.02511800  0.87272800  1
  H  H56  1  0.27778700  0.56881100  0.34958400  1
  H  H57  1  0.72221300  0.43118900  0.84958400  1
  H  H58  1  0.22221300  0.06881100  0.34958400  1
  H  H59  1  0.77778700  0.93118900  0.84958400  1
  H  H60  1  0.28987300  0.70864300  0.06845600  1
  H  H61  1  0.71012700  0.29135700  0.56845600  1
  H  H62  1  0.21012700  0.20864300  0.06845600  1
  H  H63  1  0.78987300  0.79135700  0.56845600  1
  H  H64  1  0.47413000  0.68069100  0.19268700  1
  H  H65  1  0.52587000  0.31930900  0.69268700  1
  H  H66  1  0.02587000  0.18069100  0.19268700  1
  H  H67  1  0.97413000  0.81930900  0.69268700  1
  H  H68  1  0.43953200  0.48148800  0.03945800  1
  H  H69  1  0.56046800  0.51851200  0.53945800  1
  H  H70  1  0.06046800  0.98148800  0.03945800  1
  H  H71  1  0.93953200  0.01851200  0.53945800  1
  H  H72  1  0.48534200  0.37950100  0.42993700  1
  H  H73  1  0.51465800  0.62049900  0.92993700  1
  H  H74  1  0.01465800  0.87950100  0.42993700  1
  H  H75  1  0.14372100  0.43521900  0.03886000  1
  H  H76  1  0.98534200  0.12049900  0.92993700  1
  H  H77  1  0.63585600  0.70970500  0.65783500  1
  H  H78  1  0.13585600  0.79029500  0.15783500  1
  H  H79  1  0.86414400  0.20970500  0.65783500  1
  H  H80  1  0.20142800  0.26755800  0.35177600  1
  H  H81  1  0.79857200  0.73244200  0.85177600  1
  H  H82  1  0.29857200  0.76755800  0.35177600  1
  H  H83  1  0.70142800  0.23244200  0.85177600  1
  H  H84  1  0.26650500  0.48098300  0.49459100  1
  H  H85  1  0.73349500  0.51901700  0.99459100  1
  H  H86  1  0.23349500  0.98098300  0.49459100  1
  H  H87  1  0.76650500  0.01901700  0.99459100  1
  H  H88  1  0.46983200  0.59844100  0.39236100  1
  H  H89  1  0.53016800  0.40155900  0.89236100  1
  H  H90  1  0.03016800  0.09844100  0.39236100  1
  H  H91  1  0.96983200  0.90155900  0.89236100  1
  H  H92  1  0.55855000  0.43157000  0.22039700  1
  H  H93  1  0.44145000  0.56843000  0.72039700  1
  H  H94  1  0.94145000  0.93157000  0.22039700  1
  H  H95  1  0.05855000  0.06843000  0.72039700  1
  H  H96  1  0.49917600  0.92386000  0.63882300  1
  H  H97  1  0.50082400  0.07614000  0.13882300  1
  H  H98  1  0.00082400  0.42386000  0.63882300  1
  H  H99  1  0.99917600  0.57614000  0.13882300  1
  H  H100  1  0.61737000  0.69966500  0.83610200  1
  H  H101  1  0.38263000  0.30033500  0.33610200  1
  H  H102  1  0.88263000  0.19966500  0.83610200  1
  H  H103  1  0.11737000  0.80033500  0.33610200  1
  H  H104  1  0.61825700  0.75421700  0.50878800  1
  H  H105  1  0.38174300  0.24578300  0.00878800  1
  H  H106  1  0.88174300  0.25421700  0.50878800  1
  H  H107  1  0.11825700  0.74578300  0.00878800  1
  H  H108  1  0.64372100  0.06478100  0.53886000  1
  H  H109  1  0.35627900  0.93521900  0.03886000  1
  H  H110  1  0.85627900  0.56478100  0.53886000  1
  H  H111  1  0.36414400  0.29029500  0.15783500  1
