# generated using pymatgen
data_Ag5CF4
_symmetry_space_group_name_H-M   'P 1'
_cell_length_a   7.54022900
_cell_length_b   7.54022900
_cell_length_c   10.63330000
_cell_angle_alpha   90.00000000
_cell_angle_beta   90.00000000
_cell_angle_gamma   90.00000000
_symmetry_Int_Tables_number   1
_chemical_formula_structural   Ag5CF4
_chemical_formula_sum   'Ag20 C4 F16'
_cell_volume   604.55683903
_cell_formula_units_Z   4
loop_
 _symmetry_equiv_pos_site_id
 _symmetry_equiv_pos_as_xyz
  1  'x, y, z'
loop_
 _atom_site_type_symbol
 _atom_site_label
 _atom_site_symmetry_multiplicity
 _atom_site_fract_x
 _atom_site_fract_y
 _atom_site_fract_z
 _atom_site_occupancy
  Ag  Ag0  1  0.76947800  0.10207400  0.87804100  1
  Ag  Ag1  1  0.10207400  0.23052200  0.12195900  1
  Ag  Ag2  1  0.89792600  0.76947800  0.12195900  1
  Ag  Ag3  1  0.23052200  0.89792600  0.87804100  1
  Ag  Ag4  1  0.40626500  0.26405500  0.87618100  1
  Ag  Ag5  1  0.26405500  0.59373500  0.12381900  1
  Ag  Ag6  1  0.73594500  0.40626500  0.12381900  1
  Ag  Ag7  1  0.59373500  0.73594500  0.87618100  1
  Ag  Ag8  1  0.62229200  0.29795700  0.65216900  1
  Ag  Ag9  1  0.29795700  0.37770800  0.34783100  1
  Ag  Ag10  1  0.70204300  0.62229200  0.34783100  1
  Ag  Ag11  1  0.37770800  0.70204300  0.65216900  1
  Ag  Ag12  1  0.20193600  0.10856600  0.65560200  1
  Ag  Ag13  1  0.10856600  0.79806400  0.34439800  1
  Ag  Ag14  1  0.89143400  0.20193600  0.34439800  1
  Ag  Ag15  1  0.79806400  0.89143400  0.65560200  1
  Ag  Ag16  1  0.00000000  0.50000000  0.50299100  1
  Ag  Ag17  1  0.50000000  0.00000000  0.49700900  1
  Ag  Ag18  1  0.00000000  0.50000000  0.79804000  1
  Ag  Ag19  1  0.50000000  0.00000000  0.20196000  1
  C  C20  1  0.57844600  0.03831000  0.73475500  1
  C  C21  1  0.03831000  0.42155400  0.26524500  1
  C  C22  1  0.96169000  0.57844600  0.26524500  1
  C  C23  1  0.42155400  0.96169000  0.73475500  1
  F  F24  1  0.77606600  0.94273300  0.39607100  1
  F  F25  1  0.57402100  0.29389000  0.39781200  1
  F  F26  1  0.42597900  0.70611000  0.39781200  1
  F  F27  1  0.29389000  0.42597900  0.60218800  1
  F  F28  1  0.94273300  0.22393400  0.60392900  1
  F  F29  1  0.70611000  0.57402100  0.60218800  1
  F  F30  1  0.22393400  0.05726700  0.39607100  1
  F  F31  1  0.05726700  0.77606600  0.60392900  1
  F  F32  1  0.28889600  0.55513700  0.89810700  1
  F  F33  1  0.55513700  0.71110400  0.10189300  1
  F  F34  1  0.44486300  0.28889600  0.10189300  1
  F  F35  1  0.71110400  0.44486300  0.89810700  1
  F  F36  1  0.06220000  0.21017500  0.90487700  1
  F  F37  1  0.21017500  0.93780000  0.09512300  1
  F  F38  1  0.78982500  0.06220000  0.09512300  1
  F  F39  1  0.93780000  0.78982500  0.90487700  1
