# generated using pymatgen
data_Ge3Cl8
_symmetry_space_group_name_H-M   'P 1'
_cell_length_a   13.07925655
_cell_length_b   13.07925655
_cell_length_c   13.07925655
_cell_angle_alpha   60.00000000
_cell_angle_beta   60.00000000
_cell_angle_gamma   60.00000000
_symmetry_Int_Tables_number   1
_chemical_formula_structural   Ge3Cl8
_chemical_formula_sum   'Ge12 Cl32'
_cell_volume   1582.10090125
_cell_formula_units_Z   4
loop_
 _symmetry_equiv_pos_site_id
 _symmetry_equiv_pos_as_xyz
  1  'x, y, z'
loop_
 _atom_site_type_symbol
 _atom_site_label
 _atom_site_symmetry_multiplicity
 _atom_site_fract_x
 _atom_site_fract_y
 _atom_site_fract_z
 _atom_site_occupancy
  Ge  Ge0  1  0.42249300  0.42249300  0.73252000  1
  Ge  Ge1  1  0.92249300  0.92249300  0.92249300  1
  Ge  Ge2  1  0.92249300  0.23252000  0.92249300  1
  Ge  Ge3  1  0.23252000  0.92249300  0.92249300  1
  Ge  Ge4  1  0.42249300  0.42249300  0.42249300  1
  Ge  Ge5  1  0.73252000  0.42249300  0.42249300  1
  Ge  Ge6  1  0.42249300  0.73252000  0.42249300  1
  Ge  Ge7  1  0.92249300  0.92249300  0.23252000  1
  Ge  Ge8  1  0.50000000  0.50000000  0.50000000  1
  Ge  Ge9  1  0.00000000  0.00000000  0.00000000  1
  Ge  Ge10  1  0.75000000  0.75000000  0.75000000  1
  Ge  Ge11  1  0.25000000  0.25000000  0.25000000  1
  Cl  Cl12  1  0.80332700  0.53710600  0.23283300  1
  Cl  Cl13  1  0.53710600  0.23283300  0.80332700  1
  Cl  Cl14  1  0.23283300  0.80332700  0.53710600  1
  Cl  Cl15  1  0.42673300  0.53710600  0.80332700  1
  Cl  Cl16  1  0.23283300  0.53710600  0.42673300  1
  Cl  Cl17  1  0.23283300  0.42673300  0.80332700  1
  Cl  Cl18  1  0.92673300  0.30332700  0.03710600  1
  Cl  Cl19  1  0.30332700  0.92673300  0.73283300  1
  Cl  Cl20  1  0.03710600  0.73283300  0.92673300  1
  Cl  Cl21  1  0.30332700  0.03710600  0.92673300  1
  Cl  Cl22  1  0.92673300  0.03710600  0.73283300  1
  Cl  Cl23  1  0.92673300  0.73283300  0.30332700  1
  Cl  Cl24  1  0.44985300  0.18338200  0.18338200  1
  Cl  Cl25  1  0.68338200  0.68338200  0.94985300  1
  Cl  Cl26  1  0.68338200  0.68338200  0.68338200  1
  Cl  Cl27  1  0.68338200  0.94985300  0.68338200  1
  Cl  Cl28  1  0.18338200  0.44985300  0.18338200  1
  Cl  Cl29  1  0.18338200  0.18338200  0.44985300  1
  Cl  Cl30  1  0.18338200  0.18338200  0.18338200  1
  Cl  Cl31  1  0.94985300  0.68338200  0.68338200  1
  Cl  Cl32  1  0.73283300  0.03710600  0.30332700  1
  Cl  Cl33  1  0.42673300  0.80332700  0.23283300  1
  Cl  Cl34  1  0.80332700  0.42673300  0.53710600  1
  Cl  Cl35  1  0.53710600  0.80332700  0.42673300  1
  Cl  Cl36  1  0.42673300  0.23283300  0.53710600  1
  Cl  Cl37  1  0.80332700  0.23283300  0.42673300  1
  Cl  Cl38  1  0.53710600  0.42673300  0.23283300  1
  Cl  Cl39  1  0.30332700  0.73283300  0.03710600  1
  Cl  Cl40  1  0.03710600  0.30332700  0.73283300  1
  Cl  Cl41  1  0.73283300  0.92673300  0.03710600  1
  Cl  Cl42  1  0.73283300  0.30332700  0.92673300  1
  Cl  Cl43  1  0.03710600  0.92673300  0.30332700  1
