# generated using pymatgen
data_AgC4N3
_symmetry_space_group_name_H-M   'P 1'
_cell_length_a   7.50660303
_cell_length_b   7.50660303
_cell_length_c   7.50660303
_cell_angle_alpha   130.87264777
_cell_angle_beta   115.59479839
_cell_angle_gamma   85.04439773
_symmetry_Int_Tables_number   1
_chemical_formula_structural   AgC4N3
_chemical_formula_sum   'Ag2 C8 N6'
_cell_volume   276.25437388
_cell_formula_units_Z   2
loop_
 _symmetry_equiv_pos_site_id
 _symmetry_equiv_pos_as_xyz
  1  'x, y, z'
loop_
 _atom_site_type_symbol
 _atom_site_label
 _atom_site_symmetry_multiplicity
 _atom_site_fract_x
 _atom_site_fract_y
 _atom_site_fract_z
 _atom_site_occupancy
  Ag  Ag0  1  0.87807300  0.14826400  0.77019100  1
  Ag  Ag1  1  0.12192700  0.89211700  0.27019100  1
  C  C2  1  0.44947300  0.15644100  0.90307300  1
  C  C3  1  0.24663200  0.45360000  0.40307300  1
  C  C4  1  0.29770000  0.63793800  0.84023800  1
  C  C5  1  0.70230000  0.54253900  0.34023800  1
  C  C6  1  0.75336800  0.15644100  0.20696800  1
  C  C7  1  0.55052700  0.45360000  0.70696800  1
  C  C8  1  0.36725800  0.51954700  0.65228800  1
  C  C9  1  0.63274200  0.28503000  0.15228800  1
  N  N10  1  0.14481800  0.39936200  0.19518700  1
  N  N11  1  0.76172100  0.75723200  0.49551100  1
  N  N12  1  0.23827900  0.73379000  0.99551100  1
  N  N13  1  0.85518200  0.05036900  0.25454400  1
  N  N14  1  0.29582500  0.05036900  0.69518700  1
  N  N15  1  0.70417500  0.39936200  0.75454400  1
