# generated using pymatgen
data_CS3N
_symmetry_space_group_name_H-M   'P 1'
_cell_length_a   11.11835603
_cell_length_b   11.11835603
_cell_length_c   17.81084568
_cell_angle_alpha   65.95204365
_cell_angle_beta   65.95204365
_cell_angle_gamma   31.22659952
_symmetry_Int_Tables_number   1
_chemical_formula_structural   CS3N
_chemical_formula_sum   'C8 S24 N8'
_cell_volume   1034.22656036
_cell_formula_units_Z   8
loop_
 _symmetry_equiv_pos_site_id
 _symmetry_equiv_pos_as_xyz
  1  'x, y, z'
loop_
 _atom_site_type_symbol
 _atom_site_label
 _atom_site_symmetry_multiplicity
 _atom_site_fract_x
 _atom_site_fract_y
 _atom_site_fract_z
 _atom_site_occupancy
  C  C0  1  0.16312100  0.64173000  0.85402200  1
  C  C1  1  0.35827000  0.83687900  0.64597800  1
  C  C2  1  0.83687900  0.35827000  0.14597800  1
  C  C3  1  0.64173000  0.16312100  0.35402200  1
  C  C4  1  0.56951400  0.28452000  0.14535000  1
  C  C5  1  0.71548000  0.43048600  0.35465000  1
  C  C6  1  0.43048600  0.71548000  0.85465000  1
  C  C7  1  0.28452000  0.56951400  0.64535000  1
  S  S8  1  0.08258000  0.49464800  0.10299700  1
  S  S9  1  0.50535200  0.91742000  0.39700300  1
  S  S10  1  0.91742000  0.50535200  0.89700300  1
  S  S11  1  0.49464800  0.08258000  0.60299700  1
  S  S12  1  0.76223600  0.83263600  0.06112600  1
  S  S13  1  0.16736400  0.23776400  0.43887400  1
  S  S14  1  0.23776400  0.16736400  0.93887400  1
  S  S15  1  0.83263600  0.76223600  0.56112600  1
  S  S16  1  0.82030900  0.97252800  0.97466900  1
  S  S17  1  0.02747200  0.17969100  0.52533100  1
  S  S18  1  0.17969100  0.02747200  0.02533100  1
  S  S19  1  0.97252800  0.82030900  0.47466900  1
  S  S20  1  0.87802500  0.91892800  0.85734200  1
  S  S21  1  0.08107200  0.12197500  0.64265800  1
  S  S22  1  0.12197500  0.08107200  0.14265800  1
  S  S23  1  0.91892800  0.87802500  0.35734200  1
  S  S24  1  0.51730500  0.12137500  0.69658500  1
  S  S25  1  0.87862500  0.48269500  0.80341500  1
  S  S26  1  0.48269500  0.87862500  0.30341500  1
  S  S27  1  0.12137500  0.51730500  0.19658500  1
  S  S28  1  0.56459200  0.28763100  0.64471100  1
  S  S29  1  0.71236900  0.43540800  0.85528900  1
  S  S30  1  0.43540800  0.71236900  0.35528900  1
  S  S31  1  0.28763100  0.56459200  0.14471100  1
  N  N32  1  0.76890800  0.09189200  0.14465600  1
  N  N33  1  0.90810800  0.23109200  0.35534400  1
  N  N34  1  0.23109200  0.90810800  0.85534400  1
  N  N35  1  0.09189200  0.76890800  0.64465600  1
  N  N36  1  0.36030300  0.44695600  0.85024900  1
  N  N37  1  0.55304400  0.63969700  0.64975100  1
  N  N38  1  0.63969700  0.55304400  0.14975100  1
  N  N39  1  0.44695600  0.36030300  0.35024900  1
