# generated using pymatgen
data_Tc(NF3)2
_symmetry_space_group_name_H-M   'P 1'
_cell_length_a   5.96743362
_cell_length_b   5.96743362
_cell_length_c   4.92106300
_cell_angle_alpha   90.00000000
_cell_angle_beta   90.00000000
_cell_angle_gamma   119.99999578
_symmetry_Int_Tables_number   1
_chemical_formula_structural   Tc(NF3)2
_chemical_formula_sum   'Tc1 N2 F6'
_cell_volume   151.76260357
_cell_formula_units_Z   1
loop_
 _symmetry_equiv_pos_site_id
 _symmetry_equiv_pos_as_xyz
  1  'x, y, z'
loop_
 _atom_site_type_symbol
 _atom_site_label
 _atom_site_symmetry_multiplicity
 _atom_site_fract_x
 _atom_site_fract_y
 _atom_site_fract_z
 _atom_site_occupancy
  Tc  Tc0  1  0.00000000  0.00000000  0.00000000  1
  N  N1  1  0.33333300  0.66666700  0.70292500  1
  N  N2  1  0.66666700  0.33333300  0.29707500  1
  F  F3  1  0.29414000  0.14707000  0.78656600  1
  F  F4  1  0.85293000  0.70586000  0.78656600  1
  F  F5  1  0.85293000  0.14707000  0.78656600  1
  F  F6  1  0.70586000  0.85293000  0.21343400  1
  F  F7  1  0.14707000  0.29414000  0.21343400  1
  F  F8  1  0.14707000  0.85293000  0.21343400  1
