# generated using pymatgen
data_MgC2
_symmetry_space_group_name_H-M   'P 1'
_cell_length_a   3.95077700
_cell_length_b   3.95077700
_cell_length_c   4.98708900
_cell_angle_alpha   90.00000000
_cell_angle_beta   90.00000000
_cell_angle_gamma   90.00000000
_symmetry_Int_Tables_number   1
_chemical_formula_structural   MgC2
_chemical_formula_sum   'Mg2 C4'
_cell_volume   77.84167138
_cell_formula_units_Z   2
loop_
 _symmetry_equiv_pos_site_id
 _symmetry_equiv_pos_as_xyz
  1  'x, y, z'
loop_
 _atom_site_type_symbol
 _atom_site_label
 _atom_site_symmetry_multiplicity
 _atom_site_fract_x
 _atom_site_fract_y
 _atom_site_fract_z
 _atom_site_occupancy
  Mg  Mg0  1  0.50000000  0.50000000  0.00000000  1
  Mg  Mg1  1  0.00000000  0.00000000  0.50000000  1
  C  C2  1  0.88765500  0.88765500  0.00000000  1
  C  C3  1  0.61234500  0.38765500  0.50000000  1
  C  C4  1  0.11234500  0.11234500  0.00000000  1
  C  C5  1  0.38765500  0.61234500  0.50000000  1
