# generated using pymatgen
data_U3Te5
_symmetry_space_group_name_H-M   'P 1'
_cell_length_a   4.12872000
_cell_length_b   14.09334500
_cell_length_c   16.26473700
_cell_angle_alpha   90.00000000
_cell_angle_beta   90.00000000
_cell_angle_gamma   90.00000000
_symmetry_Int_Tables_number   1
_chemical_formula_structural   U3Te5
_chemical_formula_sum   'U12 Te20'
_cell_volume   946.40398356
_cell_formula_units_Z   4
loop_
 _symmetry_equiv_pos_site_id
 _symmetry_equiv_pos_as_xyz
  1  'x, y, z'
loop_
 _atom_site_type_symbol
 _atom_site_label
 _atom_site_symmetry_multiplicity
 _atom_site_fract_x
 _atom_site_fract_y
 _atom_site_fract_z
 _atom_site_occupancy
  U  U0  1  0.25000000  0.24982600  0.88034000  1
  U  U1  1  0.75000000  0.75017400  0.11966000  1
  U  U2  1  0.75000000  0.74982600  0.61966000  1
  U  U3  1  0.25000000  0.25017400  0.38034000  1
  U  U4  1  0.25000000  0.93079000  0.86059600  1
  U  U5  1  0.75000000  0.06921000  0.13940400  1
  U  U6  1  0.75000000  0.43079000  0.63940400  1
  U  U7  1  0.25000000  0.56921000  0.36059600  1
  U  U8  1  0.25000000  0.09025800  0.62656200  1
  U  U9  1  0.75000000  0.90974200  0.37343800  1
  U  U10  1  0.75000000  0.59025800  0.87343800  1
  U  U11  1  0.25000000  0.40974200  0.12656200  1
  Te  Te12  1  0.25000000  0.91899500  0.07523100  1
  Te  Te13  1  0.75000000  0.08100500  0.92476900  1
  Te  Te14  1  0.75000000  0.41899500  0.42476900  1
  Te  Te15  1  0.25000000  0.58100500  0.57523100  1
  Te  Te16  1  0.25000000  0.45376200  0.78479000  1
  Te  Te17  1  0.75000000  0.54623800  0.21521000  1
  Te  Te18  1  0.75000000  0.95376200  0.71521000  1
  Te  Te19  1  0.25000000  0.04623800  0.28479000  1
  Te  Te20  1  0.25000000  0.72093300  0.76447300  1
  Te  Te21  1  0.75000000  0.27906700  0.23552700  1
  Te  Te22  1  0.75000000  0.22093300  0.73552700  1
  Te  Te23  1  0.25000000  0.77906700  0.26447300  1
  Te  Te24  1  0.25000000  0.61028700  0.02499900  1
  Te  Te25  1  0.75000000  0.38971300  0.97500100  1
  Te  Te26  1  0.75000000  0.11028700  0.47500100  1
  Te  Te27  1  0.25000000  0.88971300  0.52499900  1
  Te  Te28  1  0.25000000  0.20262300  0.06712100  1
  Te  Te29  1  0.75000000  0.79737700  0.93287900  1
  Te  Te30  1  0.75000000  0.70262300  0.43287900  1
  Te  Te31  1  0.25000000  0.29737700  0.56712100  1
