# generated using pymatgen
data_Ho14Ge23
_symmetry_space_group_name_H-M   'P 1'
_cell_length_a   7.45304143
_cell_length_b   7.45304143
_cell_length_c   40.29495600
_cell_angle_alpha   90.00000000
_cell_angle_beta   90.00000000
_cell_angle_gamma   134.68934458
_symmetry_Int_Tables_number   1
_chemical_formula_structural   Ho14Ge23
_chemical_formula_sum   'Ho28 Ge46'
_cell_volume   1591.27325866
_cell_formula_units_Z   2
loop_
 _symmetry_equiv_pos_site_id
 _symmetry_equiv_pos_as_xyz
  1  'x, y, z'
loop_
 _atom_site_type_symbol
 _atom_site_label
 _atom_site_symmetry_multiplicity
 _atom_site_fract_x
 _atom_site_fract_y
 _atom_site_fract_z
 _atom_site_occupancy
  Ho  Ho0  1  0.72214200  0.72214200  0.00000000  1
  Ho  Ho1  1  0.27785800  0.27785800  0.50000000  1
  Ho  Ho2  1  0.74580300  0.25419700  0.75000000  1
  Ho  Ho3  1  0.25419700  0.74580300  0.25000000  1
  Ho  Ho4  1  0.23958000  0.23225000  0.78512600  1
  Ho  Ho5  1  0.23225000  0.23958000  0.21487400  1
  Ho  Ho6  1  0.76042000  0.76775000  0.28512600  1
  Ho  Ho7  1  0.76775000  0.76042000  0.71487400  1
  Ho  Ho8  1  0.74477500  0.75296900  0.85709400  1
  Ho  Ho9  1  0.75297000  0.74477600  0.14290600  1
  Ho  Ho10  1  0.25522400  0.24703100  0.35709400  1
  Ho  Ho11  1  0.24703100  0.25522500  0.64290600  1
  Ho  Ho12  1  0.26548800  0.25775800  0.93014100  1
  Ho  Ho13  1  0.25775800  0.26548900  0.06985900  1
  Ho  Ho14  1  0.73451100  0.74224200  0.43014100  1
  Ho  Ho15  1  0.74224200  0.73451100  0.56985900  1
  Ho  Ho16  1  0.23917500  0.73181800  0.82223400  1
  Ho  Ho17  1  0.73181800  0.23917500  0.17776600  1
  Ho  Ho18  1  0.76082500  0.26818200  0.32223400  1
  Ho  Ho19  1  0.26818200  0.76082500  0.67776600  1
  Ho  Ho20  1  0.76764900  0.26087700  0.89273100  1
  Ho  Ho21  1  0.26087700  0.76764900  0.10726900  1
  Ho  Ho22  1  0.23235100  0.73912300  0.39273100  1
  Ho  Ho23  1  0.73912300  0.23235100  0.60726900  1
  Ho  Ho24  1  0.24270100  0.74921700  0.96283600  1
  Ho  Ho25  1  0.74921700  0.24270100  0.03716400  1
  Ho  Ho26  1  0.75729900  0.25078300  0.46283600  1
  Ho  Ho27  1  0.25078300  0.75729900  0.53716400  1
  Ge  Ge28  1  0.19732600  0.80267400  0.75000000  1
  Ge  Ge29  1  0.80267400  0.19732600  0.25000000  1
  Ge  Ge30  1  0.58804800  0.78901700  0.77762700  1
  Ge  Ge31  1  0.78901700  0.58804800  0.22237300  1
  Ge  Ge32  1  0.41195200  0.21098300  0.27762700  1
  Ge  Ge33  1  0.21098300  0.41195200  0.72237300  1
  Ge  Ge34  1  0.19483500  0.30110500  0.85739800  1
  Ge  Ge35  1  0.30110500  0.19483500  0.14260200  1
  Ge  Ge36  1  0.80516500  0.69889500  0.35739800  1
  Ge  Ge37  1  0.69889500  0.80516500  0.64260200  1
  Ge  Ge38  1  0.71565200  0.91990400  0.93768900  1
  Ge  Ge39  1  0.91990400  0.71565200  0.06231100  1
  Ge  Ge40  1  0.28434800  0.08009600  0.43768900  1
  Ge  Ge41  1  0.08009600  0.28434800  0.56231100  1
  Ge  Ge42  1  0.11624100  0.30137400  0.99546400  1
  Ge  Ge43  1  0.30137300  0.11624100  0.00453600  1
  Ge  Ge44  1  0.88375900  0.69862700  0.49546400  1
  Ge  Ge45  1  0.69862600  0.88375900  0.50453600  1
  Ge  Ge46  1  0.83454500  0.16808000  0.81997300  1
  Ge  Ge47  1  0.16808000  0.83454500  0.18002700  1
  Ge  Ge48  1  0.16545500  0.83192000  0.31997300  1
  Ge  Ge49  1  0.83192000  0.16545500  0.68002700  1
  Ge  Ge50  1  0.33369400  0.66523700  0.89455100  1
  Ge  Ge51  1  0.66523700  0.33369400  0.10544900  1
  Ge  Ge52  1  0.66630600  0.33476300  0.39455100  1
  Ge  Ge53  1  0.33476300  0.66630600  0.60544900  1
  Ge  Ge54  1  0.58761900  0.28796600  0.82978400  1
  Ge  Ge55  1  0.28796600  0.58761900  0.17021600  1
  Ge  Ge56  1  0.41238100  0.71203400  0.32978400  1
  Ge  Ge57  1  0.71203400  0.41238100  0.67021600  1
  Ge  Ge58  1  0.21086700  0.91064800  0.88516700  1
  Ge  Ge59  1  0.91064800  0.21086700  0.11483300  1
  Ge  Ge60  1  0.78913300  0.08935200  0.38516700  1
  Ge  Ge61  1  0.08935200  0.78913300  0.61483300  1
  Ge  Ge62  1  0.68721300  0.31469500  0.96603600  1
  Ge  Ge63  1  0.31469500  0.68721300  0.03396400  1
  Ge  Ge64  1  0.31278700  0.68530500  0.46603600  1
  Ge  Ge65  1  0.68530500  0.31278700  0.53396400  1
  Ge  Ge66  1  0.83430200  0.66760400  0.78724400  1
  Ge  Ge67  1  0.66760400  0.83430200  0.21275600  1
  Ge  Ge68  1  0.16569800  0.33239600  0.28724400  1
  Ge  Ge69  1  0.33239600  0.16569800  0.71275600  1
  Ge  Ge70  1  0.82584500  0.66385000  0.92663000  1
  Ge  Ge71  1  0.66385000  0.82584500  0.07337000  1
  Ge  Ge72  1  0.17415500  0.33615000  0.42663000  1
  Ge  Ge73  1  0.33615000  0.17415500  0.57337000  1
