# generated using pymatgen
data_Os
_symmetry_space_group_name_H-M   'P 1'
_cell_length_a   5.15864600
_cell_length_b   4.66992700
_cell_length_c   5.14663661
_cell_angle_alpha   90.00000000
_cell_angle_beta   106.02488623
_cell_angle_gamma   90.00000000
_symmetry_Int_Tables_number   1
_chemical_formula_structural   Os
_chemical_formula_sum   Os8
_cell_volume   119.16722483
_cell_formula_units_Z   8
loop_
 _symmetry_equiv_pos_site_id
 _symmetry_equiv_pos_as_xyz
  1  'x, y, z'
loop_
 _atom_site_type_symbol
 _atom_site_label
 _atom_site_symmetry_multiplicity
 _atom_site_fract_x
 _atom_site_fract_y
 _atom_site_fract_z
 _atom_site_occupancy
  Os  Os0  1  0.39194800  0.34040600  0.79169800  1
  Os  Os1  1  0.60805200  0.84040600  0.70830200  1
  Os  Os2  1  0.60805200  0.65959400  0.20830200  1
  Os  Os3  1  0.39194800  0.15959400  0.29169800  1
  Os  Os4  1  0.86119600  0.34429400  0.64001400  1
  Os  Os5  1  0.13880400  0.84429400  0.85998600  1
  Os  Os6  1  0.13880400  0.65570600  0.35998600  1
  Os  Os7  1  0.86119600  0.15570600  0.14001400  1
