# generated using pymatgen
data_LaV3O9
_symmetry_space_group_name_H-M   'P 1'
_cell_length_a   9.63076000
_cell_length_b   5.07218400
_cell_length_c   7.51623351
_cell_angle_alpha   80.19628943
_cell_angle_beta   90.00000000
_cell_angle_gamma   90.00000000
_symmetry_Int_Tables_number   1
_chemical_formula_structural   LaV3O9
_chemical_formula_sum   'La2 V6 O18'
_cell_volume   361.79870166
_cell_formula_units_Z   2
loop_
 _symmetry_equiv_pos_site_id
 _symmetry_equiv_pos_as_xyz
  1  'x, y, z'
loop_
 _atom_site_type_symbol
 _atom_site_label
 _atom_site_symmetry_multiplicity
 _atom_site_fract_x
 _atom_site_fract_y
 _atom_site_fract_z
 _atom_site_occupancy
  La  La0  1  0.25000000  0.91469000  0.00085800  1
  La  La1  1  0.75000000  0.08531000  0.99914200  1
  V  V2  1  0.25000000  0.26245000  0.34744800  1
  V  V3  1  0.75000000  0.73755000  0.65255200  1
  V  V4  1  0.57245900  0.56002500  0.30067000  1
  V  V5  1  0.07245900  0.43997500  0.69933000  1
  V  V6  1  0.42754100  0.43997500  0.69933000  1
  V  V7  1  0.92754100  0.56002500  0.30067000  1
  O  O8  1  0.25000000  0.93300700  0.34950400  1
  O  O9  1  0.75000000  0.06699300  0.65049600  1
  O  O10  1  0.25000000  0.27687200  0.72642600  1
  O  O11  1  0.75000000  0.72312800  0.27357400  1
  O  O12  1  0.59189300  0.61269000  0.56013100  1
  O  O13  1  0.09189300  0.38731000  0.43986900  1
  O  O14  1  0.40810700  0.38731000  0.43986900  1
  O  O15  1  0.90810700  0.61269000  0.56013100  1
  O  O16  1  0.98784000  0.21898200  0.85406100  1
  O  O17  1  0.48784000  0.78101800  0.14593900  1
  O  O18  1  0.01216000  0.78101800  0.14593900  1
  O  O19  1  0.51216000  0.21898200  0.85406100  1
  O  O20  1  0.75000000  0.61751900  0.87768200  1
  O  O21  1  0.25000000  0.38248100  0.12231800  1
  O  O22  1  0.88916000  0.28667400  0.21402300  1
  O  O23  1  0.38916000  0.71332600  0.78597700  1
  O  O24  1  0.11084000  0.71332600  0.78597700  1
  O  O25  1  0.61084000  0.28667400  0.21402300  1
