# generated using pymatgen
data_Rb2CdCl4
_symmetry_space_group_name_H-M   'P 1'
_cell_length_a   9.01663638
_cell_length_b   9.01663638
_cell_length_c   9.01663638
_cell_angle_alpha   145.72632486
_cell_angle_beta   145.72632486
_cell_angle_gamma   49.25344173
_symmetry_Int_Tables_number   1
_chemical_formula_structural   Rb2CdCl4
_chemical_formula_sum   'Rb2 Cd1 Cl4'
_cell_volume   231.42193741
_cell_formula_units_Z   1
loop_
 _symmetry_equiv_pos_site_id
 _symmetry_equiv_pos_as_xyz
  1  'x, y, z'
loop_
 _atom_site_type_symbol
 _atom_site_label
 _atom_site_symmetry_multiplicity
 _atom_site_fract_x
 _atom_site_fract_y
 _atom_site_fract_z
 _atom_site_occupancy
  Rb  Rb0  1  0.35973200  0.35973200  0.00000000  1
  Rb  Rb1  1  0.64026800  0.64026800  0.00000000  1
  Cd  Cd2  1  0.00000000  0.00000000  0.00000000  1
  Cl  Cl3  1  0.84025100  0.84025100  0.00000000  1
  Cl  Cl4  1  0.15974900  0.15974900  0.00000000  1
  Cl  Cl5  1  0.50000000  0.00000000  0.50000000  1
  Cl  Cl6  1  0.00000000  0.50000000  0.50000000  1
