# generated using pymatgen
data_Bi3Se4Br
_symmetry_space_group_name_H-M   'P 1'
_cell_length_a   10.77301435
_cell_length_b   10.77301435
_cell_length_c   12.20323122
_cell_angle_alpha   66.50671578
_cell_angle_beta   66.50671578
_cell_angle_gamma   22.07744946
_symmetry_Int_Tables_number   1
_chemical_formula_structural   Bi3Se4Br
_chemical_formula_sum   'Bi6 Se8 Br2'
_cell_volume   486.43835216
_cell_formula_units_Z   2
loop_
 _symmetry_equiv_pos_site_id
 _symmetry_equiv_pos_as_xyz
  1  'x, y, z'
loop_
 _atom_site_type_symbol
 _atom_site_label
 _atom_site_symmetry_multiplicity
 _atom_site_fract_x
 _atom_site_fract_y
 _atom_site_fract_z
 _atom_site_occupancy
  Bi  Bi0  1  0.08905500  0.08905500  0.03731800  1
  Bi  Bi1  1  0.91094500  0.91094500  0.96268200  1
  Bi  Bi2  1  0.67269200  0.67269200  0.26274300  1
  Bi  Bi3  1  0.32730800  0.32730800  0.73725700  1
  Bi  Bi4  1  0.15156400  0.15156400  0.58541200  1
  Bi  Bi5  1  0.84843600  0.84843600  0.41458800  1
  Se  Se6  1  0.41443100  0.41443100  0.49199700  1
  Se  Se7  1  0.58556900  0.58556900  0.50800300  1
  Se  Se8  1  0.68653300  0.68653300  0.98164800  1
  Se  Se9  1  0.31346700  0.31346700  0.01835200  1
  Se  Se10  1  0.07702800  0.07702800  0.27299500  1
  Se  Se11  1  0.92297200  0.92297200  0.72700500  1
  Se  Se12  1  0.25350300  0.25350300  0.35740400  1
  Se  Se13  1  0.74649700  0.74649700  0.64259600  1
  Br  Br14  1  0.45670500  0.45670500  0.16539400  1
  Br  Br15  1  0.54329500  0.54329500  0.83460600  1
