# generated using pymatgen
data_CsPdCl3
_symmetry_space_group_name_H-M   'P 1'
_cell_length_a   9.94113911
_cell_length_b   9.94113911
_cell_length_c   9.94113911
_cell_angle_alpha   124.74724088
_cell_angle_beta   115.07152322
_cell_angle_gamma   90.36059420
_symmetry_Int_Tables_number   1
_chemical_formula_structural   CsPdCl3
_chemical_formula_sum   'Cs4 Pd4 Cl12'
_cell_volume   689.46796550
_cell_formula_units_Z   4
loop_
 _symmetry_equiv_pos_site_id
 _symmetry_equiv_pos_as_xyz
  1  'x, y, z'
loop_
 _atom_site_type_symbol
 _atom_site_label
 _atom_site_symmetry_multiplicity
 _atom_site_fract_x
 _atom_site_fract_y
 _atom_site_fract_z
 _atom_site_occupancy
  Cs  Cs0  1  0.17553700  0.42553700  0.25000000  1
  Cs  Cs1  1  0.82446300  0.07446300  0.25000000  1
  Cs  Cs2  1  0.82446300  0.57446300  0.75000000  1
  Cs  Cs3  1  0.17553700  0.92553700  0.75000000  1
  Pd  Pd4  1  0.59469600  0.94840400  0.64629200  1
  Pd  Pd5  1  0.40530400  0.05159600  0.35370800  1
  Pd  Pd6  1  0.69788900  0.55159600  0.14629200  1
  Pd  Pd7  1  0.30211100  0.44840400  0.85370800  1
  Cl  Cl8  1  0.66649400  0.10378200  0.56271100  1
  Cl  Cl9  1  0.33350600  0.89621800  0.43728900  1
  Cl  Cl10  1  0.45892900  0.39621800  0.06271100  1
  Cl  Cl11  1  0.54107100  0.60378200  0.93728900  1
  Cl  Cl12  1  0.85326700  0.00399800  0.84927000  1
  Cl  Cl13  1  0.14673300  0.99600200  0.15073000  1
  Cl  Cl14  1  0.84527200  0.49600200  0.34927000  1
  Cl  Cl15  1  0.15472800  0.50399800  0.65073000  1
  Cl  Cl16  1  0.07527100  0.29294500  0.78232700  1
  Cl  Cl17  1  0.92472900  0.70705500  0.21767300  1
  Cl  Cl18  1  0.48938200  0.20705500  0.28232700  1
  Cl  Cl19  1  0.51061800  0.79294500  0.71767300  1
