# generated using pymatgen
data_Mn4Nb7Ge8
_symmetry_space_group_name_H-M   'P 1'
_cell_length_a   5.23136700
_cell_length_b   13.85728800
_cell_length_c   16.57659300
_cell_angle_alpha   90.00000000
_cell_angle_beta   90.00000000
_cell_angle_gamma   90.00000000
_symmetry_Int_Tables_number   1
_chemical_formula_structural   Mn4Nb7Ge8
_chemical_formula_sum   'Mn16 Nb28 Ge32'
_cell_volume   1201.67964860
_cell_formula_units_Z   4
loop_
 _symmetry_equiv_pos_site_id
 _symmetry_equiv_pos_as_xyz
  1  'x, y, z'
loop_
 _atom_site_type_symbol
 _atom_site_label
 _atom_site_symmetry_multiplicity
 _atom_site_fract_x
 _atom_site_fract_y
 _atom_site_fract_z
 _atom_site_occupancy
  Mn  Mn0  1  0.50103000  0.55755600  0.11664400  1
  Mn  Mn1  1  0.00103000  0.44244400  0.88335600  1
  Mn  Mn2  1  0.99897000  0.05755600  0.38335600  1
  Mn  Mn3  1  0.49897000  0.94244400  0.61664400  1
  Mn  Mn4  1  0.49897000  0.44244400  0.88335600  1
  Mn  Mn5  1  0.99897000  0.55755600  0.11664400  1
  Mn  Mn6  1  0.00103000  0.94244400  0.61664400  1
  Mn  Mn7  1  0.50103000  0.05755600  0.38335600  1
  Mn  Mn8  1  0.75000000  0.63422300  0.84627200  1
  Mn  Mn9  1  0.25000000  0.36577700  0.15372800  1
  Mn  Mn10  1  0.75000000  0.13422300  0.65372800  1
  Mn  Mn11  1  0.25000000  0.86577700  0.34627200  1
  Mn  Mn12  1  0.75000000  0.81040700  0.75163300  1
  Mn  Mn13  1  0.25000000  0.18959300  0.24836700  1
  Mn  Mn14  1  0.75000000  0.31040700  0.74836700  1
  Mn  Mn15  1  0.25000000  0.68959300  0.25163300  1
  Nb  Nb16  1  0.49680000  0.86293900  0.17885100  1
  Nb  Nb17  1  0.99680000  0.13706100  0.82114900  1
  Nb  Nb18  1  0.00320000  0.36293900  0.32114900  1
  Nb  Nb19  1  0.50320000  0.63706100  0.67885100  1
  Nb  Nb20  1  0.50320000  0.13706100  0.82114900  1
  Nb  Nb21  1  0.00320000  0.86293900  0.17885100  1
  Nb  Nb22  1  0.99680000  0.63706100  0.67885100  1
  Nb  Nb23  1  0.49680000  0.36293900  0.32114900  1
  Nb  Nb24  1  0.75000000  0.56745200  0.30504600  1
  Nb  Nb25  1  0.25000000  0.43254800  0.69495400  1
  Nb  Nb26  1  0.75000000  0.06745200  0.19495400  1
  Nb  Nb27  1  0.25000000  0.93254800  0.80504600  1
  Nb  Nb28  1  0.75000000  0.86927000  0.46160000  1
  Nb  Nb29  1  0.25000000  0.13073000  0.53840000  1
  Nb  Nb30  1  0.75000000  0.36927000  0.03840000  1
  Nb  Nb31  1  0.25000000  0.63073000  0.96160000  1
  Nb  Nb32  1  0.75000000  0.75061500  0.02238900  1
  Nb  Nb33  1  0.25000000  0.24938500  0.97761100  1
  Nb  Nb34  1  0.75000000  0.25061500  0.47761100  1
  Nb  Nb35  1  0.25000000  0.74938500  0.52238900  1
  Nb  Nb36  1  0.75000000  0.95123500  0.90112000  1
  Nb  Nb37  1  0.25000000  0.04876500  0.09888000  1
  Nb  Nb38  1  0.75000000  0.45123500  0.59888000  1
  Nb  Nb39  1  0.25000000  0.54876500  0.40112000  1
  Nb  Nb40  1  0.75000000  0.62899100  0.50505600  1
  Nb  Nb41  1  0.25000000  0.37100900  0.49494400  1
  Nb  Nb42  1  0.75000000  0.12899100  0.99494400  1
  Nb  Nb43  1  0.25000000  0.87100900  0.00505600  1
  Ge  Ge44  1  0.50473400  0.72031200  0.37841300  1
  Ge  Ge45  1  0.00473400  0.27968800  0.62158700  1
  Ge  Ge46  1  0.99526600  0.22031200  0.12158700  1
  Ge  Ge47  1  0.49526600  0.77968800  0.87841300  1
  Ge  Ge48  1  0.49526600  0.27968800  0.62158700  1
  Ge  Ge49  1  0.99526600  0.72031200  0.37841300  1
  Ge  Ge50  1  0.00473400  0.77968800  0.87841300  1
  Ge  Ge51  1  0.50473400  0.22031200  0.12158700  1
  Ge  Ge52  1  0.75000000  0.69499400  0.18842500  1
  Ge  Ge53  1  0.25000000  0.30500600  0.81157500  1
  Ge  Ge54  1  0.75000000  0.19499400  0.31157500  1
  Ge  Ge55  1  0.25000000  0.80500600  0.68842500  1
  Ge  Ge56  1  0.75000000  0.92172200  0.31107300  1
  Ge  Ge57  1  0.25000000  0.07827800  0.68892700  1
  Ge  Ge58  1  0.75000000  0.42172200  0.18892700  1
  Ge  Ge59  1  0.25000000  0.57827800  0.81107300  1
  Ge  Ge60  1  0.75000000  0.55518700  0.98295600  1
  Ge  Ge61  1  0.25000000  0.44481300  0.01704400  1
  Ge  Ge62  1  0.75000000  0.05518700  0.51704400  1
  Ge  Ge63  1  0.25000000  0.94481300  0.48295600  1
  Ge  Ge64  1  0.75000000  0.95048000  0.05963300  1
  Ge  Ge65  1  0.25000000  0.04952000  0.94036700  1
  Ge  Ge66  1  0.75000000  0.45048000  0.44036700  1
  Ge  Ge67  1  0.25000000  0.54952000  0.55963300  1
  Ge  Ge68  1  0.75000000  0.78397200  0.60182100  1
  Ge  Ge69  1  0.25000000  0.21602800  0.39817900  1
  Ge  Ge70  1  0.75000000  0.28397200  0.89817900  1
  Ge  Ge71  1  0.25000000  0.71602800  0.10182100  1
  Ge  Ge72  1  0.75000000  0.98917900  0.74363500  1
  Ge  Ge73  1  0.25000000  0.01082100  0.25636500  1
  Ge  Ge74  1  0.75000000  0.48917900  0.75636500  1
  Ge  Ge75  1  0.25000000  0.51082100  0.24363500  1
