# generated using pymatgen
data_Sr9Cr5O18
_symmetry_space_group_name_H-M   'P 1'
_cell_length_a   15.46083889
_cell_length_b   15.46083889
_cell_length_c   10.94101500
_cell_angle_alpha   90.00000000
_cell_angle_beta   90.00000000
_cell_angle_gamma   159.63767251
_symmetry_Int_Tables_number   1
_chemical_formula_structural   Sr9Cr5O18
_chemical_formula_sum   'Sr18 Cr10 O36'
_cell_volume   910.01317161
_cell_formula_units_Z   2
loop_
 _symmetry_equiv_pos_site_id
 _symmetry_equiv_pos_as_xyz
  1  'x, y, z'
loop_
 _atom_site_type_symbol
 _atom_site_label
 _atom_site_symmetry_multiplicity
 _atom_site_fract_x
 _atom_site_fract_y
 _atom_site_fract_z
 _atom_site_occupancy
  Sr  Sr0  1  0.20506200  0.79525900  0.74912100  1
  Sr  Sr1  1  0.79493800  0.20474100  0.24912100  1
  Sr  Sr2  1  0.20474100  0.79493800  0.24912100  1
  Sr  Sr3  1  0.79525900  0.20506200  0.74912100  1
  Sr  Sr4  1  0.70577400  0.29232800  0.99883300  1
  Sr  Sr5  1  0.29422600  0.70767200  0.49883300  1
  Sr  Sr6  1  0.70767200  0.29422600  0.49883300  1
  Sr  Sr7  1  0.29232800  0.70577400  0.99883300  1
  Sr  Sr8  1  0.07756600  0.91005500  0.74761800  1
  Sr  Sr9  1  0.92243400  0.08994500  0.24761800  1
  Sr  Sr10  1  0.08994500  0.92243400  0.24761800  1
  Sr  Sr11  1  0.91005500  0.07756600  0.74761800  1
  Sr  Sr12  1  0.58335000  0.41500200  0.00180500  1
  Sr  Sr13  1  0.41665000  0.58499800  0.50180500  1
  Sr  Sr14  1  0.58499800  0.41665000  0.50180500  1
  Sr  Sr15  1  0.41500200  0.58335000  0.00180500  1
  Sr  Sr16  1  0.99551900  0.99551900  0.50052000  1
  Sr  Sr17  1  0.00448100  0.00448100  0.00052000  1
  Cr  Cr18  1  0.65095300  0.34874600  0.74889000  1
  Cr  Cr19  1  0.34904700  0.65125400  0.24889000  1
  Cr  Cr20  1  0.65125400  0.34904700  0.24889000  1
  Cr  Cr21  1  0.34874600  0.65095300  0.74889000  1
  Cr  Cr22  1  0.14426200  0.85358900  0.99865800  1
  Cr  Cr23  1  0.85573800  0.14641100  0.49865800  1
  Cr  Cr24  1  0.14641100  0.85573800  0.49865800  1
  Cr  Cr25  1  0.85358900  0.14426200  0.99865800  1
  Cr  Cr26  1  0.55928900  0.55928900  0.27975300  1
  Cr  Cr27  1  0.44071100  0.44071100  0.77975300  1
  O  O28  1  0.88581500  0.59820400  0.62804700  1
  O  O29  1  0.11418500  0.40179600  0.12804700  1
  O  O30  1  0.40179600  0.11418500  0.12804700  1
  O  O31  1  0.59820400  0.88581500  0.62804700  1
  O  O32  1  0.40138000  0.11589500  0.62858400  1
  O  O33  1  0.59862000  0.88410500  0.12858400  1
  O  O34  1  0.88410500  0.59862000  0.12858400  1
  O  O35  1  0.11589500  0.40138000  0.62858400  1
  O  O36  1  0.88320000  0.59778900  0.86928500  1
  O  O37  1  0.11680000  0.40221100  0.36928500  1
  O  O38  1  0.40221100  0.11680000  0.36928500  1
  O  O39  1  0.59778900  0.88320000  0.86928500  1
  O  O40  1  0.40009200  0.11636300  0.86904700  1
  O  O41  1  0.59990800  0.88363700  0.36904700  1
  O  O42  1  0.88363700  0.59990800  0.36904700  1
  O  O43  1  0.07434600  0.91866300  0.99960100  1
  O  O44  1  0.11636300  0.40009200  0.86904700  1
  O  O45  1  0.28860800  0.71526800  0.24969200  1
  O  O46  1  0.71526800  0.28860800  0.24969200  1
  O  O47  1  0.28473200  0.71139200  0.74969200  1
  O  O48  1  0.21065100  0.78635200  0.99797900  1
  O  O49  1  0.78934900  0.21364800  0.49797900  1
  O  O50  1  0.21364800  0.78934900  0.49797900  1
  O  O51  1  0.78635200  0.21065100  0.99797900  1
  O  O52  1  0.59910800  0.49373000  0.72506800  1
  O  O53  1  0.40089200  0.50627000  0.22506800  1
  O  O54  1  0.50627000  0.40089200  0.22506800  1
  O  O55  1  0.49373000  0.59910800  0.72506800  1
  O  O56  1  0.48497700  0.48497700  0.94603300  1
  O  O57  1  0.51502300  0.51502300  0.44603300  1
  O  O58  1  0.10655900  0.10655900  0.75923400  1
  O  O59  1  0.89344100  0.89344100  0.25923400  1
  O  O60  1  0.91866300  0.07434600  0.99960100  1
  O  O61  1  0.08133700  0.92565400  0.49960100  1
  O  O62  1  0.92565400  0.08133700  0.49960100  1
  O  O63  1  0.71139200  0.28473200  0.74969200  1
