# generated using pymatgen
data_Sr5Al2F16
_symmetry_space_group_name_H-M   'P 1'
_cell_length_a   7.36031434
_cell_length_b   7.36031434
_cell_length_c   14.30435500
_cell_angle_alpha   90.00000000
_cell_angle_beta   90.00000000
_cell_angle_gamma   117.93740187
_symmetry_Int_Tables_number   1
_chemical_formula_structural   Sr5Al2F16
_chemical_formula_sum   'Sr10 Al4 F32'
_cell_volume   684.61732757
_cell_formula_units_Z   2
loop_
 _symmetry_equiv_pos_site_id
 _symmetry_equiv_pos_as_xyz
  1  'x, y, z'
loop_
 _atom_site_type_symbol
 _atom_site_label
 _atom_site_symmetry_multiplicity
 _atom_site_fract_x
 _atom_site_fract_y
 _atom_site_fract_z
 _atom_site_occupancy
  Sr  Sr0  1  0.00000000  0.00000000  0.71775900  1
  Sr  Sr1  1  0.00000000  0.00000000  0.28224100  1
  Sr  Sr2  1  0.50000000  0.50000000  0.78224100  1
  Sr  Sr3  1  0.50000000  0.50000000  0.21775900  1
  Sr  Sr4  1  0.50000000  0.50000000  0.50000000  1
  Sr  Sr5  1  0.00000000  0.00000000  0.00000000  1
  Sr  Sr6  1  0.00000000  0.50000000  0.62684300  1
  Sr  Sr7  1  0.50000000  0.00000000  0.37315700  1
  Sr  Sr8  1  0.50000000  0.00000000  0.87315700  1
  Sr  Sr9  1  0.00000000  0.50000000  0.12684300  1
  Al  Al10  1  0.50000000  0.00000000  0.62180900  1
  Al  Al11  1  0.00000000  0.50000000  0.37819100  1
  Al  Al12  1  0.00000000  0.50000000  0.87819100  1
  Al  Al13  1  0.50000000  0.00000000  0.12180900  1
  F  F14  1  0.51787300  0.18092400  0.71277700  1
  F  F15  1  0.48212700  0.81907600  0.71277700  1
  F  F16  1  0.18092400  0.51787300  0.28722300  1
  F  F17  1  0.81907600  0.48212700  0.28722300  1
  F  F18  1  0.98212700  0.31907600  0.78722300  1
  F  F19  1  0.01787300  0.68092400  0.78722300  1
  F  F20  1  0.31907600  0.98212700  0.21277700  1
  F  F21  1  0.68092400  0.01787300  0.21277700  1
  F  F22  1  0.21561400  0.88189700  0.62231300  1
  F  F23  1  0.78438600  0.11810300  0.62231300  1
  F  F24  1  0.88189700  0.21561400  0.37768700  1
  F  F25  1  0.11810300  0.78438600  0.37768700  1
  F  F26  1  0.28438600  0.61810300  0.87768700  1
  F  F27  1  0.71561400  0.38189700  0.87768700  1
  F  F28  1  0.66941900  0.00047800  0.02986700  1
  F  F29  1  0.33058100  0.99952200  0.02986700  1
  F  F30  1  0.00047800  0.66941900  0.97013300  1
  F  F31  1  0.99952200  0.33058100  0.97013300  1
  F  F32  1  0.83058100  0.49952200  0.47013300  1
  F  F33  1  0.16941900  0.50047800  0.47013300  1
  F  F34  1  0.49952200  0.83058100  0.52986700  1
  F  F35  1  0.50047800  0.16941900  0.52986700  1
  F  F36  1  0.86324000  0.75778900  0.14612900  1
  F  F37  1  0.13676000  0.24221100  0.14612900  1
  F  F38  1  0.75778900  0.86324000  0.85387100  1
  F  F39  1  0.24221100  0.13676000  0.85387100  1
  F  F40  1  0.63676000  0.74221100  0.35387100  1
  F  F41  1  0.36324000  0.25778900  0.35387100  1
  F  F42  1  0.74221100  0.63676000  0.64612900  1
  F  F43  1  0.25778900  0.36324000  0.64612900  1
  F  F44  1  0.38189700  0.71561400  0.12231300  1
  F  F45  1  0.61810300  0.28438600  0.12231300  1
