# generated using pymatgen
data_Dy(NiSb)2
_symmetry_space_group_name_H-M   'P 1'
_cell_length_a   4.40771200
_cell_length_b   4.40771200
_cell_length_c   9.90133500
_cell_angle_alpha   90.00000000
_cell_angle_beta   90.00000000
_cell_angle_gamma   90.00000000
_symmetry_Int_Tables_number   1
_chemical_formula_structural   Dy(NiSb)2
_chemical_formula_sum   'Dy2 Ni4 Sb4'
_cell_volume   192.36239452
_cell_formula_units_Z   2
loop_
 _symmetry_equiv_pos_site_id
 _symmetry_equiv_pos_as_xyz
  1  'x, y, z'
loop_
 _atom_site_type_symbol
 _atom_site_label
 _atom_site_symmetry_multiplicity
 _atom_site_fract_x
 _atom_site_fract_y
 _atom_site_fract_z
 _atom_site_occupancy
  Dy  Dy0  1  0.00000000  0.50000000  0.24133700  1
  Dy  Dy1  1  0.50000000  0.00000000  0.75866300  1
  Ni  Ni2  1  0.00000000  0.00000000  0.00000000  1
  Ni  Ni3  1  0.50000000  0.50000000  0.00000000  1
  Ni  Ni4  1  0.00000000  0.50000000  0.62480600  1
  Ni  Ni5  1  0.50000000  0.00000000  0.37519400  1
  Sb  Sb6  1  0.00000000  0.00000000  0.50000000  1
  Sb  Sb7  1  0.50000000  0.50000000  0.50000000  1
  Sb  Sb8  1  0.00000000  0.50000000  0.87301300  1
  Sb  Sb9  1  0.50000000  0.00000000  0.12698700  1
