# generated using pymatgen
data_Ti4FeS8
_symmetry_space_group_name_H-M   'P 1'
_cell_length_a   6.52055836
_cell_length_b   6.52055836
_cell_length_c   8.02618645
_cell_angle_alpha   54.11122311
_cell_angle_beta   54.11122311
_cell_angle_gamma   62.67000983
_symmetry_Int_Tables_number   1
_chemical_formula_structural   Ti4FeS8
_chemical_formula_sum   'Ti4 Fe1 S8'
_cell_volume   220.49052119
_cell_formula_units_Z   1
loop_
 _symmetry_equiv_pos_site_id
 _symmetry_equiv_pos_as_xyz
  1  'x, y, z'
loop_
 _atom_site_type_symbol
 _atom_site_label
 _atom_site_symmetry_multiplicity
 _atom_site_fract_x
 _atom_site_fract_y
 _atom_site_fract_z
 _atom_site_occupancy
  Ti  Ti0  1  0.73925700  0.26074300  0.50000000  1
  Ti  Ti1  1  0.26074300  0.73925700  0.50000000  1
  Ti  Ti2  1  0.73950400  0.73950400  0.00610100  1
  Ti  Ti3  1  0.26049600  0.26049600  0.99389900  1
  Fe  Fe4  1  0.00000000  0.00000000  0.00000000  1
  S  S5  1  0.44120800  0.95765400  0.83458600  1
  S  S6  1  0.04234600  0.55879200  0.16541400  1
  S  S7  1  0.55879200  0.04234600  0.16541400  1
  S  S8  1  0.95765400  0.44120800  0.83458600  1
  S  S9  1  0.55032100  0.55032100  0.66536000  1
  S  S10  1  0.44967900  0.44967900  0.33464000  1
  S  S11  1  0.03647300  0.03647300  0.67686600  1
  S  S12  1  0.96352700  0.96352700  0.32313400  1
