# generated using pymatgen
data_SrLaI4
_symmetry_space_group_name_H-M   'P 1'
_cell_length_a   9.14081544
_cell_length_b   9.14081544
_cell_length_c   7.56849224
_cell_angle_alpha   71.06135307
_cell_angle_beta   71.06135307
_cell_angle_gamma   110.94463406
_symmetry_Int_Tables_number   1
_chemical_formula_structural   SrLaI4
_chemical_formula_sum   'Sr2 La2 I8'
_cell_volume   484.19029227
_cell_formula_units_Z   2
loop_
 _symmetry_equiv_pos_site_id
 _symmetry_equiv_pos_as_xyz
  1  'x, y, z'
loop_
 _atom_site_type_symbol
 _atom_site_label
 _atom_site_symmetry_multiplicity
 _atom_site_fract_x
 _atom_site_fract_y
 _atom_site_fract_z
 _atom_site_occupancy
  Sr  Sr0  1  0.63484100  0.36515900  0.75000000  1
  Sr  Sr1  1  0.36515900  0.63484100  0.25000000  1
  La  La2  1  0.99964600  0.00035400  0.25000000  1
  La  La3  1  0.00035400  0.99964600  0.75000000  1
  I  I4  1  0.94626500  0.29974800  0.41227100  1
  I  I5  1  0.70025200  0.05373500  0.08772900  1
  I  I6  1  0.05373500  0.70025200  0.58772900  1
  I  I7  1  0.29974800  0.94626500  0.91227100  1
  I  I8  1  0.36573800  0.24275800  0.26255900  1
  I  I9  1  0.75724200  0.63426200  0.23744100  1
  I  I10  1  0.63426200  0.75724200  0.73744100  1
  I  I11  1  0.24275800  0.36573900  0.76255900  1
