# generated using pymatgen
data_La2Mo4O15
_symmetry_space_group_name_H-M   'P 1'
_cell_length_a   12.96234100
_cell_length_b   9.28492800
_cell_length_c   14.18694936
_cell_angle_alpha   49.18552979
_cell_angle_beta   90.00000000
_cell_angle_gamma   90.00000000
_symmetry_Int_Tables_number   1
_chemical_formula_structural   La2Mo4O15
_chemical_formula_sum   'La8 Mo16 O60'
_cell_volume   1292.25834253
_cell_formula_units_Z   4
loop_
 _symmetry_equiv_pos_site_id
 _symmetry_equiv_pos_as_xyz
  1  'x, y, z'
loop_
 _atom_site_type_symbol
 _atom_site_label
 _atom_site_symmetry_multiplicity
 _atom_site_fract_x
 _atom_site_fract_y
 _atom_site_fract_z
 _atom_site_occupancy
  La  La0  1  0.35517800  0.30934200  0.77289500  1
  La  La1  1  0.85517800  0.69065800  0.72710500  1
  La  La2  1  0.64482200  0.69065800  0.22710500  1
  La  La3  1  0.14482200  0.30934200  0.27289500  1
  La  La4  1  0.37333600  0.89600500  0.75647700  1
  La  La5  1  0.87333600  0.10399500  0.74352300  1
  La  La6  1  0.62666400  0.10399500  0.24352300  1
  La  La7  1  0.12666400  0.89600500  0.25647700  1
  Mo  Mo8  1  0.33415600  0.77006500  0.09228900  1
  Mo  Mo9  1  0.83415600  0.22993500  0.40771100  1
  Mo  Mo10  1  0.66584400  0.22993500  0.90771100  1
  Mo  Mo11  1  0.16584400  0.77006500  0.59228900  1
  Mo  Mo12  1  0.34594200  0.31362000  0.05876800  1
  Mo  Mo13  1  0.84594200  0.68638000  0.44123200  1
  Mo  Mo14  1  0.65405800  0.68638000  0.94123200  1
  Mo  Mo15  1  0.15405800  0.31362000  0.55876800  1
  Mo  Mo16  1  0.59027600  0.32409800  0.60146300  1
  Mo  Mo17  1  0.09027600  0.67590200  0.89853700  1
  Mo  Mo18  1  0.40972400  0.67590200  0.39853700  1
  Mo  Mo19  1  0.90972400  0.32409800  0.10146300  1
  Mo  Mo20  1  0.56053200  0.68275600  0.62050500  1
  Mo  Mo21  1  0.06053200  0.31724400  0.87949500  1
  Mo  Mo22  1  0.43946800  0.31724400  0.37949500  1
  Mo  Mo23  1  0.93946800  0.68275600  0.12050500  1
  O  O24  1  0.22836000  0.21984300  0.15541200  1
  O  O25  1  0.72836000  0.78015700  0.34458800  1
  O  O26  1  0.77164000  0.78015700  0.84458800  1
  O  O27  1  0.27164000  0.21984300  0.65541200  1
  O  O28  1  0.48768300  0.17837200  0.70956200  1
  O  O29  1  0.98768300  0.82162800  0.79043800  1
  O  O30  1  0.51231700  0.82162800  0.29043800  1
  O  O31  1  0.01231700  0.17837200  0.20956200  1
  O  O32  1  0.55115900  0.44331500  0.43927600  1
  O  O33  1  0.05115900  0.55668500  0.06072400  1
  O  O34  1  0.44884100  0.55668500  0.56072400  1
  O  O35  1  0.94884100  0.44331500  0.93927600  1
  O  O36  1  0.45135500  0.64435200  0.18370900  1
  O  O37  1  0.95135500  0.35564800  0.31629100  1
  O  O38  1  0.54864500  0.35564800  0.81629100  1
  O  O39  1  0.04864500  0.64435200  0.68370900  1
  O  O40  1  0.64541600  0.50219400  0.60618300  1
  O  O41  1  0.14541600  0.49780600  0.89381700  1
  O  O42  1  0.35458400  0.49780600  0.39381700  1
  O  O43  1  0.85458400  0.50219400  0.10618300  1
  O  O44  1  0.36255800  0.95068900  0.92594400  1
  O  O45  1  0.86255800  0.04931100  0.57405600  1
  O  O46  1  0.63744200  0.04931100  0.07405600  1
  O  O47  1  0.13744200  0.95068900  0.42594400  1
  O  O48  1  0.69071700  0.16805500  0.64194400  1
  O  O49  1  0.19071700  0.83194500  0.85805600  1
  O  O50  1  0.30928300  0.83194500  0.35805600  1
  O  O51  1  0.80928300  0.16805500  0.14194400  1
  O  O52  1  0.66621000  0.72903800  0.67577100  1
  O  O53  1  0.16621000  0.27096200  0.82422900  1
  O  O54  1  0.33379000  0.27096200  0.32422900  1
  O  O55  1  0.83379000  0.72903800  0.17577100  1
  O  O56  1  0.55933500  0.88906100  0.45946400  1
  O  O57  1  0.05933500  0.11093900  0.04053600  1
  O  O58  1  0.44066500  0.11093900  0.54053600  1
  O  O59  1  0.94066500  0.88906100  0.95946400  1
  O  O60  1  0.35648600  0.56644500  0.95758200  1
  O  O61  1  0.85648600  0.43355500  0.54241800  1
  O  O62  1  0.64351400  0.43355500  0.04241800  1
  O  O63  1  0.14351400  0.56644500  0.45758200  1
  O  O64  1  0.44895400  0.69608400  0.68766200  1
  O  O65  1  0.94895400  0.30391600  0.81233800  1
  O  O66  1  0.55104600  0.30391600  0.31233800  1
  O  O67  1  0.05104600  0.69608400  0.18766200  1
  O  O68  1  0.45583100  0.21189300  0.15807100  1
  O  O69  1  0.95583100  0.78810700  0.34192900  1
  O  O70  1  0.54416900  0.78810700  0.84192900  1
  O  O71  1  0.04416900  0.21189300  0.65807100  1
  O  O72  1  0.35059900  0.25362300  0.96203600  1
  O  O73  1  0.85059900  0.74637700  0.53796400  1
  O  O74  1  0.64940100  0.74637700  0.03796400  1
  O  O75  1  0.14940100  0.25362300  0.46203600  1
  O  O76  1  0.24780600  0.59692800  0.12302200  1
  O  O77  1  0.74780600  0.40307200  0.37697800  1
  O  O78  1  0.75219400  0.40307200  0.87697800  1
  O  O79  1  0.25219400  0.59692800  0.62302200  1
  O  O80  1  0.27146400  0.87225500  0.14785300  1
  O  O81  1  0.77146400  0.12774500  0.35214700  1
  O  O82  1  0.72853600  0.12774500  0.85214700  1
  O  O83  1  0.22853600  0.87225500  0.64785300  1
