# generated using pymatgen
data_SbIF10
_symmetry_space_group_name_H-M   'P 1'
_cell_length_a   12.22101035
_cell_length_b   12.22101035
_cell_length_c   12.22101035
_cell_angle_alpha   139.86746641
_cell_angle_beta   139.54607187
_cell_angle_gamma   58.29920360
_symmetry_Int_Tables_number   1
_chemical_formula_structural   SbIF10
_chemical_formula_sum   'Sb4 I4 F40'
_cell_volume   756.39515889
_cell_formula_units_Z   4
loop_
 _symmetry_equiv_pos_site_id
 _symmetry_equiv_pos_as_xyz
  1  'x, y, z'
loop_
 _atom_site_type_symbol
 _atom_site_label
 _atom_site_symmetry_multiplicity
 _atom_site_fract_x
 _atom_site_fract_y
 _atom_site_fract_z
 _atom_site_occupancy
  Sb  Sb0  1  0.66399800  0.41399800  0.25000000  1
  Sb  Sb1  1  0.83600200  0.08600200  0.75000000  1
  Sb  Sb2  1  0.33600200  0.58600200  0.75000000  1
  Sb  Sb3  1  0.16399800  0.91399800  0.25000000  1
  I  I4  1  0.60047300  0.85047300  0.75000000  1
  I  I5  1  0.89952700  0.64952700  0.25000000  1
  I  I6  1  0.39952700  0.14952700  0.25000000  1
  I  I7  1  0.10047300  0.35047300  0.75000000  1
  F  F8  1  0.61010000  0.12857400  0.56862800  1
  F  F9  1  0.88990000  0.45852800  0.51847400  1
  F  F10  1  0.44005400  0.37142600  0.98152600  1
  F  F11  1  0.05994600  0.04147200  0.93137200  1
  F  F12  1  0.38990000  0.87142600  0.43137200  1
  F  F13  1  0.11010000  0.54147200  0.48152600  1
  F  F14  1  0.55994600  0.62857400  0.01847400  1
  F  F15  1  0.94005400  0.95852800  0.06862800  1
  F  F16  1  0.16339000  0.17391400  0.74661800  1
  F  F17  1  0.33661000  0.08322800  0.01052300  1
  F  F18  1  0.57270400  0.32608600  0.48947700  1
  F  F19  1  0.92729600  0.41677200  0.75338200  1
  F  F20  1  0.83661000  0.82608600  0.25338200  1
  F  F21  1  0.66339000  0.91677200  0.98947700  1
  F  F22  1  0.42729600  0.67391400  0.51052300  1
  F  F23  1  0.07270400  0.58322800  0.24661800  1
  F  F24  1  0.92243100  0.17449200  0.44197500  1
  F  F25  1  0.57756900  0.01954400  0.25206100  1
  F  F26  1  0.26748300  0.32550800  0.24793900  1
  F  F27  1  0.23251700  0.48045600  0.05802500  1
  F  F28  1  0.07756900  0.82550800  0.55802500  1
  F  F29  1  0.42243100  0.98045600  0.74793900  1
  F  F30  1  0.73251700  0.67449200  0.75206100  1
  F  F31  1  0.76748300  0.51954400  0.94197500  1
  F  F32  1  0.25302000  0.00302000  0.25000000  1
  F  F33  1  0.24698000  0.49698000  0.75000000  1
  F  F34  1  0.74698000  0.99698000  0.75000000  1
  F  F35  1  0.75302000  0.50302000  0.25000000  1
  F  F36  1  0.07514800  0.82514800  0.25000000  1
  F  F37  1  0.42485200  0.67485200  0.75000000  1
  F  F38  1  0.92485200  0.17485200  0.75000000  1
  F  F39  1  0.57514800  0.32514800  0.25000000  1
  F  F40  1  0.20755600  0.14171600  0.52003600  1
  F  F41  1  0.29244400  0.81248000  0.93415900  1
  F  F42  1  0.37832000  0.35828400  0.56584100  1
  F  F43  1  0.12168000  0.68752000  0.97996400  1
  F  F44  1  0.79244400  0.85828400  0.47996400  1
  F  F45  1  0.70755600  0.18752000  0.06584100  1
  F  F46  1  0.62168000  0.64171600  0.43415900  1
  F  F47  1  0.87832000  0.31248000  0.02003600  1
