# generated using pymatgen
data_Dy(NiBi)2
_symmetry_space_group_name_H-M   'P 1'
_cell_length_a   4.59949700
_cell_length_b   4.59949700
_cell_length_c   10.30512300
_cell_angle_alpha   90.00000000
_cell_angle_beta   90.00000000
_cell_angle_gamma   90.00000000
_symmetry_Int_Tables_number   1
_chemical_formula_structural   Dy(NiBi)2
_chemical_formula_sum   'Dy2 Ni4 Bi4'
_cell_volume   218.00871730
_cell_formula_units_Z   2
loop_
 _symmetry_equiv_pos_site_id
 _symmetry_equiv_pos_as_xyz
  1  'x, y, z'
loop_
 _atom_site_type_symbol
 _atom_site_label
 _atom_site_symmetry_multiplicity
 _atom_site_fract_x
 _atom_site_fract_y
 _atom_site_fract_z
 _atom_site_occupancy
  Dy  Dy0  1  0.00000000  0.50000000  0.22304500  1
  Dy  Dy1  1  0.50000000  0.00000000  0.77695500  1
  Ni  Ni2  1  0.00000000  0.00000000  0.00000000  1
  Ni  Ni3  1  0.50000000  0.50000000  0.00000000  1
  Ni  Ni4  1  0.00000000  0.50000000  0.63200300  1
  Ni  Ni5  1  0.50000000  0.00000000  0.36799700  1
  Bi  Bi6  1  0.00000000  0.00000000  0.50000000  1
  Bi  Bi7  1  0.50000000  0.50000000  0.50000000  1
  Bi  Bi8  1  0.00000000  0.50000000  0.87595500  1
  Bi  Bi9  1  0.50000000  0.00000000  0.12404500  1
