# generated using pymatgen
data_Y2P4O13
_symmetry_space_group_name_H-M   'P 1'
_cell_length_a   9.48734220
_cell_length_b   9.48734220
_cell_length_c   8.65822300
_cell_angle_alpha   90.00000000
_cell_angle_beta   90.00000000
_cell_angle_gamma   135.86579005
_symmetry_Int_Tables_number   1
_chemical_formula_structural   Y2P4O13
_chemical_formula_sum   'Y4 P8 O26'
_cell_volume   542.67541242
_cell_formula_units_Z   2
loop_
 _symmetry_equiv_pos_site_id
 _symmetry_equiv_pos_as_xyz
  1  'x, y, z'
loop_
 _atom_site_type_symbol
 _atom_site_label
 _atom_site_symmetry_multiplicity
 _atom_site_fract_x
 _atom_site_fract_y
 _atom_site_fract_z
 _atom_site_occupancy
  Y  Y0  1  0.89545500  0.60242900  0.85381900  1
  Y  Y1  1  0.60242900  0.89545500  0.14618100  1
  Y  Y2  1  0.10454500  0.39757100  0.35381900  1
  Y  Y3  1  0.39757100  0.10454500  0.64618100  1
  P  P4  1  0.41782300  0.09778300  0.00030600  1
  P  P5  1  0.09778300  0.41782300  0.99969400  1
  P  P6  1  0.58217700  0.90221700  0.50030600  1
  P  P7  1  0.90221700  0.58217700  0.49969400  1
  P  P8  1  0.27761200  0.15287300  0.27292800  1
  P  P9  1  0.15287300  0.27761200  0.72707200  1
  P  P10  1  0.72238800  0.84712700  0.77292800  1
  P  P11  1  0.84712700  0.72238800  0.22707200  1
  O  O12  1  0.48133000  0.02454400  0.10534500  1
  O  O13  1  0.02454400  0.48133000  0.89465500  1
  O  O14  1  0.51867000  0.97545600  0.60534500  1
  O  O15  1  0.97545600  0.51867000  0.39465500  1
  O  O16  1  0.22746000  0.93096900  0.90143300  1
  O  O17  1  0.93096900  0.22746000  0.09856700  1
  O  O18  1  0.77254000  0.06903100  0.40143300  1
  O  O19  1  0.06903100  0.77254000  0.59856700  1
  O  O20  1  0.57858200  0.26230500  0.88333000  1
  O  O21  1  0.26230500  0.57858200  0.11667000  1
  O  O22  1  0.42141800  0.73769500  0.38333000  1
  O  O23  1  0.73769500  0.42141800  0.61667000  1
  O  O24  1  0.08244500  0.91755500  0.25000000  1
  O  O25  1  0.91755500  0.08244500  0.75000000  1
  O  O26  1  0.79016900  0.62033700  0.39377000  1
  O  O27  1  0.62033700  0.79016900  0.60623000  1
  O  O28  1  0.20983100  0.37966300  0.89377000  1
  O  O29  1  0.37966300  0.20983100  0.10623000  1
  O  O30  1  0.73315300  0.77533100  0.20479300  1
  O  O31  1  0.77533100  0.73315300  0.79520700  1
  O  O32  1  0.26684700  0.22466900  0.70479300  1
  O  O33  1  0.22466900  0.26684700  0.29520700  1
  O  O34  1  0.82952000  0.59955400  0.10338500  1
  O  O35  1  0.59955400  0.82952000  0.89661500  1
  O  O36  1  0.17048000  0.40044600  0.60338500  1
  O  O37  1  0.40044600  0.17048000  0.39661500  1
