# generated using pymatgen
data_Be22W
_symmetry_space_group_name_H-M   'P 1'
_cell_length_a   8.17719919
_cell_length_b   8.17719919
_cell_length_c   8.17719919
_cell_angle_alpha   60.00000000
_cell_angle_beta   60.00000000
_cell_angle_gamma   60.00000000
_symmetry_Int_Tables_number   1
_chemical_formula_structural   Be22W
_chemical_formula_sum   'Be44 W2'
_cell_volume   386.63283449
_cell_formula_units_Z   2
loop_
 _symmetry_equiv_pos_site_id
 _symmetry_equiv_pos_as_xyz
  1  'x, y, z'
loop_
 _atom_site_type_symbol
 _atom_site_label
 _atom_site_symmetry_multiplicity
 _atom_site_fract_x
 _atom_site_fract_y
 _atom_site_fract_z
 _atom_site_occupancy
  Be  Be0  1  0.62500000  0.12500000  0.62500000  1
  Be  Be1  1  0.62500000  0.62500000  0.12500000  1
  Be  Be2  1  0.12500000  0.62500000  0.62500000  1
  Be  Be3  1  0.62500000  0.62500000  0.62500000  1
  Be  Be4  1  0.12500000  0.62500000  0.12500000  1
  Be  Be5  1  0.12500000  0.12500000  0.62500000  1
  Be  Be6  1  0.62500000  0.12500000  0.12500000  1
  Be  Be7  1  0.12500000  0.12500000  0.12500000  1
  Be  Be8  1  0.88497600  0.88497600  0.61502400  1
  Be  Be9  1  0.63497600  0.36502400  0.36502400  1
  Be  Be10  1  0.36502400  0.63497600  0.63497600  1
  Be  Be11  1  0.63497600  0.63497600  0.36502400  1
  Be  Be12  1  0.63497600  0.36502400  0.63497600  1
  Be  Be13  1  0.36502400  0.63497600  0.36502400  1
  Be  Be14  1  0.61502400  0.88497600  0.61502400  1
  Be  Be15  1  0.61502400  0.88497600  0.88497600  1
  Be  Be16  1  0.88497600  0.61502400  0.61502400  1
  Be  Be17  1  0.88497600  0.61502400  0.88497600  1
  Be  Be18  1  0.36502400  0.36502400  0.63497600  1
  Be  Be19  1  0.61502400  0.61502400  0.88497600  1
  Be  Be20  1  0.44917500  0.18132200  0.92032800  1
  Be  Be21  1  0.80082500  0.80082500  0.06867800  1
  Be  Be22  1  0.06867800  0.32967200  0.80082500  1
  Be  Be23  1  0.80082500  0.32967200  0.80082500  1
  Be  Be24  1  0.32967200  0.80082500  0.06867800  1
  Be  Be25  1  0.32967200  0.80082500  0.80082500  1
  Be  Be26  1  0.06867800  0.80082500  0.80082500  1
  Be  Be27  1  0.92032800  0.18132200  0.44917500  1
  Be  Be28  1  0.44917500  0.18132200  0.44917500  1
  Be  Be29  1  0.18132200  0.44917500  0.92032800  1
  Be  Be30  1  0.44917500  0.44917500  0.92032800  1
  Be  Be31  1  0.18132200  0.92032800  0.44917500  1
  Be  Be32  1  0.92032800  0.44917500  0.18132200  1
  Be  Be33  1  0.44917500  0.44917500  0.18132200  1
  Be  Be34  1  0.44917500  0.92032800  0.44917500  1
  Be  Be35  1  0.06867800  0.80082500  0.32967200  1
  Be  Be36  1  0.80082500  0.80082500  0.32967200  1
  Be  Be37  1  0.80082500  0.32967200  0.06867800  1
  Be  Be38  1  0.80082500  0.06867800  0.32967200  1
  Be  Be39  1  0.32967200  0.06867800  0.80082500  1
  Be  Be40  1  0.80082500  0.06867800  0.80082500  1
  Be  Be41  1  0.92032800  0.44917500  0.44917500  1
  Be  Be42  1  0.18132200  0.44917500  0.44917500  1
  Be  Be43  1  0.44917500  0.92032800  0.18132200  1
  W  W44  1  0.25000000  0.25000000  0.25000000  1
  W  W45  1  0.00000000  0.00000000  0.00000000  1
