# generated using pymatgen
data_Pr2Fe2Se2O3
_symmetry_space_group_name_H-M   'P 1'
_cell_length_a   9.90720207
_cell_length_b   9.90720207
_cell_length_c   9.90720207
_cell_angle_alpha   156.03124205
_cell_angle_beta   156.03124205
_cell_angle_gamma   34.15373114
_symmetry_Int_Tables_number   1
_chemical_formula_structural   Pr2Fe2Se2O3
_chemical_formula_sum   'Pr2 Fe2 Se2 O3'
_cell_volume   160.31486057
_cell_formula_units_Z   1
loop_
 _symmetry_equiv_pos_site_id
 _symmetry_equiv_pos_as_xyz
  1  'x, y, z'
loop_
 _atom_site_type_symbol
 _atom_site_label
 _atom_site_symmetry_multiplicity
 _atom_site_fract_x
 _atom_site_fract_y
 _atom_site_fract_z
 _atom_site_occupancy
  Pr  Pr0  1  0.31256900  0.31256900  0.00000000  1
  Pr  Pr1  1  0.68743100  0.68743100  0.00000000  1
  Fe  Fe2  1  0.50000000  0.00000000  0.50000000  1
  Fe  Fe3  1  0.00000000  0.50000000  0.50000000  1
  Se  Se4  1  0.90135300  0.90135300  0.00000000  1
  Se  Se5  1  0.09864700  0.09864700  0.00000000  1
  O  O6  1  0.25000000  0.75000000  0.50000000  1
  O  O7  1  0.75000000  0.25000000  0.50000000  1
  O  O8  1  0.50000000  0.50000000  0.00000000  1
