# generated using pymatgen
data_V6O11
_symmetry_space_group_name_H-M   'P 1'
_cell_length_a   5.56026000
_cell_length_b   7.14219274
_cell_length_c   9.75894402
_cell_angle_alpha   89.26290092
_cell_angle_beta   99.85785783
_cell_angle_gamma   107.79300876
_symmetry_Int_Tables_number   1
_chemical_formula_structural   V6O11
_chemical_formula_sum   'V12 O22'
_cell_volume   363.24374535
_cell_formula_units_Z   2
loop_
 _symmetry_equiv_pos_site_id
 _symmetry_equiv_pos_as_xyz
  1  'x, y, z'
loop_
 _atom_site_type_symbol
 _atom_site_label
 _atom_site_symmetry_multiplicity
 _atom_site_fract_x
 _atom_site_fract_y
 _atom_site_fract_z
 _atom_site_occupancy
  V  V0  1  0.75910600  0.35853900  0.42501900  1
  V  V1  1  0.24089400  0.64146100  0.57498100  1
  V  V2  1  0.68852100  0.92049500  0.75581400  1
  V  V3  1  0.31147900  0.07950500  0.24418600  1
  V  V4  1  0.23099800  0.14017500  0.58606800  1
  V  V5  1  0.76900200  0.85982500  0.41393200  1
  V  V6  1  0.69444800  0.42854000  0.76487800  1
  V  V7  1  0.30555200  0.57146000  0.23512200  1
  V  V8  1  0.18201300  0.19802900  0.93568300  1
  V  V9  1  0.81798700  0.80197100  0.06431700  1
  V  V10  1  0.17473900  0.69238000  0.93077900  1
  V  V11  1  0.82526100  0.30762000  0.06922100  1
  O  O12  1  0.12786600  0.01622800  0.38555700  1
  O  O13  1  0.87213400  0.98377200  0.61444300  1
  O  O14  1  0.63761300  0.08275200  0.34796600  1
  O  O15  1  0.36238700  0.91724800  0.65203400  1
  O  O16  1  0.90464100  0.63945200  0.47475700  1
  O  O17  1  0.09535900  0.36054800  0.52524300  1
  O  O18  1  0.92713000  0.42009100  0.24037300  1
  O  O19  1  0.07287000  0.57990900  0.75962700  1
  O  O20  1  0.20949200  0.45186600  0.03431900  1
  O  O21  1  0.79050800  0.54813400  0.96568100  1
  O  O22  1  0.81791900  0.20414300  0.86050000  1
  O  O23  1  0.18208100  0.79585700  0.13950000  1
  O  O24  1  0.59258500  0.30092400  0.57343300  1
  O  O25  1  0.40741500  0.69907600  0.42656700  1
  O  O26  1  0.32917100  0.25469200  0.78978500  1
  O  O27  1  0.67082900  0.74530800  0.21021500  1
  O  O28  1  0.01680600  0.90835800  0.89394200  1
  O  O29  1  0.98319400  0.09164200  0.10605800  1
  O  O30  1  0.44141000  0.35809100  0.29770300  1
  O  O31  1  0.55859000  0.64190900  0.70229700  1
  O  O32  1  0.47335300  0.17171900  0.07166500  1
  O  O33  1  0.52664700  0.82828100  0.92833500  1
