# generated using pymatgen
data_ThCN
_symmetry_space_group_name_H-M   'P 1'
_cell_length_a   4.02499374
_cell_length_b   4.02499374
_cell_length_c   7.36927563
_cell_angle_alpha   86.51164285
_cell_angle_beta   86.51164285
_cell_angle_gamma   59.25010582
_symmetry_Int_Tables_number   1
_chemical_formula_structural   ThCN
_chemical_formula_sum   'Th2 C2 N2'
_cell_volume   102.34998485
_cell_formula_units_Z   2
loop_
 _symmetry_equiv_pos_site_id
 _symmetry_equiv_pos_as_xyz
  1  'x, y, z'
loop_
 _atom_site_type_symbol
 _atom_site_label
 _atom_site_symmetry_multiplicity
 _atom_site_fract_x
 _atom_site_fract_y
 _atom_site_fract_z
 _atom_site_occupancy
  Th  Th0  1  0.17919700  0.17919700  0.80076100  1
  Th  Th1  1  0.82080300  0.82080300  0.19923900  1
  C  C2  1  0.47016100  0.47016100  0.42106600  1
  C  C3  1  0.52983900  0.52983900  0.57893400  1
  N  N4  1  0.84398500  0.84398500  0.87760500  1
  N  N5  1  0.15601500  0.15601500  0.12239500  1
