# generated using pymatgen
data_Cu4Pd
_symmetry_space_group_name_H-M   'P 1'
_cell_length_a   5.90752200
_cell_length_b   5.90752200
_cell_length_c   7.23370800
_cell_angle_alpha   90.00000000
_cell_angle_beta   90.00000000
_cell_angle_gamma   90.00000000
_symmetry_Int_Tables_number   1
_chemical_formula_structural   Cu4Pd
_chemical_formula_sum   'Cu16 Pd4'
_cell_volume   252.44784580
_cell_formula_units_Z   4
loop_
 _symmetry_equiv_pos_site_id
 _symmetry_equiv_pos_as_xyz
  1  'x, y, z'
loop_
 _atom_site_type_symbol
 _atom_site_label
 _atom_site_symmetry_multiplicity
 _atom_site_fract_x
 _atom_site_fract_y
 _atom_site_fract_z
 _atom_site_occupancy
  Cu  Cu0  1  0.00000000  0.00000000  0.00000000  1
  Cu  Cu1  1  0.00000000  0.00000000  0.50000000  1
  Cu  Cu2  1  0.50000000  0.50000000  0.25000000  1
  Cu  Cu3  1  0.50000000  0.50000000  0.75000000  1
  Cu  Cu4  1  0.19225500  0.60393500  0.00000000  1
  Cu  Cu5  1  0.39606500  0.19225500  0.50000000  1
  Cu  Cu6  1  0.60393500  0.80774500  0.50000000  1
  Cu  Cu7  1  0.80774500  0.39606500  0.00000000  1
  Cu  Cu8  1  0.09675600  0.29717800  0.24924700  1
  Cu  Cu9  1  0.70282200  0.09675600  0.74924700  1
  Cu  Cu10  1  0.29717800  0.90324400  0.74924700  1
  Cu  Cu11  1  0.90324400  0.70282200  0.24924700  1
  Cu  Cu12  1  0.90324400  0.70282200  0.75075300  1
  Cu  Cu13  1  0.29717800  0.90324400  0.25075300  1
  Cu  Cu14  1  0.70282200  0.09675600  0.25075300  1
  Cu  Cu15  1  0.09675600  0.29717800  0.75075300  1
  Pd  Pd16  1  0.39771200  0.20758500  0.00000000  1
  Pd  Pd17  1  0.79241500  0.39771200  0.50000000  1
  Pd  Pd18  1  0.20758500  0.60228800  0.50000000  1
  Pd  Pd19  1  0.60228800  0.79241500  0.00000000  1
