# generated using pymatgen
data_PrCu6
_symmetry_space_group_name_H-M   'P 1'
_cell_length_a   5.08856400
_cell_length_b   8.10205600
_cell_length_c   10.16160800
_cell_angle_alpha   90.00000000
_cell_angle_beta   90.00000000
_cell_angle_gamma   90.00000000
_symmetry_Int_Tables_number   1
_chemical_formula_structural   PrCu6
_chemical_formula_sum   'Pr4 Cu24'
_cell_volume   418.94105211
_cell_formula_units_Z   4
loop_
 _symmetry_equiv_pos_site_id
 _symmetry_equiv_pos_as_xyz
  1  'x, y, z'
loop_
 _atom_site_type_symbol
 _atom_site_label
 _atom_site_symmetry_multiplicity
 _atom_site_fract_x
 _atom_site_fract_y
 _atom_site_fract_z
 _atom_site_occupancy
  Pr  Pr0  1  0.75000000  0.23932800  0.06370900  1
  Pr  Pr1  1  0.25000000  0.76067200  0.93629100  1
  Pr  Pr2  1  0.75000000  0.73932800  0.43629100  1
  Pr  Pr3  1  0.25000000  0.26067200  0.56370900  1
  Cu  Cu4  1  0.75000000  0.35284800  0.35771800  1
  Cu  Cu5  1  0.25000000  0.64715200  0.64228200  1
  Cu  Cu6  1  0.75000000  0.85284800  0.14228200  1
  Cu  Cu7  1  0.25000000  0.14715200  0.85771800  1
  Cu  Cu8  1  0.75000000  0.68155500  0.74386300  1
  Cu  Cu9  1  0.25000000  0.31844500  0.25613700  1
  Cu  Cu10  1  0.75000000  0.18155500  0.75613700  1
  Cu  Cu11  1  0.25000000  0.81844500  0.24386300  1
  Cu  Cu12  1  0.75000000  0.93539100  0.90220400  1
  Cu  Cu13  1  0.25000000  0.06460900  0.09779600  1
  Cu  Cu14  1  0.75000000  0.43539100  0.59779600  1
  Cu  Cu15  1  0.25000000  0.56460900  0.40220400  1
  Cu  Cu16  1  0.75000000  0.59914200  0.98363600  1
  Cu  Cu17  1  0.25000000  0.40085800  0.01636400  1
  Cu  Cu18  1  0.75000000  0.09914200  0.51636400  1
  Cu  Cu19  1  0.25000000  0.90085800  0.48363600  1
  Cu  Cu20  1  0.50506900  0.06521400  0.30931300  1
  Cu  Cu21  1  0.00506900  0.93478600  0.69068700  1
  Cu  Cu22  1  0.99493100  0.56521400  0.19068700  1
  Cu  Cu23  1  0.49493100  0.43478600  0.80931300  1
  Cu  Cu24  1  0.49493100  0.93478600  0.69068700  1
  Cu  Cu25  1  0.99493100  0.06521400  0.30931300  1
  Cu  Cu26  1  0.00506900  0.43478600  0.80931300  1
  Cu  Cu27  1  0.50506900  0.56521400  0.19068700  1
