# generated using pymatgen
data_K5Hg7
_symmetry_space_group_name_H-M   'P 1'
_cell_length_a   8.52723100
_cell_length_b   10.31897800
_cell_length_c   19.81031300
_cell_angle_alpha   90.00000000
_cell_angle_beta   90.00000000
_cell_angle_gamma   90.00000000
_symmetry_Int_Tables_number   1
_chemical_formula_structural   K5Hg7
_chemical_formula_sum   'K20 Hg28'
_cell_volume   1743.15518466
_cell_formula_units_Z   4
loop_
 _symmetry_equiv_pos_site_id
 _symmetry_equiv_pos_as_xyz
  1  'x, y, z'
loop_
 _atom_site_type_symbol
 _atom_site_label
 _atom_site_symmetry_multiplicity
 _atom_site_fract_x
 _atom_site_fract_y
 _atom_site_fract_z
 _atom_site_occupancy
  K  K0  1  0.25000000  0.10583200  0.58828200  1
  K  K1  1  0.75000000  0.89416800  0.41171800  1
  K  K2  1  0.75000000  0.10583200  0.91171800  1
  K  K3  1  0.25000000  0.89416800  0.08828200  1
  K  K4  1  0.25000000  0.99445400  0.89054200  1
  K  K5  1  0.75000000  0.00554600  0.10945800  1
  K  K6  1  0.75000000  0.99445400  0.60945800  1
  K  K7  1  0.25000000  0.00554600  0.39054200  1
  K  K8  1  0.25000000  0.81520600  0.70938400  1
  K  K9  1  0.75000000  0.18479400  0.29061600  1
  K  K10  1  0.75000000  0.81520600  0.79061600  1
  K  K11  1  0.25000000  0.18479400  0.20938500  1
  K  K12  1  0.25000000  0.47916300  0.51651500  1
  K  K13  1  0.75000000  0.52083700  0.48348500  1
  K  K14  1  0.75000000  0.47916300  0.98348500  1
  K  K15  1  0.25000000  0.52083700  0.01651500  1
  K  K16  1  0.25000000  0.42709000  0.72787000  1
  K  K17  1  0.75000000  0.57291000  0.27213000  1
  K  K18  1  0.75000000  0.42709000  0.77213000  1
  K  K19  1  0.25000000  0.57291000  0.22787000  1
  Hg  Hg20  1  0.56718900  0.37004600  0.14302400  1
  Hg  Hg21  1  0.06718900  0.62995400  0.85697600  1
  Hg  Hg22  1  0.43281100  0.37004600  0.35697600  1
  Hg  Hg23  1  0.93281100  0.62995400  0.64302400  1
  Hg  Hg24  1  0.43281100  0.62995400  0.85697600  1
  Hg  Hg25  1  0.93281100  0.37004600  0.14302400  1
  Hg  Hg26  1  0.56718900  0.62995400  0.64302400  1
  Hg  Hg27  1  0.06718900  0.37004600  0.35697600  1
  Hg  Hg28  1  0.06885100  0.67964300  0.38091400  1
  Hg  Hg29  1  0.56885100  0.32035700  0.61908600  1
  Hg  Hg30  1  0.93114900  0.67964300  0.11908600  1
  Hg  Hg31  1  0.43114900  0.32035700  0.88091400  1
  Hg  Hg32  1  0.93114900  0.32035700  0.61908600  1
  Hg  Hg33  1  0.43114900  0.67964300  0.38091400  1
  Hg  Hg34  1  0.06885100  0.32035700  0.88091400  1
  Hg  Hg35  1  0.56885100  0.67964300  0.11908600  1
  Hg  Hg36  1  0.56496100  0.19642900  0.47158100  1
  Hg  Hg37  1  0.06496100  0.80357100  0.52841900  1
  Hg  Hg38  1  0.43503900  0.19642900  0.02841900  1
  Hg  Hg39  1  0.93503900  0.80357100  0.97158100  1
  Hg  Hg40  1  0.43503900  0.80357100  0.52841900  1
  Hg  Hg41  1  0.93503900  0.19642900  0.47158100  1
  Hg  Hg42  1  0.56496100  0.80357100  0.97158100  1
  Hg  Hg43  1  0.06496100  0.19642900  0.02841900  1
  Hg  Hg44  1  0.50000000  0.87442700  0.25000000  1
  Hg  Hg45  1  0.00000000  0.12557300  0.75000000  1
  Hg  Hg46  1  0.50000000  0.12557300  0.75000000  1
  Hg  Hg47  1  0.00000000  0.87442700  0.25000000  1
