# generated using pymatgen
data_Al13Co4
_symmetry_space_group_name_H-M   'P 1'
_cell_length_a   8.20224000
_cell_length_b   12.38816400
_cell_length_c   14.44381200
_cell_angle_alpha   90.00000000
_cell_angle_beta   90.00000000
_cell_angle_gamma   90.00000000
_symmetry_Int_Tables_number   1
_chemical_formula_structural   Al13Co4
_chemical_formula_sum   'Al78 Co24'
_cell_volume   1467.64576548
_cell_formula_units_Z   6
loop_
 _symmetry_equiv_pos_site_id
 _symmetry_equiv_pos_as_xyz
  1  'x, y, z'
loop_
 _atom_site_type_symbol
 _atom_site_label
 _atom_site_symmetry_multiplicity
 _atom_site_fract_x
 _atom_site_fract_y
 _atom_site_fract_z
 _atom_site_occupancy
  Al  Al0  1  0.00000000  0.75544000  0.40372000  1
  Al  Al1  1  0.50000000  0.74456000  0.90372000  1
  Al  Al2  1  0.00000000  0.85056000  0.56495200  1
  Al  Al3  1  0.50000000  0.64944000  0.06495200  1
  Al  Al4  1  0.00000000  0.65613400  0.20981600  1
  Al  Al5  1  0.50000000  0.84386600  0.70981600  1
  Al  Al6  1  0.00000000  0.65983000  0.02495900  1
  Al  Al7  1  0.50000000  0.84017000  0.52495900  1
  Al  Al8  1  0.00000000  0.88576200  0.25621000  1
  Al  Al9  1  0.50000000  0.61423800  0.75621000  1
  Al  Al10  1  0.00000000  0.57066200  0.73916500  1
  Al  Al11  1  0.50000000  0.92933800  0.23916500  1
  Al  Al12  1  0.00000000  0.55424100  0.42161000  1
  Al  Al13  1  0.50000000  0.94575900  0.92161000  1
  Al  Al14  1  0.00000000  0.00000000  0.00000000  1
  Al  Al15  1  0.50000000  0.50000000  0.50000000  1
  Al  Al16  1  0.00000000  0.14944000  0.43504800  1
  Al  Al17  1  0.50000000  0.35056000  0.93504800  1
  Al  Al18  1  0.00000000  0.11423800  0.74379000  1
  Al  Al19  1  0.50000000  0.38576200  0.24379000  1
  Al  Al20  1  0.00000000  0.42933800  0.26083500  1
  Al  Al21  1  0.50000000  0.07066200  0.76083500  1
  Al  Al22  1  0.00000000  0.34017000  0.97504100  1
  Al  Al23  1  0.50000000  0.15983000  0.47504100  1
  Al  Al24  1  0.00000000  0.24456000  0.59628000  1
  Al  Al25  1  0.50000000  0.25544000  0.09628000  1
  Al  Al26  1  0.00000000  0.34386600  0.79018400  1
  Al  Al27  1  0.50000000  0.15613400  0.29018400  1
  Al  Al28  1  0.00000000  0.44575900  0.57839000  1
  Al  Al29  1  0.50000000  0.05424100  0.07839000  1
  Al  Al30  1  0.00000000  0.84793000  0.82934900  1
  Al  Al31  1  0.50000000  0.65207000  0.32934900  1
  Al  Al32  1  0.00000000  0.15207000  0.17065100  1
  Al  Al33  1  0.50000000  0.34793000  0.67065100  1
  Al  Al34  1  0.22162100  0.95518300  0.68350400  1
  Al  Al35  1  0.27837900  0.54481700  0.18350400  1
  Al  Al36  1  0.77837900  0.95518300  0.68350400  1
  Al  Al37  1  0.72162100  0.54481700  0.18350400  1
  Al  Al38  1  0.20973500  0.65857200  0.86821600  1
  Al  Al39  1  0.29026500  0.84142800  0.36821600  1
  Al  Al40  1  0.79026500  0.65857200  0.86821600  1
  Al  Al41  1  0.70973500  0.84142800  0.36821600  1
  Al  Al42  1  0.23150300  0.82916800  0.99201800  1
  Al  Al43  1  0.26849700  0.67083200  0.49201800  1
  Al  Al44  1  0.76849700  0.82916800  0.99201800  1
  Al  Al45  1  0.73150300  0.67083200  0.49201800  1
  Al  Al46  1  0.25078400  0.00000000  0.50000000  1
  Al  Al47  1  0.24921600  0.50000000  0.00000000  1
  Al  Al48  1  0.74921600  0.00000000  0.50000000  1
  Al  Al49  1  0.75078400  0.50000000  0.00000000  1
  Al  Al50  1  0.21976100  0.73431300  0.67906200  1
  Al  Al51  1  0.28023900  0.76568700  0.17906200  1
  Al  Al52  1  0.78023900  0.73431300  0.67906200  1
  Al  Al53  1  0.71976100  0.76568700  0.17906200  1
  Al  Al54  1  0.22078300  0.97136000  0.13417600  1
  Al  Al55  1  0.27921700  0.52864000  0.63417600  1
  Al  Al56  1  0.77921700  0.97136000  0.13417600  1
  Al  Al57  1  0.72078300  0.52864000  0.63417600  1
  Al  Al58  1  0.20973500  0.34142800  0.13178400  1
  Al  Al59  1  0.29026500  0.15857200  0.63178400  1
  Al  Al60  1  0.79026500  0.34142800  0.13178400  1
  Al  Al61  1  0.70973500  0.15857200  0.63178400  1
  Al  Al62  1  0.22162100  0.04481700  0.31649600  1
  Al  Al63  1  0.27837900  0.45518300  0.81649600  1
  Al  Al64  1  0.77837900  0.04481700  0.31649600  1
  Al  Al65  1  0.72162100  0.45518300  0.81649600  1
  Al  Al66  1  0.23150300  0.17083200  0.00798200  1
  Al  Al67  1  0.26849700  0.32916800  0.50798200  1
  Al  Al68  1  0.76849700  0.17083200  0.00798200  1
  Al  Al69  1  0.73150300  0.32916800  0.50798200  1
  Al  Al70  1  0.21976100  0.26568700  0.32093800  1
  Al  Al71  1  0.28023900  0.23431300  0.82093800  1
  Al  Al72  1  0.78023900  0.26568700  0.32093800  1
  Al  Al73  1  0.71976100  0.23431300  0.82093800  1
  Al  Al74  1  0.22078300  0.02864000  0.86582400  1
  Al  Al75  1  0.27921700  0.47136000  0.36582400  1
  Al  Al76  1  0.77921700  0.02864000  0.86582400  1
  Al  Al77  1  0.72078300  0.47136000  0.36582400  1
  Co  Co78  1  0.00000000  0.64588500  0.58350400  1
  Co  Co79  1  0.50000000  0.85411500  0.08350400  1
  Co  Co80  1  0.00000000  0.83744900  0.10060300  1
  Co  Co81  1  0.50000000  0.66255100  0.60060300  1
  Co  Co82  1  0.00000000  0.95070500  0.40903400  1
  Co  Co83  1  0.50000000  0.54929500  0.90903400  1
  Co  Co84  1  0.00000000  0.51873900  0.89775700  1
  Co  Co85  1  0.50000000  0.98126100  0.39775700  1
  Co  Co86  1  0.00000000  0.35411500  0.41649600  1
  Co  Co87  1  0.50000000  0.14588500  0.91649600  1
  Co  Co88  1  0.00000000  0.16255100  0.89939700  1
  Co  Co89  1  0.50000000  0.33744900  0.39939700  1
  Co  Co90  1  0.00000000  0.48126100  0.10224300  1
  Co  Co91  1  0.50000000  0.01873900  0.60224300  1
  Co  Co92  1  0.00000000  0.04929500  0.59096600  1
  Co  Co93  1  0.50000000  0.45070500  0.09096600  1
  Co  Co94  1  0.22262500  0.65674300  0.32280200  1
  Co  Co95  1  0.27737500  0.84325700  0.82280200  1
  Co  Co96  1  0.77737500  0.65674300  0.32280200  1
  Co  Co97  1  0.72262500  0.84325700  0.82280200  1
  Co  Co98  1  0.22262500  0.34325700  0.67719800  1
  Co  Co99  1  0.27737500  0.15674300  0.17719800  1
  Co  Co100  1  0.77737500  0.34325700  0.67719800  1
  Co  Co101  1  0.72262500  0.15674300  0.17719800  1
