# generated using pymatgen
data_LuMn5
_symmetry_space_group_name_H-M   'P 1'
_cell_length_a   4.84504967
_cell_length_b   4.84504967
_cell_length_c   7.95778100
_cell_angle_alpha   90.00000000
_cell_angle_beta   90.00000000
_cell_angle_gamma   119.99999548
_symmetry_Int_Tables_number   1
_chemical_formula_structural   LuMn5
_chemical_formula_sum   'Lu2 Mn10'
_cell_volume   161.77786574
_cell_formula_units_Z   2
loop_
 _symmetry_equiv_pos_site_id
 _symmetry_equiv_pos_as_xyz
  1  'x, y, z'
loop_
 _atom_site_type_symbol
 _atom_site_label
 _atom_site_symmetry_multiplicity
 _atom_site_fract_x
 _atom_site_fract_y
 _atom_site_fract_z
 _atom_site_occupancy
  Lu  Lu0  1  0.66666700  0.33333300  0.75764800  1
  Lu  Lu1  1  0.33333300  0.66666700  0.25764800  1
  Mn  Mn2  1  0.82874600  0.17125400  0.44897200  1
  Mn  Mn3  1  0.65749300  0.82874600  0.94897200  1
  Mn  Mn4  1  0.00000000  0.00000000  0.20255900  1
  Mn  Mn5  1  0.00000000  0.00000000  0.70255900  1
  Mn  Mn6  1  0.33333300  0.66666700  0.62887800  1
  Mn  Mn7  1  0.66666700  0.33333300  0.12887800  1
  Mn  Mn8  1  0.17125400  0.82874600  0.94897200  1
  Mn  Mn9  1  0.34250700  0.17125400  0.44897200  1
  Mn  Mn10  1  0.82874600  0.65749300  0.44897200  1
  Mn  Mn11  1  0.17125400  0.34250700  0.94897200  1
