# generated using pymatgen
data_Sr9Mg38
_symmetry_space_group_name_H-M   'P 1'
_cell_length_a   10.51816467
_cell_length_b   10.51816467
_cell_length_c   27.90024700
_cell_angle_alpha   90.00000000
_cell_angle_beta   90.00000000
_cell_angle_gamma   120.00000422
_symmetry_Int_Tables_number   1
_chemical_formula_structural   Sr9Mg38
_chemical_formula_sum   'Sr18 Mg76'
_cell_volume   2673.12084708
_cell_formula_units_Z   2
loop_
 _symmetry_equiv_pos_site_id
 _symmetry_equiv_pos_as_xyz
  1  'x, y, z'
loop_
 _atom_site_type_symbol
 _atom_site_label
 _atom_site_symmetry_multiplicity
 _atom_site_fract_x
 _atom_site_fract_y
 _atom_site_fract_z
 _atom_site_occupancy
  Sr  Sr0  1  0.52276500  0.04553000  0.25000000  1
  Sr  Sr1  1  0.47723500  0.52276500  0.75000000  1
  Sr  Sr2  1  0.04553000  0.52276500  0.75000000  1
  Sr  Sr3  1  0.95447000  0.47723500  0.25000000  1
  Sr  Sr4  1  0.52276500  0.47723500  0.25000000  1
  Sr  Sr5  1  0.47723500  0.95447000  0.75000000  1
  Sr  Sr6  1  0.13876000  0.27751900  0.06275300  1
  Sr  Sr7  1  0.86124000  0.13876000  0.56275300  1
  Sr  Sr8  1  0.27751900  0.13876000  0.56275300  1
  Sr  Sr9  1  0.72248100  0.86124000  0.06275300  1
  Sr  Sr10  1  0.13876000  0.86124000  0.06275300  1
  Sr  Sr11  1  0.86124000  0.72248100  0.93724700  1
  Sr  Sr12  1  0.86124000  0.13876000  0.93724700  1
  Sr  Sr13  1  0.86124000  0.72248100  0.56275300  1
  Sr  Sr14  1  0.27751900  0.13876000  0.93724700  1
  Sr  Sr15  1  0.72248100  0.86124000  0.43724700  1
  Sr  Sr16  1  0.13876000  0.27751900  0.43724700  1
  Sr  Sr17  1  0.13876000  0.86124000  0.43724700  1
  Mg  Mg18  1  0.00000000  0.00000000  0.15738500  1
  Mg  Mg19  1  0.00000000  0.00000000  0.65738500  1
  Mg  Mg20  1  0.00000000  0.00000000  0.84261500  1
  Mg  Mg21  1  0.00000000  0.00000000  0.34261500  1
  Mg  Mg22  1  0.33333300  0.66666700  0.04200500  1
  Mg  Mg23  1  0.66666700  0.33333300  0.54200500  1
  Mg  Mg24  1  0.66666700  0.33333300  0.95799500  1
  Mg  Mg25  1  0.33333300  0.66666700  0.45799500  1
  Mg  Mg26  1  0.33333300  0.66666700  0.15701300  1
  Mg  Mg27  1  0.66666700  0.33333300  0.65701300  1
  Mg  Mg28  1  0.66666700  0.33333300  0.84298700  1
  Mg  Mg29  1  0.33333300  0.66666700  0.34298700  1
  Mg  Mg30  1  0.33333300  0.66666700  0.65071700  1
  Mg  Mg31  1  0.66666700  0.33333300  0.15071700  1
  Mg  Mg32  1  0.66666700  0.33333300  0.34928300  1
  Mg  Mg33  1  0.33333300  0.66666700  0.84928300  1
  Mg  Mg34  1  0.50000000  0.00000000  0.00000000  1
  Mg  Mg35  1  0.50000000  0.50000000  0.50000000  1
  Mg  Mg36  1  0.00000000  0.50000000  0.50000000  1
  Mg  Mg37  1  0.00000000  0.50000000  0.00000000  1
  Mg  Mg38  1  0.50000000  0.50000000  0.00000000  1
  Mg  Mg39  1  0.50000000  0.00000000  0.50000000  1
  Mg  Mg40  1  0.90176200  0.80352400  0.25000000  1
  Mg  Mg41  1  0.09823800  0.90176200  0.75000000  1
  Mg  Mg42  1  0.80352400  0.90176200  0.75000000  1
  Mg  Mg43  1  0.19647600  0.09823800  0.25000000  1
  Mg  Mg44  1  0.90176200  0.09823800  0.25000000  1
  Mg  Mg45  1  0.09823800  0.19647600  0.75000000  1
  Mg  Mg46  1  0.23402800  0.46805600  0.55486900  1
  Mg  Mg47  1  0.76597200  0.23402800  0.05486900  1
  Mg  Mg48  1  0.46805600  0.23402800  0.05486900  1
  Mg  Mg49  1  0.53194400  0.76597200  0.55486900  1
  Mg  Mg50  1  0.23402800  0.76597200  0.55486900  1
  Mg  Mg51  1  0.76597200  0.53194400  0.44513100  1
  Mg  Mg52  1  0.76597200  0.23402800  0.44513100  1
  Mg  Mg53  1  0.76597200  0.53194400  0.05486900  1
  Mg  Mg54  1  0.46805600  0.23402800  0.44513100  1
  Mg  Mg55  1  0.53194400  0.76597200  0.94513100  1
  Mg  Mg56  1  0.23402800  0.46805600  0.94513100  1
  Mg  Mg57  1  0.23402800  0.76597200  0.94513100  1
  Mg  Mg58  1  0.50485300  0.00970600  0.61897700  1
  Mg  Mg59  1  0.49514700  0.50485300  0.11897700  1
  Mg  Mg60  1  0.00970600  0.50485300  0.11897700  1
  Mg  Mg61  1  0.99029400  0.49514700  0.61897700  1
  Mg  Mg62  1  0.50485300  0.49514700  0.61897700  1
  Mg  Mg63  1  0.49514700  0.99029400  0.38102300  1
  Mg  Mg64  1  0.49514700  0.50485300  0.38102300  1
  Mg  Mg65  1  0.49514700  0.99029400  0.11897700  1
  Mg  Mg66  1  0.00970600  0.50485300  0.38102300  1
  Mg  Mg67  1  0.99029400  0.49514700  0.88102300  1
  Mg  Mg68  1  0.50485300  0.00970600  0.88102300  1
  Mg  Mg69  1  0.50485300  0.49514700  0.88102300  1
  Mg  Mg70  1  0.16758900  0.33517800  0.65378200  1
  Mg  Mg71  1  0.83241100  0.16758900  0.15378200  1
  Mg  Mg72  1  0.33517800  0.16758900  0.15378200  1
  Mg  Mg73  1  0.66482200  0.83241100  0.65378200  1
  Mg  Mg74  1  0.16758900  0.83241100  0.65378200  1
  Mg  Mg75  1  0.83241100  0.66482200  0.34621800  1
  Mg  Mg76  1  0.83241100  0.16758900  0.34621800  1
  Mg  Mg77  1  0.83241100  0.66482200  0.15378200  1
  Mg  Mg78  1  0.33517800  0.16758900  0.34621800  1
  Mg  Mg79  1  0.66482200  0.83241100  0.84621800  1
  Mg  Mg80  1  0.16758900  0.33517800  0.84621800  1
  Mg  Mg81  1  0.16758900  0.83241100  0.84621800  1
  Mg  Mg82  1  0.16994700  0.33989500  0.18983000  1
  Mg  Mg83  1  0.83005300  0.16994700  0.68983000  1
  Mg  Mg84  1  0.33989500  0.16994700  0.68983000  1
  Mg  Mg85  1  0.66010500  0.83005300  0.18983000  1
  Mg  Mg86  1  0.16994700  0.83005300  0.18983000  1
  Mg  Mg87  1  0.83005300  0.66010500  0.81017000  1
  Mg  Mg88  1  0.83005300  0.16994700  0.81017000  1
  Mg  Mg89  1  0.83005300  0.66010500  0.68983000  1
  Mg  Mg90  1  0.33989500  0.16994700  0.81017000  1
  Mg  Mg91  1  0.66010500  0.83005300  0.31017000  1
  Mg  Mg92  1  0.16994700  0.33989500  0.31017000  1
  Mg  Mg93  1  0.16994700  0.83005300  0.31017000  1
