# generated using pymatgen
data_Nb5Te4
_symmetry_space_group_name_H-M   'P 1'
_cell_length_a   7.60670240
_cell_length_b   7.60670240
_cell_length_c   7.60670240
_cell_angle_alpha   93.37193050
_cell_angle_beta   93.37193050
_cell_angle_gamma   151.92902428
_symmetry_Int_Tables_number   1
_chemical_formula_structural   Nb5Te4
_chemical_formula_sum   'Nb5 Te4'
_cell_volume   200.93048201
_cell_formula_units_Z   1
loop_
 _symmetry_equiv_pos_site_id
 _symmetry_equiv_pos_as_xyz
  1  'x, y, z'
loop_
 _atom_site_type_symbol
 _atom_site_label
 _atom_site_symmetry_multiplicity
 _atom_site_fract_x
 _atom_site_fract_y
 _atom_site_fract_z
 _atom_site_occupancy
  Nb  Nb0  1  0.00000000  0.00000000  0.00000000  1
  Nb  Nb1  1  0.68881100  0.38009200  0.06890300  1
  Nb  Nb2  1  0.38009200  0.31118900  0.69128200  1
  Nb  Nb3  1  0.61990800  0.68881100  0.30871800  1
  Nb  Nb4  1  0.31118900  0.61990800  0.93109700  1
  Te  Te5  1  0.93950900  0.28501300  0.22452200  1
  Te  Te6  1  0.28501300  0.06049100  0.34550500  1
  Te  Te7  1  0.71498700  0.93950900  0.65449500  1
  Te  Te8  1  0.06049100  0.71498700  0.77547800  1
