# generated using pymatgen
data_Zn12Pt7
_symmetry_space_group_name_H-M   'P 1'
_cell_length_a   2.80123400
_cell_length_b   7.02879100
_cell_length_c   29.33571600
_cell_angle_alpha   90.00000000
_cell_angle_beta   90.00000000
_cell_angle_gamma   90.00000000
_symmetry_Int_Tables_number   1
_chemical_formula_structural   Zn12Pt7
_chemical_formula_sum   'Zn24 Pt14'
_cell_volume   577.59937064
_cell_formula_units_Z   2
loop_
 _symmetry_equiv_pos_site_id
 _symmetry_equiv_pos_as_xyz
  1  'x, y, z'
loop_
 _atom_site_type_symbol
 _atom_site_label
 _atom_site_symmetry_multiplicity
 _atom_site_fract_x
 _atom_site_fract_y
 _atom_site_fract_z
 _atom_site_occupancy
  Zn  Zn0  1  0.50000000  0.87566200  0.07132000  1
  Zn  Zn1  1  0.50000000  0.12433800  0.92868000  1
  Zn  Zn2  1  0.50000000  0.37566200  0.42868000  1
  Zn  Zn3  1  0.50000000  0.62433800  0.57132000  1
  Zn  Zn4  1  0.50000000  0.86271800  0.21637400  1
  Zn  Zn5  1  0.50000000  0.13728200  0.78362600  1
  Zn  Zn6  1  0.50000000  0.36271800  0.28362600  1
  Zn  Zn7  1  0.50000000  0.63728200  0.71637400  1
  Zn  Zn8  1  0.50000000  0.81701800  0.49210100  1
  Zn  Zn9  1  0.50000000  0.18298200  0.50789900  1
  Zn  Zn10  1  0.50000000  0.31701800  0.00789900  1
  Zn  Zn11  1  0.50000000  0.68298200  0.99210100  1
  Zn  Zn12  1  0.50000000  0.62940200  0.14318800  1
  Zn  Zn13  1  0.50000000  0.37059800  0.85681200  1
  Zn  Zn14  1  0.50000000  0.74852100  0.89969900  1
  Zn  Zn15  1  0.50000000  0.25147900  0.10030100  1
  Zn  Zn16  1  0.50000000  0.24852100  0.60030100  1
  Zn  Zn17  1  0.50000000  0.75147900  0.39969900  1
  Zn  Zn18  1  0.50000000  0.76852900  0.80179500  1
  Zn  Zn19  1  0.50000000  0.23147100  0.19820500  1
  Zn  Zn20  1  0.50000000  0.26853000  0.69820500  1
  Zn  Zn21  1  0.50000000  0.73147100  0.30179500  1
  Zn  Zn22  1  0.50000000  0.87059800  0.64318800  1
  Zn  Zn23  1  0.50000000  0.12940200  0.35681200  1
  Pt  Pt24  1  0.00000000  0.53684100  0.06733500  1
  Pt  Pt25  1  0.00000000  0.46315900  0.93266500  1
  Pt  Pt26  1  0.00000000  0.03684100  0.43266500  1
  Pt  Pt27  1  0.00000000  0.96315900  0.56733500  1
  Pt  Pt28  1  0.00000000  0.54063600  0.21864900  1
  Pt  Pt29  1  0.00000000  0.45936400  0.78135100  1
  Pt  Pt30  1  0.00000000  0.04063600  0.28135100  1
  Pt  Pt31  1  0.00000000  0.95936400  0.71864900  1
  Pt  Pt32  1  0.00000000  0.49268700  0.35566300  1
  Pt  Pt33  1  0.00000000  0.50731300  0.64433700  1
  Pt  Pt34  1  0.00000000  0.99268700  0.14433700  1
  Pt  Pt35  1  0.00000000  0.00731300  0.85566300  1
  Pt  Pt36  1  0.00000000  0.50000000  0.50000000  1
  Pt  Pt37  1  0.00000000  0.00000000  0.00000000  1
