# generated using pymatgen
data_C
_symmetry_space_group_name_H-M   'P 1'
_cell_length_a   4.76301000
_cell_length_b   4.76301000
_cell_length_c   4.15145951
_cell_angle_alpha   83.22336966
_cell_angle_beta   83.22336966
_cell_angle_gamma   30.74968342
_symmetry_Int_Tables_number   1
_chemical_formula_structural   C
_chemical_formula_sum   C8
_cell_volume   47.79175392
_cell_formula_units_Z   8
loop_
 _symmetry_equiv_pos_site_id
 _symmetry_equiv_pos_as_xyz
  1  'x, y, z'
loop_
 _atom_site_type_symbol
 _atom_site_label
 _atom_site_symmetry_multiplicity
 _atom_site_fract_x
 _atom_site_fract_y
 _atom_site_fract_z
 _atom_site_occupancy
  C  C0  1  0.94285900  0.94285900  0.87923600  1
  C  C1  1  0.05714100  0.05714100  0.12076400  1
  C  C2  1  0.44192000  0.44192000  0.65364100  1
  C  C3  1  0.55808000  0.55808000  0.34635900  1
  C  C4  1  0.78576800  0.78576800  0.05927000  1
  C  C5  1  0.21423200  0.21423200  0.94073000  1
  C  C6  1  0.27126700  0.27126700  0.58560200  1
  C  C7  1  0.72873300  0.72873300  0.41439800  1
