# generated using pymatgen
data_Ba3(CrS3)2
_symmetry_space_group_name_H-M   'P 1'
_cell_length_a   8.12930336
_cell_length_b   8.12930336
_cell_length_c   8.12930387
_cell_angle_alpha   94.48184481
_cell_angle_beta   94.48184481
_cell_angle_gamma   94.48184268
_symmetry_Int_Tables_number   1
_chemical_formula_structural   Ba3(CrS3)2
_chemical_formula_sum   'Ba6 Cr4 S12'
_cell_volume   532.02739157
_cell_formula_units_Z   2
loop_
 _symmetry_equiv_pos_site_id
 _symmetry_equiv_pos_as_xyz
  1  'x, y, z'
loop_
 _atom_site_type_symbol
 _atom_site_label
 _atom_site_symmetry_multiplicity
 _atom_site_fract_x
 _atom_site_fract_y
 _atom_site_fract_z
 _atom_site_occupancy
  Ba  Ba0  1  0.36500400  0.75000000  0.13499600  1
  Ba  Ba1  1  0.13499600  0.36500400  0.75000000  1
  Ba  Ba2  1  0.75000000  0.13499600  0.36500400  1
  Ba  Ba3  1  0.63499600  0.25000000  0.86500400  1
  Ba  Ba4  1  0.86500400  0.63499600  0.25000000  1
  Ba  Ba5  1  0.25000000  0.86500400  0.63499600  1
  Cr  Cr6  1  0.50000000  0.50000000  0.50000000  1
  Cr  Cr7  1  0.00000000  0.00000000  0.00000000  1
  Cr  Cr8  1  0.25000000  0.25000000  0.25000000  1
  Cr  Cr9  1  0.75000000  0.75000000  0.75000000  1
  S  S10  1  0.51761600  0.40868100  0.20955400  1
  S  S11  1  0.20955400  0.51761600  0.40868100  1
  S  S12  1  0.40868100  0.20955400  0.51761600  1
  S  S13  1  0.98238400  0.29044600  0.09131900  1
  S  S14  1  0.09131900  0.98238400  0.29044600  1
  S  S15  1  0.29044600  0.09131900  0.98238400  1
  S  S16  1  0.48238400  0.59131900  0.79044600  1
  S  S17  1  0.79044600  0.48238400  0.59131900  1
  S  S18  1  0.59131900  0.79044600  0.48238400  1
  S  S19  1  0.01761600  0.70955400  0.90868100  1
  S  S20  1  0.70955400  0.90868100  0.01761600  1
  S  S21  1  0.90868100  0.01761600  0.70955400  1
