# generated using pymatgen
data_AsPd2
_symmetry_space_group_name_H-M   'P 1'
_cell_length_a   6.73013622
_cell_length_b   6.73013622
_cell_length_c   3.69186600
_cell_angle_alpha   90.00000000
_cell_angle_beta   90.00000000
_cell_angle_gamma   120.00000215
_symmetry_Int_Tables_number   1
_chemical_formula_structural   AsPd2
_chemical_formula_sum   'As3 Pd6'
_cell_volume   144.81857201
_cell_formula_units_Z   3
loop_
 _symmetry_equiv_pos_site_id
 _symmetry_equiv_pos_as_xyz
  1  'x, y, z'
loop_
 _atom_site_type_symbol
 _atom_site_label
 _atom_site_symmetry_multiplicity
 _atom_site_fract_x
 _atom_site_fract_y
 _atom_site_fract_z
 _atom_site_occupancy
  As  As0  1  0.33333300  0.66666700  0.00000000  1
  As  As1  1  0.66666700  0.33333300  0.00000000  1
  As  As2  1  0.00000000  0.00000000  0.50000000  1
  Pd  Pd3  1  0.00000000  0.73461200  0.00000000  1
  Pd  Pd4  1  0.26538800  0.26538800  0.00000000  1
  Pd  Pd5  1  0.73461200  0.00000000  0.00000000  1
  Pd  Pd6  1  0.00000000  0.39160700  0.50000000  1
  Pd  Pd7  1  0.60839300  0.60839300  0.50000000  1
  Pd  Pd8  1  0.39160700  0.00000000  0.50000000  1
