# generated using pymatgen
data_CsTi2I7
_symmetry_space_group_name_H-M   'P 1'
_cell_length_a   12.62468100
_cell_length_b   12.62468100
_cell_length_c   12.62468100
_cell_angle_alpha   90.00000000
_cell_angle_beta   90.00000000
_cell_angle_gamma   90.00000000
_symmetry_Int_Tables_number   1
_chemical_formula_structural   CsTi2I7
_chemical_formula_sum   'Cs4 Ti8 I28'
_cell_volume   2012.15410765
_cell_formula_units_Z   4
loop_
 _symmetry_equiv_pos_site_id
 _symmetry_equiv_pos_as_xyz
  1  'x, y, z'
loop_
 _atom_site_type_symbol
 _atom_site_label
 _atom_site_symmetry_multiplicity
 _atom_site_fract_x
 _atom_site_fract_y
 _atom_site_fract_z
 _atom_site_occupancy
  Cs  Cs0  1  0.50000000  0.00000000  0.50000000  1
  Cs  Cs1  1  0.00000000  0.50000000  0.50000000  1
  Cs  Cs2  1  0.50000000  0.50000000  0.00000000  1
  Cs  Cs3  1  0.00000000  0.00000000  0.00000000  1
  Ti  Ti4  1  0.37793200  0.37793200  0.37793200  1
  Ti  Ti5  1  0.12206800  0.87793200  0.37793200  1
  Ti  Ti6  1  0.87793200  0.37793200  0.12206800  1
  Ti  Ti7  1  0.37793200  0.12206800  0.87793200  1
  Ti  Ti8  1  0.87793200  0.12206800  0.62206800  1
  Ti  Ti9  1  0.62206800  0.62206800  0.62206800  1
  Ti  Ti10  1  0.62206800  0.87793200  0.12206800  1
  Ti  Ti11  1  0.12206800  0.62206800  0.87793200  1
  I  I12  1  0.00000000  0.00000000  0.50000000  1
  I  I13  1  0.23722200  0.00040500  0.25646200  1
  I  I14  1  0.50000000  0.00000000  0.00000000  1
  I  I15  1  0.00000000  0.50000000  0.00000000  1
  I  I16  1  0.26277800  0.50040500  0.25646200  1
  I  I17  1  0.25646200  0.26277800  0.50040500  1
  I  I18  1  0.50040500  0.25646200  0.26277800  1
  I  I19  1  0.73722200  0.49959500  0.74353800  1
  I  I20  1  0.74353800  0.73722200  0.49959500  1
  I  I21  1  0.49959500  0.74353800  0.73722200  1
  I  I22  1  0.50000000  0.50000000  0.50000000  1
  I  I23  1  0.73722200  0.00040500  0.24353800  1
  I  I24  1  0.24353800  0.73722200  0.00040500  1
  I  I25  1  0.00040500  0.24353800  0.73722200  1
  I  I26  1  0.26277800  0.99959500  0.75646200  1
  I  I27  1  0.75646200  0.26277800  0.99959500  1
  I  I28  1  0.99959500  0.75646200  0.26277800  1
  I  I29  1  0.49959500  0.75646200  0.23722200  1
  I  I30  1  0.23722200  0.49959500  0.75646200  1
  I  I31  1  0.75646200  0.23722200  0.49959500  1
  I  I32  1  0.50040500  0.24353800  0.76277800  1
  I  I33  1  0.76277800  0.50040500  0.24353800  1
  I  I34  1  0.24353800  0.76277800  0.50040500  1
  I  I35  1  0.74353800  0.76277800  0.99959500  1
  I  I36  1  0.99959500  0.74353800  0.76277800  1
  I  I37  1  0.76277800  0.99959500  0.74353800  1
  I  I38  1  0.25646200  0.23722200  0.00040500  1
  I  I39  1  0.00040500  0.25646200  0.23722200  1
