# generated using pymatgen
data_La4PdO7
_symmetry_space_group_name_H-M   'P 1'
_cell_length_a   7.00387798
_cell_length_b   7.00387798
_cell_length_c   9.42316710
_cell_angle_alpha   49.28313334
_cell_angle_beta   49.28313334
_cell_angle_gamma   33.97793476
_symmetry_Int_Tables_number   1
_chemical_formula_structural   La4PdO7
_chemical_formula_sum   'La4 Pd1 O7'
_cell_volume   188.91477321
_cell_formula_units_Z   1
loop_
 _symmetry_equiv_pos_site_id
 _symmetry_equiv_pos_as_xyz
  1  'x, y, z'
loop_
 _atom_site_type_symbol
 _atom_site_label
 _atom_site_symmetry_multiplicity
 _atom_site_fract_x
 _atom_site_fract_y
 _atom_site_fract_z
 _atom_site_occupancy
  La  La0  1  0.58469500  0.58469500  0.61138300  1
  La  La1  1  0.41530500  0.41530500  0.38861700  1
  La  La2  1  0.74936800  0.74936800  0.84026700  1
  La  La3  1  0.25063200  0.25063200  0.15973300  1
  Pd  Pd4  1  0.00000000  0.00000000  0.00000000  1
  O  O5  1  0.79719000  0.79719000  0.55326300  1
  O  O6  1  0.20281000  0.20281000  0.44673700  1
  O  O7  1  0.08967800  0.08967800  0.11022100  1
  O  O8  1  0.91032200  0.91032200  0.88977900  1
  O  O9  1  0.36785800  0.36785800  0.69303200  1
  O  O10  1  0.50000000  0.50000000  0.00000000  1
  O  O11  1  0.63214200  0.63214200  0.30696800  1
