# generated using pymatgen
data_CeSe2
_symmetry_space_group_name_H-M   'P 1'
_cell_length_a   12.48095751
_cell_length_b   14.90027543
_cell_length_c   26.53735288
_cell_angle_alpha   90.00000000
_cell_angle_beta   91.24367239
_cell_angle_gamma   90.00000000
_symmetry_Int_Tables_number   1
_chemical_formula_structural   CeSe2
_chemical_formula_sum   'Ce18 Se36'
_cell_volume   4933.98110539
_cell_formula_units_Z   18
loop_
 _symmetry_equiv_pos_site_id
 _symmetry_equiv_pos_as_xyz
  1  'x, y, z'
loop_
 _atom_site_type_symbol
 _atom_site_label
 _atom_site_symmetry_multiplicity
 _atom_site_fract_x
 _atom_site_fract_y
 _atom_site_fract_z
 _atom_site_occupancy
  Ce  Ce0  1  0.55549380  0.82416188  0.49107603  1
  Ce  Ce1  1  0.94450620  0.82416188  0.00892397  1
  Ce  Ce2  1  0.44450620  0.17583812  0.50892397  1
  Ce  Ce3  1  0.05549380  0.17583812  0.99107603  1
  Ce  Ce4  1  0.75434323  0.39782293  0.44435029  1
  Ce  Ce5  1  0.74565677  0.39782293  0.05564971  1
  Ce  Ce6  1  0.24565677  0.60217707  0.55564971  1
  Ce  Ce7  1  0.25434323  0.60217707  0.94435029  1
  Ce  Ce8  1  0.89029654  0.64819627  0.17854071  1
  Ce  Ce9  1  0.60970346  0.64819627  0.32145929  1
  Ce  Ce10  1  0.10970346  0.35180373  0.82145929  1
  Ce  Ce11  1  0.39029654  0.35180373  0.67854071  1
  Ce  Ce12  1  0.14820427  0.34672402  0.42106723  1
  Ce  Ce13  1  0.35179573  0.34672402  0.07893277  1
  Ce  Ce14  1  0.85179573  0.65327598  0.57893277  1
  Ce  Ce15  1  0.64820427  0.65327598  0.92106723  1
  Ce  Ce16  1  0.75000000  0.49590494  0.75000000  1
  Ce  Ce17  1  0.25000000  0.50409506  0.25000000  1
  Se  Se18  1  0.39876550  0.72115276  0.52933539  1
  Se  Se19  1  0.10123450  0.72115276  0.97066461  1
  Se  Se20  1  0.60123450  0.27884724  0.47066461  1
  Se  Se21  1  0.89876550  0.27884724  0.02933539  1
  Se  Se22  1  0.50000000  0.00000000  0.50000000  1
  Se  Se23  1  -0.00000000  0.00000000  0.00000000  1
  Se  Se24  1  0.73712047  0.79771835  0.54638219  1
  Se  Se25  1  0.76287953  0.79771835  0.95361781  1
  Se  Se26  1  0.26287953  0.20228165  0.45361781  1
  Se  Se27  1  0.23712047  0.20228165  0.04638219  1
  Se  Se28  1  0.58613884  0.77521360  0.39394818  1
  Se  Se29  1  0.91386116  0.77521360  0.10605182  1
  Se  Se30  1  0.41386116  0.22478640  0.60605182  1
  Se  Se31  1  0.08613884  0.22478640  0.89394818  1
  Se  Se32  1  0.79663775  0.50980915  0.52223187  1
  Se  Se33  1  0.70336225  0.50980915  0.97776813  1
  Se  Se34  1  0.20336225  0.49019085  0.47776813  1
  Se  Se35  1  0.29663775  0.49019085  0.02223187  1
  Se  Se36  1  0.93665161  0.30804123  0.42396260  1
  Se  Se37  1  0.56334839  0.30804123  0.07603740  1
  Se  Se38  1  0.06334839  0.69195877  0.57603740  1
  Se  Se39  1  0.43665161  0.69195877  0.92396260  1
  Se  Se40  1  0.68364770  0.49456905  0.36377880  1
  Se  Se41  1  0.81635230  0.49456905  0.13622120  1
  Se  Se42  1  0.31635230  0.50543095  0.63622120  1
  Se  Se43  1  0.18364770  0.50543095  0.86377880  1
  Se  Se44  1  0.08213133  0.61151434  0.22389975  1
  Se  Se45  1  0.41786867  0.61151434  0.27610025  1
  Se  Se46  1  0.91786867  0.38848566  0.77610025  1
  Se  Se47  1  0.58213133  0.38848566  0.72389975  1
  Se  Se48  1  0.75000000  0.69940720  0.25000000  1
  Se  Se49  1  0.25000000  0.30059280  0.75000000  1
  Se  Se50  1  0.19846760  0.39210472  0.32605599  1
  Se  Se51  1  0.30153240  0.39210472  0.17394401  1
  Se  Se52  1  0.80153240  0.60789528  0.67394401  1
  Se  Se53  1  0.69846760  0.60789528  0.82605599  1
