# generated using pymatgen
data_As8S9
_symmetry_space_group_name_H-M   'P 1'
_cell_length_a   10.24247400
_cell_length_b   9.64053300
_cell_length_c   10.64344418
_cell_angle_alpha   78.77131143
_cell_angle_beta   90.00000000
_cell_angle_gamma   90.00000000
_symmetry_Int_Tables_number   1
_chemical_formula_structural   As8S9
_chemical_formula_sum   'As16 S18'
_cell_volume   1030.84683661
_cell_formula_units_Z   2
loop_
 _symmetry_equiv_pos_site_id
 _symmetry_equiv_pos_as_xyz
  1  'x, y, z'
loop_
 _atom_site_type_symbol
 _atom_site_label
 _atom_site_symmetry_multiplicity
 _atom_site_fract_x
 _atom_site_fract_y
 _atom_site_fract_z
 _atom_site_occupancy
  As  As0  1  0.03743900  0.68172400  0.61762100  1
  As  As1  1  0.03743900  0.81827600  0.38237900  1
  As  As2  1  0.96256100  0.31827600  0.38237900  1
  As  As3  1  0.96256100  0.18172400  0.61762100  1
  As  As4  1  0.31643600  0.92807700  0.56072700  1
  As  As5  1  0.31643600  0.57192300  0.43927300  1
  As  As6  1  0.68356400  0.07192300  0.43927300  1
  As  As7  1  0.68356400  0.42807700  0.56072700  1
  As  As8  1  0.41239100  0.34717600  0.84196300  1
  As  As9  1  0.41239100  0.15282400  0.15803700  1
  As  As10  1  0.58760900  0.65282400  0.15803700  1
  As  As11  1  0.58760900  0.84717600  0.84196300  1
  As  As12  1  0.22936300  0.43539900  0.98250900  1
  As  As13  1  0.22936300  0.06460100  0.01749100  1
  As  As14  1  0.77063700  0.56460100  0.01749100  1
  As  As15  1  0.77063700  0.93539900  0.98250900  1
  S  S16  1  0.16952900  0.49694700  0.59926800  1
  S  S17  1  0.16952900  0.00305300  0.40073200  1
  S  S18  1  0.83047100  0.50305300  0.40073200  1
  S  S19  1  0.83047100  0.99694700  0.59926800  1
  S  S20  1  0.43284700  0.75000000  0.50000000  1
  S  S21  1  0.56715300  0.25000000  0.50000000  1
  S  S22  1  0.16906300  0.82253200  0.70854000  1
  S  S23  1  0.16906300  0.67746800  0.29146000  1
  S  S24  1  0.83093700  0.17746800  0.29146000  1
  S  S25  1  0.83093700  0.32253200  0.70854000  1
  S  S26  1  0.32125400  0.13879000  0.82332000  1
  S  S27  1  0.32125400  0.36121000  0.17668000  1
  S  S28  1  0.67874600  0.86121000  0.17668000  1
  S  S29  1  0.67874600  0.63879000  0.82332000  1
  S  S30  1  0.55110800  0.25000000  0.00000000  1
  S  S31  1  0.44889200  0.75000000  0.00000000  1
  S  S32  1  0.90877400  0.75000000  0.00000000  1
  S  S33  1  0.09122600  0.25000000  0.00000000  1
