# generated using pymatgen
data_CeSe2
_symmetry_space_group_name_H-M   'P 1'
_cell_length_a   14.93936200
_cell_length_b   14.93936200
_cell_length_c   13.76020200
_cell_angle_alpha   90.00000000
_cell_angle_beta   90.00000000
_cell_angle_gamma   90.00000000
_symmetry_Int_Tables_number   1
_chemical_formula_structural   CeSe2
_chemical_formula_sum   'Ce16 Se32'
_cell_volume   3071.06431194
_cell_formula_units_Z   16
loop_
 _symmetry_equiv_pos_site_id
 _symmetry_equiv_pos_as_xyz
  1  'x, y, z'
loop_
 _atom_site_type_symbol
 _atom_site_label
 _atom_site_symmetry_multiplicity
 _atom_site_fract_x
 _atom_site_fract_y
 _atom_site_fract_z
 _atom_site_occupancy
  Ce  Ce0  1  0.27968800  0.55206700  0.06182400  1
  Ce  Ce1  1  0.72031200  0.55206700  0.43817600  1
  Ce  Ce2  1  0.22031200  0.05206700  0.06182400  1
  Ce  Ce3  1  0.77968800  0.05206700  0.43817600  1
  Ce  Ce4  1  0.72031200  0.44793300  0.06182400  1
  Ce  Ce5  1  0.27968800  0.44793300  0.43817600  1
  Ce  Ce6  1  0.77968800  0.94793300  0.06182400  1
  Ce  Ce7  1  0.22031200  0.94793300  0.43817600  1
  Ce  Ce8  1  0.44793300  0.27968800  0.93817600  1
  Ce  Ce9  1  0.44793300  0.72031200  0.56182400  1
  Ce  Ce10  1  0.94793300  0.22031200  0.93817600  1
  Ce  Ce11  1  0.94793300  0.77968800  0.56182400  1
  Ce  Ce12  1  0.55206700  0.72031200  0.93817600  1
  Ce  Ce13  1  0.55206700  0.27968800  0.56182400  1
  Ce  Ce14  1  0.05206700  0.77968800  0.93817600  1
  Ce  Ce15  1  0.05206700  0.22031200  0.56182400  1
  Se  Se16  1  0.87924300  0.62075700  0.50000000  1
  Se  Se17  1  0.12075700  0.62075700  0.00000000  1
  Se  Se18  1  0.62075700  0.12075700  0.50000000  1
  Se  Se19  1  0.37924300  0.12075700  0.00000000  1
  Se  Se20  1  0.12075700  0.37924300  0.50000000  1
  Se  Se21  1  0.87924300  0.37924300  0.00000000  1
  Se  Se22  1  0.37924300  0.87924300  0.50000000  1
  Se  Se23  1  0.62075700  0.87924300  0.00000000  1
  Se  Se24  1  0.00000000  0.23950600  0.75000000  1
  Se  Se25  1  0.50000000  0.73950600  0.75000000  1
  Se  Se26  1  0.00000000  0.76049400  0.75000000  1
  Se  Se27  1  0.50000000  0.26049400  0.75000000  1
  Se  Se28  1  0.76049400  0.00000000  0.25000000  1
  Se  Se29  1  0.26049400  0.50000000  0.25000000  1
  Se  Se30  1  0.23950600  0.00000000  0.25000000  1
  Se  Se31  1  0.73950600  0.50000000  0.25000000  1
  Se  Se32  1  0.32175200  0.41083500  0.94532200  1
  Se  Se33  1  0.67824800  0.41083500  0.55467800  1
  Se  Se34  1  0.17824800  0.91083500  0.94532200  1
  Se  Se35  1  0.82175200  0.91083500  0.55467800  1
  Se  Se36  1  0.67824800  0.58916500  0.94532200  1
  Se  Se37  1  0.32175200  0.58916500  0.55467800  1
  Se  Se38  1  0.82175200  0.08916500  0.94532200  1
  Se  Se39  1  0.17824800  0.08916500  0.55467800  1
  Se  Se40  1  0.58916500  0.32175200  0.05467800  1
  Se  Se41  1  0.58916500  0.67824800  0.44532200  1
  Se  Se42  1  0.08916500  0.17824800  0.05467800  1
  Se  Se43  1  0.08916500  0.82175200  0.44532200  1
  Se  Se44  1  0.41083500  0.67824800  0.05467800  1
  Se  Se45  1  0.41083500  0.32175200  0.44532200  1
  Se  Se46  1  0.91083500  0.82175200  0.05467800  1
  Se  Se47  1  0.91083500  0.17824800  0.44532200  1
