# generated using pymatgen
data_Si19Te8
_symmetry_space_group_name_H-M   'P 1'
_cell_length_a   10.55554921
_cell_length_b   10.55554921
_cell_length_c   10.55554896
_cell_angle_alpha   89.64445406
_cell_angle_beta   89.64445406
_cell_angle_gamma   89.64445227
_symmetry_Int_Tables_number   1
_chemical_formula_structural   Si19Te8
_chemical_formula_sum   'Si38 Te16'
_cell_volume   1176.02759272
_cell_formula_units_Z   2
loop_
 _symmetry_equiv_pos_site_id
 _symmetry_equiv_pos_as_xyz
  1  'x, y, z'
loop_
 _atom_site_type_symbol
 _atom_site_label
 _atom_site_symmetry_multiplicity
 _atom_site_fract_x
 _atom_site_fract_y
 _atom_site_fract_z
 _atom_site_occupancy
  Si  Si0  1  0.53015800  0.61829200  0.16852700  1
  Si  Si1  1  0.61829200  0.16852700  0.53015800  1
  Si  Si2  1  0.16852700  0.53015800  0.61829200  1
  Si  Si3  1  0.66852700  0.11829200  0.03015800  1
  Si  Si4  1  0.85662600  0.85662600  0.85662600  1
  Si  Si5  1  0.35662600  0.35662600  0.35662600  1
  Si  Si6  1  0.11829200  0.03015800  0.66852700  1
  Si  Si7  1  0.03015800  0.66852700  0.11829200  1
  Si  Si8  1  0.42642900  0.41797100  0.14987000  1
  Si  Si9  1  0.41797100  0.14987000  0.42642900  1
  Si  Si10  1  0.14987000  0.42642900  0.41797100  1
  Si  Si11  1  0.64987000  0.91797100  0.92642900  1
  Si  Si12  1  0.91797100  0.92642900  0.64987000  1
  Si  Si13  1  0.92642900  0.64987000  0.91797100  1
  Si  Si14  1  0.50359900  0.38873300  0.81790600  1
  Si  Si15  1  0.38873300  0.81790600  0.50359900  1
  Si  Si16  1  0.81790600  0.50359900  0.38873300  1
  Si  Si17  1  0.31790600  0.88873300  0.00359900  1
  Si  Si18  1  0.99205700  0.50302500  0.75802200  1
  Si  Si19  1  0.75802200  0.99205700  0.50302500  1
  Si  Si20  1  0.50302500  0.75802200  0.99205700  1
  Si  Si21  1  0.00302500  0.49205700  0.25802200  1
  Si  Si22  1  0.25802200  0.00302500  0.49205700  1
  Si  Si23  1  0.49205700  0.25802200  0.00302500  1
  Si  Si24  1  0.16525900  0.17432600  0.83070200  1
  Si  Si25  1  0.83070200  0.16525900  0.17432500  1
  Si  Si26  1  0.17432600  0.83070200  0.16525900  1
  Si  Si27  1  0.67432600  0.66525900  0.33070200  1
  Si  Si28  1  0.33070200  0.67432600  0.66525900  1
  Si  Si29  1  0.66525900  0.33070200  0.67432500  1
  Si  Si30  1  0.98022300  0.31921700  0.11389500  1
  Si  Si31  1  0.11389500  0.98022300  0.31921700  1
  Si  Si32  1  0.31921700  0.11389500  0.98022300  1
  Si  Si33  1  0.81921700  0.48022300  0.61389500  1
  Si  Si34  1  0.61389500  0.81921700  0.48022300  1
  Si  Si35  1  0.48022300  0.61389500  0.81921700  1
  Si  Si36  1  0.00359900  0.31790600  0.88873300  1
  Si  Si37  1  0.88873300  0.00359900  0.31790600  1
  Te  Te38  1  0.30917600  0.31655700  0.68255400  1
  Te  Te39  1  0.31655700  0.68255400  0.30917600  1
  Te  Te40  1  0.68255400  0.30917600  0.31655700  1
  Te  Te41  1  0.18255400  0.81655700  0.80917600  1
  Te  Te42  1  0.81655700  0.80917600  0.18255400  1
  Te  Te43  1  0.80917600  0.18255400  0.81655700  1
  Te  Te44  1  0.00520400  0.24659400  0.50932000  1
  Te  Te45  1  0.24659400  0.50932000  0.00520400  1
  Te  Te46  1  0.50932000  0.00520400  0.24659400  1
  Te  Te47  1  0.00932000  0.74659400  0.50520400  1
  Te  Te48  1  0.74659400  0.50520400  0.00932000  1
  Te  Te49  1  0.50520400  0.00932000  0.74659400  1
  Te  Te50  1  0.68784200  0.68784200  0.68784200  1
  Te  Te51  1  0.18784200  0.18784200  0.18784200  1
  Te  Te52  1  0.50004600  0.50004600  0.50004600  1
  Te  Te53  1  0.00004600  0.00004600  0.00004600  1
