# generated using pymatgen
data_CeSe2
_symmetry_space_group_name_H-M   'P 1'
_cell_length_a   14.73350500
_cell_length_b   14.88939322
_cell_length_c   17.16146698
_cell_angle_alpha   115.13860770
_cell_angle_beta   114.88566343
_cell_angle_gamma   89.99005268
_symmetry_Int_Tables_number   1
_chemical_formula_structural   CeSe2
_chemical_formula_sum   'Ce16 Se32'
_cell_volume   3017.73022526
_cell_formula_units_Z   16
loop_
 _symmetry_equiv_pos_site_id
 _symmetry_equiv_pos_as_xyz
  1  'x, y, z'
loop_
 _atom_site_type_symbol
 _atom_site_label
 _atom_site_symmetry_multiplicity
 _atom_site_fract_x
 _atom_site_fract_y
 _atom_site_fract_z
 _atom_site_occupancy
  Ce  Ce0  1  0.70448700  0.68058900  0.31223900  1
  Ce  Ce1  1  0.89299600  0.81846000  0.68671500  1
  Ce  Ce2  1  0.79531800  0.36920600  0.68705700  1
  Ce  Ce3  1  0.60756700  0.13129100  0.31326600  1
  Ce  Ce4  1  0.29551300  0.31941100  0.68776100  1
  Ce  Ce5  1  0.10700400  0.18154000  0.31328500  1
  Ce  Ce6  1  0.20468200  0.63079400  0.31294300  1
  Ce  Ce7  1  0.39243300  0.86870900  0.68673400  1
  Ce  Ce8  1  0.31912900  0.29633200  0.18787700  1
  Ce  Ce9  1  0.63002600  0.20365700  0.81270300  1
  Ce  Ce10  1  0.18168500  0.10767200  0.81304900  1
  Ce  Ce11  1  0.86844400  0.39112600  0.18654500  1
  Ce  Ce12  1  0.68087100  0.70366800  0.81212300  1
  Ce  Ce13  1  0.36997400  0.79634300  0.18729700  1
  Ce  Ce14  1  0.81831500  0.89232800  0.18695100  1
  Ce  Ce15  1  0.13155600  0.60887400  0.81345500  1
  Se  Se16  1  0.73693400  0.48750400  0.24985600  1
  Se  Se17  1  0.98703400  0.01234900  0.75008700  1
  Se  Se18  1  0.76327200  0.23704800  0.74985600  1
  Se  Se19  1  0.51278900  0.26198800  0.24955700  1
  Se  Se20  1  0.26306600  0.51249600  0.75014400  1
  Se  Se21  1  0.01296600  0.98765100  0.24991300  1
  Se  Se22  1  0.23672800  0.76295200  0.25014400  1
  Se  Se23  1  0.48721100  0.73801200  0.75044300  1
  Se  Se24  1  0.83184900  0.80601700  0.30313600  1
  Se  Se25  1  0.02880900  0.69389000  0.69726800  1
  Se  Se26  1  0.66906800  0.50328000  0.69747400  1
  Se  Se27  1  0.47083800  0.99561400  0.30211200  1
  Se  Se28  1  0.16815100  0.19398300  0.69686400  1
  Se  Se29  1  0.97119100  0.30611000  0.30273200  1
  Se  Se30  1  0.33093200  0.49672000  0.30252600  1
  Se  Se31  1  0.52916200  0.00438600  0.69788800  1
  Se  Se32  1  0.19383000  0.16874700  0.19680600  1
  Se  Se33  1  0.49626800  0.33023800  0.80241500  1
  Se  Se34  1  0.30590200  0.97168200  0.80261800  1
  Se  Se35  1  0.00383200  0.52783500  0.19734000  1
  Se  Se36  1  0.80617000  0.83125300  0.80319400  1
  Se  Se37  1  0.50373200  0.66976200  0.19758500  1
  Se  Se38  1  0.69409800  0.02831800  0.19738200  1
  Se  Se39  1  0.99616800  0.47216500  0.80266000  1
  Se  Se40  1  0.74150500  0.75002400  0.50050500  1
  Se  Se41  1  0.75776600  0.24982000  0.49961600  1
  Se  Se42  1  0.25849500  0.24997600  0.49949500  1
  Se  Se43  1  0.24223400  0.75018000  0.50038400  1
  Se  Se44  1  0.24966800  0.25844700  0.99939500  1
  Se  Se45  1  0.75010600  0.24158900  0.00037000  1
  Se  Se46  1  0.75033200  0.74155300  0.00060500  1
  Se  Se47  1  0.24989400  0.75841100  0.99963000  1
