# generated using pymatgen
data_Si3W5
_symmetry_space_group_name_H-M   'P 1'
_cell_length_a   7.27988172
_cell_length_b   7.27988172
_cell_length_c   7.27988172
_cell_angle_alpha   96.76948074
_cell_angle_beta   96.76948074
_cell_angle_gamma   139.84030819
_symmetry_Int_Tables_number   1
_chemical_formula_structural   Si3W5
_chemical_formula_sum   'Si6 W10'
_cell_volume   233.69208228
_cell_formula_units_Z   2
loop_
 _symmetry_equiv_pos_site_id
 _symmetry_equiv_pos_as_xyz
  1  'x, y, z'
loop_
 _atom_site_type_symbol
 _atom_site_label
 _atom_site_symmetry_multiplicity
 _atom_site_fract_x
 _atom_site_fract_y
 _atom_site_fract_z
 _atom_site_occupancy
  Si  Si0  1  0.75000000  0.75000000  0.00000000  1
  Si  Si1  1  0.25000000  0.25000000  0.00000000  1
  Si  Si2  1  0.33200300  0.16799700  0.50000000  1
  Si  Si3  1  0.83200300  0.33200300  0.16400600  1
  Si  Si4  1  0.16799700  0.66799700  0.83599400  1
  Si  Si5  1  0.66799700  0.83200300  0.50000000  1
  W  W6  1  0.72398400  0.57503500  0.29901900  1
  W  W7  1  0.27601600  0.42496500  0.70098100  1
  W  W8  1  0.75000000  0.25000000  0.50000000  1
  W  W9  1  0.25000000  0.75000000  0.50000000  1
  W  W10  1  0.57503500  0.27601600  0.85105100  1
  W  W11  1  0.42496500  0.72398400  0.14894900  1
  W  W12  1  0.77601600  0.07503500  0.85105100  1
  W  W13  1  0.92496500  0.77601600  0.70098100  1
  W  W14  1  0.07503500  0.22398400  0.29901900  1
  W  W15  1  0.22398400  0.92496500  0.14894900  1
