# generated using pymatgen
data_CeSe2
_symmetry_space_group_name_H-M   'P 1'
_cell_length_a   18.47242400
_cell_length_b   18.47242400
_cell_length_c   18.47242400
_cell_angle_alpha   99.81178953
_cell_angle_beta   99.81178953
_cell_angle_gamma   131.23702061
_symmetry_Int_Tables_number   1
_chemical_formula_structural   CeSe2
_chemical_formula_sum   'Ce16 Se32'
_cell_volume   4317.32162808
_cell_formula_units_Z   16
loop_
 _symmetry_equiv_pos_site_id
 _symmetry_equiv_pos_as_xyz
  1  'x, y, z'
loop_
 _atom_site_type_symbol
 _atom_site_label
 _atom_site_symmetry_multiplicity
 _atom_site_fract_x
 _atom_site_fract_y
 _atom_site_fract_z
 _atom_site_occupancy
  Ce  Ce0  1  0.22362400  0.08467400  0.65841700  1
  Ce  Ce1  1  0.42625700  0.56520700  0.34158300  1
  Ce  Ce2  1  0.92625700  0.58467400  0.86105000  1
  Ce  Ce3  1  0.72362400  0.06520700  0.13895000  1
  Ce  Ce4  1  0.56520700  0.22362400  0.13895000  1
  Ce  Ce5  1  0.08467400  0.42625700  0.86105000  1
  Ce  Ce6  1  0.06520700  0.92625700  0.34158300  1
  Ce  Ce7  1  0.58467400  0.72362400  0.65841700  1
  Ce  Ce8  1  0.77637600  0.91532600  0.34158300  1
  Ce  Ce9  1  0.57374300  0.43479300  0.65841700  1
  Ce  Ce10  1  0.07374300  0.41532600  0.13895000  1
  Ce  Ce11  1  0.27637600  0.93479300  0.86105000  1
  Ce  Ce12  1  0.43479300  0.77637600  0.86105000  1
  Ce  Ce13  1  0.91532600  0.57374300  0.13895000  1
  Ce  Ce14  1  0.93479300  0.07374300  0.65841700  1
  Ce  Ce15  1  0.41532600  0.27637600  0.34158300  1
  Se  Se16  1  0.10395900  0.10395900  0.70791700  1
  Se  Se17  1  0.39604100  0.39604100  0.29208300  1
  Se  Se18  1  0.89604100  0.60395900  0.00000000  1
  Se  Se19  1  0.60395900  0.89604100  0.00000000  1
  Se  Se20  1  0.39604100  0.10395900  0.00000000  1
  Se  Se21  1  0.10395900  0.39604100  0.00000000  1
  Se  Se22  1  0.89604100  0.89604100  0.29208300  1
  Se  Se23  1  0.60395900  0.60395900  0.70791700  1
  Se  Se24  1  0.87344200  0.03526800  0.50000000  1
  Se  Se25  1  0.53526800  0.37344200  0.50000000  1
  Se  Se26  1  0.03526800  0.53526800  0.16182600  1
  Se  Se27  1  0.37344200  0.87344200  0.83817400  1
  Se  Se28  1  0.12655800  0.96473200  0.50000000  1
  Se  Se29  1  0.46473200  0.62655800  0.50000000  1
  Se  Se30  1  0.96473200  0.46473200  0.83817400  1
  Se  Se31  1  0.62655800  0.12655800  0.16182600  1
  Se  Se32  1  0.58696500  0.72036800  0.30733300  1
  Se  Se33  1  0.41303500  0.27963200  0.69266700  1
  Se  Se34  1  0.91303500  0.22036800  0.13340300  1
  Se  Se35  1  0.08696500  0.77963200  0.86659700  1
  Se  Se36  1  0.27963200  0.58696500  0.86659700  1
  Se  Se37  1  0.72036800  0.41303500  0.13340300  1
  Se  Se38  1  0.77963200  0.91303500  0.69266700  1
  Se  Se39  1  0.22036800  0.08696500  0.30733300  1
  Se  Se40  1  0.25000000  0.51488300  0.26488300  1
  Se  Se41  1  0.25000000  0.98511700  0.73511700  1
  Se  Se42  1  0.75000000  0.01488300  0.26488300  1
  Se  Se43  1  0.75000000  0.48511700  0.73511700  1
  Se  Se44  1  0.98511700  0.25000000  0.73511700  1
  Se  Se45  1  0.51488300  0.25000000  0.26488300  1
  Se  Se46  1  0.48511700  0.75000000  0.73511700  1
  Se  Se47  1  0.01488300  0.75000000  0.26488300  1
