# generated using pymatgen
data_CeSe2
_symmetry_space_group_name_H-M   'P 1'
_cell_length_a   15.68949400
_cell_length_b   15.68949400
_cell_length_c   15.68949374
_cell_angle_alpha   94.24059601
_cell_angle_beta   94.24059601
_cell_angle_gamma   94.24059251
_symmetry_Int_Tables_number   1
_chemical_formula_structural   CeSe2
_chemical_formula_sum   'Ce12 Se24'
_cell_volume   3828.74725802
_cell_formula_units_Z   12
loop_
 _symmetry_equiv_pos_site_id
 _symmetry_equiv_pos_as_xyz
  1  'x, y, z'
loop_
 _atom_site_type_symbol
 _atom_site_label
 _atom_site_symmetry_multiplicity
 _atom_site_fract_x
 _atom_site_fract_y
 _atom_site_fract_z
 _atom_site_occupancy
  Ce  Ce0  1  0.66760300  0.12443000  0.89648500  1
  Ce  Ce1  1  0.89648500  0.66760300  0.12443000  1
  Ce  Ce2  1  0.12443000  0.89648500  0.66760300  1
  Ce  Ce3  1  0.89648500  0.12443000  0.66760300  1
  Ce  Ce4  1  0.66760300  0.89648500  0.12443000  1
  Ce  Ce5  1  0.12443000  0.66760300  0.89648500  1
  Ce  Ce6  1  0.33239700  0.87557000  0.10351500  1
  Ce  Ce7  1  0.10351500  0.33239700  0.87557000  1
  Ce  Ce8  1  0.87557000  0.10351500  0.33239700  1
  Ce  Ce9  1  0.10351500  0.87557000  0.33239700  1
  Ce  Ce10  1  0.33239700  0.10351500  0.87557000  1
  Ce  Ce11  1  0.87557000  0.33239700  0.10351500  1
  Se  Se12  1  0.75099100  0.10997600  0.75099100  1
  Se  Se13  1  0.75099100  0.75099100  0.10997600  1
  Se  Se14  1  0.10997600  0.75099100  0.75099100  1
  Se  Se15  1  0.24900900  0.89002400  0.24900900  1
  Se  Se16  1  0.24900900  0.24900900  0.89002400  1
  Se  Se17  1  0.89002400  0.24900900  0.24900900  1
  Se  Se18  1  0.50000000  0.14618400  0.85381600  1
  Se  Se19  1  0.85381600  0.50000000  0.14618400  1
  Se  Se20  1  0.14618400  0.85381600  0.50000000  1
  Se  Se21  1  0.85381600  0.14618400  0.50000000  1
  Se  Se22  1  0.50000000  0.85381600  0.14618400  1
  Se  Se23  1  0.14618400  0.50000000  0.85381600  1
  Se  Se24  1  0.68054100  0.97785900  0.97785900  1
  Se  Se25  1  0.97785900  0.68054100  0.97785900  1
  Se  Se26  1  0.97785900  0.97785900  0.68054100  1
  Se  Se27  1  0.31945900  0.02214100  0.02214100  1
  Se  Se28  1  0.02214100  0.31945900  0.02214100  1
  Se  Se29  1  0.02214100  0.02214100  0.31945900  1
  Se  Se30  1  0.73739900  0.26260100  0.00000000  1
  Se  Se31  1  0.00000000  0.73739900  0.26260100  1
  Se  Se32  1  0.26260100  0.00000000  0.73739900  1
  Se  Se33  1  0.00000000  0.26260100  0.73739900  1
  Se  Se34  1  0.73739900  0.00000000  0.26260100  1
  Se  Se35  1  0.26260100  0.73739900  0.00000000  1
