# generated using pymatgen
data_CeSe2
_symmetry_space_group_name_H-M   'P 1'
_cell_length_a   14.77522300
_cell_length_b   14.77522300
_cell_length_c   14.77522300
_cell_angle_alpha   90.00000000
_cell_angle_beta   90.00000000
_cell_angle_gamma   90.00000000
_symmetry_Int_Tables_number   1
_chemical_formula_structural   CeSe2
_chemical_formula_sum   'Ce12 Se24'
_cell_volume   3225.53777970
_cell_formula_units_Z   12
loop_
 _symmetry_equiv_pos_site_id
 _symmetry_equiv_pos_as_xyz
  1  'x, y, z'
loop_
 _atom_site_type_symbol
 _atom_site_label
 _atom_site_symmetry_multiplicity
 _atom_site_fract_x
 _atom_site_fract_y
 _atom_site_fract_z
 _atom_site_occupancy
  Ce  Ce0  1  0.64475000  0.58070800  0.83476500  1
  Ce  Ce1  1  0.16523500  0.64475000  0.41929200  1
  Ce  Ce2  1  0.58070800  0.16523500  0.35525000  1
  Ce  Ce3  1  0.64475000  0.41929200  0.16523500  1
  Ce  Ce4  1  0.16523500  0.35525000  0.58070800  1
  Ce  Ce5  1  0.58070800  0.83476500  0.64475000  1
  Ce  Ce6  1  0.35525000  0.58070800  0.16523500  1
  Ce  Ce7  1  0.83476500  0.64475000  0.58070800  1
  Ce  Ce8  1  0.41929200  0.16523500  0.64475000  1
  Ce  Ce9  1  0.35525000  0.41929200  0.83476500  1
  Ce  Ce10  1  0.83476500  0.35525000  0.41929200  1
  Ce  Ce11  1  0.41929200  0.83476500  0.35525000  1
  Se  Se12  1  0.66451900  0.50000000  0.00000000  1
  Se  Se13  1  0.00000000  0.66451900  0.50000000  1
  Se  Se14  1  0.50000000  0.00000000  0.33548100  1
  Se  Se15  1  0.00000000  0.33548100  0.50000000  1
  Se  Se16  1  0.50000000  0.00000000  0.66451900  1
  Se  Se17  1  0.33548100  0.50000000  0.00000000  1
  Se  Se18  1  0.50000000  0.50000000  0.75430600  1
  Se  Se19  1  0.24569400  0.50000000  0.50000000  1
  Se  Se20  1  0.50000000  0.24569400  0.50000000  1
  Se  Se21  1  0.50000000  0.50000000  0.24569400  1
  Se  Se22  1  0.50000000  0.75430600  0.50000000  1
  Se  Se23  1  0.75430600  0.50000000  0.50000000  1
  Se  Se24  1  0.58008500  0.75197900  0.81024200  1
  Se  Se25  1  0.18975800  0.58008500  0.24802100  1
  Se  Se26  1  0.75197900  0.18975800  0.41991500  1
  Se  Se27  1  0.58008500  0.24802100  0.18975800  1
  Se  Se28  1  0.18975800  0.41991500  0.75197900  1
  Se  Se29  1  0.75197900  0.81024200  0.58008500  1
  Se  Se30  1  0.41991500  0.75197900  0.18975800  1
  Se  Se31  1  0.81024200  0.58008500  0.75197900  1
  Se  Se32  1  0.24802100  0.18975800  0.58008500  1
  Se  Se33  1  0.41991500  0.24802100  0.81024200  1
  Se  Se34  1  0.81024200  0.41991500  0.24802100  1
  Se  Se35  1  0.24802100  0.81024200  0.41991500  1
