# generated using pymatgen
data_H30S2O21
_symmetry_space_group_name_H-M   'P 1'
_cell_length_a   13.88084008
_cell_length_b   13.88084008
_cell_length_c   5.93278488
_cell_angle_alpha   85.04430271
_cell_angle_beta   85.04430271
_cell_angle_gamma   153.72639398
_symmetry_Int_Tables_number   1
_chemical_formula_structural   H30S2O21
_chemical_formula_sum   'H30 S2 O21'
_cell_volume   468.03336160
_cell_formula_units_Z   1
loop_
 _symmetry_equiv_pos_site_id
 _symmetry_equiv_pos_as_xyz
  1  'x, y, z'
loop_
 _atom_site_type_symbol
 _atom_site_label
 _atom_site_symmetry_multiplicity
 _atom_site_fract_x
 _atom_site_fract_y
 _atom_site_fract_z
 _atom_site_occupancy
  H  H0  1  0.24896400  0.41072300  0.16032200  1
  H  H1  1  0.41072300  0.24896400  0.16032200  1
  H  H2  1  0.02024900  0.21162200  0.08974900  1
  H  H3  1  0.21162200  0.02024900  0.08974900  1
  H  H4  1  0.92383200  0.92383200  0.55981900  1
  H  H5  1  0.02659900  0.09360100  0.30071500  1
  H  H6  1  0.09360100  0.02659900  0.30071500  1
  H  H7  1  0.76285000  0.82205200  0.93517000  1
  H  H8  1  0.82205200  0.76285000  0.93517000  1
  H  H9  1  0.47762300  0.68484300  0.66039700  1
  H  H10  1  0.68484300  0.47762300  0.66039700  1
  H  H11  1  0.50010800  0.65712600  0.41286700  1
  H  H12  1  0.65712600  0.50010800  0.41286700  1
  H  H13  1  0.37208600  0.43770300  0.70870500  1
  H  H14  1  0.43770300  0.37208600  0.70870500  1
  H  H15  1  0.15048000  0.15048000  0.81565000  1
  H  H16  1  0.23098700  0.57806400  0.41042700  1
  H  H17  1  0.57806400  0.23098800  0.41042700  1
  H  H18  1  0.01425200  0.32494700  0.62256700  1
  H  H19  1  0.32494700  0.01425200  0.62256700  1
  H  H20  1  0.49062900  0.92527600  0.82859000  1
  H  H21  1  0.92527600  0.49062900  0.82859000  1
  H  H22  1  0.47911200  0.02532900  0.72001200  1
  H  H23  1  0.09183000  0.70332500  0.24715600  1
  H  H24  1  0.70332500  0.09183000  0.24715600  1
  H  H25  1  0.31030700  0.90582500  0.35206700  1
  H  H26  1  0.90582500  0.31030700  0.35206700  1
  H  H27  1  0.36169300  0.89805800  0.06943000  1
  H  H28  1  0.89805800  0.36169300  0.06943000  1
  H  H29  1  0.02532900  0.47911200  0.72001200  1
  S  S30  1  0.62148600  0.87957000  0.00106200  1
  S  S31  1  0.87957000  0.62148600  0.00106200  1
  O  O32  1  0.07979800  0.24101500  0.21862100  1
  O  O33  1  0.24101500  0.07979800  0.21862100  1
  O  O34  1  0.97119100  0.97119100  0.37612300  1
  O  O35  1  0.88072100  0.88072100  0.84752000  1
  O  O36  1  0.44582000  0.59757500  0.59209800  1
  O  O37  1  0.59757500  0.44582000  0.59209800  1
  O  O38  1  0.31785100  0.31785100  0.79437500  1
  O  O39  1  0.06171700  0.42885000  0.51424500  1
  O  O40  1  0.42885000  0.06171700  0.51424500  1
  O  O41  1  0.50561800  0.00776900  0.85439200  1
  O  O42  1  0.00776900  0.50561800  0.85439200  1
  O  O43  1  0.80098000  0.23641400  0.25797100  1
  O  O44  1  0.23641400  0.80098000  0.25797100  1
  O  O45  1  0.51400500  0.81528600  0.82154100  1
  O  O46  1  0.81528600  0.51400500  0.82154100  1
  O  O47  1  0.88152800  0.12314600  0.88953000  1
  O  O48  1  0.12314600  0.88152800  0.88953000  1
  O  O49  1  0.53075100  0.85600600  0.21746600  1
  O  O50  1  0.85600600  0.53075100  0.21746600  1
  O  O51  1  0.55316100  0.71317600  0.09074700  1
  O  O52  1  0.71317600  0.55316100  0.09074700  1
