# generated using pymatgen
data_Cs2Cr4O13
_symmetry_space_group_name_H-M   'P 1'
_cell_length_a   21.28402700
_cell_length_b   8.22503100
_cell_length_c   10.31860265
_cell_angle_alpha   56.69539798
_cell_angle_beta   90.00000000
_cell_angle_gamma   90.00000000
_symmetry_Int_Tables_number   1
_chemical_formula_structural   Cs2Cr4O13
_chemical_formula_sum   'Cs8 Cr16 O52'
_cell_volume   1509.71687631
_cell_formula_units_Z   4
loop_
 _symmetry_equiv_pos_site_id
 _symmetry_equiv_pos_as_xyz
  1  'x, y, z'
loop_
 _atom_site_type_symbol
 _atom_site_label
 _atom_site_symmetry_multiplicity
 _atom_site_fract_x
 _atom_site_fract_y
 _atom_site_fract_z
 _atom_site_occupancy
  Cs  Cs0  1  0.26352800  0.90218200  0.49923400  1
  Cs  Cs1  1  0.76352800  0.09781800  0.00076600  1
  Cs  Cs2  1  0.73647200  0.09781800  0.50076600  1
  Cs  Cs3  1  0.23647200  0.90218200  0.99923400  1
  Cs  Cs4  1  0.40071000  0.40893100  0.90908900  1
  Cs  Cs5  1  0.90071000  0.59106900  0.59091100  1
  Cs  Cs6  1  0.59929000  0.59106900  0.09091100  1
  Cs  Cs7  1  0.09929000  0.40893100  0.40908900  1
  Cr  Cr8  1  0.92425600  0.05758200  0.69596300  1
  Cr  Cr9  1  0.42425600  0.94241800  0.80403700  1
  Cr  Cr10  1  0.07574400  0.94241800  0.30403700  1
  Cr  Cr11  1  0.57574400  0.05758200  0.19596300  1
  Cr  Cr12  1  0.05257300  0.78309800  0.85630300  1
  Cr  Cr13  1  0.55257300  0.21690200  0.64369700  1
  Cr  Cr14  1  0.94742700  0.21690200  0.14369700  1
  Cr  Cr15  1  0.44742700  0.78309800  0.35630300  1
  Cr  Cr16  1  0.10720400  0.44886900  0.80721100  1
  Cr  Cr17  1  0.60720400  0.55113100  0.69278900  1
  Cr  Cr18  1  0.89279600  0.55113100  0.19278900  1
  Cr  Cr19  1  0.39279600  0.44886900  0.30721100  1
  Cr  Cr20  1  0.22400800  0.38768000  0.04153800  1
  Cr  Cr21  1  0.72400800  0.61232000  0.45846200  1
  Cr  Cr22  1  0.77599200  0.61232000  0.95846200  1
  Cr  Cr23  1  0.27599200  0.38768000  0.54153800  1
  O  O24  1  0.87615300  0.12842600  0.77788800  1
  O  O25  1  0.37615300  0.87157400  0.72211200  1
  O  O26  1  0.12384700  0.87157400  0.22211200  1
  O  O27  1  0.62384700  0.12842600  0.27788800  1
  O  O28  1  0.96589300  0.24184500  0.56604300  1
  O  O29  1  0.46589300  0.75815500  0.93395700  1
  O  O30  1  0.03410700  0.75815500  0.43395700  1
  O  O31  1  0.53410700  0.24184500  0.06604300  1
  O  O32  1  0.88550300  0.96189700  0.61796300  1
  O  O33  1  0.38550300  0.03810300  0.88203700  1
  O  O34  1  0.11449700  0.03810300  0.38203700  1
  O  O35  1  0.61449700  0.96189700  0.11796300  1
  O  O36  1  0.97765700  0.86885000  0.84387900  1
  O  O37  1  0.47765700  0.13115000  0.65612100  1
  O  O38  1  0.02234300  0.13115000  0.15612100  1
  O  O39  1  0.52234300  0.86885000  0.34387900  1
  O  O40  1  0.08228100  0.70679000  0.02342000  1
  O  O41  1  0.58228100  0.29321000  0.47658000  1
  O  O42  1  0.04910500  0.58379800  0.83270200  1
  O  O43  1  0.91771900  0.29321000  0.97658000  1
  O  O44  1  0.09738300  0.94747700  0.72543400  1
  O  O45  1  0.59738300  0.05252300  0.77456600  1
  O  O46  1  0.90261700  0.05252300  0.27456600  1
  O  O47  1  0.40261700  0.94747700  0.22543400  1
  O  O48  1  0.29683900  0.41599800  0.67931500  1
  O  O49  1  0.79683900  0.58400200  0.82068500  1
  O  O50  1  0.70316100  0.58400200  0.32068500  1
  O  O51  1  0.20316100  0.41599800  0.17931500  1
  O  O52  1  0.24543700  0.58898400  0.39954600  1
  O  O53  1  0.74543700  0.41101600  0.10045400  1
  O  O54  1  0.75456300  0.41101600  0.60045400  1
  O  O55  1  0.25456300  0.58898400  0.89954600  1
  O  O56  1  0.22623800  0.20806100  0.60629700  1
  O  O57  1  0.72623800  0.79193900  0.89370300  1
  O  O58  1  0.77376200  0.79193900  0.39370300  1
  O  O59  1  0.27376200  0.20806100  0.10629700  1
  O  O60  1  0.34550200  0.32641300  0.47020200  1
  O  O61  1  0.84550200  0.67358700  0.02979800  1
  O  O62  1  0.65449800  0.67358700  0.52979800  1
  O  O63  1  0.15449800  0.32641300  0.97020200  1
  O  O64  1  0.42666200  0.29599600  0.28012800  1
  O  O65  1  0.92666200  0.70400400  0.21987200  1
  O  O66  1  0.57333800  0.70400400  0.71987200  1
  O  O67  1  0.07333800  0.29599600  0.78012800  1
  O  O68  1  0.34996200  0.59288600  0.15999300  1
  O  O69  1  0.84996200  0.40711400  0.34000700  1
  O  O70  1  0.65003800  0.40711400  0.84000700  1
  O  O71  1  0.15003800  0.59288600  0.65999300  1
  O  O72  1  0.45089500  0.58379800  0.33270200  1
  O  O73  1  0.95089500  0.41620200  0.16729800  1
  O  O74  1  0.54910500  0.41620200  0.66729800  1
  O  O75  1  0.41771900  0.70679000  0.52342000  1
