# generated using pymatgen
data_Tb5Bi3
_symmetry_space_group_name_H-M   'P 1'
_cell_length_a   8.30224500
_cell_length_b   9.58712300
_cell_length_c   12.11178200
_cell_angle_alpha   90.00000000
_cell_angle_beta   90.00000000
_cell_angle_gamma   90.00000000
_symmetry_Int_Tables_number   1
_chemical_formula_structural   Tb5Bi3
_chemical_formula_sum   'Tb20 Bi12'
_cell_volume   964.03297639
_cell_formula_units_Z   4
loop_
 _symmetry_equiv_pos_site_id
 _symmetry_equiv_pos_as_xyz
  1  'x, y, z'
loop_
 _atom_site_type_symbol
 _atom_site_label
 _atom_site_symmetry_multiplicity
 _atom_site_fract_x
 _atom_site_fract_y
 _atom_site_fract_z
 _atom_site_occupancy
  Tb  Tb0  1  0.35257700  0.75000000  0.21446200  1
  Tb  Tb1  1  0.85257700  0.75000000  0.28553800  1
  Tb  Tb2  1  0.64742300  0.25000000  0.78553800  1
  Tb  Tb3  1  0.14742300  0.25000000  0.71446200  1
  Tb  Tb4  1  0.69355900  0.56266900  0.05797000  1
  Tb  Tb5  1  0.19355900  0.93733100  0.44203000  1
  Tb  Tb6  1  0.30644100  0.06266900  0.94203000  1
  Tb  Tb7  1  0.80644100  0.43733100  0.55797000  1
  Tb  Tb8  1  0.30644100  0.43733100  0.94203000  1
  Tb  Tb9  1  0.80644100  0.06266900  0.55797000  1
  Tb  Tb10  1  0.69355900  0.93733100  0.05797000  1
  Tb  Tb11  1  0.19355900  0.56266900  0.44203000  1
  Tb  Tb12  1  0.47542800  0.25000000  0.48826900  1
  Tb  Tb13  1  0.97542800  0.25000000  0.01173100  1
  Tb  Tb14  1  0.52457200  0.75000000  0.51173100  1
  Tb  Tb15  1  0.02457200  0.75000000  0.98826900  1
  Tb  Tb16  1  0.31317000  0.25000000  0.21953000  1
  Tb  Tb17  1  0.81317000  0.25000000  0.28047000  1
  Tb  Tb18  1  0.68683000  0.75000000  0.78047000  1
  Tb  Tb19  1  0.18683000  0.75000000  0.71953000  1
  Bi  Bi20  1  0.40859900  0.75000000  0.95694300  1
  Bi  Bi21  1  0.90859900  0.75000000  0.54305700  1
  Bi  Bi22  1  0.59140100  0.25000000  0.04305700  1
  Bi  Bi23  1  0.09140100  0.25000000  0.45694300  1
  Bi  Bi24  1  0.56475900  0.99550200  0.32528200  1
  Bi  Bi25  1  0.06475900  0.50449800  0.17471800  1
  Bi  Bi26  1  0.43524100  0.49550200  0.67471800  1
  Bi  Bi27  1  0.93524100  0.00449800  0.82528200  1
  Bi  Bi28  1  0.43524100  0.00449800  0.67471800  1
  Bi  Bi29  1  0.93524100  0.49550200  0.82528200  1
  Bi  Bi30  1  0.56475900  0.50449800  0.32528200  1
  Bi  Bi31  1  0.06475900  0.99550200  0.17471800  1
