# generated using pymatgen
data_NbCoO4
_symmetry_space_group_name_H-M   'P 1'
_cell_length_a   6.42265634
_cell_length_b   6.42265634
_cell_length_c   6.55160353
_cell_angle_alpha   72.96046261
_cell_angle_beta   72.96046261
_cell_angle_gamma   34.79365714
_symmetry_Int_Tables_number   1
_chemical_formula_structural   NbCoO4
_chemical_formula_sum   'Nb2 Co2 O8'
_cell_volume   146.76377746
_cell_formula_units_Z   2
loop_
 _symmetry_equiv_pos_site_id
 _symmetry_equiv_pos_as_xyz
  1  'x, y, z'
loop_
 _atom_site_type_symbol
 _atom_site_label
 _atom_site_symmetry_multiplicity
 _atom_site_fract_x
 _atom_site_fract_y
 _atom_site_fract_z
 _atom_site_occupancy
  Nb  Nb0  1  0.10478200  0.10478200  0.76197900  1
  Nb  Nb1  1  0.89521800  0.89521800  0.23802100  1
  Co  Co2  1  0.79592000  0.79592000  0.82809500  1
  Co  Co3  1  0.20408000  0.20408000  0.17190500  1
  O  O4  1  0.94297500  0.94297500  0.86378100  1
  O  O5  1  0.05702500  0.05702500  0.13621900  1
  O  O6  1  0.73721200  0.73721200  0.13726100  1
  O  O7  1  0.14163400  0.14163400  0.47238400  1
  O  O8  1  0.64407200  0.64407200  0.79837300  1
  O  O9  1  0.85836600  0.85836600  0.52761600  1
  O  O10  1  0.26278800  0.26278800  0.86273900  1
  O  O11  1  0.35592800  0.35592800  0.20162700  1
