# generated using pymatgen
data_Th3B2C3
_symmetry_space_group_name_H-M   'P 1'
_cell_length_a   3.79453900
_cell_length_b   3.72628300
_cell_length_c   9.24489557
_cell_angle_alpha   80.00400412
_cell_angle_beta   90.00000000
_cell_angle_gamma   90.00000000
_symmetry_Int_Tables_number   1
_chemical_formula_structural   Th3B2C3
_chemical_formula_sum   'Th3 B2 C3'
_cell_volume   128.73412195
_cell_formula_units_Z   1
loop_
 _symmetry_equiv_pos_site_id
 _symmetry_equiv_pos_as_xyz
  1  'x, y, z'
loop_
 _atom_site_type_symbol
 _atom_site_label
 _atom_site_symmetry_multiplicity
 _atom_site_fract_x
 _atom_site_fract_y
 _atom_site_fract_z
 _atom_site_occupancy
  Th  Th0  1  0.00000000  0.00000000  0.00000000  1
  Th  Th1  1  0.50000000  0.62386800  0.69707600  1
  Th  Th2  1  0.50000000  0.37613200  0.30292400  1
  B  B3  1  0.00000000  0.14468600  0.55907300  1
  B  B4  1  0.00000000  0.85531400  0.44092700  1
  C  C5  1  0.50000000  0.50000000  0.00000000  1
  C  C6  1  0.00000000  0.11868000  0.72414300  1
  C  C7  1  0.00000000  0.88132000  0.27585700  1
