# generated using pymatgen
data_Mn(PO3)4
_symmetry_space_group_name_H-M   'P 1'
_cell_length_a   13.54778600
_cell_length_b   5.08681200
_cell_length_c   7.18245086
_cell_angle_alpha   80.92377975
_cell_angle_beta   90.00000000
_cell_angle_gamma   90.00000000
_symmetry_Int_Tables_number   1
_chemical_formula_structural   Mn(PO3)4
_chemical_formula_sum   'Mn2 P8 O24'
_cell_volume   488.78144016
_cell_formula_units_Z   2
loop_
 _symmetry_equiv_pos_site_id
 _symmetry_equiv_pos_as_xyz
  1  'x, y, z'
loop_
 _atom_site_type_symbol
 _atom_site_label
 _atom_site_symmetry_multiplicity
 _atom_site_fract_x
 _atom_site_fract_y
 _atom_site_fract_z
 _atom_site_occupancy
  Mn  Mn0  1  0.73601800  0.50835900  0.49142600  1
  Mn  Mn1  1  0.23601800  0.49164100  0.50857400  1
  P  P2  1  0.17062800  0.14570200  0.90748200  1
  P  P3  1  0.32429100  0.77378200  0.11413000  1
  P  P4  1  0.67062800  0.85429800  0.09251800  1
  P  P5  1  0.87444100  0.99673300  0.54701100  1
  P  P6  1  0.37444100  0.00326700  0.45298900  1
  P  P7  1  0.09726300  0.98111500  0.55683600  1
  P  P8  1  0.59726300  0.01888500  0.44316400  1
  P  P9  1  0.82429100  0.22621800  0.88587000  1
  O  O10  1  0.66382200  0.80539800  0.54838400  1
  O  O11  1  0.11570500  0.19701700  0.07314900  1
  O  O12  1  0.60350000  0.02557700  0.22314400  1
  O  O13  1  0.81464500  0.21877700  0.43224500  1
  O  O14  1  0.71128100  0.61211200  0.22701400  1
  O  O15  1  0.76384300  0.05077800  0.05139100  1
  O  O16  1  0.10350000  0.97442300  0.77685600  1
  O  O17  1  0.85809100  0.72354500  0.49089900  1
  O  O18  1  0.35809100  0.27645500  0.50910100  1
  O  O19  1  0.61570500  0.80298300  0.92685100  1
  O  O20  1  0.48719700  0.92746300  0.49813200  1
  O  O21  1  0.61263600  0.29265600  0.49717000  1
  O  O22  1  0.26384300  0.94922200  0.94860900  1
  O  O23  1  0.74813000  0.38841800  0.75575500  1
  O  O24  1  0.11263600  0.70734400  0.50283000  1
  O  O25  1  0.31464500  0.78122300  0.56775500  1
  O  O26  1  0.16382200  0.19460200  0.45161600  1
  O  O27  1  0.21128100  0.38788800  0.77298600  1
  O  O28  1  0.86158800  0.98932900  0.76511200  1
  O  O29  1  0.24813000  0.61158200  0.24424500  1
  O  O30  1  0.36158800  0.01067100  0.23488800  1
  O  O31  1  0.98719700  0.07253700  0.50186800  1
  O  O32  1  0.40668400  0.63749600  0.03850600  1
  O  O33  1  0.90668400  0.36250400  0.96149400  1
