# generated using pymatgen
data_Ni2P5O16
_symmetry_space_group_name_H-M   'P 1'
_cell_length_a   6.75765900
_cell_length_b   5.02525300
_cell_length_c   18.85229334
_cell_angle_alpha   89.38011387
_cell_angle_beta   90.00000000
_cell_angle_gamma   90.00000000
_symmetry_Int_Tables_number   1
_chemical_formula_structural   Ni2P5O16
_chemical_formula_sum   'Ni4 P10 O32'
_cell_volume   640.16654631
_cell_formula_units_Z   2
loop_
 _symmetry_equiv_pos_site_id
 _symmetry_equiv_pos_as_xyz
  1  'x, y, z'
loop_
 _atom_site_type_symbol
 _atom_site_label
 _atom_site_symmetry_multiplicity
 _atom_site_fract_x
 _atom_site_fract_y
 _atom_site_fract_z
 _atom_site_occupancy
  Ni  Ni0  1  0.18027900  0.24288400  0.59345100  1
  Ni  Ni1  1  0.81972100  0.75711600  0.40654900  1
  Ni  Ni2  1  0.18027900  0.75711600  0.90654900  1
  Ni  Ni3  1  0.81972100  0.24288400  0.09345100  1
  P  P4  1  0.13403900  0.24087600  0.42427100  1
  P  P5  1  0.13403900  0.75912400  0.07572900  1
  P  P6  1  0.86596100  0.75912400  0.57572900  1
  P  P7  1  0.74610900  0.00000000  0.25000000  1
  P  P8  1  0.25389100  0.00000000  0.75000000  1
  P  P9  1  0.54612200  0.73472600  0.13103000  1
  P  P10  1  0.86596100  0.24087600  0.92427100  1
  P  P11  1  0.45387800  0.73472600  0.63103000  1
  P  P12  1  0.54612200  0.26527400  0.36897000  1
  P  P13  1  0.45387800  0.26527400  0.86897000  1
  O  O14  1  0.98533700  0.56948100  0.10981400  1
  O  O15  1  0.77777600  0.65715300  0.50667300  1
  O  O16  1  0.01466300  0.43051900  0.89018600  1
  O  O17  1  0.59430800  0.20092500  0.28759400  1
  O  O18  1  0.86351900  0.84786600  0.30450300  1
  O  O19  1  0.94086600  0.95299800  0.93028500  1
  O  O20  1  0.64862500  0.92631900  0.08105000  1
  O  O21  1  0.05913400  0.95299800  0.43028500  1
  O  O22  1  0.40569200  0.20092500  0.78759400  1
  O  O23  1  0.22222400  0.65715300  0.00667300  1
  O  O24  1  0.98533700  0.43051900  0.39018600  1
  O  O25  1  0.58037100  0.44131200  0.11956400  1
  O  O26  1  0.58037100  0.55868800  0.38043600  1
  O  O27  1  0.35137500  0.92631900  0.58105000  1
  O  O28  1  0.59430800  0.79907500  0.21240600  1
  O  O29  1  0.31314200  0.78131100  0.13261500  1
  O  O30  1  0.01466300  0.56948100  0.60981400  1
  O  O31  1  0.94086600  0.04700200  0.56971500  1
  O  O32  1  0.86351900  0.15213400  0.19549700  1
  O  O33  1  0.31314200  0.21868900  0.36738500  1
  O  O34  1  0.41962900  0.44131200  0.61956400  1
  O  O35  1  0.40569200  0.79907500  0.71240600  1
  O  O36  1  0.13648100  0.15213400  0.69549700  1
  O  O37  1  0.64862500  0.07368100  0.41895000  1
  O  O38  1  0.05913400  0.04700200  0.06971500  1
  O  O39  1  0.41962900  0.55868800  0.88043600  1
  O  O40  1  0.68685800  0.21868900  0.86738500  1
  O  O41  1  0.77777600  0.34284700  0.99332700  1
  O  O42  1  0.68685800  0.78131100  0.63261500  1
  O  O43  1  0.13648100  0.84786600  0.80450300  1
  O  O44  1  0.22222400  0.34284700  0.49332700  1
  O  O45  1  0.35137500  0.07368100  0.91895000  1
