# generated using pymatgen
data_NdO3
_symmetry_space_group_name_H-M   'P 1'
_cell_length_a   5.43820341
_cell_length_b   5.43820341
_cell_length_c   8.04634228
_cell_angle_alpha   54.32968680
_cell_angle_beta   54.32968680
_cell_angle_gamma   36.53793227
_symmetry_Int_Tables_number   1
_chemical_formula_structural   NdO3
_chemical_formula_sum   'Nd2 O6'
_cell_volume   111.81490530
_cell_formula_units_Z   2
loop_
 _symmetry_equiv_pos_site_id
 _symmetry_equiv_pos_as_xyz
  1  'x, y, z'
loop_
 _atom_site_type_symbol
 _atom_site_label
 _atom_site_symmetry_multiplicity
 _atom_site_fract_x
 _atom_site_fract_y
 _atom_site_fract_z
 _atom_site_occupancy
  Nd  Nd0  1  0.29338800  0.29338800  0.73717100  1
  Nd  Nd1  1  0.70661200  0.70661200  0.26282900  1
  O  O2  1  0.34892800  0.34892800  0.99661500  1
  O  O3  1  0.00000000  0.00000000  0.00000000  1
  O  O4  1  0.71349300  0.71349300  0.55198600  1
  O  O5  1  0.28650700  0.28650700  0.44801400  1
  O  O6  1  0.00000000  0.00000000  0.50000000  1
  O  O7  1  0.65107200  0.65107200  0.00338500  1
