# generated using pymatgen
data_Pr2S3
_symmetry_space_group_name_H-M   'P 1'
_cell_length_a   14.32549268
_cell_length_b   14.32549268
_cell_length_c   14.32549268
_cell_angle_alpha   144.80082791
_cell_angle_beta   144.80082791
_cell_angle_gamma   50.63143550
_symmetry_Int_Tables_number   1
_chemical_formula_structural   Pr2S3
_chemical_formula_sum   'Pr16 S24'
_cell_volume   971.84665783
_cell_formula_units_Z   8
loop_
 _symmetry_equiv_pos_site_id
 _symmetry_equiv_pos_as_xyz
  1  'x, y, z'
loop_
 _atom_site_type_symbol
 _atom_site_label
 _atom_site_symmetry_multiplicity
 _atom_site_fract_x
 _atom_site_fract_y
 _atom_site_fract_z
 _atom_site_occupancy
  Pr  Pr0  1  0.49496000  0.62500000  0.36996000  1
  Pr  Pr1  1  0.21862500  0.82299700  0.12010500  1
  Pr  Pr2  1  0.91582000  0.41582000  0.50000000  1
  Pr  Pr3  1  0.25504000  0.12500000  0.63004000  1
  Pr  Pr4  1  0.83418000  0.83418000  0.00000000  1
  Pr  Pr5  1  0.04710800  0.42700300  0.89562700  1
  Pr  Pr6  1  0.84852000  0.95289200  0.37989500  1
  Pr  Pr7  1  0.53137500  0.15148000  0.10437300  1
  Pr  Pr8  1  0.57299700  0.46862500  0.62010500  1
  Pr  Pr9  1  0.16582000  0.16582000  0.00000000  1
  Pr  Pr10  1  0.17700300  0.29710800  0.39562700  1
  Pr  Pr11  1  0.37500000  0.74496000  0.86996000  1
  Pr  Pr12  1  0.87500000  0.50504000  0.13004000  1
  Pr  Pr13  1  0.58418000  0.08418000  0.50000000  1
  Pr  Pr14  1  0.90148000  0.78137500  0.60437300  1
  Pr  Pr15  1  0.70289200  0.09852000  0.87989500  1
  S  S16  1  0.57645800  0.32155000  0.10739400  1
  S  S17  1  0.86074900  0.75770500  0.75256800  1
  S  S18  1  0.21415600  0.46906400  0.89260600  1
  S  S19  1  0.53584400  0.92845000  0.75490800  1
  S  S20  1  0.17354200  0.78093600  0.24509200  1
  S  S21  1  0.00513700  0.10818100  0.24743200  1
  S  S22  1  0.74486300  0.49229500  0.60304400  1
  S  S23  1  0.90200700  0.65293200  0.08731900  1
  S  S24  1  0.18531200  0.09799300  0.75092500  1
  S  S25  1  0.88925100  0.14181900  0.39695600  1
  S  S26  1  0.56561200  0.81468800  0.91268100  1
  S  S27  1  0.85818100  0.25513700  0.74743200  1
  S  S28  1  0.50770500  0.11074900  0.25256800  1
  S  S29  1  0.34706800  0.43438800  0.24907500  1
  S  S30  1  0.07155000  0.82645800  0.60739400  1
  S  S31  1  0.24229500  0.99486300  0.10304400  1
  S  S32  1  0.53093600  0.42354200  0.74509200  1
  S  S33  1  0.21906400  0.46415600  0.39260600  1
  S  S34  1  0.89181900  0.13925100  0.89695600  1
  S  S35  1  0.18438800  0.59706800  0.74907500  1
  S  S36  1  0.84799300  0.43531200  0.25092500  1
  S  S37  1  0.67845000  0.78584400  0.25490800  1
  S  S38  1  0.40293200  0.15200700  0.58731900  1
  S  S39  1  0.56468800  0.81561200  0.41268100  1
