# generated using pymatgen
data_Y3Se4
_symmetry_space_group_name_H-M   'P 1'
_cell_length_a   8.13818962
_cell_length_b   8.13818962
_cell_length_c   13.98974453
_cell_angle_alpha   73.59336044
_cell_angle_beta   73.59336044
_cell_angle_gamma   60.47727634
_symmetry_Int_Tables_number   1
_chemical_formula_structural   Y3Se4
_chemical_formula_sum   'Y12 Se16'
_cell_volume   761.93452229
_cell_formula_units_Z   4
loop_
 _symmetry_equiv_pos_site_id
 _symmetry_equiv_pos_as_xyz
  1  'x, y, z'
loop_
 _atom_site_type_symbol
 _atom_site_label
 _atom_site_symmetry_multiplicity
 _atom_site_fract_x
 _atom_site_fract_y
 _atom_site_fract_z
 _atom_site_occupancy
  Y  Y0  1  0.74268200  0.26060700  0.74581800  1
  Y  Y1  1  0.26060700  0.74268200  0.74581800  1
  Y  Y2  1  0.00000000  0.00000000  0.50000000  1
  Y  Y3  1  0.25495000  0.25495000  0.74558600  1
  Y  Y4  1  0.00000000  0.50000000  0.50000000  1
  Y  Y5  1  0.73939300  0.25731800  0.25418200  1
  Y  Y6  1  0.50000000  0.00000000  0.50000000  1
  Y  Y7  1  0.25731800  0.73939300  0.25418200  1
  Y  Y8  1  0.00000000  0.00000000  0.00000000  1
  Y  Y9  1  0.74505000  0.74505000  0.25441400  1
  Y  Y10  1  0.50000000  0.00000000  0.00000000  1
  Y  Y11  1  0.00000000  0.50000000  0.00000000  1
  Se  Se12  1  0.12273600  0.62759700  0.62553300  1
  Se  Se13  1  0.62759700  0.12273600  0.62553300  1
  Se  Se14  1  0.37247400  0.37247400  0.37552300  1
  Se  Se15  1  0.87544600  0.87544600  0.37434500  1
  Se  Se16  1  0.63010600  0.11753100  0.12548700  1
  Se  Se17  1  0.12455400  0.12455400  0.62565500  1
  Se  Se18  1  0.37240300  0.87726400  0.37446700  1
  Se  Se19  1  0.87484600  0.87484600  0.87223600  1
  Se  Se20  1  0.11753100  0.63010600  0.12548700  1
  Se  Se21  1  0.62752600  0.62752600  0.62447700  1
  Se  Se22  1  0.37714100  0.37714100  0.87765100  1
  Se  Se23  1  0.87726400  0.37240300  0.37446700  1
  Se  Se24  1  0.62285900  0.62285900  0.12234900  1
  Se  Se25  1  0.88246900  0.36989400  0.87451300  1
  Se  Se26  1  0.12515400  0.12515400  0.12776400  1
  Se  Se27  1  0.36989400  0.88246900  0.87451300  1
