# generated using pymatgen
data_Ho2S3
_symmetry_space_group_name_H-M   'P 1'
_cell_length_a   13.70587323
_cell_length_b   13.70587323
_cell_length_c   13.70587323
_cell_angle_alpha   144.80791510
_cell_angle_beta   144.80791510
_cell_angle_gamma   50.62086701
_symmetry_Int_Tables_number   1
_chemical_formula_structural   Ho2S3
_chemical_formula_sum   'Ho16 S24'
_cell_volume   850.82207969
_cell_formula_units_Z   8
loop_
 _symmetry_equiv_pos_site_id
 _symmetry_equiv_pos_as_xyz
  1  'x, y, z'
loop_
 _atom_site_type_symbol
 _atom_site_label
 _atom_site_symmetry_multiplicity
 _atom_site_fract_x
 _atom_site_fract_y
 _atom_site_fract_z
 _atom_site_occupancy
  Ho  Ho0  1  0.16574000  0.16574000  0.00000000  1
  Ho  Ho1  1  0.87500000  0.50641900  0.13141900  1
  Ho  Ho2  1  0.17730400  0.29847500  0.39788700  1
  Ho  Ho3  1  0.58426000  0.08426000  0.50000000  1
  Ho  Ho4  1  0.37500000  0.74358100  0.86858100  1
  Ho  Ho5  1  0.90058800  0.77941700  0.60211300  1
  Ho  Ho6  1  0.22058300  0.82269600  0.12117100  1
  Ho  Ho7  1  0.49358100  0.62500000  0.36858100  1
  Ho  Ho8  1  0.91574000  0.41574000  0.50000000  1
  Ho  Ho9  1  0.25641900  0.12500000  0.63141900  1
  Ho  Ho10  1  0.70152500  0.09941200  0.87882900  1
  Ho  Ho11  1  0.83426000  0.83426000  0.00000000  1
  Ho  Ho12  1  0.52941700  0.15058800  0.10211300  1
  Ho  Ho13  1  0.84941200  0.95152500  0.37882900  1
  Ho  Ho14  1  0.57269600  0.47058300  0.62117100  1
  Ho  Ho15  1  0.04847500  0.42730400  0.89788700  1
  S  S16  1  0.07387700  0.82796400  0.61336300  1
  S  S17  1  0.86422000  0.25069900  0.74631200  1
  S  S18  1  0.50438700  0.11790800  0.25368800  1
  S  S19  1  0.88578000  0.13209200  0.88648000  1
  S  S20  1  0.24561300  0.99930100  0.11352000  1
  S  S21  1  0.67612300  0.78948600  0.25408700  1
  S  S22  1  0.21460100  0.46051400  0.38663700  1
  S  S23  1  0.53539900  0.42203600  0.74591300  1
  S  S24  1  0.40371400  0.15656700  0.59495100  1
  S  S25  1  0.19123800  0.59628600  0.75285300  1
  S  S26  1  0.21051400  0.46460100  0.88663700  1
  S  S27  1  0.84343300  0.43838400  0.24714700  1
  S  S28  1  0.57796400  0.32387700  0.11336300  1
  S  S29  1  0.56161600  0.80876200  0.40504900  1
  S  S30  1  0.00069900  0.11422000  0.24631200  1
  S  S31  1  0.86790800  0.75438700  0.75368800  1
  S  S32  1  0.74930100  0.49561300  0.61352000  1
  S  S33  1  0.53948600  0.92612300  0.75408700  1
  S  S34  1  0.17203600  0.78539900  0.24591300  1
  S  S35  1  0.55876200  0.81161600  0.90504900  1
  S  S36  1  0.90656700  0.65371400  0.09495100  1
  S  S37  1  0.34628600  0.44123800  0.25285300  1
  S  S38  1  0.88209200  0.13578000  0.38648000  1
  S  S39  1  0.18838400  0.09343300  0.74714700  1
