# generated using pymatgen
data_Tm2Se3
_symmetry_space_group_name_H-M   'P 1'
_cell_length_a   14.28535540
_cell_length_b   14.28535540
_cell_length_c   14.28535540
_cell_angle_alpha   144.92473336
_cell_angle_beta   144.92473336
_cell_angle_gamma   50.44670294
_symmetry_Int_Tables_number   1
_chemical_formula_structural   Tm2Se3
_chemical_formula_sum   'Tm16 Se24'
_cell_volume   957.86951479
_cell_formula_units_Z   8
loop_
 _symmetry_equiv_pos_site_id
 _symmetry_equiv_pos_as_xyz
  1  'x, y, z'
loop_
 _atom_site_type_symbol
 _atom_site_label
 _atom_site_symmetry_multiplicity
 _atom_site_fract_x
 _atom_site_fract_y
 _atom_site_fract_z
 _atom_site_occupancy
  Tm  Tm0  1  0.84601600  0.95025100  0.37354100  1
  Tm  Tm1  1  0.57671000  0.47247500  0.62645900  1
  Tm  Tm2  1  0.16530100  0.16530100  0.00000000  1
  Tm  Tm3  1  0.87500000  0.51081300  0.13581300  1
  Tm  Tm4  1  0.17329000  0.29974900  0.39576500  1
  Tm  Tm5  1  0.58469900  0.08469900  0.50000000  1
  Tm  Tm6  1  0.37500000  0.73918700  0.86418700  1
  Tm  Tm7  1  0.90398400  0.77752500  0.60423500  1
  Tm  Tm8  1  0.22247500  0.82671000  0.12645900  1
  Tm  Tm9  1  0.48918700  0.62500000  0.36418700  1
  Tm  Tm10  1  0.91530100  0.41530100  0.50000000  1
  Tm  Tm11  1  0.26081300  0.12500000  0.63581300  1
  Tm  Tm12  1  0.70025100  0.09601600  0.87354100  1
  Tm  Tm13  1  0.83469900  0.83469900  0.00000000  1
  Tm  Tm14  1  0.52752500  0.15398400  0.10423500  1
  Tm  Tm15  1  0.04974900  0.42329000  0.89576500  1
  Se  Se16  1  0.50334100  0.12227700  0.25606400  1
  Se  Se17  1  0.07542200  0.82768100  0.61548100  1
  Se  Se18  1  0.86621300  0.24727700  0.74393600  1
  Se  Se19  1  0.88378700  0.12772300  0.88106400  1
  Se  Se20  1  0.24665900  0.00272300  0.11893600  1
  Se  Se21  1  0.67457800  0.79005900  0.25225900  1
  Se  Se22  1  0.21220000  0.45994100  0.38451900  1
  Se  Se23  1  0.83874000  0.43862000  0.24222000  1
  Se  Se24  1  0.53780000  0.42231900  0.74774100  1
  Se  Se25  1  0.40348000  0.16126000  0.59988100  1
  Se  Se26  1  0.19640000  0.59652000  0.75778000  1
  Se  Se27  1  0.20994100  0.46220000  0.88451900  1
  Se  Se28  1  0.57768100  0.32542200  0.11548100  1
  Se  Se29  1  0.99727700  0.11621300  0.24393600  1
  Se  Se30  1  0.56138000  0.80360000  0.40011900  1
  Se  Se31  1  0.17231900  0.78780000  0.24774100  1
  Se  Se32  1  0.87227700  0.75334100  0.75606400  1
  Se  Se33  1  0.75272300  0.49665900  0.61893600  1
  Se  Se34  1  0.54005900  0.92457800  0.75225900  1
  Se  Se35  1  0.55360000  0.81138000  0.90011900  1
  Se  Se36  1  0.91126000  0.65348000  0.09988100  1
  Se  Se37  1  0.87772300  0.13378700  0.38106400  1
  Se  Se38  1  0.34652000  0.44640000  0.25778000  1
  Se  Se39  1  0.18862000  0.08874000  0.74222000  1
