# generated using pymatgen
data_SiO2
_symmetry_space_group_name_H-M   'P 1'
_cell_length_a   17.36890994
_cell_length_b   17.36890994
_cell_length_c   17.36890994
_cell_angle_alpha   60.00000000
_cell_angle_beta   60.00000000
_cell_angle_gamma   60.00000000
_symmetry_Int_Tables_number   1
_chemical_formula_structural   SiO2
_chemical_formula_sum   'Si48 O96'
_cell_volume   3705.12352961
_cell_formula_units_Z   48
loop_
 _symmetry_equiv_pos_site_id
 _symmetry_equiv_pos_as_xyz
  1  'x, y, z'
loop_
 _atom_site_type_symbol
 _atom_site_label
 _atom_site_symmetry_multiplicity
 _atom_site_fract_x
 _atom_site_fract_y
 _atom_site_fract_z
 _atom_site_occupancy
  Si  Si0  1  0.46452400  0.10741500  0.64393900  1
  Si  Si1  1  0.46452400  0.28412200  0.64393900  1
  Si  Si2  1  0.28412200  0.46452400  0.64393900  1
  Si  Si3  1  0.28412200  0.10741500  0.64393900  1
  Si  Si4  1  0.10741500  0.46452400  0.64393900  1
  Si  Si5  1  0.10741500  0.28412200  0.64393900  1
  Si  Si6  1  0.46452400  0.28412200  0.10741500  1
  Si  Si7  1  0.46452400  0.64393900  0.10741500  1
  Si  Si8  1  0.46452400  0.10741500  0.28412200  1
  Si  Si9  1  0.46452400  0.64393900  0.28412200  1
  Si  Si10  1  0.28412200  0.64393900  0.10741500  1
  Si  Si11  1  0.28412200  0.46452400  0.10741500  1
  Si  Si12  1  0.10741500  0.64393900  0.28412200  1
  Si  Si13  1  0.10741500  0.46452400  0.28412200  1
  Si  Si14  1  0.35606100  0.89258500  0.53547600  1
  Si  Si15  1  0.35606100  0.71587800  0.53547600  1
  Si  Si16  1  0.28412200  0.10741500  0.46452400  1
  Si  Si17  1  0.28412200  0.64393900  0.46452400  1
  Si  Si18  1  0.10741500  0.64393900  0.46452400  1
  Si  Si19  1  0.10741500  0.28412200  0.46452400  1
  Si  Si20  1  0.35606100  0.53547600  0.71587800  1
  Si  Si21  1  0.35606100  0.89258500  0.71587800  1
  Si  Si22  1  0.64393900  0.46452400  0.10741500  1
  Si  Si23  1  0.64393900  0.28412200  0.10741500  1
  Si  Si24  1  0.35606100  0.53547600  0.89258500  1
  Si  Si25  1  0.35606100  0.71587800  0.89258500  1
  Si  Si26  1  0.64393900  0.10741500  0.28412200  1
  Si  Si27  1  0.64393900  0.46452400  0.28412200  1
  Si  Si28  1  0.89258500  0.71587800  0.53547600  1
  Si  Si29  1  0.89258500  0.35606100  0.53547600  1
  Si  Si30  1  0.71587800  0.35606100  0.53547600  1
  Si  Si31  1  0.71587800  0.89258500  0.53547600  1
  Si  Si32  1  0.64393900  0.28412200  0.46452400  1
  Si  Si33  1  0.64393900  0.10741500  0.46452400  1
  Si  Si34  1  0.89258500  0.35606100  0.71587800  1
  Si  Si35  1  0.89258500  0.53547600  0.71587800  1
  Si  Si36  1  0.71587800  0.35606100  0.89258500  1
  Si  Si37  1  0.71587800  0.53547600  0.89258500  1
  Si  Si38  1  0.53547600  0.35606100  0.71587800  1
  Si  Si39  1  0.53547600  0.89258500  0.71587800  1
  Si  Si40  1  0.53547600  0.35606100  0.89258500  1
  Si  Si41  1  0.53547600  0.71587800  0.89258500  1
  Si  Si42  1  0.89258500  0.71587800  0.35606100  1
  Si  Si43  1  0.89258500  0.53547600  0.35606100  1
  Si  Si44  1  0.71587800  0.89258500  0.35606100  1
  Si  Si45  1  0.71587800  0.53547600  0.35606100  1
  Si  Si46  1  0.53547600  0.89258500  0.35606100  1
  Si  Si47  1  0.53547600  0.71587800  0.35606100  1
  O  O48  1  0.35243600  0.64095800  0.86564800  1
  O  O49  1  0.00000000  0.28644300  0.50000000  1
  O  O50  1  0.13435200  0.35904200  0.64756400  1
  O  O51  1  0.00000000  0.50000000  0.71355700  1
  O  O52  1  0.50000000  0.28644300  0.71355700  1
  O  O53  1  0.28644300  0.71355700  0.50000000  1
  O  O54  1  0.64095800  0.35243600  0.86564800  1
  O  O55  1  0.64095800  0.64095800  0.86564800  1
  O  O56  1  0.46456600  0.46456600  0.88323500  1
  O  O57  1  0.46456600  0.68763200  0.88323500  1
  O  O58  1  0.28644300  0.00000000  0.71355700  1
  O  O59  1  0.50000000  0.71355700  0.00000000  1
  O  O60  1  0.28644300  0.50000000  0.00000000  1
  O  O61  1  0.46456600  0.46456600  0.68763200  1
  O  O62  1  0.31236800  0.53543400  0.53543400  1
  O  O63  1  0.31236800  0.11676500  0.53543400  1
  O  O64  1  0.46456600  0.88323500  0.68763200  1
  O  O65  1  0.13435200  0.64756400  0.35904200  1
  O  O66  1  0.13435200  0.35904200  0.35904200  1
  O  O67  1  0.00000000  0.71355700  0.28644300  1
  O  O68  1  0.35243600  0.64095800  0.64095800  1
  O  O69  1  0.35904200  0.13435200  0.64756400  1
  O  O70  1  0.35904200  0.35904200  0.64756400  1
  O  O71  1  0.35243600  0.86564800  0.64095800  1
  O  O72  1  0.11676500  0.31236800  0.53543400  1
  O  O73  1  0.11676500  0.53543400  0.53543400  1
  O  O74  1  0.28644300  0.50000000  0.71355700  1
  O  O75  1  0.82147200  0.82147200  0.53656100  1
  O  O76  1  0.82147200  0.32049600  0.53656100  1
  O  O77  1  0.50000000  0.00000000  0.28644300  1
  O  O78  1  0.71355700  0.00000000  0.50000000  1
  O  O79  1  0.68763200  0.46456600  0.88323500  1
  O  O80  1  0.32049600  0.82147200  0.53656100  1
  O  O81  1  0.71355700  0.28644300  0.00000000  1
  O  O82  1  0.82147200  0.82147200  0.32049600  1
  O  O83  1  0.67950400  0.17852800  0.17852800  1
  O  O84  1  0.67950400  0.46343900  0.17852800  1
  O  O85  1  0.82147200  0.53656100  0.32049600  1
  O  O86  1  0.28644300  0.71355700  0.00000000  1
  O  O87  1  0.46343900  0.67950400  0.17852800  1
  O  O88  1  0.46343900  0.17852800  0.17852800  1
  O  O89  1  0.67950400  0.17852800  0.46343900  1
  O  O90  1  0.31236800  0.53543400  0.11676500  1
  O  O91  1  0.53543400  0.31236800  0.53543400  1
  O  O92  1  0.53543400  0.11676500  0.53543400  1
  O  O93  1  0.64095800  0.35243600  0.64095800  1
  O  O94  1  0.17852800  0.67950400  0.17852800  1
  O  O95  1  0.17852800  0.46343900  0.17852800  1
  O  O96  1  0.64095800  0.86564800  0.64095800  1
  O  O97  1  0.35904200  0.13435200  0.35904200  1
  O  O98  1  0.82147200  0.32049600  0.82147200  1
  O  O99  1  0.82147200  0.53656100  0.82147200  1
  O  O100  1  0.46456600  0.88323500  0.46456600  1
  O  O101  1  0.35904200  0.64756400  0.35904200  1
  O  O102  1  0.46456600  0.68763200  0.46456600  1
  O  O103  1  0.11676500  0.53543400  0.31236800  1
  O  O104  1  0.28644300  0.00000000  0.50000000  1
  O  O105  1  0.50000000  0.00000000  0.71355700  1
  O  O106  1  0.46343900  0.17852800  0.67950400  1
  O  O107  1  0.17852800  0.67950400  0.46343900  1
  O  O108  1  0.17852800  0.17852800  0.46343900  1
  O  O109  1  0.17852800  0.46343900  0.67950400  1
  O  O110  1  0.32049600  0.82147200  0.82147200  1
  O  O111  1  0.32049600  0.53656100  0.82147200  1
  O  O112  1  0.17852800  0.17852800  0.67950400  1
  O  O113  1  0.71355700  0.50000000  0.28644300  1
  O  O114  1  0.00000000  0.28644300  0.71355700  1
  O  O115  1  0.53656100  0.82147200  0.32049600  1
  O  O116  1  0.88323500  0.46456600  0.68763200  1
  O  O117  1  0.53656100  0.82147200  0.82147200  1
  O  O118  1  0.53656100  0.32049600  0.82147200  1
  O  O119  1  0.71355700  0.50000000  0.00000000  1
  O  O120  1  0.50000000  0.28644300  0.00000000  1
  O  O121  1  0.71355700  0.00000000  0.28644300  1
  O  O122  1  0.53543400  0.31236800  0.11676500  1
  O  O123  1  0.53543400  0.53543400  0.11676500  1
  O  O124  1  0.64095800  0.64095800  0.35243600  1
  O  O125  1  0.64095800  0.86564800  0.35243600  1
  O  O126  1  0.64756400  0.13435200  0.35904200  1
  O  O127  1  0.64756400  0.35904200  0.35904200  1
  O  O128  1  0.35904200  0.35904200  0.13435200  1
  O  O129  1  0.35904200  0.64756400  0.13435200  1
  O  O130  1  0.68763200  0.46456600  0.46456600  1
  O  O131  1  0.53543400  0.11676500  0.31236800  1
  O  O132  1  0.68763200  0.88323500  0.46456600  1
  O  O133  1  0.53543400  0.53543400  0.31236800  1
  O  O134  1  0.71355700  0.28644300  0.50000000  1
  O  O135  1  0.50000000  0.71355700  0.28644300  1
  O  O136  1  0.00000000  0.50000000  0.28644300  1
  O  O137  1  0.00000000  0.71355700  0.50000000  1
  O  O138  1  0.88323500  0.68763200  0.46456600  1
  O  O139  1  0.88323500  0.46456600  0.46456600  1
  O  O140  1  0.86564800  0.35243600  0.64095800  1
  O  O141  1  0.86564800  0.64095800  0.64095800  1
  O  O142  1  0.64756400  0.35904200  0.13435200  1
  O  O143  1  0.86564800  0.64095800  0.35243600  1
