# generated using pymatgen
data_H2S
_symmetry_space_group_name_H-M   'P 1'
_cell_length_a   5.45928500
_cell_length_b   6.09328572
_cell_length_c   6.16520743
_cell_angle_alpha   83.65908452
_cell_angle_beta   88.21830622
_cell_angle_gamma   87.45253779
_symmetry_Int_Tables_number   1
_chemical_formula_structural   H2S
_chemical_formula_sum   'H8 S4'
_cell_volume   203.55863147
_cell_formula_units_Z   4
loop_
 _symmetry_equiv_pos_site_id
 _symmetry_equiv_pos_as_xyz
  1  'x, y, z'
loop_
 _atom_site_type_symbol
 _atom_site_label
 _atom_site_symmetry_multiplicity
 _atom_site_fract_x
 _atom_site_fract_y
 _atom_site_fract_z
 _atom_site_occupancy
  H  H0  1  0.70281800  0.39522700  0.06898300  1
  H  H1  1  0.58404100  0.11191400  0.21374300  1
  H  H2  1  0.63040800  0.69942300  0.60492100  1
  H  H3  1  0.38808600  0.76452900  0.06636400  1
  H  H4  1  0.11354800  0.91263500  0.21454100  1
  H  H5  1  0.07434900  0.19219900  0.90817900  1
  H  H6  1  0.09852500  0.18529500  0.59334700  1
  H  H7  1  0.94823800  0.59978000  0.73393000  1
  S  S8  1  0.74284700  0.26424000  0.25810300  1
  S  S9  1  0.77501000  0.76403500  0.75839100  1
  S  S10  1  0.26204000  0.73024100  0.25890100  1
  S  S11  1  0.23808900  0.25648200  0.74659800  1
