# generated using pymatgen
data_Hf4N3
_symmetry_space_group_name_H-M   'P 1'
_cell_length_a   5.57282494
_cell_length_b   5.57282494
_cell_length_c   5.57282494
_cell_angle_alpha   132.01717591
_cell_angle_beta   132.01717591
_cell_angle_gamma   70.20190076
_symmetry_Int_Tables_number   1
_chemical_formula_structural   Hf4N3
_chemical_formula_sum   'Hf4 N3'
_cell_volume   93.63711898
_cell_formula_units_Z   1
loop_
 _symmetry_equiv_pos_site_id
 _symmetry_equiv_pos_as_xyz
  1  'x, y, z'
loop_
 _atom_site_type_symbol
 _atom_site_label
 _atom_site_symmetry_multiplicity
 _atom_site_fract_x
 _atom_site_fract_y
 _atom_site_fract_z
 _atom_site_occupancy
  Hf  Hf0  1  0.76084400  0.76084400  0.00000000  1
  Hf  Hf1  1  0.00000000  0.50000000  0.50000000  1
  Hf  Hf2  1  0.50000000  0.00000000  0.50000000  1
  Hf  Hf3  1  0.23915600  0.23915600  0.00000000  1
  N  N4  1  0.25000000  0.75000000  0.50000000  1
  N  N5  1  0.75000000  0.25000000  0.50000000  1
  N  N6  1  0.00000000  0.00000000  0.00000000  1
