# generated using pymatgen
data_Ni15O16
_symmetry_space_group_name_H-M   'P 1'
_cell_length_a   10.69415359
_cell_length_b   10.69415359
_cell_length_c   10.69415320
_cell_angle_alpha   32.04801955
_cell_angle_beta   32.04801955
_cell_angle_gamma   32.04802247
_symmetry_Int_Tables_number   1
_chemical_formula_structural   Ni15O16
_chemical_formula_sum   'Ni15 O16'
_cell_volume   305.99184297
_cell_formula_units_Z   1
loop_
 _symmetry_equiv_pos_site_id
 _symmetry_equiv_pos_as_xyz
  1  'x, y, z'
loop_
 _atom_site_type_symbol
 _atom_site_label
 _atom_site_symmetry_multiplicity
 _atom_site_fract_x
 _atom_site_fract_y
 _atom_site_fract_z
 _atom_site_occupancy
  Ni  Ni0  1  0.24838500  0.75043900  0.24838500  1
  Ni  Ni1  1  0.50000000  0.00000000  0.00000000  1
  Ni  Ni2  1  0.75161500  0.24956100  0.75161500  1
  Ni  Ni3  1  0.75161500  0.75161500  0.24956100  1
  Ni  Ni4  1  0.24838500  0.24838500  0.75043900  1
  Ni  Ni5  1  0.50000000  0.50000000  0.50000000  1
  Ni  Ni6  1  0.67562100  0.67562100  0.67562100  1
  Ni  Ni7  1  0.75043900  0.24838500  0.24838500  1
  Ni  Ni8  1  0.00000000  0.50000000  0.00000000  1
  Ni  Ni9  1  0.24956100  0.75161500  0.75161500  1
  Ni  Ni10  1  0.00000000  0.00000000  0.50000000  1
  Ni  Ni11  1  0.24392500  0.24392500  0.24392500  1
  Ni  Ni12  1  0.75607500  0.75607500  0.75607500  1
  Ni  Ni13  1  0.32437900  0.32437900  0.32437900  1
  Ni  Ni14  1  0.00000000  0.00000000  0.00000000  1
  O  O15  1  0.61364800  0.61364800  0.61364800  1
  O  O16  1  0.87973700  0.87973700  0.37498700  1
  O  O17  1  0.12455600  0.12455600  0.12455600  1
  O  O18  1  0.37143300  0.37143300  0.87344000  1
  O  O19  1  0.62501300  0.12026300  0.12026300  1
  O  O20  1  0.12656000  0.62856700  0.62856700  1
  O  O21  1  0.87973700  0.37498700  0.87973700  1
  O  O22  1  0.37143300  0.87344000  0.37143300  1
  O  O23  1  0.38635200  0.38635200  0.38635200  1
  O  O24  1  0.87544400  0.87544400  0.87544400  1
  O  O25  1  0.12026300  0.12026300  0.62501300  1
  O  O26  1  0.62856700  0.62856700  0.12656000  1
  O  O27  1  0.12026300  0.62501300  0.12026300  1
  O  O28  1  0.37498700  0.87973700  0.87973700  1
  O  O29  1  0.62856700  0.12656000  0.62856700  1
  O  O30  1  0.87344000  0.37143300  0.37143300  1
