# generated using pymatgen
data_MgAl2O4
_symmetry_space_group_name_H-M   'P 1'
_cell_length_a   19.18593380
_cell_length_b   19.18593380
_cell_length_c   19.18593414
_cell_angle_alpha   17.29148206
_cell_angle_beta   17.29148206
_cell_angle_gamma   17.29148324
_symmetry_Int_Tables_number   1
_chemical_formula_structural   MgAl2O4
_chemical_formula_sum   'Mg8 Al16 O32'
_cell_volume   544.44830114
_cell_formula_units_Z   8
loop_
 _symmetry_equiv_pos_site_id
 _symmetry_equiv_pos_as_xyz
  1  'x, y, z'
loop_
 _atom_site_type_symbol
 _atom_site_label
 _atom_site_symmetry_multiplicity
 _atom_site_fract_x
 _atom_site_fract_y
 _atom_site_fract_z
 _atom_site_occupancy
  Mg  Mg0  1  0.15522600  0.15522600  0.15522600  1
  Mg  Mg1  1  0.40521800  0.40521800  0.40521800  1
  Mg  Mg2  1  0.49954700  0.49954700  0.49954700  1
  Mg  Mg3  1  0.65592400  0.65592400  0.65592400  1
  Mg  Mg4  1  0.74931800  0.74931800  0.74931800  1
  Mg  Mg5  1  0.90639400  0.90639400  0.90639400  1
  Mg  Mg6  1  0.34474500  0.34474500  0.34474500  1
  Mg  Mg7  1  0.59351900  0.59351900  0.59351900  1
  Al  Al8  1  0.62033200  0.13488100  0.62033200  1
  Al  Al9  1  0.62033200  0.62033200  0.13488100  1
  Al  Al10  1  0.13488100  0.62033200  0.62033200  1
  Al  Al11  1  0.87206900  0.38021800  0.87206900  1
  Al  Al12  1  0.87206900  0.87206900  0.38021800  1
  Al  Al13  1  0.38021800  0.87206900  0.87206900  1
  Al  Al14  1  0.12496500  0.62582900  0.12496500  1
  Al  Al15  1  0.12496500  0.12496500  0.62582900  1
  Al  Al16  1  0.09522300  0.09522300  0.09522300  1
  Al  Al17  1  0.00017500  0.00017500  0.00017500  1
  Al  Al18  1  0.62582900  0.12496500  0.12496500  1
  Al  Al19  1  0.37260900  0.88053000  0.37260900  1
  Al  Al20  1  0.37260900  0.37260900  0.88053000  1
  Al  Al21  1  0.25055200  0.25055200  0.25055200  1
  Al  Al22  1  0.88053000  0.37260900  0.37260900  1
  Al  Al23  1  0.84416600  0.84416600  0.84416600  1
  O  O24  1  0.78246500  0.32373700  0.32373700  1
  O  O25  1  0.43999700  0.43999700  0.43999700  1
  O  O26  1  0.32373700  0.32373700  0.78246500  1
  O  O27  1  0.32373700  0.78246500  0.32373700  1
  O  O28  1  0.93265400  0.45331100  0.93265400  1
  O  O29  1  0.03349000  0.57207800  0.57207800  1
  O  O30  1  0.93265400  0.93265400  0.45331100  1
  O  O31  1  0.68993400  0.68993400  0.68993400  1
  O  O32  1  0.57207800  0.57207800  0.03349000  1
  O  O33  1  0.81135800  0.81135800  0.81135800  1
  O  O34  1  0.45331100  0.93265400  0.93265400  1
  O  O35  1  0.57207800  0.03349000  0.57207800  1
  O  O36  1  0.16786000  0.73060000  0.16786000  1
  O  O37  1  0.27462600  0.82953900  0.82953900  1
  O  O38  1  0.94084600  0.94084600  0.94084600  1
  O  O39  1  0.16786000  0.16786000  0.73060000  1
  O  O40  1  0.82953900  0.82953900  0.27462600  1
  O  O41  1  0.06249800  0.06249800  0.06249800  1
  O  O42  1  0.73060000  0.16786000  0.16786000  1
  O  O43  1  0.82953900  0.27462600  0.82953900  1
  O  O44  1  0.42082100  0.97432000  0.42082100  1
  O  O45  1  0.52355800  0.08079400  0.08079400  1
  O  O46  1  0.19072900  0.19072900  0.19072900  1
  O  O47  1  0.42082100  0.42082100  0.97432000  1
  O  O48  1  0.30938500  0.30938500  0.30938500  1
  O  O49  1  0.08079400  0.08079400  0.52355800  1
  O  O50  1  0.97432000  0.42082100  0.42082100  1
  O  O51  1  0.08079400  0.52355800  0.08079400  1
  O  O52  1  0.68657800  0.19535100  0.68657800  1
  O  O53  1  0.68657800  0.68657800  0.19535100  1
  O  O54  1  0.55799800  0.55799800  0.55799800  1
  O  O55  1  0.19535100  0.68657800  0.68657800  1
