# generated using pymatgen
data_K2Tc
_symmetry_space_group_name_H-M   'P 1'
_cell_length_a   9.73755388
_cell_length_b   9.73755388
_cell_length_c   4.94483600
_cell_angle_alpha   90.00000000
_cell_angle_beta   90.00000000
_cell_angle_gamma   119.99999921
_symmetry_Int_Tables_number   1
_chemical_formula_structural   K2Tc
_chemical_formula_sum   'K6 Tc3'
_cell_volume   406.05258098
_cell_formula_units_Z   3
loop_
 _symmetry_equiv_pos_site_id
 _symmetry_equiv_pos_as_xyz
  1  'x, y, z'
loop_
 _atom_site_type_symbol
 _atom_site_label
 _atom_site_symmetry_multiplicity
 _atom_site_fract_x
 _atom_site_fract_y
 _atom_site_fract_z
 _atom_site_occupancy
  K  K0  1  0.40922700  0.40922700  0.00000000  1
  K  K1  1  0.59077300  0.00000000  0.00000000  1
  K  K2  1  0.00000000  0.59077300  0.00000000  1
  K  K3  1  0.74140200  0.74140200  0.50000000  1
  K  K4  1  0.25859800  0.00000000  0.50000000  1
  K  K5  1  0.00000000  0.25859800  0.50000000  1
  Tc  Tc6  1  0.00000000  0.00000000  0.00000000  1
  Tc  Tc7  1  0.66666700  0.33333300  0.50000000  1
  Tc  Tc8  1  0.33333300  0.66666700  0.50000000  1
