# generated using pymatgen
data_Pr2Mo15O28
_symmetry_space_group_name_H-M   'P 1'
_cell_length_a   8.23202500
_cell_length_b   8.28869753
_cell_length_c   9.41653310
_cell_angle_alpha   89.51376367
_cell_angle_beta   89.08838594
_cell_angle_gamma   80.29139174
_symmetry_Int_Tables_number   1
_chemical_formula_structural   Pr2Mo15O28
_chemical_formula_sum   'Pr2 Mo15 O28'
_cell_volume   633.22293205
_cell_formula_units_Z   1
loop_
 _symmetry_equiv_pos_site_id
 _symmetry_equiv_pos_as_xyz
  1  'x, y, z'
loop_
 _atom_site_type_symbol
 _atom_site_label
 _atom_site_symmetry_multiplicity
 _atom_site_fract_x
 _atom_site_fract_y
 _atom_site_fract_z
 _atom_site_occupancy
  Pr  Pr0  1  0.93897000  0.97695000  0.49701300  1
  Pr  Pr1  1  0.45883700  0.45188700  0.00287200  1
  Mo  Mo2  1  0.01500000  0.82334200  0.85388300  1
  Mo  Mo3  1  0.09589000  0.24485100  0.14873900  1
  Mo  Mo4  1  0.24351800  0.10517500  0.85194100  1
  Mo  Mo5  1  0.23487800  0.87332300  0.13190900  1
  Mo  Mo6  1  0.30980200  0.51291600  0.37474500  1
  Mo  Mo7  1  0.37290800  0.72257400  0.63209800  1
  Mo  Mo8  1  0.45675400  0.11810900  0.37397800  1
  Mo  Mo9  1  0.50743700  0.33807100  0.64535900  1
  Mo  Mo10  1  0.59734100  0.74162200  0.35876600  1
  Mo  Mo11  1  0.71592500  0.36584300  0.36299400  1
  Mo  Mo12  1  0.62210600  0.95483400  0.86418200  1
  Mo  Mo13  1  0.77532500  0.59136500  0.64668100  1
  Mo  Mo14  1  0.83046700  0.01004200  0.14150700  1
  Mo  Mo15  1  0.87205700  0.23988700  0.87687200  1
  Mo  Mo16  1  0.95641700  0.62277700  0.13275800  1
  O  O17  1  0.01430000  0.83851600  0.24543300  1
  O  O18  1  0.05669200  0.21348200  0.74047100  1
  O  O19  1  0.11929100  0.45785400  0.25616200  1
  O  O20  1  0.19397300  0.69342000  0.49596700  1
  O  O21  1  0.16388300  0.68930400  0.00762700  1
  O  O22  1  0.25835300  0.06067900  0.25319100  1
  O  O23  1  0.19217600  0.89905300  0.72426500  1
  O  O24  1  0.32159600  0.31654600  0.49701600  1
  O  O25  1  0.27573800  0.28039200  0.98891600  1
  O  O26  1  0.36794000  0.53456000  0.76273100  1
  O  O27  1  0.39995800  0.68232000  0.23212700  1
  O  O28  1  0.45565500  0.12855500  0.74979700  1
  O  O29  1  0.38766800  0.92103600  0.97126100  1
  O  O30  1  0.44217800  0.89029900  0.48479200  1
  O  O31  1  0.49027400  0.34243100  0.25036800  1
  O  O32  1  0.59271800  0.74933800  0.73524800  1
  O  O33  1  0.67865700  0.16501400  0.98788700  1
  O  O34  1  0.66154400  0.17411000  0.49724500  1
  O  O35  1  0.62655400  0.95038200  0.25106800  1
  O  O36  1  0.69550800  0.41284600  0.78365900  1
  O  O37  1  0.74547500  0.57681800  0.24343900  1
  O  O38  1  0.84364400  0.00410700  0.75469900  1
  O  O39  1  0.81598400  0.81197800  0.99635300  1
  O  O40  1  0.78530600  0.76808900  0.49492500  1
  O  O41  1  0.90253300  0.17837300  0.28902300  1
  O  O42  1  0.86278600  0.43280000  0.52235600  1
  O  O43  1  0.92252300  0.39937800  0.01785300  1
  O  O44  1  0.96062000  0.64629400  0.74589200  1
