# generated using pymatgen
data_Mg9V10O24
_symmetry_space_group_name_H-M   'P 1'
_cell_length_a   6.00033978
_cell_length_b   6.00033978
_cell_length_c   15.30335820
_cell_angle_alpha   89.51299390
_cell_angle_beta   89.51299390
_cell_angle_gamma   59.88025258
_symmetry_Int_Tables_number   1
_chemical_formula_structural   Mg9V10O24
_chemical_formula_sum   'Mg9 V10 O24'
_cell_volume   476.56578685
_cell_formula_units_Z   1
loop_
 _symmetry_equiv_pos_site_id
 _symmetry_equiv_pos_as_xyz
  1  'x, y, z'
loop_
 _atom_site_type_symbol
 _atom_site_label
 _atom_site_symmetry_multiplicity
 _atom_site_fract_x
 _atom_site_fract_y
 _atom_site_fract_z
 _atom_site_occupancy
  Mg  Mg0  1  0.33441100  0.33441100  0.20019800  1
  Mg  Mg1  1  0.66670600  0.66670600  0.54233900  1
  Mg  Mg2  1  0.00474500  0.00474500  0.84729800  1
  Mg  Mg3  1  0.33329400  0.33329400  0.45766100  1
  Mg  Mg4  1  0.00000000  0.00000000  0.00000000  1
  Mg  Mg5  1  0.00000000  0.50000000  0.00000000  1
  Mg  Mg6  1  0.66558900  0.66558900  0.79980200  1
  Mg  Mg7  1  0.50000000  0.00000000  0.00000000  1
  Mg  Mg8  1  0.99525500  0.99525500  0.15270200  1
  V  V9  1  0.33925900  0.83192800  0.33686200  1
  V  V10  1  0.83192800  0.33925900  0.33686200  1
  V  V11  1  0.00000000  0.00000000  0.50000000  1
  V  V12  1  0.66074100  0.16807200  0.66313800  1
  V  V13  1  0.83130100  0.83130100  0.33747900  1
  V  V14  1  0.16807200  0.66074100  0.66313800  1
  V  V15  1  0.33160200  0.33160200  0.83516400  1
  V  V16  1  0.16869900  0.16869900  0.66252100  1
  V  V17  1  0.66839800  0.66839800  0.16483600  1
  V  V18  1  0.50000000  0.50000000  0.00000000  1
  O  O19  1  0.97357000  0.51402700  0.25342800  1
  O  O20  1  0.51402700  0.97357000  0.25342800  1
  O  O21  1  0.66675300  0.66675300  0.40849800  1
  O  O22  1  0.51473700  0.51473700  0.25280900  1
  O  O23  1  0.15452300  0.15452300  0.41569500  1
  O  O24  1  0.30620000  0.84626400  0.58366500  1
  O  O25  1  0.15373600  0.69380000  0.41633500  1
  O  O26  1  0.84626400  0.30620000  0.58366500  1
  O  O27  1  0.00101500  0.00101500  0.27406700  1
  O  O28  1  0.99898500  0.99898500  0.72593300  1
  O  O29  1  0.84547700  0.84547700  0.58430500  1
  O  O30  1  0.69380000  0.15373600  0.41633500  1
  O  O31  1  0.48526300  0.48526300  0.74719100  1
  O  O32  1  0.66908300  0.16956600  0.91876700  1
  O  O33  1  0.48597300  0.02643000  0.74657200  1
  O  O34  1  0.33324700  0.33324700  0.59150200  1
  O  O35  1  0.33811800  0.33811800  0.06961000  1
  O  O36  1  0.16956600  0.66908300  0.91876700  1
  O  O37  1  0.17017700  0.17017700  0.91586000  1
  O  O38  1  0.02643000  0.48597300  0.74657200  1
  O  O39  1  0.82982300  0.82982300  0.08414000  1
  O  O40  1  0.83043400  0.33091700  0.08123300  1
  O  O41  1  0.66188200  0.66188200  0.93039000  1
  O  O42  1  0.33091700  0.83043400  0.08123300  1
