# generated using pymatgen
data_Mn2CrO4
_symmetry_space_group_name_H-M   'P 1'
_cell_length_a   5.99174112
_cell_length_b   6.08700667
_cell_length_c   5.99218726
_cell_angle_alpha   118.24174199
_cell_angle_beta   91.15789863
_cell_angle_gamma   118.23392565
_symmetry_Int_Tables_number   1
_chemical_formula_structural   Mn2CrO4
_chemical_formula_sum   'Mn4 Cr2 O8'
_cell_volume   161.01870205
_cell_formula_units_Z   2
loop_
 _symmetry_equiv_pos_site_id
 _symmetry_equiv_pos_as_xyz
  1  'x, y, z'
loop_
 _atom_site_type_symbol
 _atom_site_label
 _atom_site_symmetry_multiplicity
 _atom_site_fract_x
 _atom_site_fract_y
 _atom_site_fract_z
 _atom_site_occupancy
  Mn  Mn0  1  0.37588400  0.75079800  0.12465000  1
  Mn  Mn1  1  0.75506700  0.49985800  0.24559800  1
  Mn  Mn2  1  0.87455400  0.25107700  0.62582100  1
  Mn  Mn3  1  0.99553700  0.99977600  0.00462400  1
  Cr  Cr4  1  0.37415100  0.24978200  0.62531100  1
  Cr  Cr5  1  0.37562900  0.74995600  0.62426600  1
  O  O6  1  0.59404200  0.75245000  0.37096900  1
  O  O7  1  0.62755000  0.24745700  0.40763500  1
  O  O8  1  0.15764600  0.74762600  0.87778200  1
  O  O9  1  0.12078500  0.25236200  0.84400200  1
  O  O10  1  0.16968900  0.79384300  0.38849000  1
  O  O11  1  0.13850700  0.29405600  0.41979600  1
  O  O12  1  0.58040500  0.70540500  0.86057800  1
  O  O13  1  0.61055500  0.20555100  0.83047800  1
