# generated using pymatgen
data_Tm(BC)2
_symmetry_space_group_name_H-M   'P 1'
_cell_length_a   5.33087200
_cell_length_b   5.33087200
_cell_length_c   3.48223100
_cell_angle_alpha   90.00000000
_cell_angle_beta   90.00000000
_cell_angle_gamma   90.00000000
_symmetry_Int_Tables_number   1
_chemical_formula_structural   Tm(BC)2
_chemical_formula_sum   'Tm2 B4 C4'
_cell_volume   98.95872405
_cell_formula_units_Z   2
loop_
 _symmetry_equiv_pos_site_id
 _symmetry_equiv_pos_as_xyz
  1  'x, y, z'
loop_
 _atom_site_type_symbol
 _atom_site_label
 _atom_site_symmetry_multiplicity
 _atom_site_fract_x
 _atom_site_fract_y
 _atom_site_fract_z
 _atom_site_occupancy
  Tm  Tm0  1  0.50000000  0.50000000  0.00000000  1
  Tm  Tm1  1  0.00000000  0.00000000  0.00000000  1
  B  B2  1  0.13627000  0.63627000  0.50000000  1
  B  B3  1  0.63627000  0.86373000  0.50000000  1
  B  B4  1  0.86373000  0.36373000  0.50000000  1
  B  B5  1  0.36373000  0.13627000  0.50000000  1
  C  C6  1  0.83766200  0.66233800  0.50000000  1
  C  C7  1  0.33766200  0.83766200  0.50000000  1
  C  C8  1  0.66233800  0.16233800  0.50000000  1
  C  C9  1  0.16233800  0.33766200  0.50000000  1
