# generated using pymatgen
data_Ba(NdS2)2
_symmetry_space_group_name_H-M   'P 1'
_cell_length_a   7.67853872
_cell_length_b   7.67853872
_cell_length_c   7.67853872
_cell_angle_alpha   109.46163183
_cell_angle_beta   109.46163183
_cell_angle_gamma   109.49039995
_symmetry_Int_Tables_number   1
_chemical_formula_structural   Ba(NdS2)2
_chemical_formula_sum   'Ba2 Nd4 S8'
_cell_volume   348.50884765
_cell_formula_units_Z   2
loop_
 _symmetry_equiv_pos_site_id
 _symmetry_equiv_pos_as_xyz
  1  'x, y, z'
loop_
 _atom_site_type_symbol
 _atom_site_label
 _atom_site_symmetry_multiplicity
 _atom_site_fract_x
 _atom_site_fract_y
 _atom_site_fract_z
 _atom_site_occupancy
  Ba  Ba0  1  0.25000000  0.75000000  0.50000000  1
  Ba  Ba1  1  0.00000000  0.00000000  0.00000000  1
  Nd  Nd2  1  0.62500000  0.25353700  0.12853700  1
  Nd  Nd3  1  0.50353700  0.37500000  0.62853700  1
  Nd  Nd4  1  0.12500000  0.49646300  0.87146300  1
  Nd  Nd5  1  0.74646300  0.87500000  0.37146300  1
  S  S6  1  0.73272100  0.14257200  0.74531900  1
  S  S7  1  0.01259700  0.26727900  0.40985100  1
  S  S8  1  0.39257200  0.48272100  0.24531900  1
  S  S9  1  0.85274600  0.60742800  0.09014900  1
  S  S10  1  0.51727900  0.76259700  0.90985100  1
  S  S11  1  0.85742800  0.60274600  0.59014900  1
  S  S12  1  0.39725400  0.98740300  0.25468100  1
  S  S13  1  0.23740300  0.14725400  0.75468100  1
