# generated using pymatgen
data_H4IN
_symmetry_space_group_name_H-M   'P 1'
_cell_length_a   5.16875950
_cell_length_b   5.16875950
_cell_length_c   5.16875950
_cell_angle_alpha   121.54211719
_cell_angle_beta   118.45866876
_cell_angle_gamma   90.02006082
_symmetry_Int_Tables_number   1
_chemical_formula_structural   H4IN
_chemical_formula_sum   'H4 I1 N1'
_cell_volume   97.55470625
_cell_formula_units_Z   1
loop_
 _symmetry_equiv_pos_site_id
 _symmetry_equiv_pos_as_xyz
  1  'x, y, z'
loop_
 _atom_site_type_symbol
 _atom_site_label
 _atom_site_symmetry_multiplicity
 _atom_site_fract_x
 _atom_site_fract_y
 _atom_site_fract_z
 _atom_site_occupancy
  H  H0  1  0.83976800  0.86989900  0.70966700  1
  H  H1  1  0.16023200  0.86989900  0.03013100  1
  H  H2  1  0.88328300  0.98922500  0.10594200  1
  H  H3  1  0.11671700  0.22266000  0.10594200  1
  I  I4  1  0.50000000  0.50841500  0.00841500  1
  N  N5  1  0.00000000  0.99090200  0.99090200  1
