# generated using pymatgen
data_Ta2MnO6
_symmetry_space_group_name_H-M   'P 1'
_cell_length_a   4.79382700
_cell_length_b   5.20069700
_cell_length_c   17.41658900
_cell_angle_alpha   90.00000000
_cell_angle_beta   90.00000000
_cell_angle_gamma   90.00000000
_symmetry_Int_Tables_number   1
_chemical_formula_structural   Ta2MnO6
_chemical_formula_sum   'Ta8 Mn4 O24'
_cell_volume   434.21718990
_cell_formula_units_Z   4
loop_
 _symmetry_equiv_pos_site_id
 _symmetry_equiv_pos_as_xyz
  1  'x, y, z'
loop_
 _atom_site_type_symbol
 _atom_site_label
 _atom_site_symmetry_multiplicity
 _atom_site_fract_x
 _atom_site_fract_y
 _atom_site_fract_z
 _atom_site_occupancy
  Ta  Ta0  1  0.00000000  0.25000000  0.21859600  1
  Ta  Ta1  1  0.00000000  0.25000000  0.55398400  1
  Ta  Ta2  1  0.50000000  0.75000000  0.28140400  1
  Ta  Ta3  1  0.50000000  0.75000000  0.94601600  1
  Ta  Ta4  1  0.50000000  0.25000000  0.05398400  1
  Ta  Ta5  1  0.50000000  0.25000000  0.71859600  1
  Ta  Ta6  1  0.00000000  0.75000000  0.44601600  1
  Ta  Ta7  1  0.00000000  0.75000000  0.78140400  1
  Mn  Mn8  1  0.00000000  0.25000000  0.89279300  1
  Mn  Mn9  1  0.50000000  0.75000000  0.60720700  1
  Mn  Mn10  1  0.50000000  0.25000000  0.39279300  1
  Mn  Mn11  1  0.00000000  0.75000000  0.10720700  1
  O  O12  1  0.23058600  0.10839200  0.12839400  1
  O  O13  1  0.21463300  0.06721400  0.46543400  1
  O  O14  1  0.23807200  0.07288100  0.78734700  1
  O  O15  1  0.26192800  0.07288100  0.28734700  1
  O  O16  1  0.26941400  0.10839200  0.62839400  1
  O  O17  1  0.28536700  0.06721400  0.96543400  1
  O  O18  1  0.23807200  0.57288100  0.21265300  1
  O  O19  1  0.21463300  0.56721400  0.53456600  1
  O  O20  1  0.23058600  0.60839200  0.87160600  1
  O  O21  1  0.28536700  0.56721400  0.03456600  1
  O  O22  1  0.26941400  0.60839200  0.37160600  1
  O  O23  1  0.26192800  0.57288100  0.71265300  1
  O  O24  1  0.73807200  0.42711900  0.28734700  1
  O  O25  1  0.73058600  0.39160800  0.62839400  1
  O  O26  1  0.71463300  0.43278600  0.96543400  1
  O  O27  1  0.76941400  0.39160800  0.12839400  1
  O  O28  1  0.78536700  0.43278600  0.46543400  1
  O  O29  1  0.76192800  0.42711900  0.78734700  1
  O  O30  1  0.71463300  0.93278600  0.03456600  1
  O  O31  1  0.73058600  0.89160800  0.37160600  1
  O  O32  1  0.73807200  0.92711900  0.71265300  1
  O  O33  1  0.76192800  0.92711900  0.21265300  1
  O  O34  1  0.78536700  0.93278600  0.53456600  1
  O  O35  1  0.76941400  0.89160800  0.87160600  1
