# generated using pymatgen
data_NbFeO4
_symmetry_space_group_name_H-M   'P 1'
_cell_length_a   5.10295000
_cell_length_b   5.69909700
_cell_length_c   9.45796400
_cell_angle_alpha   90.00000000
_cell_angle_beta   90.00000000
_cell_angle_gamma   90.00000000
_symmetry_Int_Tables_number   1
_chemical_formula_structural   NbFeO4
_chemical_formula_sum   'Nb4 Fe4 O16'
_cell_volume   275.05846719
_cell_formula_units_Z   4
loop_
 _symmetry_equiv_pos_site_id
 _symmetry_equiv_pos_as_xyz
  1  'x, y, z'
loop_
 _atom_site_type_symbol
 _atom_site_label
 _atom_site_symmetry_multiplicity
 _atom_site_fract_x
 _atom_site_fract_y
 _atom_site_fract_z
 _atom_site_occupancy
  Nb  Nb0  1  0.77118900  0.08104000  0.87289900  1
  Nb  Nb1  1  0.27118900  0.91896000  0.12710100  1
  Nb  Nb2  1  0.27118900  0.41896000  0.37289900  1
  Nb  Nb3  1  0.77118900  0.58104000  0.62710100  1
  Fe  Fe4  1  0.24946600  0.42406400  0.87929800  1
  Fe  Fe5  1  0.74946600  0.57593600  0.12070200  1
  Fe  Fe6  1  0.74946600  0.07593600  0.37929800  1
  Fe  Fe7  1  0.24946600  0.92406400  0.62070200  1
  O  O8  1  0.07569900  0.64334900  0.74058300  1
  O  O9  1  0.57779400  0.88466200  0.74002400  1
  O  O10  1  0.07569900  0.14334900  0.75941700  1
  O  O11  1  0.57779400  0.38466200  0.75997600  1
  O  O12  1  0.41735000  0.13679500  0.99042500  1
  O  O13  1  0.90770800  0.36260000  0.98439000  1
  O  O14  1  0.91735000  0.86320500  0.00957500  1
  O  O15  1  0.40770800  0.63740000  0.01561000  1
  O  O16  1  0.07779400  0.61533800  0.24002400  1
  O  O17  1  0.57569900  0.85665100  0.24058300  1
  O  O18  1  0.07779400  0.11533800  0.25997600  1
  O  O19  1  0.57569900  0.35665100  0.25941700  1
  O  O20  1  0.40770800  0.13740000  0.48439000  1
  O  O21  1  0.91735000  0.36320500  0.49042500  1
  O  O22  1  0.41735000  0.63679500  0.50957500  1
  O  O23  1  0.90770800  0.86260000  0.51561000  1
