# generated using pymatgen
data_Sr(GdSe2)2
_symmetry_space_group_name_H-M   'P 1'
_cell_length_a   7.76076779
_cell_length_b   7.76076779
_cell_length_c   7.76076779
_cell_angle_alpha   109.36277777
_cell_angle_beta   109.36277777
_cell_angle_gamma   109.68832475
_symmetry_Int_Tables_number   1
_chemical_formula_structural   Sr(GdSe2)2
_chemical_formula_sum   'Sr2 Gd4 Se8'
_cell_volume   359.82182210
_cell_formula_units_Z   2
loop_
 _symmetry_equiv_pos_site_id
 _symmetry_equiv_pos_as_xyz
  1  'x, y, z'
loop_
 _atom_site_type_symbol
 _atom_site_label
 _atom_site_symmetry_multiplicity
 _atom_site_fract_x
 _atom_site_fract_y
 _atom_site_fract_z
 _atom_site_occupancy
  Sr  Sr0  1  0.50000000  0.50000000  0.00000000  1
  Sr  Sr1  1  0.75000000  0.25000000  0.50000000  1
  Gd  Gd2  1  0.62500000  0.99903200  0.87403200  1
  Gd  Gd3  1  0.12500000  0.75096800  0.12596800  1
  Gd  Gd4  1  0.00096800  0.87500000  0.62596800  1
  Gd  Gd5  1  0.24903200  0.37500000  0.37403200  1
  Se  Se6  1  0.36059100  0.11332200  0.09878000  1
  Se  Se7  1  0.36332200  0.11059100  0.59878000  1
  Se  Se8  1  0.88940900  0.48818900  0.25273100  1
  Se  Se9  1  0.88667800  0.98545800  0.24726900  1
  Se  Se10  1  0.51181100  0.76454200  0.40122000  1
  Se  Se11  1  0.73818900  0.63940900  0.75273100  1
  Se  Se12  1  0.01454200  0.26181100  0.90122000  1
  Se  Se13  1  0.23545800  0.63667800  0.74726900  1
