# generated using pymatgen
data_Tb(NiSb)2
_symmetry_space_group_name_H-M   'P 1'
_cell_length_a   4.43862000
_cell_length_b   4.43862000
_cell_length_c   9.94358400
_cell_angle_alpha   90.00000000
_cell_angle_beta   90.00000000
_cell_angle_gamma   90.00000000
_symmetry_Int_Tables_number   1
_chemical_formula_structural   Tb(NiSb)2
_chemical_formula_sum   'Tb2 Ni4 Sb4'
_cell_volume   195.90200382
_cell_formula_units_Z   2
loop_
 _symmetry_equiv_pos_site_id
 _symmetry_equiv_pos_as_xyz
  1  'x, y, z'
loop_
 _atom_site_type_symbol
 _atom_site_label
 _atom_site_symmetry_multiplicity
 _atom_site_fract_x
 _atom_site_fract_y
 _atom_site_fract_z
 _atom_site_occupancy
  Tb  Tb0  1  0.00000000  0.50000000  0.23877900  1
  Tb  Tb1  1  0.50000000  0.00000000  0.76122100  1
  Ni  Ni2  1  0.00000000  0.00000000  0.00000000  1
  Ni  Ni3  1  0.50000000  0.50000000  0.00000000  1
  Ni  Ni4  1  0.00000000  0.50000000  0.62364800  1
  Ni  Ni5  1  0.50000000  0.00000000  0.37635200  1
  Sb  Sb6  1  0.00000000  0.00000000  0.50000000  1
  Sb  Sb7  1  0.50000000  0.50000000  0.50000000  1
  Sb  Sb8  1  0.00000000  0.50000000  0.87177600  1
  Sb  Sb9  1  0.50000000  0.00000000  0.12822400  1
