# generated using pymatgen
data_ZnFe5O8
_symmetry_space_group_name_H-M   'P 1'
_cell_length_a   6.07038161
_cell_length_b   6.07038161
_cell_length_c   6.07038161
_cell_angle_alpha   60.00000000
_cell_angle_beta   60.00000000
_cell_angle_gamma   60.00000000
_symmetry_Int_Tables_number   1
_chemical_formula_structural   ZnFe5O8
_chemical_formula_sum   'Zn1 Fe5 O8'
_cell_volume   158.17322972
_cell_formula_units_Z   1
loop_
 _symmetry_equiv_pos_site_id
 _symmetry_equiv_pos_as_xyz
  1  'x, y, z'
loop_
 _atom_site_type_symbol
 _atom_site_label
 _atom_site_symmetry_multiplicity
 _atom_site_fract_x
 _atom_site_fract_y
 _atom_site_fract_z
 _atom_site_occupancy
  Zn  Zn0  1  0.25000000  0.25000000  0.25000000  1
  Fe  Fe1  1  0.50000000  0.50000000  0.50000000  1
  Fe  Fe2  1  0.87511400  0.37465900  0.87511400  1
  Fe  Fe3  1  0.37465900  0.87511400  0.87511400  1
  Fe  Fe4  1  0.87511400  0.87511400  0.37465900  1
  Fe  Fe5  1  0.87511400  0.87511400  0.87511400  1
  O  O6  1  0.63764900  0.63764900  0.63764900  1
  O  O7  1  0.08705400  0.63764900  0.63764900  1
  O  O8  1  0.63764900  0.63764900  0.08705400  1
  O  O9  1  0.63764900  0.08705400  0.63764900  1
  O  O10  1  0.11472400  0.65582900  0.11472400  1
  O  O11  1  0.11472400  0.11472400  0.65582900  1
  O  O12  1  0.65582900  0.11472400  0.11472400  1
  O  O13  1  0.11472400  0.11472400  0.11472400  1
