# generated using pymatgen
data_Sm2CdS4
_symmetry_space_group_name_H-M   'P 1'
_cell_length_a   7.39012793
_cell_length_b   7.39012793
_cell_length_c   7.39012793
_cell_angle_alpha   110.61098597
_cell_angle_beta   110.61098597
_cell_angle_gamma   107.21497734
_symmetry_Int_Tables_number   1
_chemical_formula_structural   Sm2CdS4
_chemical_formula_sum   'Sm4 Cd2 S8'
_cell_volume   310.33522669
_cell_formula_units_Z   2
loop_
 _symmetry_equiv_pos_site_id
 _symmetry_equiv_pos_as_xyz
  1  'x, y, z'
loop_
 _atom_site_type_symbol
 _atom_site_label
 _atom_site_symmetry_multiplicity
 _atom_site_fract_x
 _atom_site_fract_y
 _atom_site_fract_z
 _atom_site_occupancy
  Sm  Sm0  1  0.73604300  0.12500000  0.11104300  1
  Sm  Sm1  1  0.37500000  0.26395700  0.38895700  1
  Sm  Sm2  1  0.01395700  0.62500000  0.88895700  1
  Sm  Sm3  1  0.87500000  0.98604300  0.61104300  1
  Cd  Cd4  1  0.50000000  0.50000000  0.00000000  1
  Cd  Cd5  1  0.25000000  0.75000000  0.50000000  1
  S  S6  1  0.25451300  0.99194300  0.87533500  1
  S  S7  1  0.49548700  0.87082200  0.23743000  1
  S  S8  1  0.62082200  0.74548700  0.73743000  1
  S  S9  1  0.12917800  0.36660800  0.62466500  1
  S  S10  1  0.63339200  0.25805700  0.76257000  1
  S  S11  1  0.00805700  0.88339200  0.26257000  1
  S  S12  1  0.11660800  0.37917800  0.12466500  1
  S  S13  1  0.74194300  0.50451300  0.37533500  1
