# generated using pymatgen
data_LaSn2Rh
_symmetry_space_group_name_H-M   'P 1'
_cell_length_a   9.72387416
_cell_length_b   9.72387416
_cell_length_c   4.67626800
_cell_angle_alpha   90.00000000
_cell_angle_beta   90.00000000
_cell_angle_gamma   152.66853157
_symmetry_Int_Tables_number   1
_chemical_formula_structural   LaSn2Rh
_chemical_formula_sum   'La2 Sn4 Rh2'
_cell_volume   203.01160026
_cell_formula_units_Z   2
loop_
 _symmetry_equiv_pos_site_id
 _symmetry_equiv_pos_as_xyz
  1  'x, y, z'
loop_
 _atom_site_type_symbol
 _atom_site_label
 _atom_site_symmetry_multiplicity
 _atom_site_fract_x
 _atom_site_fract_y
 _atom_site_fract_z
 _atom_site_occupancy
  La  La0  1  0.89050900  0.10949100  0.25000000  1
  La  La1  1  0.10949100  0.89050900  0.75000000  1
  Sn  Sn2  1  0.54425700  0.45574300  0.25000000  1
  Sn  Sn3  1  0.45574300  0.54425700  0.75000000  1
  Sn  Sn4  1  0.25160100  0.74839900  0.25000000  1
  Sn  Sn5  1  0.74839900  0.25160100  0.75000000  1
  Rh  Rh6  1  0.67986100  0.32013900  0.25000000  1
  Rh  Rh7  1  0.32013900  0.67986100  0.75000000  1
