# generated using pymatgen
data_Na2SnO6
_symmetry_space_group_name_H-M   'P 1'
_cell_length_a   5.31955368
_cell_length_b   5.31955368
_cell_length_c   5.31955409
_cell_angle_alpha   74.93237730
_cell_angle_beta   74.93237730
_cell_angle_gamma   74.93237559
_symmetry_Int_Tables_number   1
_chemical_formula_structural   Na2SnO6
_chemical_formula_sum   'Na2 Sn1 O6'
_cell_volume   137.33825091
_cell_formula_units_Z   1
loop_
 _symmetry_equiv_pos_site_id
 _symmetry_equiv_pos_as_xyz
  1  'x, y, z'
loop_
 _atom_site_type_symbol
 _atom_site_label
 _atom_site_symmetry_multiplicity
 _atom_site_fract_x
 _atom_site_fract_y
 _atom_site_fract_z
 _atom_site_occupancy
  Na  Na0  1  0.67833800  0.67833800  0.67833800  1
  Na  Na1  1  0.32166200  0.32166200  0.32166200  1
  Sn  Sn2  1  0.00000000  0.00000000  0.00000000  1
  O  O3  1  0.21996600  0.91212300  0.64208100  1
  O  O4  1  0.91212300  0.64208100  0.21996600  1
  O  O5  1  0.64208100  0.21996600  0.91212300  1
  O  O6  1  0.78003400  0.08787700  0.35791900  1
  O  O7  1  0.08787700  0.35791900  0.78003400  1
  O  O8  1  0.35791900  0.78003400  0.08787700  1
