# generated using pymatgen
data_Al2FeO4
_symmetry_space_group_name_H-M   'P 1'
_cell_length_a   5.70540648
_cell_length_b   5.87570628
_cell_length_c   8.26663363
_cell_angle_alpha   89.99980236
_cell_angle_beta   90.00058432
_cell_angle_gamma   89.99687306
_symmetry_Int_Tables_number   1
_chemical_formula_structural   Al2FeO4
_chemical_formula_sum   'Al8 Fe4 O16'
_cell_volume   277.12477856
_cell_formula_units_Z   4
loop_
 _symmetry_equiv_pos_site_id
 _symmetry_equiv_pos_as_xyz
  1  'x, y, z'
loop_
 _atom_site_type_symbol
 _atom_site_label
 _atom_site_symmetry_multiplicity
 _atom_site_fract_x
 _atom_site_fract_y
 _atom_site_fract_z
 _atom_site_occupancy
  Al  Al0  1  0.99998200  0.24999500  0.13549200  1
  Al  Al1  1  0.50000700  0.74999900  0.63549500  1
  Al  Al2  1  0.99999300  0.75000000  0.86450500  1
  Al  Al3  1  0.50001800  0.25000400  0.36450800  1
  Al  Al4  1  0.99998000  0.50000100  0.50000800  1
  Al  Al5  1  0.50002000  0.99999800  0.99999200  1
  Al  Al6  1  0.99998000  0.99999600  0.50000300  1
  Al  Al7  1  0.50002000  0.50000300  0.99999600  1
  Fe  Fe8  1  0.74999900  0.25001100  0.75000000  1
  Fe  Fe9  1  0.75000200  0.74999400  0.25000000  1
  Fe  Fe10  1  0.24999800  0.75001100  0.25000800  1
  Fe  Fe11  1  0.25000200  0.24999500  0.74999900  1
  O  O12  1  0.99997800  0.49209100  0.26833800  1
  O  O13  1  0.50001700  0.99208000  0.76833200  1
  O  O14  1  0.99999600  0.00792200  0.26834000  1
  O  O15  1  0.50003400  0.50791700  0.76833100  1
  O  O16  1  0.99996600  0.99208200  0.73166800  1
  O  O17  1  0.50000400  0.49207700  0.23165900  1
  O  O18  1  0.99998300  0.50791900  0.73166700  1
  O  O19  1  0.50002200  0.00790800  0.23166100  1
  O  O20  1  0.23545800  0.74999900  0.50752300  1
  O  O21  1  0.73543000  0.24999800  0.00756500  1
  O  O22  1  0.76456900  0.75000100  0.50755600  1
  O  O23  1  0.26452500  0.25000100  0.00751100  1
  O  O24  1  0.23547500  0.24999800  0.49248800  1
  O  O25  1  0.73543000  0.74999700  0.99244300  1
  O  O26  1  0.76457000  0.25000100  0.49243500  1
  O  O27  1  0.26454200  0.75000000  0.99247700  1
