# generated using pymatgen
data_Ta4GaSe8
_symmetry_space_group_name_H-M   'P 1'
_cell_length_a   7.42870404
_cell_length_b   7.42870404
_cell_length_c   7.42870404
_cell_angle_alpha   60.00000000
_cell_angle_beta   60.00000000
_cell_angle_gamma   60.00000000
_symmetry_Int_Tables_number   1
_chemical_formula_structural   Ta4GaSe8
_chemical_formula_sum   'Ta4 Ga1 Se8'
_cell_volume   289.88395022
_cell_formula_units_Z   1
loop_
 _symmetry_equiv_pos_site_id
 _symmetry_equiv_pos_as_xyz
  1  'x, y, z'
loop_
 _atom_site_type_symbol
 _atom_site_label
 _atom_site_symmetry_multiplicity
 _atom_site_fract_x
 _atom_site_fract_y
 _atom_site_fract_z
 _atom_site_occupancy
  Ta  Ta0  1  0.39781900  0.39781900  0.80654400  1
  Ta  Ta1  1  0.39781900  0.80654400  0.39781900  1
  Ta  Ta2  1  0.80654400  0.39781900  0.39781900  1
  Ta  Ta3  1  0.39781900  0.39781900  0.39781900  1
  Ga  Ga4  1  0.00000000  0.00000000  0.00000000  1
  Se  Se5  1  0.63563300  0.63563300  0.09310100  1
  Se  Se6  1  0.63563300  0.09310100  0.63563300  1
  Se  Se7  1  0.09310100  0.63563300  0.63563300  1
  Se  Se8  1  0.63563300  0.63563300  0.63563300  1
  Se  Se9  1  0.13576600  0.13576600  0.59270100  1
  Se  Se10  1  0.13576600  0.59270100  0.13576600  1
  Se  Se11  1  0.59270100  0.13576600  0.13576600  1
  Se  Se12  1  0.13576600  0.13576600  0.13576600  1
