# generated using pymatgen
data_P2O3
_symmetry_space_group_name_H-M   'P 1'
_cell_length_a   8.48709100
_cell_length_b   6.66116600
_cell_length_c   7.18438450
_cell_angle_alpha   71.64763181
_cell_angle_beta   90.00000000
_cell_angle_gamma   90.00000000
_symmetry_Int_Tables_number   1
_chemical_formula_structural   P2O3
_chemical_formula_sum   'P8 O12'
_cell_volume   385.50328776
_cell_formula_units_Z   4
loop_
 _symmetry_equiv_pos_site_id
 _symmetry_equiv_pos_as_xyz
  1  'x, y, z'
loop_
 _atom_site_type_symbol
 _atom_site_label
 _atom_site_symmetry_multiplicity
 _atom_site_fract_x
 _atom_site_fract_y
 _atom_site_fract_z
 _atom_site_occupancy
  P  P0  1  0.92486200  0.74852600  0.13468500  1
  P  P1  1  0.42486200  0.25147400  0.86531500  1
  P  P2  1  0.07513800  0.25147400  0.86531500  1
  P  P3  1  0.57513800  0.74852600  0.13468500  1
  P  P4  1  0.25000000  0.63851900  0.64075700  1
  P  P5  1  0.75000000  0.36148100  0.35924300  1
  P  P6  1  0.25000000  0.26035700  0.50430200  1
  P  P7  1  0.75000000  0.73964300  0.49569800  1
  O  O8  1  0.25000000  0.18123300  0.97016100  1
  O  O9  1  0.75000000  0.81876700  0.02983900  1
  O  O10  1  0.90076300  0.81125600  0.33976100  1
  O  O11  1  0.40076300  0.18874400  0.66023900  1
  O  O12  1  0.09923700  0.18874400  0.66023900  1
  O  O13  1  0.59923700  0.81125600  0.33976100  1
  O  O14  1  0.90070200  0.48653700  0.22237300  1
  O  O15  1  0.40070200  0.51346300  0.77762700  1
  O  O16  1  0.75000000  0.47879600  0.53260000  1
  O  O17  1  0.25000000  0.52120400  0.46740000  1
  O  O18  1  0.59929800  0.48653700  0.22237300  1
  O  O19  1  0.09929800  0.51346300  0.77762700  1
