# generated using pymatgen
data_Nd2CdSe4
_symmetry_space_group_name_H-M   'P 1'
_cell_length_a   7.77410674
_cell_length_b   7.77410674
_cell_length_c   7.77410674
_cell_angle_alpha   110.82266711
_cell_angle_beta   110.82266711
_cell_angle_gamma   106.80087803
_symmetry_Int_Tables_number   1
_chemical_formula_structural   Nd2CdSe4
_chemical_formula_sum   'Nd4 Cd2 Se8'
_cell_volume   361.09849810
_cell_formula_units_Z   2
loop_
 _symmetry_equiv_pos_site_id
 _symmetry_equiv_pos_as_xyz
  1  'x, y, z'
loop_
 _atom_site_type_symbol
 _atom_site_label
 _atom_site_symmetry_multiplicity
 _atom_site_fract_x
 _atom_site_fract_y
 _atom_site_fract_z
 _atom_site_occupancy
  Nd  Nd0  1  0.37500000  0.75930000  0.88430000  1
  Nd  Nd1  1  0.50930000  0.62500000  0.38430000  1
  Nd  Nd2  1  0.87500000  0.49070000  0.11570000  1
  Nd  Nd3  1  0.24070000  0.12500000  0.61570000  1
  Cd  Cd4  1  0.75000000  0.25000000  0.50000000  1
  Cd  Cd5  1  0.00000000  0.00000000  0.00000000  1
  Se  Se6  1  0.24570000  0.86931700  0.23738900  1
  Se  Se7  1  0.75831100  0.88192800  0.26261100  1
  Se  Se8  1  0.11807200  0.38068300  0.87638300  1
  Se  Se9  1  0.99168900  0.75430000  0.62361700  1
  Se  Se10  1  0.61931700  0.49570000  0.73738900  1
  Se  Se11  1  0.50430000  0.24168900  0.12361700  1
  Se  Se12  1  0.13068300  0.36807200  0.37638300  1
  Se  Se13  1  0.63192800  0.00831100  0.76261100  1
