# generated using pymatgen
data_VCl2O
_symmetry_space_group_name_H-M   'P 1'
_cell_length_a   6.98782331
_cell_length_b   3.73468789
_cell_length_c   7.00690179
_cell_angle_alpha   105.47666739
_cell_angle_beta   104.46620931
_cell_angle_gamma   89.99895271
_symmetry_Int_Tables_number   1
_chemical_formula_structural   VCl2O
_chemical_formula_sum   'V2 Cl4 O2'
_cell_volume   170.20772384
_cell_formula_units_Z   2
loop_
 _symmetry_equiv_pos_site_id
 _symmetry_equiv_pos_as_xyz
  1  'x, y, z'
loop_
 _atom_site_type_symbol
 _atom_site_label
 _atom_site_symmetry_multiplicity
 _atom_site_fract_x
 _atom_site_fract_y
 _atom_site_fract_z
 _atom_site_occupancy
  V  V0  1  0.00001100  0.94226000  0.99994000  1
  V  V1  1  0.49998900  0.05772800  0.00006000  1
  Cl  Cl2  1  0.18680100  0.87289200  0.74627700  1
  Cl  Cl3  1  0.31319800  0.12711600  0.25372300  1
  Cl  Cl4  1  0.68662000  0.87317700  0.74633000  1
  Cl  Cl5  1  0.81338100  0.12683200  0.25367000  1
  O  O6  1  0.50000500  0.51047400  0.00023900  1
  O  O7  1  0.99999500  0.48952100  0.99976100  1
