# generated using pymatgen
data_SmTaO4
_symmetry_space_group_name_H-M   'P 1'
_cell_length_a   6.68019605
_cell_length_b   6.68019605
_cell_length_c   5.14824995
_cell_angle_alpha   69.73895183
_cell_angle_beta   69.73895183
_cell_angle_gamma   115.24966821
_symmetry_Int_Tables_number   1
_chemical_formula_structural   SmTaO4
_chemical_formula_sum   'Sm2 Ta2 O8'
_cell_volume   158.48617094
_cell_formula_units_Z   2
loop_
 _symmetry_equiv_pos_site_id
 _symmetry_equiv_pos_as_xyz
  1  'x, y, z'
loop_
 _atom_site_type_symbol
 _atom_site_label
 _atom_site_symmetry_multiplicity
 _atom_site_fract_x
 _atom_site_fract_y
 _atom_site_fract_z
 _atom_site_occupancy
  Sm  Sm0  1  0.63148000  0.36852000  0.25000000  1
  Sm  Sm1  1  0.36852000  0.63148000  0.75000000  1
  Ta  Ta2  1  0.10019800  0.89980200  0.25000000  1
  Ta  Ta3  1  0.89980200  0.10019800  0.75000000  1
  O  O4  1  0.27172900  0.20819100  0.79529000  1
  O  O5  1  0.79180900  0.72827100  0.70471000  1
  O  O6  1  0.72827100  0.79180900  0.20471000  1
  O  O7  1  0.20819100  0.27172900  0.29529000  1
  O  O8  1  0.05444800  0.64045900  0.15887600  1
  O  O9  1  0.35954100  0.94555200  0.34112400  1
  O  O10  1  0.94555200  0.35954100  0.84112400  1
  O  O11  1  0.64045900  0.05444800  0.65887600  1
