# generated using pymatgen
data_Er10Ti6O27
_symmetry_space_group_name_H-M   'P 1'
_cell_length_a   7.41200228
_cell_length_b   7.41200228
_cell_length_c   12.12584449
_cell_angle_alpha   71.17990532
_cell_angle_beta   71.17990532
_cell_angle_gamma   61.38534185
_symmetry_Int_Tables_number   1
_chemical_formula_structural   Er10Ti6O27
_chemical_formula_sum   'Er10 Ti6 O27'
_cell_volume   542.09024504
_cell_formula_units_Z   1
loop_
 _symmetry_equiv_pos_site_id
 _symmetry_equiv_pos_as_xyz
  1  'x, y, z'
loop_
 _atom_site_type_symbol
 _atom_site_label
 _atom_site_symmetry_multiplicity
 _atom_site_fract_x
 _atom_site_fract_y
 _atom_site_fract_z
 _atom_site_occupancy
  Er  Er0  1  0.01065500  0.48255400  0.98180900  1
  Er  Er1  1  0.48255400  0.01065500  0.98180900  1
  Er  Er2  1  0.27833700  0.72105400  0.75307900  1
  Er  Er3  1  0.73447800  0.24962800  0.24899300  1
  Er  Er4  1  0.73243200  0.73243200  0.75691600  1
  Er  Er5  1  0.99493700  0.99493700  0.52022200  1
  Er  Er6  1  0.72105400  0.27833700  0.75307900  1
  Er  Er7  1  0.25429800  0.25429800  0.24560000  1
  Er  Er8  1  0.24962800  0.73447800  0.24899300  1
  Er  Er9  1  0.74059100  0.74059100  0.25022400  1
  Ti  Ti10  1  0.00263800  0.00263800  0.99659400  1
  Ti  Ti11  1  0.50525700  0.01642600  0.49976200  1
  Ti  Ti12  1  0.50241900  0.50241900  0.51028100  1
  Ti  Ti13  1  0.01642600  0.50525700  0.49976200  1
  Ti  Ti14  1  0.50880600  0.50880600  0.01614400  1
  Ti  Ti15  1  0.26087700  0.26087700  0.71979700  1
  O  O16  1  0.09323600  0.76608500  0.93489100  1
  O  O17  1  0.42006500  0.42006500  0.69290200  1
  O  O18  1  0.54774000  0.54774000  0.83818100  1
  O  O19  1  0.76608500  0.09323600  0.93489100  1
  O  O20  1  0.36022200  0.99341800  0.68595200  1
  O  O21  1  0.72336600  0.13191100  0.44638900  1
  O  O22  1  0.75701400  0.75701400  0.56228600  1
  O  O23  1  0.61875000  0.04420800  0.77058900  1
  O  O24  1  0.93691400  0.93691400  0.16858400  1
  O  O25  1  0.69431500  0.69431500  0.95591700  1
  O  O26  1  0.99341800  0.36022200  0.68595200  1
  O  O27  1  0.04420800  0.61875000  0.77058900  1
  O  O28  1  0.13191100  0.72336600  0.44638900  1
  O  O29  1  0.77243400  0.38530800  0.54392100  1
  O  O30  1  0.94695100  0.41696700  0.18422300  1
  O  O31  1  0.34893000  0.34893000  0.02960800  1
  O  O32  1  0.01412800  0.56632000  0.33935000  1
  O  O33  1  0.17561200  0.17561200  0.45082900  1
  O  O34  1  0.17528900  0.17528900  0.90102800  1
  O  O35  1  0.41696700  0.94695100  0.18422300  1
  O  O36  1  0.38530800  0.77243400  0.54392100  1
  O  O37  1  0.56632000  0.01412800  0.33935000  1
  O  O38  1  0.33405100  0.33405100  0.53385900  1
  O  O39  1  0.31744900  0.78563000  0.04674700  1
  O  O40  1  0.43373700  0.43373700  0.19960800  1
  O  O41  1  0.55706200  0.55706200  0.34251000  1
  O  O42  1  0.78563000  0.31744900  0.04674700  1
