# generated using pymatgen
data_MgV3O8
_symmetry_space_group_name_H-M   'P 1'
_cell_length_a   8.68544600
_cell_length_b   7.84791100
_cell_length_c   10.56447843
_cell_angle_alpha   60.12049290
_cell_angle_beta   90.00000000
_cell_angle_gamma   90.00000000
_symmetry_Int_Tables_number   1
_chemical_formula_structural   MgV3O8
_chemical_formula_sum   'Mg4 V12 O32'
_cell_volume   624.38277369
_cell_formula_units_Z   4
loop_
 _symmetry_equiv_pos_site_id
 _symmetry_equiv_pos_as_xyz
  1  'x, y, z'
loop_
 _atom_site_type_symbol
 _atom_site_label
 _atom_site_symmetry_multiplicity
 _atom_site_fract_x
 _atom_site_fract_y
 _atom_site_fract_z
 _atom_site_occupancy
  Mg  Mg0  1  0.31541700  0.29319900  0.38577800  1
  Mg  Mg1  1  0.18458300  0.29319900  0.88577800  1
  Mg  Mg2  1  0.81541700  0.70680100  0.11422200  1
  Mg  Mg3  1  0.68458300  0.70680100  0.61422200  1
  V  V4  1  0.00551500  0.77390300  0.37807900  1
  V  V5  1  0.00327200  0.70688500  0.81911700  1
  V  V6  1  0.32042700  0.73362300  0.60347600  1
  V  V7  1  0.50327200  0.29311500  0.68088300  1
  V  V8  1  0.17957300  0.73362300  0.10347600  1
  V  V9  1  0.49448500  0.77390300  0.87807900  1
  V  V10  1  0.50551500  0.22609700  0.12192100  1
  V  V11  1  0.82042700  0.26637700  0.89652400  1
  V  V12  1  0.49672800  0.70688500  0.31911700  1
  V  V13  1  0.67957300  0.26637700  0.39652400  1
  V  V14  1  0.99672800  0.29311500  0.18088300  1
  V  V15  1  0.99448500  0.22609700  0.62192100  1
  O  O16  1  0.99485300  0.31697800  0.00291000  1
  O  O17  1  0.00693000  0.03979700  0.29875900  1
  O  O18  1  0.15722400  0.38785100  0.21681300  1
  O  O19  1  0.30644100  0.97836600  0.51336100  1
  O  O20  1  0.15489600  0.30029100  0.52237400  1
  O  O21  1  0.16534200  0.69135100  0.48522900  1
  O  O22  1  0.99626900  0.28865300  0.76245100  1
  O  O23  1  0.50514700  0.31697800  0.50291000  1
  O  O24  1  0.34277600  0.38785100  0.71681300  1
  O  O25  1  0.16904100  0.62654900  0.77095000  1
  O  O26  1  0.19355900  0.97836600  0.01336100  1
  O  O27  1  0.49307000  0.03979700  0.79875900  1
  O  O28  1  0.00514700  0.68302200  0.99709000  1
  O  O29  1  0.66904100  0.37345100  0.72905000  1
  O  O30  1  0.49626900  0.71134700  0.73754900  1
  O  O31  1  0.34510400  0.30029100  0.02237400  1
  O  O32  1  0.33465800  0.69135100  0.98522900  1
  O  O33  1  0.80644100  0.02163400  0.98663900  1
  O  O34  1  0.66534200  0.30864900  0.01477100  1
  O  O35  1  0.65489600  0.69970900  0.97762600  1
  O  O36  1  0.50373100  0.28865300  0.26245100  1
  O  O37  1  0.33095900  0.62654900  0.27095100  1
  O  O38  1  0.50693000  0.96020300  0.20124100  1
  O  O39  1  0.83095900  0.37345100  0.22905000  1
  O  O40  1  0.65722400  0.61214900  0.28318700  1
  O  O41  1  0.69355900  0.02163400  0.48663900  1
  O  O42  1  0.49485300  0.68302200  0.49709000  1
  O  O43  1  0.00373100  0.71134700  0.23754900  1
  O  O44  1  0.83465800  0.30864900  0.51477100  1
  O  O45  1  0.84510400  0.69970900  0.47762600  1
  O  O46  1  0.84277600  0.61214900  0.78318700  1
  O  O47  1  0.99307000  0.96020300  0.70124100  1
