# generated using pymatgen
data_Cr2AsSe
_symmetry_space_group_name_H-M   'P 1'
_cell_length_a   3.76615900
_cell_length_b   3.76615843
_cell_length_c   6.23444500
_cell_angle_alpha   90.00000000
_cell_angle_beta   90.00000000
_cell_angle_gamma   119.99999622
_symmetry_Int_Tables_number   1
_chemical_formula_structural   Cr2AsSe
_chemical_formula_sum   'Cr2 As1 Se1'
_cell_volume   76.58181992
_cell_formula_units_Z   1
loop_
 _symmetry_equiv_pos_site_id
 _symmetry_equiv_pos_as_xyz
  1  'x, y, z'
loop_
 _atom_site_type_symbol
 _atom_site_label
 _atom_site_symmetry_multiplicity
 _atom_site_fract_x
 _atom_site_fract_y
 _atom_site_fract_z
 _atom_site_occupancy
  Cr  Cr0  1  0.00000000  0.00000000  0.99200300  1
  Cr  Cr1  1  0.00000000  0.00000000  0.50799700  1
  As  As2  1  0.66666700  0.33333300  0.75000000  1
  Se  Se3  1  0.33333300  0.66666700  0.25000000  1
