# generated using pymatgen
data_Yb3Al5O12
_symmetry_space_group_name_H-M   'P 1'
_cell_length_a   10.48665658
_cell_length_b   10.48665658
_cell_length_c   10.48665658
_cell_angle_alpha   109.47122063
_cell_angle_beta   109.47122063
_cell_angle_gamma   109.47122063
_symmetry_Int_Tables_number   1
_chemical_formula_structural   Yb3Al5O12
_chemical_formula_sum   'Yb12 Al20 O48'
_cell_volume   887.74706859
_cell_formula_units_Z   4
loop_
 _symmetry_equiv_pos_site_id
 _symmetry_equiv_pos_as_xyz
  1  'x, y, z'
loop_
 _atom_site_type_symbol
 _atom_site_label
 _atom_site_symmetry_multiplicity
 _atom_site_fract_x
 _atom_site_fract_y
 _atom_site_fract_z
 _atom_site_occupancy
  Yb  Yb0  1  0.87500000  0.75000000  0.62500000  1
  Yb  Yb1  1  0.87500000  0.62500000  0.25000000  1
  Yb  Yb2  1  0.62500000  0.87500000  0.75000000  1
  Yb  Yb3  1  0.25000000  0.87500000  0.62500000  1
  Yb  Yb4  1  0.75000000  0.62500000  0.87500000  1
  Yb  Yb5  1  0.62500000  0.25000000  0.87500000  1
  Yb  Yb6  1  0.12500000  0.25000000  0.37500000  1
  Yb  Yb7  1  0.12500000  0.37500000  0.75000000  1
  Yb  Yb8  1  0.37500000  0.12500000  0.25000000  1
  Yb  Yb9  1  0.75000000  0.12500000  0.37500000  1
  Yb  Yb10  1  0.25000000  0.37500000  0.12500000  1
  Yb  Yb11  1  0.37500000  0.75000000  0.12500000  1
  Al  Al12  1  0.12500000  0.75000000  0.87500000  1
  Al  Al13  1  0.87500000  0.25000000  0.12500000  1
  Al  Al14  1  0.75000000  0.37500000  0.62500000  1
  Al  Al15  1  0.12500000  0.87500000  0.25000000  1
  Al  Al16  1  0.25000000  0.12500000  0.87500000  1
  Al  Al17  1  0.37500000  0.62500000  0.75000000  1
  Al  Al18  1  0.37500000  0.25000000  0.62500000  1
  Al  Al19  1  0.87500000  0.12500000  0.75000000  1
  Al  Al20  1  0.62500000  0.37500000  0.25000000  1
  Al  Al21  1  0.75000000  0.87500000  0.12500000  1
  Al  Al22  1  0.25000000  0.62500000  0.37500000  1
  Al  Al23  1  0.62500000  0.75000000  0.37500000  1
  Al  Al24  1  0.50000000  0.00000000  0.50000000  1
  Al  Al25  1  0.00000000  0.50000000  0.00000000  1
  Al  Al26  1  0.50000000  0.50000000  0.50000000  1
  Al  Al27  1  0.00000000  0.00000000  0.50000000  1
  Al  Al28  1  0.00000000  0.00000000  0.00000000  1
  Al  Al29  1  0.00000000  0.50000000  0.50000000  1
  Al  Al30  1  0.50000000  0.50000000  0.00000000  1
  Al  Al31  1  0.50000000  0.00000000  0.00000000  1
  O  O32  1  0.88560600  0.40220800  0.08219700  1
  O  O33  1  0.08219700  0.88560600  0.40220800  1
  O  O34  1  0.69659100  0.51660200  0.61439400  1
  O  O35  1  0.67998900  0.09779200  0.98339800  1
  O  O36  1  0.51660200  0.40220800  0.82001100  1
  O  O37  1  0.41780300  0.82001100  0.80340900  1
  O  O38  1  0.08219700  0.69659100  0.67998900  1
  O  O39  1  0.40220800  0.08219700  0.88560600  1
  O  O40  1  0.98339800  0.80340900  0.88560600  1
  O  O41  1  0.67998900  0.08219700  0.69659100  1
  O  O42  1  0.40220800  0.82001100  0.51660200  1
  O  O43  1  0.09779200  0.61439400  0.41780300  1
  O  O44  1  0.61439400  0.41780300  0.09779200  1
  O  O45  1  0.69659100  0.67998900  0.08219700  1
  O  O46  1  0.88560600  0.98339800  0.80340900  1
  O  O47  1  0.80340900  0.88560600  0.98339800  1
  O  O48  1  0.82001100  0.51660200  0.40220800  1
  O  O49  1  0.61439400  0.69659100  0.51660200  1
  O  O50  1  0.82001100  0.80340900  0.41780300  1
  O  O51  1  0.01660200  0.19659100  0.11439400  1
  O  O52  1  0.98339800  0.67998900  0.09779200  1
  O  O53  1  0.09779200  0.98339800  0.67998900  1
  O  O54  1  0.80340900  0.41780300  0.82001100  1
  O  O55  1  0.41780300  0.09779200  0.61439400  1
  O  O56  1  0.11439400  0.59779200  0.91780300  1
  O  O57  1  0.91780300  0.11439400  0.59779200  1
  O  O58  1  0.30340900  0.48339800  0.38560600  1
  O  O59  1  0.32001100  0.90220800  0.01660200  1
  O  O60  1  0.48339800  0.59779200  0.17998900  1
  O  O61  1  0.58219700  0.17998900  0.19659100  1
  O  O62  1  0.91780300  0.30340900  0.32001100  1
  O  O63  1  0.59779200  0.91780300  0.11439400  1
  O  O64  1  0.58219700  0.90220800  0.38560600  1
  O  O65  1  0.19659100  0.58219700  0.17998900  1
  O  O66  1  0.90220800  0.01660200  0.32001100  1
  O  O67  1  0.48339800  0.38560600  0.30340900  1
  O  O68  1  0.01660200  0.32001100  0.90220800  1
  O  O69  1  0.17998900  0.19659100  0.58219700  1
  O  O70  1  0.38560600  0.30340900  0.48339800  1
  O  O71  1  0.17998900  0.48339800  0.59779200  1
  O  O72  1  0.19659100  0.11439400  0.01660200  1
  O  O73  1  0.11439400  0.01660200  0.19659100  1
  O  O74  1  0.30340900  0.32001100  0.91780300  1
  O  O75  1  0.38560600  0.58219700  0.90220800  1
  O  O76  1  0.90220800  0.38560600  0.58219700  1
  O  O77  1  0.59779200  0.17998900  0.48339800  1
  O  O78  1  0.32001100  0.91780300  0.30340900  1
  O  O79  1  0.51660200  0.61439400  0.69659100  1
