# generated using pymatgen
data_NaClO4
_symmetry_space_group_name_H-M   'P 1'
_cell_length_a   4.87140117
_cell_length_b   4.87140117
_cell_length_c   4.87140117
_cell_angle_alpha   117.10630038
_cell_angle_beta   117.10630038
_cell_angle_gamma   95.08965243
_symmetry_Int_Tables_number   1
_chemical_formula_structural   NaClO4
_chemical_formula_sum   'Na1 Cl1 O4'
_cell_volume   84.95479839
_cell_formula_units_Z   1
loop_
 _symmetry_equiv_pos_site_id
 _symmetry_equiv_pos_as_xyz
  1  'x, y, z'
loop_
 _atom_site_type_symbol
 _atom_site_label
 _atom_site_symmetry_multiplicity
 _atom_site_fract_x
 _atom_site_fract_y
 _atom_site_fract_z
 _atom_site_occupancy
  Na  Na0  1  0.50000000  0.50000000  0.00000000  1
  Cl  Cl1  1  0.00000000  0.00000000  0.00000000  1
  O  O2  1  0.03519400  0.03519400  0.33053500  1
  O  O3  1  0.96480600  0.29534100  0.00000000  1
  O  O4  1  0.29534100  0.96480600  0.00000000  1
  O  O5  1  0.70465900  0.70465900  0.66946500  1
