# generated using pymatgen
data_Ca(TbS2)2
_symmetry_space_group_name_H-M   'P 1'
_cell_length_a   7.27587104
_cell_length_b   7.27587104
_cell_length_c   7.27587104
_cell_angle_alpha   109.52387352
_cell_angle_beta   109.52387352
_cell_angle_gamma   109.36596612
_symmetry_Int_Tables_number   1
_chemical_formula_structural   Ca(TbS2)2
_chemical_formula_sum   'Ca2 Tb4 S8'
_cell_volume   296.50497825
_cell_formula_units_Z   2
loop_
 _symmetry_equiv_pos_site_id
 _symmetry_equiv_pos_as_xyz
  1  'x, y, z'
loop_
 _atom_site_type_symbol
 _atom_site_label
 _atom_site_symmetry_multiplicity
 _atom_site_fract_x
 _atom_site_fract_y
 _atom_site_fract_z
 _atom_site_occupancy
  Ca  Ca0  1  0.75000000  0.25000000  0.50000000  1
  Ca  Ca1  1  0.00000000  0.00000000  0.00000000  1
  Tb  Tb2  1  0.24743500  0.62500000  0.12243500  1
  Tb  Tb3  1  0.37500000  0.49743500  0.62243500  1
  Tb  Tb4  1  0.50256500  0.12500000  0.87756500  1
  Tb  Tb5  1  0.87500000  0.75256500  0.37756500  1
  S  S6  1  0.13120600  0.73614600  0.75061300  1
  S  S7  1  0.61879400  0.86940700  0.10494000  1
  S  S8  1  0.26385400  0.01446600  0.39506000  1
  S  S9  1  0.61940700  0.86879400  0.60494000  1
  S  S10  1  0.48614600  0.38120600  0.25061300  1
  S  S11  1  0.76446600  0.51385400  0.89506000  1
  S  S12  1  0.98553400  0.38059300  0.24938700  1
  S  S13  1  0.13059300  0.23553400  0.74938700  1
