# generated using pymatgen
data_Rb(WO3)6
_symmetry_space_group_name_H-M   'P 1'
_cell_length_a   8.45729948
_cell_length_b   8.45729948
_cell_length_c   8.45729948
_cell_angle_alpha   127.22350417
_cell_angle_beta   125.60894313
_cell_angle_gamma   79.21199315
_symmetry_Int_Tables_number   1
_chemical_formula_structural   Rb(WO3)6
_chemical_formula_sum   'Rb1 W6 O18'
_cell_volume   378.67378578
_cell_formula_units_Z   1
loop_
 _symmetry_equiv_pos_site_id
 _symmetry_equiv_pos_as_xyz
  1  'x, y, z'
loop_
 _atom_site_type_symbol
 _atom_site_label
 _atom_site_symmetry_multiplicity
 _atom_site_fract_x
 _atom_site_fract_y
 _atom_site_fract_z
 _atom_site_occupancy
  Rb  Rb0  1  0.00000000  0.00000000  0.00000000  1
  W  W1  1  0.00000000  0.00000000  0.50000000  1
  W  W2  1  0.00000000  0.50000000  0.00000000  1
  W  W3  1  0.50000000  0.00000000  0.00000000  1
  W  W4  1  0.50000000  0.50000000  0.50000000  1
  W  W5  1  0.25075900  0.50000000  0.75075900  1
  W  W6  1  0.74924100  0.50000000  0.24924100  1
  O  O7  1  0.74997200  0.00012000  0.25014700  1
  O  O8  1  0.64621700  0.21213300  0.07026200  1
  O  O9  1  0.14187100  0.21213300  0.56591600  1
  O  O10  1  0.96459600  0.21213100  0.75246400  1
  O  O11  1  0.45966700  0.21213100  0.24753600  1
  O  O12  1  0.64621700  0.57595500  0.43408400  1
  O  O13  1  0.14187100  0.57595500  0.92973800  1
  O  O14  1  0.25002800  0.99988000  0.74985300  1
  O  O15  1  0.25002800  0.50017500  0.25014700  1
  O  O16  1  0.74997200  0.49982500  0.74985300  1
  O  O17  1  0.35378300  0.42404500  0.56591600  1
  O  O18  1  0.85812900  0.42404500  0.07026200  1
  O  O19  1  0.03540400  0.78786900  0.24753600  1
  O  O20  1  0.50000000  0.50000000  0.00000000  1
  O  O21  1  0.00000000  0.50000000  0.50000000  1
  O  O22  1  0.54033300  0.78786900  0.75246400  1
  O  O23  1  0.35378300  0.78786700  0.92973800  1
  O  O24  1  0.85812900  0.78786700  0.43408400  1
