# generated using pymatgen
data_Gd2MgS4
_symmetry_space_group_name_H-M   'P 1'
_cell_length_a   7.23331305
_cell_length_b   7.23331305
_cell_length_c   7.23331305
_cell_angle_alpha   110.71393921
_cell_angle_beta   110.71393921
_cell_angle_gamma   107.01338936
_symmetry_Int_Tables_number   1
_chemical_formula_structural   Gd2MgS4
_chemical_formula_sum   'Gd4 Mg2 S8'
_cell_volume   290.93322776
_cell_formula_units_Z   2
loop_
 _symmetry_equiv_pos_site_id
 _symmetry_equiv_pos_as_xyz
  1  'x, y, z'
loop_
 _atom_site_type_symbol
 _atom_site_label
 _atom_site_symmetry_multiplicity
 _atom_site_fract_x
 _atom_site_fract_y
 _atom_site_fract_z
 _atom_site_occupancy
  Gd  Gd0  1  0.50733600  0.12500000  0.88233600  1
  Gd  Gd1  1  0.37500000  0.49266400  0.61766400  1
  Gd  Gd2  1  0.24266400  0.62500000  0.11766400  1
  Gd  Gd3  1  0.87500000  0.75733600  0.38233600  1
  Mg  Mg4  1  0.00000000  0.00000000  0.00000000  1
  Mg  Mg5  1  0.75000000  0.25000000  0.50000000  1
  S  S6  1  0.63571700  0.87222000  0.62830400  1
  S  S7  1  0.24391600  0.00741400  0.37169600  1
  S  S8  1  0.11428300  0.24258600  0.73650300  1
  S  S9  1  0.99258600  0.36428300  0.23650300  1
  S  S10  1  0.75741400  0.49391600  0.87169600  1
  S  S11  1  0.50608400  0.37778000  0.26349700  1
  S  S12  1  0.62222000  0.88571700  0.12830400  1
  S  S13  1  0.12778000  0.75608400  0.76349700  1
