# generated using pymatgen
data_Ho10Ti6O27
_symmetry_space_group_name_H-M   'P 1'
_cell_length_a   7.44523069
_cell_length_b   7.44523069
_cell_length_c   12.15810288
_cell_angle_alpha   71.14871072
_cell_angle_beta   71.14871072
_cell_angle_gamma   61.41629314
_symmetry_Int_Tables_number   1
_chemical_formula_structural   Ho10Ti6O27
_chemical_formula_sum   'Ho10 Ti6 O27'
_cell_volume   548.42008862
_cell_formula_units_Z   1
loop_
 _symmetry_equiv_pos_site_id
 _symmetry_equiv_pos_as_xyz
  1  'x, y, z'
loop_
 _atom_site_type_symbol
 _atom_site_label
 _atom_site_symmetry_multiplicity
 _atom_site_fract_x
 _atom_site_fract_y
 _atom_site_fract_z
 _atom_site_occupancy
  Ho  Ho0  1  0.51787400  0.98949600  0.01844500  1
  Ho  Ho1  1  0.27869300  0.72117700  0.24679200  1
  Ho  Ho2  1  0.98949600  0.51787400  0.01844500  1
  Ho  Ho3  1  0.26002400  0.26002400  0.74949000  1
  Ho  Ho4  1  0.72117700  0.27869300  0.24679200  1
  Ho  Ho5  1  0.75071200  0.26559000  0.75089100  1
  Ho  Ho6  1  0.26712800  0.26712800  0.24330800  1
  Ho  Ho7  1  0.26559000  0.75071200  0.75089100  1
  Ho  Ho8  1  0.00354600  0.00354600  0.47874300  1
  Ho  Ho9  1  0.74581000  0.74581000  0.75405200  1
  Ti  Ti10  1  0.99771500  0.99771500  0.00393100  1
  Ti  Ti11  1  0.49765500  0.49765500  0.48871900  1
  Ti  Ti12  1  0.98463200  0.49119800  0.50037000  1
  Ti  Ti13  1  0.49141500  0.49141500  0.98353000  1
  Ti  Ti14  1  0.49119800  0.98463200  0.50037000  1
  Ti  Ti15  1  0.73887800  0.73887800  0.28211200  1
  O  O16  1  0.58057500  0.58057500  0.30646800  1
  O  O17  1  0.23327000  0.90702300  0.06471000  1
  O  O18  1  0.00561900  0.63841500  0.31539600  1
  O  O19  1  0.45214800  0.45214800  0.16120300  1
  O  O20  1  0.90702300  0.23327000  0.06471000  1
  O  O21  1  0.87136800  0.27614700  0.55242900  1
  O  O22  1  0.06300900  0.06300900  0.83238900  1
  O  O23  1  0.95581800  0.37962000  0.22985600  1
  O  O24  1  0.24494600  0.24494600  0.43839000  1
  O  O25  1  0.30521300  0.30521300  0.04418000  1
  O  O26  1  0.63841500  0.00561900  0.31539600  1
  O  O27  1  0.61529500  0.22867200  0.45624000  1
  O  O28  1  0.58335800  0.05317800  0.81549900  1
  O  O29  1  0.37962000  0.95581800  0.22985600  1
  O  O30  1  0.27614700  0.87136800  0.55242900  1
  O  O31  1  0.43352000  0.98621500  0.66018400  1
  O  O32  1  0.65024900  0.65024900  0.97064900  1
  O  O33  1  0.82414800  0.82414800  0.54939800  1
  O  O34  1  0.82568600  0.82568600  0.09989400  1
  O  O35  1  0.05317800  0.58335800  0.81549900  1
  O  O36  1  0.22867200  0.61529500  0.45624000  1
  O  O37  1  0.56628800  0.56628800  0.80033500  1
  O  O38  1  0.21590500  0.68124200  0.95329800  1
  O  O39  1  0.98621500  0.43352000  0.66018400  1
  O  O40  1  0.66516400  0.66516400  0.46599400  1
  O  O41  1  0.44386700  0.44386700  0.65649600  1
  O  O42  1  0.68124200  0.21590500  0.95329800  1
