# generated using pymatgen
data_Ca3La5Mn7NiO24
_symmetry_space_group_name_H-M   'P 1'
_cell_length_a   5.49531600
_cell_length_b   7.78429903
_cell_length_c   11.05875309
_cell_angle_alpha   90.01445318
_cell_angle_beta   90.08697924
_cell_angle_gamma   90.00466651
_symmetry_Int_Tables_number   1
_chemical_formula_structural   Ca3La5Mn7NiO24
_chemical_formula_sum   'Ca3 La5 Mn7 Ni1 O24'
_cell_volume   473.06174300
_cell_formula_units_Z   1
loop_
 _symmetry_equiv_pos_site_id
 _symmetry_equiv_pos_as_xyz
  1  'x, y, z'
loop_
 _atom_site_type_symbol
 _atom_site_label
 _atom_site_symmetry_multiplicity
 _atom_site_fract_x
 _atom_site_fract_y
 _atom_site_fract_z
 _atom_site_occupancy
  Ca  Ca0  1  0.48696400  0.75165500  0.27017100  1
  Ca  Ca1  1  0.98911500  0.25097000  0.48258500  1
  Ca  Ca2  1  0.51587600  0.24875600  0.72762600  1
  La  La3  1  0.00733100  0.75388700  0.01887100  1
  La  La4  1  0.50520200  0.24768700  0.23786000  1
  La  La5  1  0.00304400  0.74920000  0.51081800  1
  La  La6  1  0.49360200  0.75183500  0.76524500  1
  La  La7  1  0.99540800  0.24611200  0.98339800  1
  Mn  Mn8  1  0.99949500  0.50279200  0.25243700  1
  Mn  Mn9  1  0.49877400  0.49536100  0.50017600  1
  Mn  Mn10  1  0.00043700  0.49331200  0.74735900  1
  Mn  Mn11  1  0.00155700  0.99899800  0.25231500  1
  Mn  Mn12  1  0.49979300  0.00366200  0.50042300  1
  Mn  Mn13  1  0.99852200  0.00478500  0.74762800  1
  Mn  Mn14  1  0.50119100  0.50027400  0.00051400  1
  Ni  Ni15  1  0.50029500  0.00063500  0.99994700  1
  O  O16  1  0.43173700  0.25838200  0.01423400  1
  O  O17  1  0.78956300  0.03632300  0.11361100  1
  O  O18  1  0.78486500  0.46296400  0.10923500  1
  O  O19  1  0.28040700  0.54418800  0.14153500  1
  O  O20  1  0.27320200  0.96074900  0.14557300  1
  O  O21  1  0.91966500  0.75184900  0.24867300  1
  O  O22  1  0.06652100  0.24941100  0.25630300  1
  O  O23  1  0.72047600  0.03803400  0.36165500  1
  O  O24  1  0.71804400  0.46313100  0.36162100  1
  O  O25  1  0.21887100  0.53771800  0.38852900  1
  O  O26  1  0.22138500  0.96111400  0.39036700  1
  O  O27  1  0.56460700  0.75153300  0.49809600  1
  O  O28  1  0.42031600  0.24788800  0.50341800  1
  O  O29  1  0.78366800  0.46008700  0.60858500  1
  O  O30  1  0.78583700  0.04044300  0.60620800  1
  O  O31  1  0.27841800  0.54014300  0.63928700  1
  O  O32  1  0.27943400  0.95924200  0.63893400  1
  O  O33  1  0.93193400  0.75045500  0.74092300  1
  O  O34  1  0.08605500  0.24820100  0.75884900  1
  O  O35  1  0.72565800  0.03980100  0.85334500  1
  O  O36  1  0.72227000  0.45545400  0.85740100  1
  O  O37  1  0.21870000  0.53918900  0.89152300  1
  O  O38  1  0.20990600  0.96140600  0.88690600  1
  O  O39  1  0.57185500  0.74237000  0.98781700  1
