# generated using pymatgen
data_BaLaMgRuO6
_symmetry_space_group_name_H-M   'P 1'
_cell_length_a   5.71398990
_cell_length_b   5.71398990
_cell_length_c   5.71398990
_cell_angle_alpha   120.56928728
_cell_angle_beta   120.56928728
_cell_angle_gamma   89.01676165
_symmetry_Int_Tables_number   1
_chemical_formula_structural   BaLaMgRuO6
_chemical_formula_sum   'Ba1 La1 Mg1 Ru1 O6'
_cell_volume   130.76179987
_cell_formula_units_Z   1
loop_
 _symmetry_equiv_pos_site_id
 _symmetry_equiv_pos_as_xyz
  1  'x, y, z'
loop_
 _atom_site_type_symbol
 _atom_site_label
 _atom_site_symmetry_multiplicity
 _atom_site_fract_x
 _atom_site_fract_y
 _atom_site_fract_z
 _atom_site_occupancy
  Ba  Ba0  1  0.00000000  0.00000000  0.00000000  1
  La  La1  1  0.50000000  0.50000000  0.00000000  1
  Mg  Mg2  1  0.25000000  0.75000000  0.50000000  1
  Ru  Ru3  1  0.75000000  0.25000000  0.50000000  1
  O  O4  1  0.99338100  0.49338100  0.50000000  1
  O  O5  1  0.53573100  0.52227300  0.59277400  1
  O  O6  1  0.05704300  0.46426900  0.98654200  1
  O  O7  1  0.50661900  0.00661900  0.50000000  1
  O  O8  1  0.47772700  0.07050100  0.01345800  1
  O  O9  1  0.92949900  0.94295700  0.40722600  1
