# generated using pymatgen
data_KRb2ZrOF5
_symmetry_space_group_name_H-M   'P 1'
_cell_length_a   6.60219023
_cell_length_b   6.60219023
_cell_length_c   6.60219023
_cell_angle_alpha   120.32371236
_cell_angle_beta   120.32371236
_cell_angle_gamma   89.44022228
_symmetry_Int_Tables_number   1
_chemical_formula_structural   KRb2ZrOF5
_chemical_formula_sum   'K1 Rb2 Zr1 O1 F5'
_cell_volume   202.48667853
_cell_formula_units_Z   1
loop_
 _symmetry_equiv_pos_site_id
 _symmetry_equiv_pos_as_xyz
  1  'x, y, z'
loop_
 _atom_site_type_symbol
 _atom_site_label
 _atom_site_symmetry_multiplicity
 _atom_site_fract_x
 _atom_site_fract_y
 _atom_site_fract_z
 _atom_site_occupancy
  K  K0  1  0.49824500  0.49824500  0.00000000  1
  Rb  Rb1  1  0.75339100  0.25339100  0.50000000  1
  Rb  Rb2  1  0.25339100  0.75339100  0.50000000  1
  Zr  Zr3  1  0.01845300  0.01845300  0.00000000  1
  O  O4  1  0.21958100  0.21958100  0.00000000  1
  F  F5  1  0.21860400  0.77031400  0.00000000  1
  F  F6  1  0.21860400  0.21860400  0.44828900  1
  F  F7  1  0.77031400  0.77031400  0.55171100  1
  F  F8  1  0.77031400  0.21860400  0.00000000  1
  F  F9  1  0.77910300  0.77910300  0.00000000  1
