# generated using pymatgen
data_CaC2S2(OF)6
_symmetry_space_group_name_H-M   'P 1'
_cell_length_a   10.98824649
_cell_length_b   10.98824649
_cell_length_c   10.98824722
_cell_angle_alpha   30.42696139
_cell_angle_beta   30.42696139
_cell_angle_gamma   30.42695989
_symmetry_Int_Tables_number   1
_chemical_formula_structural   CaC2S2(OF)6
_chemical_formula_sum   'Ca1 C2 S2 O6 F6'
_cell_volume   301.60880324
_cell_formula_units_Z   1
loop_
 _symmetry_equiv_pos_site_id
 _symmetry_equiv_pos_as_xyz
  1  'x, y, z'
loop_
 _atom_site_type_symbol
 _atom_site_label
 _atom_site_symmetry_multiplicity
 _atom_site_fract_x
 _atom_site_fract_y
 _atom_site_fract_z
 _atom_site_occupancy
  Ca  Ca0  1  0.00000000  0.00000000  0.00000000  1
  C  C1  1  0.78010500  0.78010500  0.78010500  1
  C  C2  1  0.21989500  0.21989500  0.21989500  1
  S  S3  1  0.72051500  0.72051500  0.72051500  1
  S  S4  1  0.27948500  0.27948500  0.27948500  1
  O  O5  1  0.14716100  0.57408700  0.15137700  1
  O  O6  1  0.15137700  0.14716100  0.57408700  1
  O  O7  1  0.57408700  0.15137700  0.14716100  1
  O  O8  1  0.42591300  0.84862300  0.85283900  1
  O  O9  1  0.84862300  0.85283900  0.42591300  1
  O  O10  1  0.85283900  0.42591300  0.84862300  1
  F  F11  1  0.04364100  0.62541900  0.71488400  1
  F  F12  1  0.62541900  0.71488400  0.04364100  1
  F  F13  1  0.71488400  0.04364100  0.62541900  1
  F  F14  1  0.28511600  0.95635900  0.37458100  1
  F  F15  1  0.37458100  0.28511600  0.95635900  1
  F  F16  1  0.95635900  0.37458100  0.28511600  1
