# generated using pymatgen
data_Mo3H24C8S13N2
_symmetry_space_group_name_H-M   'P 1'
_cell_length_a   11.16711947
_cell_length_b   11.16711947
_cell_length_c   6.97231300
_cell_angle_alpha   90.00000000
_cell_angle_beta   90.00000000
_cell_angle_gamma   119.99999689
_symmetry_Int_Tables_number   1
_chemical_formula_structural   Mo3H24C8S13N2
_chemical_formula_sum   'Mo3 H24 C8 S13 N2'
_cell_volume   752.99110442
_cell_formula_units_Z   1
loop_
 _symmetry_equiv_pos_site_id
 _symmetry_equiv_pos_as_xyz
  1  'x, y, z'
loop_
 _atom_site_type_symbol
 _atom_site_label
 _atom_site_symmetry_multiplicity
 _atom_site_fract_x
 _atom_site_fract_y
 _atom_site_fract_z
 _atom_site_occupancy
  Mo  Mo0  1  0.00000000  0.14214200  0.01516200  1
  Mo  Mo1  1  0.85785800  0.85785800  0.01516200  1
  Mo  Mo2  1  0.14214200  0.00000000  0.01516200  1
  H  H3  1  0.44952800  0.24626600  0.48735700  1
  H  H4  1  0.20326100  0.75373400  0.48735700  1
  H  H5  1  0.54807300  0.43238600  0.47840400  1
  H  H6  1  0.11568700  0.56761400  0.47840400  1
  H  H7  1  0.20607600  0.65655900  0.69286800  1
  H  H8  1  0.54951700  0.34344100  0.69286800  1
  H  H9  1  0.32771800  0.75741300  0.19770000  1
  H  H10  1  0.24258700  0.57030500  0.19770000  1
  H  H11  1  0.45192700  0.88431300  0.47840400  1
  H  H12  1  0.56761400  0.11568700  0.47840400  1
  H  H13  1  0.45048300  0.79392400  0.69286800  1
  H  H14  1  0.65655900  0.20607600  0.69286800  1
  H  H15  1  0.42969500  0.67228200  0.19770000  1
  H  H16  1  0.55047200  0.79673900  0.48735700  1
  H  H17  1  0.75373400  0.20326100  0.48735700  1
  H  H18  1  0.57030500  0.24258700  0.19770000  1
  H  H19  1  0.67228200  0.42969500  0.19770000  1
  H  H20  1  0.79673900  0.55047200  0.48735700  1
  H  H21  1  0.24626600  0.44952800  0.48735700  1
  H  H22  1  0.79392400  0.45048300  0.69286800  1
  H  H23  1  0.34344100  0.54951700  0.69286800  1
  H  H24  1  0.75741300  0.32771800  0.19770000  1
  H  H25  1  0.88431300  0.45192700  0.47840400  1
  H  H26  1  0.43238600  0.54807300  0.47840400  1
  C  C27  1  0.54338600  0.33880700  0.53569300  1
  C  C28  1  0.20457900  0.66119300  0.53569300  1
  C  C29  1  0.33333300  0.66666700  0.24588300  1
  C  C30  1  0.45661400  0.79542100  0.53569300  1
  C  C31  1  0.66119300  0.20457900  0.53569300  1
  C  C32  1  0.66666700  0.33333300  0.24588300  1
  C  C33  1  0.79542100  0.45661400  0.53569300  1
  C  C34  1  0.33880700  0.54338600  0.53569300  1
  S  S35  1  0.00000000  0.82612600  0.77541600  1
  S  S36  1  0.17387400  0.17387400  0.77541600  1
  S  S37  1  0.00000000  0.74213200  0.03389900  1
  S  S38  1  0.25786800  0.25786800  0.03389900  1
  S  S39  1  0.00000000  0.36284100  0.95144100  1
  S  S40  1  0.63715900  0.63715900  0.95144100  1
  S  S41  1  0.00000000  0.30923000  0.23535000  1
  S  S42  1  0.69077000  0.69077000  0.23535000  1
  S  S43  1  0.00000000  0.00000000  0.26984100  1
  S  S44  1  0.30923000  0.00000000  0.23535000  1
  S  S45  1  0.36284100  0.00000000  0.95144100  1
  S  S46  1  0.74213200  0.00000000  0.03389900  1
  S  S47  1  0.82612600  0.00000000  0.77541600  1
  N  N48  1  0.33333300  0.66666700  0.46198200  1
  N  N49  1  0.66666700  0.33333300  0.46198200  1
