# generated using pymatgen
data_Ba3Na2Ti3Nb2O15
_symmetry_space_group_name_H-M   'P 1'
_cell_length_a   14.51822770
_cell_length_b   14.51822770
_cell_length_c   4.02806600
_cell_angle_alpha   90.00000000
_cell_angle_beta   90.00000000
_cell_angle_gamma   157.41446977
_symmetry_Int_Tables_number   1
_chemical_formula_structural   Ba3Na2Ti3Nb2O15
_chemical_formula_sum   'Ba3 Na2 Ti3 Nb2 O15'
_cell_volume   326.08085615
_cell_formula_units_Z   1
loop_
 _symmetry_equiv_pos_site_id
 _symmetry_equiv_pos_as_xyz
  1  'x, y, z'
loop_
 _atom_site_type_symbol
 _atom_site_label
 _atom_site_symmetry_multiplicity
 _atom_site_fract_x
 _atom_site_fract_y
 _atom_site_fract_z
 _atom_site_occupancy
  Ba  Ba0  1  0.59909100  0.40090900  0.00000000  1
  Ba  Ba1  1  0.00000000  0.00000000  0.00000000  1
  Ba  Ba2  1  0.40090900  0.59909100  0.00000000  1
  Na  Na3  1  0.80132700  0.19867300  0.00000000  1
  Na  Na4  1  0.19867300  0.80132700  0.00000000  1
  Ti  Ti5  1  0.50000000  0.50000000  0.50000000  1
  Ti  Ti6  1  0.89895700  0.10104300  0.50000000  1
  Ti  Ti7  1  0.10104300  0.89895700  0.50000000  1
  Nb  Nb8  1  0.29938200  0.70061800  0.50000000  1
  Nb  Nb9  1  0.70061800  0.29938200  0.50000000  1
  O  O10  1  0.79967400  0.69924500  0.50000000  1
  O  O11  1  0.20032600  0.30075500  0.50000000  1
  O  O12  1  0.30075500  0.20032600  0.50000000  1
  O  O13  1  0.59974000  0.89980200  0.50000000  1
  O  O14  1  0.00000000  0.50000000  0.50000000  1
  O  O15  1  0.69924500  0.79967400  0.50000000  1
  O  O16  1  0.10019800  0.40026000  0.50000000  1
  O  O17  1  0.40026000  0.10019800  0.50000000  1
  O  O18  1  0.50000000  0.00000000  0.50000000  1
  O  O19  1  0.89980200  0.59974000  0.50000000  1
  O  O20  1  0.50000000  0.50000000  0.00000000  1
  O  O21  1  0.89934000  0.10066000  0.00000000  1
  O  O22  1  0.29940700  0.70059300  0.00000000  1
  O  O23  1  0.70059300  0.29940700  0.00000000  1
  O  O24  1  0.10066000  0.89934000  0.00000000  1
