# generated using pymatgen
data_Cs15W7N19
_symmetry_space_group_name_H-M   'P 1'
_cell_length_a   7.75218700
_cell_length_b   13.26308413
_cell_length_c   20.28084360
_cell_angle_alpha   89.25132278
_cell_angle_beta   85.57998867
_cell_angle_gamma   81.36479608
_symmetry_Int_Tables_number   1
_chemical_formula_structural   Cs15W7N19
_chemical_formula_sum   'Cs30 W14 N38'
_cell_volume   2055.46259967
_cell_formula_units_Z   2
loop_
 _symmetry_equiv_pos_site_id
 _symmetry_equiv_pos_as_xyz
  1  'x, y, z'
loop_
 _atom_site_type_symbol
 _atom_site_label
 _atom_site_symmetry_multiplicity
 _atom_site_fract_x
 _atom_site_fract_y
 _atom_site_fract_z
 _atom_site_occupancy
  Cs  Cs0  1  0.50362300  0.37623600  0.56775800  1
  Cs  Cs1  1  0.49637700  0.62376400  0.43224200  1
  Cs  Cs2  1  0.63823900  0.87524300  0.34028200  1
  Cs  Cs3  1  0.36176100  0.12475700  0.65971800  1
  Cs  Cs4  1  0.66967600  0.99264400  0.81229300  1
  Cs  Cs5  1  0.33032400  0.00735600  0.18770700  1
  Cs  Cs6  1  0.93858700  0.96207200  0.63381700  1
  Cs  Cs7  1  0.06141300  0.03792800  0.36618300  1
  Cs  Cs8  1  0.71083500  0.26739900  0.72997100  1
  Cs  Cs9  1  0.28916500  0.73260100  0.27002900  1
  Cs  Cs10  1  0.88273300  0.82249800  0.17090500  1
  Cs  Cs11  1  0.11726700  0.17750200  0.82909500  1
  Cs  Cs12  1  0.87894800  0.10656200  0.10394400  1
  Cs  Cs13  1  0.12105200  0.89343800  0.89605600  1
  Cs  Cs14  1  0.71079900  0.91660300  0.00108100  1
  Cs  Cs15  1  0.28920100  0.08339700  0.99891900  1
  Cs  Cs16  1  0.65922800  0.08996500  0.47663100  1
  Cs  Cs17  1  0.34077200  0.91003500  0.52336900  1
  Cs  Cs18  1  0.54408200  0.56724900  0.71954500  1
  Cs  Cs19  1  0.45591800  0.43275100  0.28045500  1
  Cs  Cs20  1  0.98034600  0.65793700  0.98593800  1
  Cs  Cs21  1  0.01965400  0.34206300  0.01406200  1
  Cs  Cs22  1  0.99083700  0.31657100  0.21955100  1
  Cs  Cs23  1  0.00916300  0.68342900  0.78044900  1
  Cs  Cs24  1  0.72401800  0.74077700  0.59079800  1
  Cs  Cs25  1  0.27598200  0.25922300  0.40920200  1
  Cs  Cs26  1  0.65091300  0.59577400  0.15437800  1
  Cs  Cs27  1  0.34908700  0.40422600  0.84562200  1
  Cs  Cs28  1  0.00000000  0.50000000  0.50000000  1
  Cs  Cs29  1  0.50000000  0.50000000  0.00000000  1
  W  W30  1  0.55559800  0.72404600  0.88107300  1
  W  W31  1  0.44440200  0.27595400  0.11892700  1
  W  W32  1  0.91623500  0.57650000  0.31559200  1
  W  W33  1  0.08376500  0.42350000  0.68440800  1
  W  W34  1  0.76804800  0.33839200  0.39703400  1
  W  W35  1  0.23195200  0.66160800  0.60296600  1
  W  W36  1  0.96144300  0.23193600  0.55940400  1
  W  W37  1  0.03855700  0.76806400  0.44059600  1
  W  W38  1  0.83098500  0.46123900  0.85521800  1
  W  W39  1  0.16901500  0.53876100  0.14478200  1
  W  W40  1  0.64645900  0.14828200  0.27292100  1
  W  W41  1  0.35354100  0.85171800  0.72707900  1
  W  W42  1  0.66868400  0.22516300  0.94143100  1
  W  W43  1  0.33131600  0.77483700  0.05856900  1
  N  N44  1  0.73476400  0.79499000  0.88350600  1
  N  N45  1  0.26523600  0.20501000  0.11649400  1
  N  N46  1  0.99744300  0.66166500  0.37793000  1
  N  N47  1  0.00255700  0.33833500  0.62207000  1
  N  N48  1  0.53859800  0.90074600  0.68439600  1
  N  N49  1  0.46140200  0.09925400  0.31560400  1
  N  N50  1  0.57839100  0.22378800  0.19119200  1
  N  N51  1  0.42160900  0.77621200  0.80880800  1
  N  N52  1  0.65145700  0.58168900  0.86447800  1
  N  N53  1  0.34854300  0.41831100  0.13552200  1
  N  N54  1  0.45016800  0.60469900  0.57571000  1
  N  N55  1  0.54983200  0.39530100  0.42429000  1
  N  N56  1  0.84584000  0.86493800  0.45706400  1
  N  N57  1  0.15416000  0.13506200  0.54293600  1
  N  N58  1  0.88291000  0.28544400  0.47319400  1
  N  N59  1  0.11709000  0.71455600  0.52680600  1
  N  N60  1  0.85693000  0.12414400  0.93930700  1
  N  N61  1  0.14307000  0.87585600  0.06069300  1
  N  N62  1  0.78602800  0.17136100  0.59972200  1
  N  N63  1  0.21397200  0.82863900  0.40027800  1
  N  N64  1  0.74788000  0.23518200  0.33492500  1
  N  N65  1  0.25212000  0.76481800  0.66507500  1
  N  N66  1  0.99178300  0.51636900  0.09821900  1
  N  N67  1  0.00821700  0.48363100  0.90178100  1
  N  N68  1  0.58243000  0.25551000  0.03519400  1
  N  N69  1  0.41757000  0.74449000  0.96480600  1
  N  N70  1  0.73996900  0.34636100  0.89372100  1
  N  N71  1  0.26003100  0.65363900  0.10627900  1
  N  N72  1  0.81192900  0.03897500  0.24891400  1
  N  N73  1  0.18807100  0.96102500  0.75108600  1
  N  N74  1  0.91937100  0.43993200  0.76395000  1
  N  N75  1  0.08062900  0.56006800  0.23605000  1
  N  N76  1  0.88790900  0.44587000  0.35462200  1
  N  N77  1  0.11209100  0.55413000  0.64537800  1
  N  N78  1  0.70867000  0.63808200  0.29112600  1
  N  N79  1  0.29133000  0.36191800  0.70887400  1
  N  N80  1  0.49755200  0.18258500  0.89595000  1
  N  N81  1  0.50244800  0.81741500  0.10405000  1
