# generated using pymatgen
data_Si3N4
_symmetry_space_group_name_H-M   'P 1'
_cell_length_a   6.20614952
_cell_length_b   6.20614952
_cell_length_c   3.97691200
_cell_angle_alpha   90.00000000
_cell_angle_beta   90.00000000
_cell_angle_gamma   119.99999483
_symmetry_Int_Tables_number   1
_chemical_formula_structural   Si3N4
_chemical_formula_sum   'Si6 N8'
_cell_volume   132.65423022
_cell_formula_units_Z   2
loop_
 _symmetry_equiv_pos_site_id
 _symmetry_equiv_pos_as_xyz
  1  'x, y, z'
loop_
 _atom_site_type_symbol
 _atom_site_label
 _atom_site_symmetry_multiplicity
 _atom_site_fract_x
 _atom_site_fract_y
 _atom_site_fract_z
 _atom_site_occupancy
  Si  Si0  1  0.17082200  0.82917800  0.25000000  1
  Si  Si1  1  0.17082200  0.34164300  0.25000000  1
  Si  Si2  1  0.65835700  0.82917800  0.25000000  1
  Si  Si3  1  0.34164300  0.17082200  0.75000000  1
  Si  Si4  1  0.82917800  0.65835700  0.75000000  1
  Si  Si5  1  0.82917800  0.17082200  0.75000000  1
  N  N6  1  0.15702500  0.84297500  0.75000000  1
  N  N7  1  0.33333300  0.66666700  0.25000000  1
  N  N8  1  0.15702500  0.31405000  0.75000000  1
  N  N9  1  0.68595000  0.84297500  0.75000000  1
  N  N10  1  0.31405000  0.15702500  0.25000000  1
  N  N11  1  0.84297500  0.68595000  0.25000000  1
  N  N12  1  0.66666700  0.33333300  0.75000000  1
  N  N13  1  0.84297500  0.15702500  0.25000000  1
