# generated using pymatgen
data_CeAlO3
_symmetry_space_group_name_H-M   'P 1'
_cell_length_a   5.37765624
_cell_length_b   5.37765624
_cell_length_c   5.37765624
_cell_angle_alpha   120.46459932
_cell_angle_beta   120.46459932
_cell_angle_gamma   89.19715658
_symmetry_Int_Tables_number   1
_chemical_formula_structural   CeAlO3
_chemical_formula_sum   'Ce2 Al2 O6'
_cell_volume   109.18358089
_cell_formula_units_Z   2
loop_
 _symmetry_equiv_pos_site_id
 _symmetry_equiv_pos_as_xyz
  1  'x, y, z'
loop_
 _atom_site_type_symbol
 _atom_site_label
 _atom_site_symmetry_multiplicity
 _atom_site_fract_x
 _atom_site_fract_y
 _atom_site_fract_z
 _atom_site_occupancy
  Ce  Ce0  1  0.25000000  0.75000000  0.50000000  1
  Ce  Ce1  1  0.75000000  0.25000000  0.50000000  1
  Al  Al2  1  0.50000000  0.50000000  0.00000000  1
  Al  Al3  1  0.00000000  0.00000000  0.00000000  1
  O  O4  1  0.28814300  0.78814300  0.07628600  1
  O  O5  1  0.78814300  0.71185700  0.50000000  1
  O  O6  1  0.21185700  0.28814300  0.50000000  1
  O  O7  1  0.71185700  0.21185700  0.92371400  1
  O  O8  1  0.25000000  0.25000000  0.00000000  1
  O  O9  1  0.75000000  0.75000000  0.00000000  1
