# generated using pymatgen
data_CaNdTiMnO6
_symmetry_space_group_name_H-M   'P 1'
_cell_length_a   5.67314500
_cell_length_b   5.51242900
_cell_length_c   9.34062971
_cell_angle_alpha   54.46292332
_cell_angle_beta   90.00000000
_cell_angle_gamma   90.00000000
_symmetry_Int_Tables_number   1
_chemical_formula_structural   CaNdTiMnO6
_chemical_formula_sum   'Ca2 Nd2 Ti2 Mn2 O12'
_cell_volume   237.69961771
_cell_formula_units_Z   2
loop_
 _symmetry_equiv_pos_site_id
 _symmetry_equiv_pos_as_xyz
  1  'x, y, z'
loop_
 _atom_site_type_symbol
 _atom_site_label
 _atom_site_symmetry_multiplicity
 _atom_site_fract_x
 _atom_site_fract_y
 _atom_site_fract_z
 _atom_site_occupancy
  Ca  Ca0  1  0.70108100  0.23795800  0.24998900  1
  Ca  Ca1  1  0.29891900  0.23795800  0.74998900  1
  Nd  Nd2  1  0.19708500  0.76347100  0.24978800  1
  Nd  Nd3  1  0.80291500  0.76347100  0.74978800  1
  Ti  Ti4  1  0.74405800  0.00068500  0.00088500  1
  Ti  Ti5  1  0.25594200  0.00068500  0.50088500  1
  Mn  Mn6  1  0.74756400  0.50188300  0.49947500  1
  Mn  Mn7  1  0.25243600  0.50188300  0.99947500  1
  O  O8  1  0.77347400  0.65776100  0.25411800  1
  O  O9  1  0.03280300  0.84276200  0.95378600  1
  O  O10  1  0.05115000  0.23289900  0.54669500  1
  O  O11  1  0.55176700  0.76578400  0.95268300  1
  O  O12  1  0.53511200  0.15474600  0.54668200  1
  O  O13  1  0.27563200  0.34205200  0.24590000  1
  O  O14  1  0.22652600  0.65776100  0.75411800  1
  O  O15  1  0.96719700  0.84276200  0.45378600  1
  O  O16  1  0.94885000  0.23289900  0.04669500  1
  O  O17  1  0.44823300  0.76578400  0.45268300  1
  O  O18  1  0.46488800  0.15474600  0.04668200  1
  O  O19  1  0.72436800  0.34205200  0.74590000  1
