# generated using pymatgen
data_Nd6Al7Si5N3O25
_symmetry_space_group_name_H-M   'P 1'
_cell_length_a   8.01854000
_cell_length_b   8.02283521
_cell_length_c   9.92885876
_cell_angle_alpha   89.13376553
_cell_angle_beta   89.41244714
_cell_angle_gamma   60.67263414
_symmetry_Int_Tables_number   1
_chemical_formula_structural   Nd6Al7Si5N3O25
_chemical_formula_sum   'Nd6 Al7 Si5 N3 O25'
_cell_volume   556.80748299
_cell_formula_units_Z   1
loop_
 _symmetry_equiv_pos_site_id
 _symmetry_equiv_pos_as_xyz
  1  'x, y, z'
loop_
 _atom_site_type_symbol
 _atom_site_label
 _atom_site_symmetry_multiplicity
 _atom_site_fract_x
 _atom_site_fract_y
 _atom_site_fract_z
 _atom_site_occupancy
  Nd  Nd0  1  0.59437100  0.40559700  0.99985200  1
  Nd  Nd1  1  0.58887100  0.41158300  0.50181600  1
  Nd  Nd2  1  0.41550300  0.98556900  0.99049900  1
  Nd  Nd3  1  0.41516300  0.99889200  0.49921100  1
  Nd  Nd4  1  0.00090500  0.58779500  0.99220600  1
  Nd  Nd5  1  0.00940600  0.58945000  0.50591300  1
  Al  Al6  1  0.24726800  0.75326300  0.24937300  1
  Al  Al7  1  0.99842000  0.00679300  0.00399800  1
  Al  Al8  1  0.99229700  0.00144000  0.50005100  1
  Al  Al9  1  0.76414500  0.00082200  0.74672200  1
  Al  Al10  1  0.76726300  0.03442300  0.23032500  1
  Al  Al11  1  0.99714500  0.23592500  0.75331500  1
  Al  Al12  1  0.98867200  0.24649500  0.25689400  1
  Si  Si13  1  0.33151400  0.33581700  0.73076700  1
  Si  Si14  1  0.32993600  0.32939900  0.22894200  1
  Si  Si15  1  0.67240100  0.67303400  0.26958200  1
  Si  Si16  1  0.66266300  0.66900400  0.76822200  1
  Si  Si17  1  0.26131700  0.73965000  0.74911900  1
  N  N18  1  0.30497500  0.53856800  0.65816600  1
  N  N19  1  0.45915300  0.70216800  0.84078900  1
  N  N20  1  0.84802300  0.20293300  0.13642600  1
  O  O21  1  0.09215200  0.78590000  0.86596100  1
  O  O22  1  0.09473500  0.77997000  0.38366400  1
  O  O23  1  0.31630400  0.52709900  0.16480100  1
  O  O24  1  0.78436900  0.13371800  0.87738600  1
  O  O25  1  0.76984700  0.13141100  0.39222800  1
  O  O26  1  0.33184100  0.32889900  0.89625300  1
  O  O27  1  0.33647300  0.32556600  0.39318600  1
  O  O28  1  0.52846600  0.15129400  0.66724400  1
  O  O29  1  0.51977700  0.15444300  0.15752700  1
  O  O30  1  0.16196000  0.29847800  0.66379600  1
  O  O31  1  0.14366900  0.32291600  0.16706400  1
  O  O32  1  0.89801000  0.87185500  0.60832000  1
  O  O33  1  0.91591300  0.85240000  0.10949300  1
  O  O34  1  0.70782900  0.83271300  0.83651000  1
  O  O35  1  0.68464100  0.85541300  0.33012600  1
  O  O36  1  0.12353100  0.10750800  0.89575900  1
  O  O37  1  0.13006700  0.09442800  0.39138300  1
  O  O38  1  0.21388800  0.90994200  0.63128400  1
  O  O39  1  0.22832400  0.90319500  0.11525900  1
  O  O40  1  0.66850200  0.67081300  0.60266600  1
  O  O41  1  0.67736000  0.65842300  0.10560300  1
  O  O42  1  0.47227500  0.69046700  0.33641000  1
  O  O43  1  0.84383500  0.46941800  0.83194000  1
  O  O44  1  0.84221000  0.47690300  0.34422700  1
  O  O45  1  0.86461100  0.21820900  0.61972600  1
