# generated using pymatgen
data_Ca2AlH10ClO8
_symmetry_space_group_name_H-M   'P 1'
_cell_length_a   5.82105979
_cell_length_b   5.82105979
_cell_length_c   16.16035152
_cell_angle_alpha   80.66875306
_cell_angle_beta   80.66875306
_cell_angle_gamma   58.50174946
_symmetry_Int_Tables_number   1
_chemical_formula_structural   Ca2AlH10ClO8
_chemical_formula_sum   'Ca4 Al2 H20 Cl2 O16'
_cell_volume   458.77198259
_cell_formula_units_Z   2
loop_
 _symmetry_equiv_pos_site_id
 _symmetry_equiv_pos_as_xyz
  1  'x, y, z'
loop_
 _atom_site_type_symbol
 _atom_site_label
 _atom_site_symmetry_multiplicity
 _atom_site_fract_x
 _atom_site_fract_y
 _atom_site_fract_z
 _atom_site_occupancy
  Ca  Ca0  1  0.15750300  0.65404400  0.53826000  1
  Ca  Ca1  1  0.34595600  0.84249700  0.96174000  1
  Ca  Ca2  1  0.65404400  0.15750300  0.03826000  1
  Ca  Ca3  1  0.84249700  0.34595600  0.46174000  1
  Al  Al4  1  0.00000000  0.50000000  0.00000000  1
  Al  Al5  1  0.50000000  0.00000000  0.50000000  1
  H  H6  1  0.09736800  0.66707400  0.12031700  1
  H  H7  1  0.18277500  0.11444400  0.11900000  1
  H  H8  1  0.61212400  0.61119600  0.11769000  1
  H  H9  1  0.21645400  0.00074700  0.77744800  1
  H  H10  1  0.49355400  0.72129800  0.77655700  1
  H  H11  1  0.27870200  0.50644600  0.72344300  1
  H  H12  1  0.99925300  0.78354600  0.72255200  1
  H  H13  1  0.11444400  0.18277500  0.61900000  1
  H  H14  1  0.61119600  0.61212400  0.61769000  1
  H  H15  1  0.66707400  0.09736800  0.62031700  1
  H  H16  1  0.33292600  0.90263200  0.37968300  1
  H  H17  1  0.38880400  0.38787600  0.38231000  1
  H  H18  1  0.88555600  0.81722500  0.38100000  1
  H  H19  1  0.00074700  0.21645400  0.27744800  1
  H  H20  1  0.72129800  0.49355400  0.27655700  1
  H  H21  1  0.50644600  0.27870200  0.22344300  1
  H  H22  1  0.78354600  0.99925300  0.22255200  1
  H  H23  1  0.38787600  0.38880400  0.88231000  1
  H  H24  1  0.81722500  0.88555600  0.88100000  1
  H  H25  1  0.90263200  0.33292600  0.87968300  1
  Cl  Cl26  1  0.25159800  0.74840200  0.25000000  1
  Cl  Cl27  1  0.74840200  0.25159800  0.75000000  1
  O  O28  1  0.10938700  0.61277700  0.69607100  1
  O  O29  1  0.03708200  0.72959200  0.06396300  1
  O  O30  1  0.23792900  0.16817900  0.06273900  1
  O  O31  1  0.67341800  0.53723600  0.06325300  1
  O  O32  1  0.38722300  0.89061300  0.80392900  1
  O  O33  1  0.16817900  0.23792900  0.56273900  1
  O  O34  1  0.53723600  0.67341800  0.56325300  1
  O  O35  1  0.72959200  0.03708200  0.56396300  1
  O  O36  1  0.27040800  0.96291800  0.43603700  1
  O  O37  1  0.46276400  0.32658200  0.43674700  1
  O  O38  1  0.83182100  0.76207100  0.43726100  1
  O  O39  1  0.61277700  0.10938700  0.19607100  1
  O  O40  1  0.32658200  0.46276400  0.93674700  1
  O  O41  1  0.76207100  0.83182100  0.93726100  1
  O  O42  1  0.96291800  0.27040800  0.93603700  1
  O  O43  1  0.89061300  0.38722300  0.30392900  1
