# generated using pymatgen
data_K4Gd2C3O9F4
_symmetry_space_group_name_H-M   'P 1'
_cell_length_a   9.15609500
_cell_length_b   7.00350900
_cell_length_c   10.65804618
_cell_angle_alpha   79.12384070
_cell_angle_beta   90.00000000
_cell_angle_gamma   90.00000000
_symmetry_Int_Tables_number   1
_chemical_formula_structural   K4Gd2C3O9F4
_chemical_formula_sum   'K8 Gd4 C6 O18 F8'
_cell_volume   671.16850201
_cell_formula_units_Z   2
loop_
 _symmetry_equiv_pos_site_id
 _symmetry_equiv_pos_as_xyz
  1  'x, y, z'
loop_
 _atom_site_type_symbol
 _atom_site_label
 _atom_site_symmetry_multiplicity
 _atom_site_fract_x
 _atom_site_fract_y
 _atom_site_fract_z
 _atom_site_occupancy
  K  K0  1  0.99967700  0.99945100  0.74997600  1
  K  K1  1  0.49967700  0.00054900  0.25002400  1
  K  K2  1  0.31145700  0.88042500  0.56236700  1
  K  K3  1  0.81716400  0.86412800  0.06362800  1
  K  K4  1  0.37821400  0.50164700  0.24844900  1
  K  K5  1  0.87821400  0.49835300  0.75155100  1
  K  K6  1  0.31716400  0.13587200  0.93637200  1
  K  K7  1  0.81145700  0.11957500  0.43763300  1
  Gd  Gd8  1  0.49375400  0.64418100  0.89483700  1
  Gd  Gd9  1  0.00341300  0.64397100  0.39191200  1
  Gd  Gd10  1  0.99375400  0.35581900  0.10516300  1
  Gd  Gd11  1  0.50341300  0.35602900  0.60808800  1
  C  C12  1  0.14247800  0.01053100  0.25698600  1
  C  C13  1  0.64247800  0.98946900  0.74301400  1
  C  C14  1  0.17758500  0.64688000  0.92869200  1
  C  C15  1  0.17580700  0.35202700  0.56206100  1
  C  C16  1  0.67580700  0.64797300  0.43793900  1
  C  C17  1  0.67758500  0.35312000  0.07130800  1
  O  O18  1  0.00002600  0.99786300  0.25047700  1
  O  O19  1  0.21393600  0.87317500  0.32839400  1
  O  O20  1  0.50002600  0.00213700  0.74952300  1
  O  O21  1  0.70648700  0.83714000  0.80898700  1
  O  O22  1  0.24585000  0.79887200  0.86958100  1
  O  O23  1  0.24244900  0.48735400  0.48179900  1
  O  O24  1  0.03598000  0.64009900  0.93662500  1
  O  O25  1  0.75100500  0.77253900  0.35810800  1
  O  O26  1  0.03380300  0.34730500  0.55877300  1
  O  O27  1  0.25390100  0.49552600  0.98169900  1
  O  O28  1  0.75390100  0.50447400  0.01830100  1
  O  O29  1  0.53380300  0.65269500  0.44122700  1
  O  O30  1  0.53598000  0.35990100  0.06337500  1
  O  O31  1  0.74244900  0.51264600  0.51820100  1
  O  O32  1  0.20648700  0.16286000  0.19101300  1
  O  O33  1  0.25100500  0.22746100  0.64189200  1
  O  O34  1  0.71393600  0.12682500  0.67160600  1
  O  O35  1  0.74585000  0.20112800  0.13041900  1
  F  F36  1  0.50001000  0.80794000  0.05639200  1
  F  F37  1  0.00298200  0.80298600  0.55607700  1
  F  F38  1  0.10743000  0.59077400  0.20231500  1
  F  F39  1  0.38169300  0.57216900  0.71247400  1
  F  F40  1  0.60743000  0.40922600  0.79768500  1
  F  F41  1  0.88169300  0.42783100  0.28752600  1
  F  F42  1  0.00001000  0.19206000  0.94360800  1
  F  F43  1  0.50298200  0.19701400  0.44392300  1
