# generated using pymatgen
data_Na4BeAlSi4ClO12
_symmetry_space_group_name_H-M   'P 1'
_cell_length_a   7.71393646
_cell_length_b   7.71393646
_cell_length_c   12.61334228
_cell_angle_alpha   89.95046724
_cell_angle_beta   89.95046724
_cell_angle_gamma   109.88090522
_symmetry_Int_Tables_number   1
_chemical_formula_structural   Na4BeAlSi4ClO12
_chemical_formula_sum   'Na8 Be2 Al2 Si8 Cl2 O24'
_cell_volume   705.82188868
_cell_formula_units_Z   2
loop_
 _symmetry_equiv_pos_site_id
 _symmetry_equiv_pos_as_xyz
  1  'x, y, z'
loop_
 _atom_site_type_symbol
 _atom_site_label
 _atom_site_symmetry_multiplicity
 _atom_site_fract_x
 _atom_site_fract_y
 _atom_site_fract_z
 _atom_site_occupancy
  Na  Na0  1  0.18901700  0.70726500  0.82156700  1
  Na  Na1  1  0.13638100  0.02358300  0.48948600  1
  Na  Na2  1  0.66265000  0.17882800  0.69052000  1
  Na  Na3  1  0.70726500  0.18901700  0.32156700  1
  Na  Na4  1  0.17882800  0.66265000  0.19052000  1
  Na  Na5  1  0.48294400  0.62458400  0.49675000  1
  Na  Na6  1  0.02358300  0.13638100  0.98948600  1
  Na  Na7  1  0.62458400  0.48294400  0.99675000  1
  Be  Be8  1  0.37118500  0.12439600  0.87882600  1
  Be  Be9  1  0.12439600  0.37118500  0.37882600  1
  Al  Al10  1  0.87748400  0.63153800  0.62233300  1
  Al  Al11  1  0.63153800  0.87748400  0.12233300  1
  Si  Si12  1  0.00490400  0.00852500  0.74924900  1
  Si  Si13  1  0.61544800  0.87574800  0.87059000  1
  Si  Si14  1  0.48942500  0.49675200  0.25483000  1
  Si  Si15  1  0.12504100  0.37925800  0.62463800  1
  Si  Si16  1  0.87574800  0.61544800  0.37059000  1
  Si  Si17  1  0.49675200  0.48942500  0.75483000  1
  Si  Si18  1  0.00852500  0.00490400  0.24924900  1
  Si  Si19  1  0.37925800  0.12504100  0.12463800  1
  Cl  Cl20  1  0.49933600  0.99978000  0.50025500  1
  Cl  Cl21  1  0.99978000  0.49933600  0.00025500  1
  O  O22  1  0.50267900  0.69605500  0.79547200  1
  O  O23  1  0.83620500  0.95065100  0.83800000  1
  O  O24  1  0.53018500  0.03455700  0.84908800  1
  O  O25  1  0.00397600  0.21046000  0.70470300  1
  O  O26  1  0.01184600  0.18755900  0.30974000  1
  O  O27  1  0.18755900  0.01184600  0.80974000  1
  O  O28  1  0.10393500  0.31161300  0.50429600  1
  O  O29  1  0.34558000  0.44696200  0.35078400  1
  O  O30  1  0.03455700  0.53018500  0.34908800  1
  O  O31  1  0.44696200  0.34558000  0.85078400  1
  O  O32  1  0.50048400  0.69156100  0.20047900  1
  O  O33  1  0.06062800  0.55419800  0.65257500  1
  O  O34  1  0.69605500  0.50267900  0.29547200  1
  O  O35  1  0.60511800  0.79803600  0.99121500  1
  O  O36  1  0.69156100  0.50048400  0.70047900  1
  O  O37  1  0.34636600  0.44138500  0.65629700  1
  O  O38  1  0.79803600  0.60511800  0.49121500  1
  O  O39  1  0.86907500  0.95681400  0.14830600  1
  O  O40  1  0.95681400  0.86907500  0.64830600  1
  O  O41  1  0.55419800  0.06062800  0.15257500  1
  O  O42  1  0.95065100  0.83620500  0.33800000  1
  O  O43  1  0.21046000  0.00397600  0.20470300  1
  O  O44  1  0.31161300  0.10393500  0.00429600  1
  O  O45  1  0.44138500  0.34636600  0.15629700  1
