# generated using pymatgen
data_U
_symmetry_space_group_name_H-M   'P 1'
_cell_length_a   10.41849600
_cell_length_b   10.41849600
_cell_length_c   5.70574800
_cell_angle_alpha   90.00000000
_cell_angle_beta   90.00000000
_cell_angle_gamma   90.00000000
_symmetry_Int_Tables_number   1
_chemical_formula_structural   U
_chemical_formula_sum   U30
_cell_volume   619.33075274
_cell_formula_units_Z   30
loop_
 _symmetry_equiv_pos_site_id
 _symmetry_equiv_pos_as_xyz
  1  'x, y, z'
loop_
 _atom_site_type_symbol
 _atom_site_label
 _atom_site_symmetry_multiplicity
 _atom_site_fract_x
 _atom_site_fract_y
 _atom_site_fract_z
 _atom_site_occupancy
  U  U0  1  0.00000000  0.00000000  0.73113500  1
  U  U1  1  0.50000000  0.50000000  0.23113500  1
  U  U2  1  0.10970400  0.10970400  0.26742200  1
  U  U3  1  0.60970400  0.39029600  0.76742200  1
  U  U4  1  0.39029600  0.60970400  0.76742200  1
  U  U5  1  0.89029600  0.89029600  0.26742200  1
  U  U6  1  0.32293500  0.32293500  0.94757700  1
  U  U7  1  0.82293500  0.17706500  0.44757700  1
  U  U8  1  0.17706500  0.82293500  0.44757700  1
  U  U9  1  0.67706500  0.67706500  0.94757700  1
  U  U10  1  0.67685600  0.67685600  0.49866800  1
  U  U11  1  0.17685600  0.82314400  0.99866800  1
  U  U12  1  0.82314400  0.17685600  0.99866800  1
  U  U13  1  0.32314400  0.32314400  0.49866800  1
  U  U14  1  0.22884600  0.55569700  0.24976600  1
  U  U15  1  0.05569700  0.27115400  0.74976600  1
  U  U16  1  0.94430300  0.72884600  0.74976600  1
  U  U17  1  0.77115400  0.44430300  0.24976600  1
  U  U18  1  0.72884600  0.94430300  0.74976600  1
  U  U19  1  0.27115400  0.05569700  0.74976600  1
  U  U20  1  0.44430300  0.77115400  0.24976600  1
  U  U21  1  0.55569700  0.22884600  0.24976600  1
  U  U22  1  0.04969600  0.35872200  0.19061700  1
  U  U23  1  0.85872200  0.45030400  0.69061700  1
  U  U24  1  0.14127800  0.54969600  0.69061700  1
  U  U25  1  0.95030400  0.64127800  0.19061700  1
  U  U26  1  0.54969600  0.14127800  0.69061700  1
  U  U27  1  0.45030400  0.85872200  0.69061700  1
  U  U28  1  0.64127800  0.95030400  0.19061700  1
  U  U29  1  0.35872200  0.04969600  0.19061700  1
