# generated using pymatgen
data_Ca3Ti2AlSi3O14F
_symmetry_space_group_name_H-M   'P 1'
_cell_length_a   5.46422200
_cell_length_b   7.10454159
_cell_length_c   14.95858769
_cell_angle_alpha   83.73673831
_cell_angle_beta   87.22298049
_cell_angle_gamma   75.57209403
_symmetry_Int_Tables_number   1
_chemical_formula_structural   Ca3Ti2AlSi3O14F
_chemical_formula_sum   'Ca6 Ti4 Al2 Si6 O28 F2'
_cell_volume   558.89666929
_cell_formula_units_Z   2
loop_
 _symmetry_equiv_pos_site_id
 _symmetry_equiv_pos_as_xyz
  1  'x, y, z'
loop_
 _atom_site_type_symbol
 _atom_site_label
 _atom_site_symmetry_multiplicity
 _atom_site_fract_x
 _atom_site_fract_y
 _atom_site_fract_z
 _atom_site_occupancy
  Ca  Ca0  1  0.44729500  0.63814800  0.60961200  1
  Ca  Ca1  1  0.10670300  0.97349000  0.27981100  1
  Ca  Ca2  1  0.77286500  0.30782800  0.94196900  1
  Ca  Ca3  1  0.55270500  0.36185200  0.39038800  1
  Ca  Ca4  1  0.22713500  0.69217200  0.05803100  1
  Ca  Ca5  1  0.89329700  0.02651000  0.72018900  1
  Ti  Ti6  1  0.66593800  0.83387800  0.16928100  1
  Ti  Ti7  1  0.66716300  0.33320800  0.16768600  1
  Ti  Ti8  1  0.33406200  0.16612200  0.83071900  1
  Ti  Ti9  1  0.33283700  0.66679200  0.83231400  1
  Al  Al10  1  0.00000000  0.50000000  0.50000000  1
  Al  Al11  1  0.00000000  0.00000000  0.50000000  1
  Si  Si12  1  0.42173400  0.14397200  0.60065300  1
  Si  Si13  1  0.08817700  0.47884100  0.27763400  1
  Si  Si14  1  0.75840300  0.81031900  0.93942200  1
  Si  Si15  1  0.57826600  0.85602800  0.39934700  1
  Si  Si16  1  0.24159700  0.18968100  0.06057800  1
  Si  Si17  1  0.91182300  0.52115900  0.72236600  1
  O  O18  1  0.28905300  0.98188900  0.42245100  1
  O  O19  1  0.33633900  0.35241700  0.53464300  1
  O  O20  1  0.96145200  0.32896700  0.08405400  1
  O  O21  1  0.11965300  0.53134100  0.38022700  1
  O  O22  1  0.21108500  0.01153900  0.59816500  1
  O  O23  1  0.01854900  0.68034000  0.20761900  1
  O  O24  1  0.78891500  0.98846100  0.40183500  1
  O  O25  1  0.88034700  0.46865900  0.61977300  1
  O  O26  1  0.76202900  0.06176900  0.19107500  1
  O  O27  1  0.63080800  0.65863200  0.74706000  1
  O  O28  1  0.79080600  0.86848300  0.04099000  1
  O  O29  1  0.87934800  0.34676100  0.27482000  1
  O  O30  1  0.68505700  0.01122000  0.86930400  1
  O  O31  1  0.66366100  0.64758300  0.46535700  1
  O  O32  1  0.45103600  0.32164100  0.06258000  1
  O  O33  1  0.54729600  0.80202900  0.29613000  1
  O  O34  1  0.42737800  0.39199900  0.85426800  1
  O  O35  1  0.71094700  0.01811100  0.57754900  1
  O  O36  1  0.57262200  0.60800100  0.14573200  1
  O  O37  1  0.45270400  0.19797100  0.70387000  1
  O  O38  1  0.54896400  0.67835900  0.93742000  1
  O  O39  1  0.31494300  0.98878000  0.13069600  1
  O  O40  1  0.12065200  0.65323900  0.72518000  1
  O  O41  1  0.20919400  0.13151700  0.95901000  1
  O  O42  1  0.36919200  0.34136800  0.25294000  1
  O  O43  1  0.23797100  0.93823100  0.80892500  1
  O  O44  1  0.98145100  0.31966000  0.79238100  1
  O  O45  1  0.03854800  0.67103300  0.91594600  1
  F  F46  1  0.08782800  0.72738800  0.52387800  1
  F  F47  1  0.91217200  0.27261200  0.47612200  1
