# generated using pymatgen
data_HoTaO4
_symmetry_space_group_name_H-M   'P 1'
_cell_length_a   6.53921492
_cell_length_b   6.53921492
_cell_length_c   5.09102731
_cell_angle_alpha   69.48821896
_cell_angle_beta   69.48821896
_cell_angle_gamma   115.06646841
_symmetry_Int_Tables_number   1
_chemical_formula_structural   HoTaO4
_chemical_formula_sum   'Ho2 Ta2 O8'
_cell_volume   149.39102369
_cell_formula_units_Z   2
loop_
 _symmetry_equiv_pos_site_id
 _symmetry_equiv_pos_as_xyz
  1  'x, y, z'
loop_
 _atom_site_type_symbol
 _atom_site_label
 _atom_site_symmetry_multiplicity
 _atom_site_fract_x
 _atom_site_fract_y
 _atom_site_fract_z
 _atom_site_occupancy
  Ho  Ho0  1  0.63145000  0.36855000  0.25000000  1
  Ho  Ho1  1  0.36855000  0.63145000  0.75000000  1
  Ta  Ta2  1  0.10185000  0.89815000  0.25000000  1
  Ta  Ta3  1  0.89815000  0.10185000  0.75000000  1
  O  O4  1  0.27662200  0.21341900  0.78595800  1
  O  O5  1  0.78658100  0.72337800  0.71404200  1
  O  O6  1  0.72337800  0.78658100  0.21404200  1
  O  O7  1  0.21341900  0.27662200  0.28595800  1
  O  O8  1  0.05174800  0.63228800  0.15907100  1
  O  O9  1  0.36771200  0.94825200  0.34092900  1
  O  O10  1  0.94825200  0.36771200  0.84092900  1
  O  O11  1  0.63228800  0.05174800  0.65907100  1
