# generated using pymatgen
data_Ag3AsS3
_symmetry_space_group_name_H-M   'P 1'
_cell_length_a   6.98793500
_cell_length_b   6.98793500
_cell_length_c   6.98793579
_cell_angle_alpha   100.75071545
_cell_angle_beta   100.75071545
_cell_angle_gamma   100.75070959
_symmetry_Int_Tables_number   1
_chemical_formula_structural   Ag3AsS3
_chemical_formula_sum   'Ag6 As2 S6'
_cell_volume   320.57989650
_cell_formula_units_Z   2
loop_
 _symmetry_equiv_pos_site_id
 _symmetry_equiv_pos_as_xyz
  1  'x, y, z'
loop_
 _atom_site_type_symbol
 _atom_site_label
 _atom_site_symmetry_multiplicity
 _atom_site_fract_x
 _atom_site_fract_y
 _atom_site_fract_z
 _atom_site_occupancy
  Ag  Ag0  1  0.91830700  0.25764300  0.47209500  1
  Ag  Ag1  1  0.47209500  0.91830700  0.25764300  1
  Ag  Ag2  1  0.25764300  0.47209500  0.91830700  1
  Ag  Ag3  1  0.97209500  0.75764300  0.41830700  1
  Ag  Ag4  1  0.75764300  0.41830700  0.97209500  1
  Ag  Ag5  1  0.41830700  0.97209500  0.75764300  1
  As  As6  1  0.99399700  0.99399700  0.99399700  1
  As  As7  1  0.49399700  0.49399700  0.49399700  1
  S  S8  1  0.77376400  0.09759800  0.76769700  1
  S  S9  1  0.76769700  0.77376400  0.09759800  1
  S  S10  1  0.26769700  0.59759800  0.27376400  1
  S  S11  1  0.09759800  0.76769700  0.77376400  1
  S  S12  1  0.27376400  0.26769700  0.59759800  1
  S  S13  1  0.59759800  0.27376400  0.26769700  1
