# generated using pymatgen
data_SrRuO3
_symmetry_space_group_name_H-M   'P 1'
_cell_length_a   5.64823214
_cell_length_b   5.64823214
_cell_length_c   5.64823214
_cell_angle_alpha   120.83197146
_cell_angle_beta   120.83197146
_cell_angle_gamma   88.56492404
_symmetry_Int_Tables_number   1
_chemical_formula_structural   SrRuO3
_chemical_formula_sum   'Sr2 Ru2 O6'
_cell_volume   125.77051607
_cell_formula_units_Z   2
loop_
 _symmetry_equiv_pos_site_id
 _symmetry_equiv_pos_as_xyz
  1  'x, y, z'
loop_
 _atom_site_type_symbol
 _atom_site_label
 _atom_site_symmetry_multiplicity
 _atom_site_fract_x
 _atom_site_fract_y
 _atom_site_fract_z
 _atom_site_occupancy
  Sr  Sr0  1  0.75000000  0.25000000  0.50000000  1
  Sr  Sr1  1  0.25000000  0.75000000  0.50000000  1
  Ru  Ru2  1  0.00000000  0.00000000  0.00000000  1
  Ru  Ru3  1  0.50000000  0.50000000  0.00000000  1
  O  O4  1  0.29924600  0.79924600  0.09849200  1
  O  O5  1  0.79924600  0.70075400  0.50000000  1
  O  O6  1  0.20075400  0.29924600  0.50000000  1
  O  O7  1  0.70075400  0.20075400  0.90150800  1
  O  O8  1  0.25000000  0.25000000  0.00000000  1
  O  O9  1  0.75000000  0.75000000  0.00000000  1
