# generated using pymatgen
data_Y2B5Pd14
_symmetry_space_group_name_H-M   'P 1'
_cell_length_a   10.41905056
_cell_length_b   10.41905056
_cell_length_c   10.41905056
_cell_angle_alpha   133.03590103
_cell_angle_beta   133.03590103
_cell_angle_gamma   68.59777306
_symmetry_Int_Tables_number   1
_chemical_formula_structural   Y2B5Pd14
_chemical_formula_sum   'Y4 B10 Pd28'
_cell_volume   593.41041129
_cell_formula_units_Z   2
loop_
 _symmetry_equiv_pos_site_id
 _symmetry_equiv_pos_as_xyz
  1  'x, y, z'
loop_
 _atom_site_type_symbol
 _atom_site_label
 _atom_site_symmetry_multiplicity
 _atom_site_fract_x
 _atom_site_fract_y
 _atom_site_fract_z
 _atom_site_occupancy
  Y  Y0  1  0.78394300  0.78394300  0.00000000  1
  Y  Y1  1  0.53394300  0.03394300  0.50000000  1
  Y  Y2  1  0.96605700  0.46605700  0.50000000  1
  Y  Y3  1  0.21605700  0.21605700  0.00000000  1
  B  B4  1  0.25000000  0.75000000  0.50000000  1
  B  B5  1  0.50000000  0.50000000  0.00000000  1
  B  B6  1  0.37500000  0.33580500  0.46080500  1
  B  B7  1  0.08580500  0.12500000  0.46080500  1
  B  B8  1  0.66419500  0.62500000  0.53919500  1
  B  B9  1  0.87500000  0.91419500  0.53919500  1
  B  B10  1  0.37500000  0.91419500  0.03919500  1
  B  B11  1  0.66419500  0.12500000  0.03919500  1
  B  B12  1  0.08580500  0.62500000  0.96080500  1
  B  B13  1  0.87500000  0.33580500  0.96080500  1
  Pd  Pd14  1  0.80757000  0.47627700  0.66870700  1
  Pd  Pd15  1  0.86113700  0.19243000  0.66870700  1
  Pd  Pd16  1  0.31278800  0.31278800  0.62557700  1
  Pd  Pd17  1  0.06278800  0.93721200  0.50000000  1
  Pd  Pd18  1  0.43721200  0.56278800  0.50000000  1
  Pd  Pd19  1  0.68721200  0.68721200  0.37442300  1
  Pd  Pd20  1  0.43721200  0.93721200  0.87442300  1
  Pd  Pd21  1  0.68721200  0.31278800  0.00000000  1
  Pd  Pd22  1  0.31278800  0.68721200  0.00000000  1
  Pd  Pd23  1  0.06278800  0.56278800  0.12557700  1
  Pd  Pd24  1  0.37500000  0.62500000  0.75000000  1
  Pd  Pd25  1  0.37500000  0.12500000  0.75000000  1
  Pd  Pd26  1  0.37500000  0.62500000  0.25000000  1
  Pd  Pd27  1  0.87500000  0.62500000  0.25000000  1
  Pd  Pd28  1  0.80757000  0.13886300  0.33129300  1
  Pd  Pd29  1  0.88886300  0.05757000  0.83129300  1
  Pd  Pd30  1  0.22627700  0.05757000  0.16870700  1
  Pd  Pd31  1  0.94243000  0.77372300  0.83129300  1
  Pd  Pd32  1  0.94243000  0.11113700  0.16870700  1
  Pd  Pd33  1  0.52372300  0.19243000  0.33129300  1
  Pd  Pd34  1  0.56951200  0.35568900  0.21382300  1
  Pd  Pd35  1  0.64431100  0.85813400  0.21382300  1
  Pd  Pd36  1  0.64431100  0.43048800  0.78617700  1
  Pd  Pd37  1  0.18048800  0.89431100  0.28617700  1
  Pd  Pd38  1  0.60813400  0.89431100  0.71382300  1
  Pd  Pd39  1  0.10568900  0.39186600  0.28617700  1
  Pd  Pd40  1  0.10568900  0.81951200  0.71382300  1
  Pd  Pd41  1  0.14186600  0.35568900  0.78617700  1
