# generated using pymatgen
data_Yb(MnSb)2
_symmetry_space_group_name_H-M   'P 1'
_cell_length_a   4.45226424
_cell_length_b   4.45226424
_cell_length_c   7.58971600
_cell_angle_alpha   90.00000000
_cell_angle_beta   90.00000000
_cell_angle_gamma   120.00000350
_symmetry_Int_Tables_number   1
_chemical_formula_structural   Yb(MnSb)2
_chemical_formula_sum   'Yb1 Mn2 Sb2'
_cell_volume   130.29207603
_cell_formula_units_Z   1
loop_
 _symmetry_equiv_pos_site_id
 _symmetry_equiv_pos_as_xyz
  1  'x, y, z'
loop_
 _atom_site_type_symbol
 _atom_site_label
 _atom_site_symmetry_multiplicity
 _atom_site_fract_x
 _atom_site_fract_y
 _atom_site_fract_z
 _atom_site_occupancy
  Yb  Yb0  1  0.00000000  0.00000000  0.00000000  1
  Mn  Mn1  1  0.66666700  0.33333300  0.38047500  1
  Mn  Mn2  1  0.33333300  0.66666700  0.61952500  1
  Sb  Sb3  1  0.66666700  0.33333300  0.74609100  1
  Sb  Sb4  1  0.33333300  0.66666700  0.25390900  1
