# generated using pymatgen
data_Mn6P7O24
_symmetry_space_group_name_H-M   'P 1'
_cell_length_a   27.07481400
_cell_length_b   5.39374800
_cell_length_c   6.56135365
_cell_angle_alpha   72.64051085
_cell_angle_beta   90.00000000
_cell_angle_gamma   90.00000000
_symmetry_Int_Tables_number   1
_chemical_formula_structural   Mn6P7O24
_chemical_formula_sum   'Mn12 P14 O48'
_cell_volume   914.54158198
_cell_formula_units_Z   2
loop_
 _symmetry_equiv_pos_site_id
 _symmetry_equiv_pos_as_xyz
  1  'x, y, z'
loop_
 _atom_site_type_symbol
 _atom_site_label
 _atom_site_symmetry_multiplicity
 _atom_site_fract_x
 _atom_site_fract_y
 _atom_site_fract_z
 _atom_site_occupancy
  Mn  Mn0  1  0.10060800  0.21137500  0.91271600  1
  Mn  Mn1  1  0.68581300  0.12271100  0.71436800  1
  Mn  Mn2  1  0.54602000  0.18711800  0.31473600  1
  Mn  Mn3  1  0.18581300  0.87728900  0.28563200  1
  Mn  Mn4  1  0.31418700  0.87728900  0.28563200  1
  Mn  Mn5  1  0.39939200  0.21137500  0.91271600  1
  Mn  Mn6  1  0.81418700  0.12271100  0.71436800  1
  Mn  Mn7  1  0.45398000  0.81288200  0.68526400  1
  Mn  Mn8  1  0.04602000  0.81288200  0.68526400  1
  Mn  Mn9  1  0.89939200  0.78862500  0.08728400  1
  Mn  Mn10  1  0.60060800  0.78862500  0.08728400  1
  Mn  Mn11  1  0.95398000  0.18711800  0.31473600  1
  P  P12  1  0.83124100  0.24729000  0.19039600  1
  P  P13  1  0.02422700  0.70908200  0.20452100  1
  P  P14  1  0.75000000  0.54055400  0.90551700  1
  P  P15  1  0.16875900  0.75271000  0.80960400  1
  P  P16  1  0.38998700  0.32208300  0.38262300  1
  P  P17  1  0.33124100  0.75271000  0.80960400  1
  P  P18  1  0.47577300  0.70908200  0.20452100  1
  P  P19  1  0.66875900  0.24729000  0.19039600  1
  P  P20  1  0.11001300  0.32208300  0.38262300  1
  P  P21  1  0.25000000  0.45944600  0.09448300  1
  P  P22  1  0.97577300  0.29091800  0.79547900  1
  P  P23  1  0.61001300  0.67791700  0.61737700  1
  P  P24  1  0.88998700  0.67791700  0.61737700  1
  P  P25  1  0.52422700  0.29091800  0.79547900  1
  O  O26  1  0.20339400  0.50779400  0.93989200  1
  O  O27  1  0.79660600  0.49220600  0.06010800  1
  O  O28  1  0.66443900  0.06808800  0.04536400  1
  O  O29  1  0.25000000  0.17152600  0.21331800  1
  O  O30  1  0.04762900  0.87515400  0.99489800  1
  O  O31  1  0.35188500  0.52210300  0.38528300  1
  O  O32  1  0.47427400  0.41213600  0.82519400  1
  O  O33  1  0.75000000  0.82847400  0.78668200  1
  O  O34  1  0.19322200  0.88479300  0.59749100  1
  O  O35  1  0.14811500  0.52210300  0.38528300  1
  O  O36  1  0.29660600  0.50779400  0.93989200  1
  O  O37  1  0.97427400  0.58786400  0.17480600  1
  O  O38  1  0.88012900  0.38724100  0.20645400  1
  O  O39  1  0.30677800  0.88479300  0.59749100  1
  O  O40  1  0.16443900  0.93191200  0.95463600  1
  O  O41  1  0.83556100  0.06808800  0.04536400  1
  O  O42  1  0.47833000  0.85875500  0.36981600  1
  O  O43  1  0.69322200  0.11520700  0.40250900  1
  O  O44  1  0.37734300  0.15471400  0.23476700  1
  O  O45  1  0.75000000  0.34607800  0.77877600  1
  O  O46  1  0.80677800  0.11520700  0.40250900  1
  O  O47  1  0.61987100  0.38724100  0.20645400  1
  O  O48  1  0.09556500  0.14519600  0.60671400  1
  O  O49  1  0.87734300  0.84528600  0.76523300  1
  O  O50  1  0.54762900  0.12484600  0.00510200  1
  O  O51  1  0.40443500  0.14519600  0.60671400  1
  O  O52  1  0.02572600  0.41213600  0.82519400  1
  O  O53  1  0.05786800  0.45466200  0.29092500  1
  O  O54  1  0.97833000  0.14124500  0.63018400  1
  O  O55  1  0.85188500  0.47789700  0.61471700  1
  O  O56  1  0.95237100  0.12484600  0.00510200  1
  O  O57  1  0.70339400  0.49220600  0.06010800  1
  O  O58  1  0.52167000  0.14124500  0.63018400  1
  O  O59  1  0.38012900  0.61275900  0.79354600  1
  O  O60  1  0.44213200  0.45466200  0.29092500  1
  O  O61  1  0.59556500  0.85480400  0.39328600  1
  O  O62  1  0.25000000  0.65392200  0.22122400  1
  O  O63  1  0.45237100  0.87515400  0.99489800  1
  O  O64  1  0.11987100  0.61275900  0.79354600  1
  O  O65  1  0.64811500  0.47789700  0.61471700  1
  O  O66  1  0.62265700  0.84528600  0.76523300  1
  O  O67  1  0.12265700  0.15471400  0.23476700  1
  O  O68  1  0.55786800  0.54533800  0.70907500  1
  O  O69  1  0.90443500  0.85480400  0.39328600  1
  O  O70  1  0.02167000  0.85875500  0.36981600  1
  O  O71  1  0.52572600  0.58786400  0.17480600  1
  O  O72  1  0.33556100  0.93191200  0.95463600  1
  O  O73  1  0.94213200  0.54533800  0.70907500  1
