# generated using pymatgen
data_FePO4
_symmetry_space_group_name_H-M   'P 1'
_cell_length_a   8.51017900
_cell_length_b   9.11203700
_cell_length_c   18.26039407
_cell_angle_alpha   60.10704892
_cell_angle_beta   90.00000000
_cell_angle_gamma   90.00000000
_symmetry_Int_Tables_number   1
_chemical_formula_structural   FePO4
_chemical_formula_sum   'Fe12 P12 O48'
_cell_volume   1227.61562847
_cell_formula_units_Z   12
loop_
 _symmetry_equiv_pos_site_id
 _symmetry_equiv_pos_as_xyz
  1  'x, y, z'
loop_
 _atom_site_type_symbol
 _atom_site_label
 _atom_site_symmetry_multiplicity
 _atom_site_fract_x
 _atom_site_fract_y
 _atom_site_fract_z
 _atom_site_occupancy
  Fe  Fe0  1  0.79266900  0.84381600  0.59455400  1
  Fe  Fe1  1  0.70941200  0.47484500  0.42298300  1
  Fe  Fe2  1  0.29058800  0.52515500  0.57701700  1
  Fe  Fe3  1  0.70733100  0.84381600  0.09455400  1
  Fe  Fe4  1  0.28857500  0.81515200  0.76139400  1
  Fe  Fe5  1  0.71142500  0.18484800  0.23860600  1
  Fe  Fe6  1  0.21142500  0.81515200  0.26139400  1
  Fe  Fe7  1  0.20733100  0.15618400  0.40544600  1
  Fe  Fe8  1  0.78857500  0.18484800  0.73860600  1
  Fe  Fe9  1  0.79058800  0.47484500  0.92298300  1
  Fe  Fe10  1  0.29266900  0.15618400  0.90544600  1
  Fe  Fe11  1  0.20941200  0.52515500  0.07701700  1
  P  P12  1  0.32811500  0.84048500  0.09059900  1
  P  P13  1  0.66603100  0.81874400  0.76490400  1
  P  P14  1  0.82811500  0.15951500  0.40940100  1
  P  P15  1  0.83037900  0.52562500  0.08077100  1
  P  P16  1  0.33396900  0.18125600  0.23509600  1
  P  P17  1  0.33037900  0.47437500  0.41922900  1
  P  P18  1  0.16962100  0.47437500  0.91922900  1
  P  P19  1  0.67188500  0.15951500  0.90940100  1
  P  P20  1  0.17188500  0.84048500  0.59059900  1
  P  P21  1  0.66962100  0.52562500  0.58077100  1
  P  P22  1  0.16603100  0.18125600  0.73509600  1
  P  P23  1  0.83396900  0.81874400  0.26490400  1
  O  O24  1  0.16448300  0.12090000  0.83088600  1
  O  O25  1  0.49840000  0.39990600  0.44313400  1
  O  O26  1  0.73774600  0.95710100  0.77984700  1
  O  O27  1  0.15881300  0.66496300  0.85182700  1
  O  O28  1  0.50292000  0.21950000  0.19946100  1
  O  O29  1  0.99708000  0.21950000  0.69946100  1
  O  O30  1  0.00538600  0.88242100  0.60955000  1
  O  O31  1  0.23405600  0.34412800  0.18833000  1
  O  O32  1  0.73405600  0.65587200  0.31167000  1
  O  O33  1  0.65881300  0.33503700  0.64817300  1
  O  O34  1  0.24839100  0.00257000  0.02008500  1
  O  O35  1  0.99461400  0.11757900  0.39045000  1
  O  O36  1  0.73726600  0.61966700  0.11757000  1
  O  O37  1  0.50160000  0.60009400  0.55686600  1
  O  O38  1  0.50538600  0.11757900  0.89045000  1
  O  O39  1  0.24346100  0.45368900  0.49841200  1
  O  O40  1  0.66448300  0.87910000  0.66911400  1
  O  O41  1  0.34118700  0.66496300  0.35182700  1
  O  O42  1  0.76225400  0.95710100  0.27984700  1
  O  O43  1  0.22697200  0.76959000  0.17152600  1
  O  O44  1  0.84118700  0.33503700  0.14817300  1
  O  O45  1  0.00160000  0.39990600  0.94313400  1
  O  O46  1  0.26225400  0.04289900  0.22015300  1
  O  O47  1  0.72697200  0.23041000  0.32847400  1
  O  O48  1  0.25160900  0.00257000  0.52008500  1
  O  O49  1  0.83997900  0.29390500  0.43753100  1
  O  O50  1  0.83551700  0.87910000  0.16911400  1
  O  O51  1  0.25653900  0.45368900  0.99841200  1
  O  O52  1  0.23726600  0.38033300  0.38243000  1
  O  O53  1  0.27302800  0.76959000  0.67152600  1
  O  O54  1  0.74839100  0.99743000  0.47991500  1
  O  O55  1  0.00292000  0.78050000  0.30053900  1
  O  O56  1  0.75653900  0.54631100  0.50158800  1
  O  O57  1  0.16002100  0.70609500  0.56246900  1
  O  O58  1  0.26594400  0.34412800  0.68833000  1
  O  O59  1  0.76273400  0.61966700  0.61757000  1
  O  O60  1  0.23774600  0.04289900  0.72015300  1
  O  O61  1  0.75160900  0.99743000  0.97991500  1
  O  O62  1  0.76594400  0.65587200  0.81167000  1
  O  O63  1  0.49461400  0.88242100  0.10955000  1
  O  O64  1  0.66002100  0.29390500  0.93753100  1
  O  O65  1  0.33551700  0.12090000  0.33088600  1
  O  O66  1  0.26273400  0.38033300  0.88243000  1
  O  O67  1  0.77302800  0.23041000  0.82847400  1
  O  O68  1  0.49708000  0.78050000  0.80053900  1
  O  O69  1  0.99840000  0.60009400  0.05686600  1
  O  O70  1  0.74346100  0.54631100  0.00158800  1
  O  O71  1  0.33997900  0.70609500  0.06246900  1
