# generated using pymatgen
data_Fe(PO3)4
_symmetry_space_group_name_H-M   'P 1'
_cell_length_a   9.13632500
_cell_length_b   9.40956400
_cell_length_c   10.48650600
_cell_angle_alpha   90.00000000
_cell_angle_beta   90.00000000
_cell_angle_gamma   90.00000000
_symmetry_Int_Tables_number   1
_chemical_formula_structural   Fe(PO3)4
_chemical_formula_sum   'Fe4 P16 O48'
_cell_volume   901.51270207
_cell_formula_units_Z   4
loop_
 _symmetry_equiv_pos_site_id
 _symmetry_equiv_pos_as_xyz
  1  'x, y, z'
loop_
 _atom_site_type_symbol
 _atom_site_label
 _atom_site_symmetry_multiplicity
 _atom_site_fract_x
 _atom_site_fract_y
 _atom_site_fract_z
 _atom_site_occupancy
  Fe  Fe0  1  0.25000000  0.01317400  0.78852900  1
  Fe  Fe1  1  0.75000000  0.48682600  0.28852900  1
  Fe  Fe2  1  0.25000000  0.51317400  0.71147100  1
  Fe  Fe3  1  0.75000000  0.98682600  0.21147100  1
  P  P4  1  0.75000000  0.19826000  0.60933400  1
  P  P5  1  0.54881300  0.21186200  0.38987000  1
  P  P6  1  0.95118700  0.21186200  0.38987000  1
  P  P7  1  0.25000000  0.23473800  0.51736000  1
  P  P8  1  0.75000000  0.26526200  0.01736000  1
  P  P9  1  0.04881300  0.28813800  0.88987000  1
  P  P10  1  0.45118700  0.28813800  0.88987000  1
  P  P11  1  0.25000000  0.30174000  0.10933400  1
  P  P12  1  0.75000000  0.69826000  0.89066600  1
  P  P13  1  0.54881300  0.71186200  0.11013000  1
  P  P14  1  0.95118700  0.71186200  0.11013000  1
  P  P15  1  0.25000000  0.73473800  0.98264000  1
  P  P16  1  0.75000000  0.76526200  0.48264000  1
  P  P17  1  0.04881300  0.78813800  0.61013000  1
  P  P18  1  0.45118700  0.78813800  0.61013000  1
  P  P19  1  0.25000000  0.80174000  0.39066600  1
  O  O20  1  0.58719500  0.10685800  0.28755800  1
  O  O21  1  0.91280500  0.10685800  0.28755800  1
  O  O22  1  0.75000000  0.11092700  0.05357900  1
  O  O23  1  0.75000000  0.11314600  0.73100000  1
  O  O24  1  0.25000000  0.12738900  0.62296000  1
  O  O25  1  0.09402800  0.13633700  0.86996300  1
  O  O26  1  0.40597200  0.13633700  0.86996300  1
  O  O27  1  0.61255000  0.15380700  0.52468600  1
  O  O28  1  0.88745000  0.15380700  0.52468600  1
  O  O29  1  0.25000000  0.14683900  0.14721100  1
  O  O30  1  0.12065700  0.19881000  0.41864700  1
  O  O31  1  0.37934300  0.19881000  0.41864700  1
  O  O32  1  0.62065700  0.30119000  0.91864700  1
  O  O33  1  0.87934300  0.30119000  0.91864700  1
  O  O34  1  0.75000000  0.35316100  0.64721100  1
  O  O35  1  0.11255000  0.34619300  0.02468600  1
  O  O36  1  0.38745000  0.34619300  0.02468600  1
  O  O37  1  0.59402800  0.36366300  0.36996300  1
  O  O38  1  0.90597200  0.36366300  0.36996300  1
  O  O39  1  0.75000000  0.37261100  0.12296000  1
  O  O40  1  0.25000000  0.38685400  0.23100000  1
  O  O41  1  0.25000000  0.38907300  0.55357900  1
  O  O42  1  0.08719500  0.39314200  0.78755800  1
  O  O43  1  0.41280500  0.39314200  0.78755800  1
  O  O44  1  0.58719500  0.60685800  0.21244200  1
  O  O45  1  0.91280500  0.60685800  0.21244200  1
  O  O46  1  0.75000000  0.61092700  0.44642100  1
  O  O47  1  0.75000000  0.61314600  0.76900000  1
  O  O48  1  0.25000000  0.62738900  0.87704000  1
  O  O49  1  0.09402800  0.63633700  0.63003700  1
  O  O50  1  0.40597200  0.63633700  0.63003700  1
  O  O51  1  0.61255000  0.65380700  0.97531400  1
  O  O52  1  0.88745000  0.65380700  0.97531400  1
  O  O53  1  0.25000000  0.64683900  0.35278900  1
  O  O54  1  0.12065700  0.69881000  0.08135300  1
  O  O55  1  0.37934300  0.69881000  0.08135300  1
  O  O56  1  0.62065700  0.80119000  0.58135300  1
  O  O57  1  0.87934300  0.80119000  0.58135300  1
  O  O58  1  0.75000000  0.85316100  0.85278900  1
  O  O59  1  0.11255000  0.84619300  0.47531400  1
  O  O60  1  0.38745000  0.84619300  0.47531400  1
  O  O61  1  0.59402800  0.86366300  0.13003700  1
  O  O62  1  0.90597200  0.86366300  0.13003700  1
  O  O63  1  0.75000000  0.87261100  0.37704000  1
  O  O64  1  0.25000000  0.88685400  0.26900000  1
  O  O65  1  0.25000000  0.88907300  0.94642100  1
  O  O66  1  0.08719500  0.89314200  0.71244200  1
  O  O67  1  0.41280500  0.89314200  0.71244200  1
