# generated using pymatgen
data_V4P7O24
_symmetry_space_group_name_H-M   'P 1'
_cell_length_a   10.21001900
_cell_length_b   10.42625761
_cell_length_c   10.83657681
_cell_angle_alpha   109.12370414
_cell_angle_beta   111.59264748
_cell_angle_gamma   104.77469514
_symmetry_Int_Tables_number   1
_chemical_formula_structural   V4P7O24
_chemical_formula_sum   'V8 P14 O48'
_cell_volume   916.14684019
_cell_formula_units_Z   2
loop_
 _symmetry_equiv_pos_site_id
 _symmetry_equiv_pos_as_xyz
  1  'x, y, z'
loop_
 _atom_site_type_symbol
 _atom_site_label
 _atom_site_symmetry_multiplicity
 _atom_site_fract_x
 _atom_site_fract_y
 _atom_site_fract_z
 _atom_site_occupancy
  V  V0  1  0.50082700  0.89503900  0.74302300  1
  V  V1  1  0.00394400  0.38907400  0.07769400  1
  V  V2  1  0.51237100  0.66024400  0.88682400  1
  V  V3  1  0.98640800  0.82936300  0.41077700  1
  V  V4  1  0.01359200  0.17063700  0.58922300  1
  V  V5  1  0.48762900  0.33975600  0.11317600  1
  V  V6  1  0.99605600  0.61092600  0.92230600  1
  V  V7  1  0.49917300  0.10496100  0.25697700  1
  P  P8  1  0.77259200  0.78032600  0.77042600  1
  P  P9  1  0.19186200  0.62124300  0.43653400  1
  P  P10  1  0.19526800  0.94088500  0.25880900  1
  P  P11  1  0.26140000  0.03297900  0.75796300  1
  P  P12  1  0.25059100  0.39036500  0.52324500  1
  P  P13  1  0.73024400  0.17340000  0.11349200  1
  P  P14  1  0.75170400  0.54175400  0.05271800  1
  P  P15  1  0.24829600  0.45824600  0.94728200  1
  P  P16  1  0.26975600  0.82660000  0.88650800  1
  P  P17  1  0.74940900  0.60963500  0.47675500  1
  P  P18  1  0.73860000  0.96702100  0.24203700  1
  P  P19  1  0.80473200  0.05911500  0.74119100  1
  P  P20  1  0.80813800  0.37875700  0.56346600  1
  P  P21  1  0.22740800  0.21967400  0.22957400  1
  O  O22  1  0.88053800  0.20621300  0.88074500  1
  O  O23  1  0.62601000  0.98575600  0.67357000  1
  O  O24  1  0.11626500  0.25951300  0.13383600  1
  O  O25  1  0.63605300  0.05388600  0.94715600  1
  O  O26  1  0.36842600  0.72472000  0.55487200  1
  O  O27  1  0.16769500  0.56245300  0.27807600  1
  O  O28  1  0.65882300  0.57179700  0.92561500  1
  O  O29  1  0.63605200  0.78358500  0.80048800  1
  O  O30  1  0.15199600  0.47691000  0.46779300  1
  O  O31  1  0.37212900  0.99544500  0.70140700  1
  O  O32  1  0.31087300  0.33757900  0.40427900  1
  O  O33  1  0.13625900  0.05893900  0.20789900  1
  O  O34  1  0.15110600  0.93499600  0.37538000  1
  O  O35  1  0.39344500  0.49674300  0.67153000  1
  O  O36  1  0.87507600  0.49880600  0.01343000  1
  O  O37  1  0.09094400  0.69587100  0.46548900  1
  O  O38  1  0.86100400  0.31094100  0.15210400  1
  O  O39  1  0.34420700  0.17591000  0.90151000  1
  O  O40  1  0.18720200  0.89902600  0.78988700  1
  O  O41  1  0.14526200  0.24955200  0.50816200  1
  O  O42  1  0.12006200  0.02063300  0.62784400  1
  O  O43  1  0.38484800  0.79049500  0.83150300  1
  O  O44  1  0.84380000  0.68239700  0.20620600  1
  O  O45  1  0.35990600  0.58564600  0.94455700  1
  O  O46  1  0.64009400  0.41435400  0.05544300  1
  O  O47  1  0.15620000  0.31760300  0.79379400  1
  O  O48  1  0.61515200  0.20950500  0.16849700  1
  O  O49  1  0.87993800  0.97936700  0.37215600  1
  O  O50  1  0.85473800  0.75044800  0.49183800  1
  O  O51  1  0.81279800  0.10097400  0.21011300  1
  O  O52  1  0.65579300  0.82409000  0.09849000  1
  O  O53  1  0.13899600  0.68905900  0.84789600  1
  O  O54  1  0.90905600  0.30412900  0.53451100  1
  O  O55  1  0.12492400  0.50119400  0.98657000  1
  O  O56  1  0.60655500  0.50325700  0.32847000  1
  O  O57  1  0.84889400  0.06500400  0.62462000  1
  O  O58  1  0.86374100  0.94106100  0.79210100  1
  O  O59  1  0.68912700  0.66242100  0.59572100  1
  O  O60  1  0.62787100  0.00455500  0.29859300  1
  O  O61  1  0.84800400  0.52309000  0.53220700  1
  O  O62  1  0.36394800  0.21641500  0.19951200  1
  O  O63  1  0.34117700  0.42820300  0.07438500  1
  O  O64  1  0.83230500  0.43754700  0.72192400  1
  O  O65  1  0.63157400  0.27528000  0.44512800  1
  O  O66  1  0.36394700  0.94611400  0.05284400  1
  O  O67  1  0.88373500  0.74048700  0.86616400  1
  O  O68  1  0.37399000  0.01424400  0.32643000  1
  O  O69  1  0.11946200  0.79378700  0.11925500  1
