# generated using pymatgen
data_Cr5(PO4)4
_symmetry_space_group_name_H-M   'P 1'
_cell_length_a   8.08849480
_cell_length_b   8.36405459
_cell_length_c   10.39250416
_cell_angle_alpha   91.66659082
_cell_angle_beta   99.12974004
_cell_angle_gamma   113.64435133
_symmetry_Int_Tables_number   1
_chemical_formula_structural   Cr5(PO4)4
_chemical_formula_sum   'Cr10 P8 O32'
_cell_volume   632.54881010
_cell_formula_units_Z   2
loop_
 _symmetry_equiv_pos_site_id
 _symmetry_equiv_pos_as_xyz
  1  'x, y, z'
loop_
 _atom_site_type_symbol
 _atom_site_label
 _atom_site_symmetry_multiplicity
 _atom_site_fract_x
 _atom_site_fract_y
 _atom_site_fract_z
 _atom_site_occupancy
  Cr  Cr0  1  0.00004400  0.00006400  0.00001300  1
  Cr  Cr1  1  0.24862400  0.76524300  0.05813700  1
  Cr  Cr2  1  0.24857400  0.76554600  0.55803100  1
  Cr  Cr3  1  0.75142100  0.23444800  0.44196700  1
  Cr  Cr4  1  0.75137200  0.23474600  0.94191700  1
  Cr  Cr5  1  0.99997500  0.00004200  0.50004200  1
  Cr  Cr6  1  0.41565800  0.66521700  0.32279200  1
  Cr  Cr7  1  0.41561400  0.66517400  0.82269800  1
  Cr  Cr8  1  0.58437900  0.33482400  0.17728300  1
  Cr  Cr9  1  0.58432500  0.33484400  0.67723400  1
  P  P10  1  0.19792100  0.42643300  0.07066900  1
  P  P11  1  0.19807200  0.42672200  0.57071900  1
  P  P12  1  0.80194100  0.57327400  0.42927500  1
  P  P13  1  0.80208800  0.57356900  0.92932300  1
  P  P14  1  0.30557300  0.02418900  0.32023500  1
  P  P15  1  0.30569100  0.02410600  0.82037600  1
  P  P16  1  0.69432400  0.97588400  0.17961600  1
  P  P17  1  0.69441100  0.97581700  0.67976600  1
  O  O18  1  0.23672900  0.95565200  0.17236300  1
  O  O19  1  0.23667000  0.95560100  0.67259600  1
  O  O20  1  0.76333700  0.04438900  0.32739000  1
  O  O21  1  0.76328100  0.04435500  0.82762700  1
  O  O22  1  0.33986600  0.88130600  0.40043600  1
  O  O23  1  0.34004100  0.88129500  0.90059300  1
  O  O24  1  0.65995500  0.11869300  0.09940200  1
  O  O25  1  0.66012100  0.11868200  0.59955100  1
  O  O26  1  0.17130300  0.55927300  0.16868000  1
  O  O27  1  0.17148100  0.55955000  0.66875400  1
  O  O28  1  0.82852900  0.44043400  0.33124300  1
  O  O29  1  0.82869100  0.44071100  0.83132600  1
  O  O30  1  0.01151300  0.26595800  0.02417600  1
  O  O31  1  0.01178400  0.26637700  0.52420500  1
  O  O32  1  0.98822100  0.73362200  0.47579800  1
  O  O33  1  0.98849300  0.73403100  0.97582000  1
  O  O34  1  0.25495000  0.55050000  0.45917900  1
  O  O35  1  0.25479900  0.55019300  0.95912600  1
  O  O36  1  0.74519900  0.44979500  0.04088200  1
  O  O37  1  0.74505000  0.44949500  0.54082000  1
  O  O38  1  0.17753300  0.08692800  0.37519200  1
  O  O39  1  0.17768300  0.08691100  0.87542100  1
  O  O40  1  0.82232700  0.91309300  0.12455400  1
  O  O41  1  0.82243600  0.91304900  0.62481400  1
  O  O42  1  0.50029100  0.81552100  0.16885200  1
  O  O43  1  0.50024200  0.81558400  0.66885600  1
  O  O44  1  0.49975800  0.18441200  0.33114300  1
  O  O45  1  0.49972500  0.18448500  0.83114800  1
  O  O46  1  0.34353200  0.36691200  0.13004900  1
  O  O47  1  0.34364700  0.36713000  0.63004400  1
  O  O48  1  0.65634600  0.63284900  0.36993500  1
  O  O49  1  0.65645500  0.63306700  0.86993700  1
