# generated using pymatgen
data_NiPO4
_symmetry_space_group_name_H-M   'P 1'
_cell_length_a   8.66542833
_cell_length_b   8.66542833
_cell_length_c   8.66542787
_cell_angle_alpha   108.40141848
_cell_angle_beta   108.40141848
_cell_angle_gamma   108.40141535
_symmetry_Int_Tables_number   1
_chemical_formula_structural   NiPO4
_chemical_formula_sum   'Ni6 P6 O24'
_cell_volume   519.79001532
_cell_formula_units_Z   6
loop_
 _symmetry_equiv_pos_site_id
 _symmetry_equiv_pos_as_xyz
  1  'x, y, z'
loop_
 _atom_site_type_symbol
 _atom_site_label
 _atom_site_symmetry_multiplicity
 _atom_site_fract_x
 _atom_site_fract_y
 _atom_site_fract_z
 _atom_site_occupancy
  Ni  Ni0  1  0.44709900  0.04633600  0.25280700  1
  Ni  Ni1  1  0.77050000  0.53379400  0.94428300  1
  Ni  Ni2  1  0.04633600  0.25280700  0.44709800  1
  Ni  Ni3  1  0.94428300  0.77050000  0.53379400  1
  Ni  Ni4  1  0.25280700  0.44709900  0.04633600  1
  Ni  Ni5  1  0.53379400  0.94428300  0.77050000  1
  P  P6  1  0.28623000  0.08067600  0.88813800  1
  P  P7  1  0.79579400  0.39108200  0.56279500  1
  P  P8  1  0.88813800  0.28623000  0.08067600  1
  P  P9  1  0.39108200  0.56279500  0.79579400  1
  P  P10  1  0.56279500  0.79579400  0.39108200  1
  P  P11  1  0.08067600  0.88813800  0.28623000  1
  O  O12  1  0.75247800  0.07867500  0.98757800  1
  O  O13  1  0.00655200  0.32521800  0.98365900  1
  O  O14  1  0.39436600  0.06777600  0.77465100  1
  O  O15  1  0.28342100  0.01218000  0.34770600  1
  O  O16  1  0.90740600  0.28084300  0.56812300  1
  O  O17  1  0.73093100  0.39944300  0.70956000  1
  O  O18  1  0.62390300  0.28961000  0.37210500  1
  O  O19  1  0.28961000  0.37210500  0.62390300  1
  O  O20  1  0.91870500  0.58431700  0.59897500  1
  O  O21  1  0.77465100  0.39436600  0.06777600  1
  O  O22  1  0.58431700  0.59897500  0.91870500  1
  O  O23  1  0.34770600  0.28342100  0.01218000  1
  O  O24  1  0.28084300  0.56812300  0.90740600  1
  O  O25  1  0.01218000  0.34770600  0.28342100  1
  O  O26  1  0.39944300  0.70956000  0.73093100  1
  O  O27  1  0.70956000  0.73093100  0.39944300  1
  O  O28  1  0.98757800  0.75247800  0.07867500  1
  O  O29  1  0.37210500  0.62390300  0.28961000  1
  O  O30  1  0.59897500  0.91870500  0.58431700  1
  O  O31  1  0.32521800  0.98365900  0.00655200  1
  O  O32  1  0.98365900  0.00655200  0.32521800  1
  O  O33  1  0.06777600  0.77465100  0.39436600  1
  O  O34  1  0.56812300  0.90740600  0.28084300  1
  O  O35  1  0.07867500  0.98757800  0.75247800  1
