# generated using pymatgen
data_Ni6P7O24
_symmetry_space_group_name_H-M   'P 1'
_cell_length_a   26.39932300
_cell_length_b   5.24866900
_cell_length_c   6.38973526
_cell_angle_alpha   72.79679118
_cell_angle_beta   90.00000000
_cell_angle_gamma   90.00000000
_symmetry_Int_Tables_number   1
_chemical_formula_structural   Ni6P7O24
_chemical_formula_sum   'Ni12 P14 O48'
_cell_volume   845.76021259
_cell_formula_units_Z   2
loop_
 _symmetry_equiv_pos_site_id
 _symmetry_equiv_pos_as_xyz
  1  'x, y, z'
loop_
 _atom_site_type_symbol
 _atom_site_label
 _atom_site_symmetry_multiplicity
 _atom_site_fract_x
 _atom_site_fract_y
 _atom_site_fract_z
 _atom_site_occupancy
  Ni  Ni0  1  0.90165300  0.79788100  0.08842800  1
  Ni  Ni1  1  0.18608500  0.88028300  0.27427300  1
  Ni  Ni2  1  0.54875800  0.19261000  0.31018800  1
  Ni  Ni3  1  0.95124200  0.19261000  0.31018800  1
  Ni  Ni4  1  0.09834700  0.20211900  0.91157200  1
  Ni  Ni5  1  0.31391500  0.88028300  0.27427300  1
  Ni  Ni6  1  0.68608500  0.11971700  0.72572700  1
  Ni  Ni7  1  0.81391500  0.11971700  0.72572700  1
  Ni  Ni8  1  0.45124200  0.80739000  0.68981200  1
  Ni  Ni9  1  0.40165300  0.20211900  0.91157200  1
  Ni  Ni10  1  0.59834700  0.79788100  0.08842800  1
  Ni  Ni11  1  0.04875800  0.80739000  0.68981200  1
  P  P12  1  0.11053100  0.31597100  0.38182200  1
  P  P13  1  0.38946900  0.31597100  0.38182200  1
  P  P14  1  0.16810900  0.75429200  0.80366100  1
  P  P15  1  0.47596100  0.70912400  0.20498900  1
  P  P16  1  0.25000000  0.45686700  0.09888100  1
  P  P17  1  0.66810900  0.24570800  0.19633900  1
  P  P18  1  0.88946900  0.68402900  0.61817800  1
  P  P19  1  0.97596100  0.29087600  0.79501100  1
  P  P20  1  0.83189100  0.24570800  0.19633900  1
  P  P21  1  0.52403900  0.29087600  0.79501100  1
  P  P22  1  0.61053100  0.68402900  0.61817800  1
  P  P23  1  0.33189100  0.75429200  0.80366100  1
  P  P24  1  0.02403900  0.70912400  0.20498900  1
  P  P25  1  0.75000000  0.54313300  0.90111900  1
  O  O26  1  0.75000000  0.83814500  0.78393700  1
  O  O27  1  0.25000000  0.16185500  0.21606300  1
  O  O28  1  0.75000000  0.34267500  0.77125600  1
  O  O29  1  0.44251600  0.44814700  0.28674900  1
  O  O30  1  0.11815500  0.60511100  0.78793200  1
  O  O31  1  0.09506600  0.13868700  0.61206200  1
  O  O32  1  0.66312800  0.05980800  0.05026800  1
  O  O33  1  0.54809100  0.12150800  0.01152700  1
  O  O34  1  0.12301400  0.14290900  0.23136200  1
  O  O35  1  0.47265500  0.41293800  0.82870200  1
  O  O36  1  0.16312800  0.94019200  0.94973200  1
  O  O37  1  0.62301400  0.85709100  0.76863800  1
  O  O38  1  0.83687200  0.05980800  0.05026800  1
  O  O39  1  0.02302900  0.85985100  0.37610800  1
  O  O40  1  0.14950400  0.52184600  0.38438100  1
  O  O41  1  0.33687200  0.94019200  0.94973200  1
  O  O42  1  0.29731900  0.50546700  0.93956900  1
  O  O43  1  0.85049600  0.47815400  0.61561900  1
  O  O44  1  0.70268100  0.49453300  0.06043100  1
  O  O45  1  0.25000000  0.65732500  0.22874400  1
  O  O46  1  0.80711500  0.11359700  0.41327900  1
  O  O47  1  0.88184500  0.39488900  0.21206800  1
  O  O48  1  0.97697100  0.14014900  0.62389200  1
  O  O49  1  0.79731900  0.49453300  0.06043100  1
  O  O50  1  0.20268100  0.50546700  0.93956900  1
  O  O51  1  0.45190900  0.87849200  0.98847300  1
  O  O52  1  0.97265500  0.58706200  0.17129800  1
  O  O53  1  0.69288500  0.11359700  0.41327900  1
  O  O54  1  0.35049600  0.52184600  0.38438100  1
  O  O55  1  0.47697100  0.85985100  0.37610800  1
  O  O56  1  0.87698600  0.85709100  0.76863800  1
  O  O57  1  0.38184500  0.60511100  0.78793200  1
  O  O58  1  0.04809100  0.87849200  0.98847300  1
  O  O59  1  0.05748400  0.44814700  0.28674900  1
  O  O60  1  0.59506600  0.86131300  0.38793800  1
  O  O61  1  0.52734500  0.58706200  0.17129800  1
  O  O62  1  0.52302900  0.14014900  0.62389200  1
  O  O63  1  0.64950400  0.47815400  0.61561900  1
  O  O64  1  0.19288500  0.88640300  0.58672100  1
  O  O65  1  0.37698600  0.14290900  0.23136200  1
  O  O66  1  0.94251600  0.55185300  0.71325100  1
  O  O67  1  0.95190900  0.12150800  0.01152700  1
  O  O68  1  0.02734500  0.41293800  0.82870200  1
  O  O69  1  0.30711500  0.88640300  0.58672100  1
  O  O70  1  0.61815500  0.39488900  0.21206800  1
  O  O71  1  0.55748400  0.55185300  0.71325100  1
  O  O72  1  0.40493400  0.13868700  0.61206200  1
  O  O73  1  0.90493400  0.86131300  0.38793800  1
