# generated using pymatgen
data_NaZnMoHO5
_symmetry_space_group_name_H-M   'P 1'
_cell_length_a   6.25979100
_cell_length_b   7.95020900
_cell_length_c   9.39838800
_cell_angle_alpha   90.00000000
_cell_angle_beta   90.00000000
_cell_angle_gamma   90.00000000
_symmetry_Int_Tables_number   1
_chemical_formula_structural   NaZnMoHO5
_chemical_formula_sum   'Na4 Zn4 Mo4 H4 O20'
_cell_volume   467.72625558
_cell_formula_units_Z   4
loop_
 _symmetry_equiv_pos_site_id
 _symmetry_equiv_pos_as_xyz
  1  'x, y, z'
loop_
 _atom_site_type_symbol
 _atom_site_label
 _atom_site_symmetry_multiplicity
 _atom_site_fract_x
 _atom_site_fract_y
 _atom_site_fract_z
 _atom_site_occupancy
  Na  Na0  1  0.75000000  0.35198400  0.69373400  1
  Na  Na1  1  0.25000000  0.64801600  0.30626600  1
  Na  Na2  1  0.75000000  0.85198400  0.80626600  1
  Na  Na3  1  0.25000000  0.14801600  0.19373400  1
  Zn  Zn4  1  0.50000000  0.50000000  0.00000000  1
  Zn  Zn5  1  0.00000000  0.50000000  0.00000000  1
  Zn  Zn6  1  0.00000000  0.00000000  0.50000000  1
  Zn  Zn7  1  0.50000000  0.00000000  0.50000000  1
  Mo  Mo8  1  0.25000000  0.11728800  0.83564400  1
  Mo  Mo9  1  0.75000000  0.88271200  0.16435600  1
  Mo  Mo10  1  0.25000000  0.61728800  0.66435600  1
  Mo  Mo11  1  0.75000000  0.38271200  0.33564400  1
  H  H12  1  0.75000000  0.75506200  0.51836200  1
  H  H13  1  0.25000000  0.24493800  0.48163800  1
  H  H14  1  0.75000000  0.25506200  0.98163800  1
  H  H15  1  0.25000000  0.74493800  0.01836200  1
  O  O16  1  0.01541800  0.10573400  0.72543700  1
  O  O17  1  0.51541800  0.89426600  0.27456300  1
  O  O18  1  0.48458200  0.60573400  0.77456300  1
  O  O19  1  0.98458200  0.39426600  0.22543700  1
  O  O20  1  0.98458200  0.89426600  0.27456300  1
  O  O21  1  0.48458200  0.10573400  0.72543700  1
  O  O22  1  0.51541800  0.39426600  0.22543700  1
  O  O23  1  0.01541800  0.60573400  0.77456300  1
  O  O24  1  0.25000000  0.44722800  0.54155400  1
  O  O25  1  0.75000000  0.55277200  0.45844600  1
  O  O26  1  0.25000000  0.94722800  0.95844600  1
  O  O27  1  0.75000000  0.05277200  0.04155400  1
  O  O28  1  0.75000000  0.86928600  0.56082900  1
  O  O29  1  0.25000000  0.13071400  0.43917100  1
  O  O30  1  0.75000000  0.36928600  0.93917100  1
  O  O31  1  0.25000000  0.63071400  0.06082900  1
  O  O32  1  0.25000000  0.30926100  0.94337600  1
  O  O33  1  0.75000000  0.69073900  0.05662400  1
  O  O34  1  0.25000000  0.80926100  0.55662400  1
  O  O35  1  0.75000000  0.19073900  0.44337600  1
