# generated using pymatgen
data_NClO2
_symmetry_space_group_name_H-M   'P 1'
_cell_length_a   6.54649600
_cell_length_b   6.54649600
_cell_length_c   3.98554100
_cell_angle_alpha   90.00000000
_cell_angle_beta   90.00000000
_cell_angle_gamma   90.00000000
_symmetry_Int_Tables_number   1
_chemical_formula_structural   NClO2
_chemical_formula_sum   'N2 Cl2 O4'
_cell_volume   170.80677579
_cell_formula_units_Z   2
loop_
 _symmetry_equiv_pos_site_id
 _symmetry_equiv_pos_as_xyz
  1  'x, y, z'
loop_
 _atom_site_type_symbol
 _atom_site_label
 _atom_site_symmetry_multiplicity
 _atom_site_fract_x
 _atom_site_fract_y
 _atom_site_fract_z
 _atom_site_occupancy
  N  N0  1  0.50000000  0.50000000  0.99442800  1
  N  N1  1  0.00000000  0.00000000  0.99442800  1
  Cl  Cl2  1  0.00000000  0.50000000  0.28687300  1
  Cl  Cl3  1  0.50000000  0.00000000  0.28687300  1
  O  O4  1  0.36319900  0.13680100  0.48435000  1
  O  O5  1  0.63680100  0.86319900  0.48435000  1
  O  O6  1  0.86319900  0.36319900  0.48435000  1
  O  O7  1  0.13680100  0.63680100  0.48435000  1
