# generated using pymatgen
data_Eu2SiO4
_symmetry_space_group_name_H-M   'P 1'
_cell_length_a   5.64302000
_cell_length_b   7.11091800
_cell_length_c   9.85305700
_cell_angle_alpha   90.00000000
_cell_angle_beta   90.00000000
_cell_angle_gamma   90.00000000
_symmetry_Int_Tables_number   1
_chemical_formula_structural   Eu2SiO4
_chemical_formula_sum   'Eu8 Si4 O16'
_cell_volume   395.37413545
_cell_formula_units_Z   4
loop_
 _symmetry_equiv_pos_site_id
 _symmetry_equiv_pos_as_xyz
  1  'x, y, z'
loop_
 _atom_site_type_symbol
 _atom_site_label
 _atom_site_symmetry_multiplicity
 _atom_site_fract_x
 _atom_site_fract_y
 _atom_site_fract_z
 _atom_site_occupancy
  Eu  Eu0  1  0.75000000  0.84251500  0.06998600  1
  Eu  Eu1  1  0.25000000  0.15748500  0.93001400  1
  Eu  Eu2  1  0.75000000  0.34251500  0.43001400  1
  Eu  Eu3  1  0.25000000  0.65748500  0.56998600  1
  Eu  Eu4  1  0.75000000  0.50005300  0.80299200  1
  Eu  Eu5  1  0.25000000  0.49994700  0.19700800  1
  Eu  Eu6  1  0.75000000  0.00005300  0.69700800  1
  Eu  Eu7  1  0.25000000  0.99994700  0.30299200  1
  Si  Si8  1  0.75000000  0.27998500  0.08143800  1
  Si  Si9  1  0.25000000  0.72001500  0.91856200  1
  Si  Si10  1  0.75000000  0.77998500  0.41856200  1
  Si  Si11  1  0.25000000  0.22001500  0.58143800  1
  O  O12  1  0.75000000  0.50938400  0.07011700  1
  O  O13  1  0.25000000  0.49061600  0.92988300  1
  O  O14  1  0.75000000  0.00938400  0.42988300  1
  O  O15  1  0.25000000  0.99061600  0.57011700  1
  O  O16  1  0.75000000  0.18036000  0.92826400  1
  O  O17  1  0.25000000  0.81964000  0.07173600  1
  O  O18  1  0.75000000  0.68036000  0.57173600  1
  O  O19  1  0.25000000  0.31964000  0.42826400  1
  O  O20  1  0.50997000  0.20293200  0.15820700  1
  O  O21  1  0.00997000  0.79706800  0.84179300  1
  O  O22  1  0.99003000  0.70293200  0.34179300  1
  O  O23  1  0.49003000  0.29706800  0.65820700  1
  O  O24  1  0.49003000  0.79706800  0.84179300  1
  O  O25  1  0.99003000  0.20293200  0.15820700  1
  O  O26  1  0.00997000  0.29706800  0.65820700  1
  O  O27  1  0.50997000  0.70293200  0.34179300  1
