# generated using pymatgen
data_Ce6P17Pd6
_symmetry_space_group_name_H-M   'P 1'
_cell_length_a   8.93858421
_cell_length_b   8.93858421
_cell_length_c   8.93858421
_cell_angle_alpha   109.47122063
_cell_angle_beta   109.47122063
_cell_angle_gamma   109.47122063
_symmetry_Int_Tables_number   1
_chemical_formula_structural   Ce6P17Pd6
_chemical_formula_sum   'Ce6 P17 Pd6'
_cell_volume   549.77415182
_cell_formula_units_Z   1
loop_
 _symmetry_equiv_pos_site_id
 _symmetry_equiv_pos_as_xyz
  1  'x, y, z'
loop_
 _atom_site_type_symbol
 _atom_site_label
 _atom_site_symmetry_multiplicity
 _atom_site_fract_x
 _atom_site_fract_y
 _atom_site_fract_z
 _atom_site_occupancy
  Ce  Ce0  1  0.28315700  0.00000000  0.28315700  1
  Ce  Ce1  1  0.00000000  0.71684300  0.71684300  1
  Ce  Ce2  1  0.00000000  0.28315700  0.28315700  1
  Ce  Ce3  1  0.71684300  0.71684300  0.00000000  1
  Ce  Ce4  1  0.28315700  0.28315700  0.00000000  1
  Ce  Ce5  1  0.71684300  0.00000000  0.71684300  1
  P  P6  1  0.78623800  0.78623800  0.42563500  1
  P  P7  1  0.63939700  0.21376200  0.00000000  1
  P  P8  1  0.21376200  0.63939700  0.00000000  1
  P  P9  1  0.36060300  0.57436500  0.36060300  1
  P  P10  1  0.63939700  0.00000000  0.21376200  1
  P  P11  1  0.00000000  0.63939700  0.21376200  1
  P  P12  1  0.57436500  0.36060300  0.36060300  1
  P  P13  1  0.42563500  0.78623800  0.78623800  1
  P  P14  1  0.78623800  0.42563500  0.78623800  1
  P  P15  1  0.21376200  0.00000000  0.63939700  1
  P  P16  1  0.00000000  0.21376200  0.63939700  1
  P  P17  1  0.36060300  0.36060300  0.57436500  1
  P  P18  1  0.00000000  0.00000000  0.42239700  1
  P  P19  1  0.42239700  0.00000000  0.00000000  1
  P  P20  1  0.00000000  0.42239700  0.00000000  1
  P  P21  1  0.57760300  0.57760300  0.57760300  1
  P  P22  1  0.00000000  0.00000000  0.00000000  1
  Pd  Pd23  1  0.25000000  0.50000000  0.75000000  1
  Pd  Pd24  1  0.50000000  0.75000000  0.25000000  1
  Pd  Pd25  1  0.50000000  0.25000000  0.75000000  1
  Pd  Pd26  1  0.75000000  0.25000000  0.50000000  1
  Pd  Pd27  1  0.25000000  0.75000000  0.50000000  1
  Pd  Pd28  1  0.75000000  0.50000000  0.25000000  1
