# generated using pymatgen
data_Re5(NiAs6)2
_symmetry_space_group_name_H-M   'P 1'
_cell_length_a   3.24905400
_cell_length_b   12.64861700
_cell_length_c   15.74293400
_cell_angle_alpha   90.00000000
_cell_angle_beta   90.00000000
_cell_angle_gamma   90.00000000
_symmetry_Int_Tables_number   1
_chemical_formula_structural   Re5(NiAs6)2
_chemical_formula_sum   'Re10 Ni4 As24'
_cell_volume   646.97224000
_cell_formula_units_Z   2
loop_
 _symmetry_equiv_pos_site_id
 _symmetry_equiv_pos_as_xyz
  1  'x, y, z'
loop_
 _atom_site_type_symbol
 _atom_site_label
 _atom_site_symmetry_multiplicity
 _atom_site_fract_x
 _atom_site_fract_y
 _atom_site_fract_z
 _atom_site_occupancy
  Re  Re0  1  0.00000000  0.18370700  0.60139900  1
  Re  Re1  1  0.00000000  0.81629300  0.39860100  1
  Re  Re2  1  0.50000000  0.68370700  0.89860100  1
  Re  Re3  1  0.50000000  0.31629300  0.10139900  1
  Re  Re4  1  0.00000000  0.57889500  0.76194300  1
  Re  Re5  1  0.00000000  0.42110500  0.23805700  1
  Re  Re6  1  0.50000000  0.07889500  0.73805700  1
  Re  Re7  1  0.50000000  0.92110500  0.26194300  1
  Re  Re8  1  0.00000000  0.00000000  0.00000000  1
  Re  Re9  1  0.50000000  0.50000000  0.50000000  1
  Ni  Ni10  1  0.00000000  0.37111700  0.84720400  1
  Ni  Ni11  1  0.00000000  0.62888300  0.15279600  1
  Ni  Ni12  1  0.50000000  0.87111700  0.65279600  1
  Ni  Ni13  1  0.50000000  0.12888300  0.34720400  1
  As  As14  1  0.00000000  0.59286200  0.59818400  1
  As  As15  1  0.00000000  0.40713800  0.40181600  1
  As  As16  1  0.50000000  0.09286200  0.90181600  1
  As  As17  1  0.50000000  0.90713800  0.09818400  1
  As  As18  1  0.00000000  0.93032900  0.76226300  1
  As  As19  1  0.00000000  0.06967100  0.23773700  1
  As  As20  1  0.50000000  0.43032900  0.73773700  1
  As  As21  1  0.50000000  0.56967100  0.26226300  1
  As  As22  1  0.00000000  0.77446400  0.24324900  1
  As  As23  1  0.00000000  0.22553600  0.75675100  1
  As  As24  1  0.50000000  0.27446400  0.25675100  1
  As  As25  1  0.50000000  0.72553600  0.74324900  1
  As  As26  1  0.00000000  0.84110400  0.90885300  1
  As  As27  1  0.00000000  0.15889600  0.09114700  1
  As  As28  1  0.50000000  0.34110400  0.59114700  1
  As  As29  1  0.50000000  0.65889600  0.40885300  1
  As  As30  1  0.00000000  0.53471900  0.92223500  1
  As  As31  1  0.00000000  0.46528100  0.07776500  1
  As  As32  1  0.50000000  0.03471900  0.57776500  1
  As  As33  1  0.50000000  0.96528100  0.42223500  1
  As  As34  1  0.00000000  0.79235400  0.55895100  1
  As  As35  1  0.00000000  0.20764600  0.44104900  1
  As  As36  1  0.50000000  0.29235400  0.94104900  1
  As  As37  1  0.50000000  0.70764600  0.05895100  1
