# generated using pymatgen
data_CaH12CO9
_symmetry_space_group_name_H-M   'P 1'
_cell_length_a   6.07537669
_cell_length_b   6.07537669
_cell_length_c   10.98610495
_cell_angle_alpha   76.25947698
_cell_angle_beta   76.25947698
_cell_angle_gamma   86.56445141
_symmetry_Int_Tables_number   1
_chemical_formula_structural   CaH12CO9
_chemical_formula_sum   'Ca2 H24 C2 O18'
_cell_volume   382.61915205
_cell_formula_units_Z   2
loop_
 _symmetry_equiv_pos_site_id
 _symmetry_equiv_pos_as_xyz
  1  'x, y, z'
loop_
 _atom_site_type_symbol
 _atom_site_label
 _atom_site_symmetry_multiplicity
 _atom_site_fract_x
 _atom_site_fract_y
 _atom_site_fract_z
 _atom_site_occupancy
  Ca  Ca0  1  0.85853100  0.14146900  0.25000000  1
  Ca  Ca1  1  0.14146900  0.85853100  0.75000000  1
  H  H2  1  0.74158300  0.11972400  0.99911900  1
  H  H3  1  0.88027600  0.25841700  0.50088100  1
  H  H4  1  0.25841700  0.88027600  0.00088100  1
  H  H5  1  0.11972400  0.74158300  0.49911900  1
  H  H6  1  0.51385800  0.18003900  0.09320500  1
  H  H7  1  0.81996100  0.48614200  0.40679500  1
  H  H8  1  0.48614200  0.81996100  0.90679500  1
  H  H9  1  0.18003900  0.51385800  0.59320500  1
  H  H10  1  0.53660800  0.72652800  0.35022000  1
  H  H11  1  0.27347200  0.46339200  0.14978000  1
  H  H12  1  0.46339200  0.27347200  0.64978000  1
  H  H13  1  0.72652800  0.53660800  0.85022000  1
  H  H14  1  0.60447600  0.77751300  0.47348300  1
  H  H15  1  0.22248700  0.39552400  0.02651700  1
  H  H16  1  0.39552400  0.22248700  0.52651700  1
  H  H17  1  0.77751300  0.60447600  0.97348300  1
  H  H18  1  0.33887100  0.10032400  0.35666200  1
  H  H19  1  0.89967600  0.66112900  0.14333800  1
  H  H20  1  0.66112900  0.89967600  0.64333800  1
  H  H21  1  0.10032400  0.33887100  0.85666200  1
  H  H22  1  0.38734500  0.36249100  0.33293100  1
  H  H23  1  0.63750900  0.61265500  0.16706900  1
  H  H24  1  0.61265500  0.63750900  0.66706900  1
  H  H25  1  0.36249100  0.38734500  0.83293100  1
  C  C26  1  0.20297900  0.79702100  0.25000000  1
  C  C27  1  0.79702100  0.20297900  0.75000000  1
  O  O28  1  0.35886700  0.64113300  0.25000000  1
  O  O29  1  0.64113300  0.35886700  0.75000000  1
  O  O30  1  0.09319500  0.84747800  0.15861800  1
  O  O31  1  0.15252200  0.90680500  0.34138200  1
  O  O32  1  0.90680500  0.15252200  0.84138200  1
  O  O33  1  0.84747800  0.09319500  0.65861800  1
  O  O34  1  0.66247500  0.10273600  0.09126800  1
  O  O35  1  0.89726400  0.33752500  0.40873200  1
  O  O36  1  0.33752500  0.89726400  0.90873200  1
  O  O37  1  0.10273600  0.66247500  0.59126800  1
  O  O38  1  0.66588100  0.76095400  0.38321000  1
  O  O39  1  0.23904600  0.33411900  0.11679000  1
  O  O40  1  0.33411900  0.23904600  0.61679000  1
  O  O41  1  0.76095400  0.66588100  0.88321000  1
  O  O42  1  0.44740200  0.20959500  0.36529200  1
  O  O43  1  0.79040500  0.55259800  0.13470800  1
  O  O44  1  0.55259800  0.79040500  0.63470800  1
  O  O45  1  0.20959500  0.44740200  0.86529200  1
