# generated using pymatgen
data_K(MoO2)4
_symmetry_space_group_name_H-M   'P 1'
_cell_length_a   6.54215800
_cell_length_b   10.49764500
_cell_length_c   14.73662968
_cell_angle_alpha   46.34553411
_cell_angle_beta   90.00000000
_cell_angle_gamma   90.00000000
_symmetry_Int_Tables_number   1
_chemical_formula_structural   K(MoO2)4
_chemical_formula_sum   'K4 Mo16 O32'
_cell_volume   732.24970579
_cell_formula_units_Z   4
loop_
 _symmetry_equiv_pos_site_id
 _symmetry_equiv_pos_as_xyz
  1  'x, y, z'
loop_
 _atom_site_type_symbol
 _atom_site_label
 _atom_site_symmetry_multiplicity
 _atom_site_fract_x
 _atom_site_fract_y
 _atom_site_fract_z
 _atom_site_occupancy
  K  K0  1  0.86697800  0.50000000  0.25000000  1
  K  K1  1  0.13302200  0.50000000  0.75000000  1
  K  K2  1  0.36455000  0.50000000  0.25000000  1
  K  K3  1  0.63545000  0.50000000  0.75000000  1
  Mo  Mo4  1  0.87144800  0.68107100  0.40276600  1
  Mo  Mo5  1  0.37144900  0.31949800  0.09743500  1
  Mo  Mo6  1  0.62855100  0.31949800  0.59743500  1
  Mo  Mo7  1  0.62855100  0.68050200  0.90256500  1
  Mo  Mo8  1  0.12855200  0.31892900  0.59723400  1
  Mo  Mo9  1  0.12855200  0.68107100  0.90276600  1
  Mo  Mo10  1  0.37144900  0.68050200  0.40256500  1
  Mo  Mo11  1  0.87144800  0.31892900  0.09723400  1
  Mo  Mo12  1  0.62723100  0.99018700  0.41120300  1
  Mo  Mo13  1  0.62723100  0.00981300  0.08879700  1
  Mo  Mo14  1  0.37276900  0.00981300  0.58879700  1
  Mo  Mo15  1  0.37276900  0.99018700  0.91120300  1
  Mo  Mo16  1  0.12558600  0.98842500  0.41144800  1
  Mo  Mo17  1  0.12558600  0.01157500  0.08855200  1
  Mo  Mo18  1  0.87441400  0.01157500  0.58855200  1
  Mo  Mo19  1  0.87441400  0.98842500  0.91144800  1
  O  O20  1  0.12341800  0.79995500  0.41181000  1
  O  O21  1  0.12341800  0.20004500  0.08819000  1
  O  O22  1  0.87658200  0.20004500  0.58819000  1
  O  O23  1  0.87658200  0.79995500  0.91181000  1
  O  O24  1  0.39211400  0.20346700  0.58799500  1
  O  O25  1  0.39211400  0.79653300  0.91200500  1
  O  O26  1  0.60788600  0.79653300  0.41200500  1
  O  O27  1  0.60788600  0.20346700  0.08799500  1
  O  O28  1  0.13004500  0.55399700  0.39848700  1
  O  O29  1  0.13004500  0.44600300  0.10151300  1
  O  O30  1  0.86995500  0.44600300  0.60151300  1
  O  O31  1  0.86995500  0.55399700  0.89848700  1
  O  O32  1  0.37990100  0.45929800  0.59356000  1
  O  O33  1  0.37990100  0.54070200  0.90644000  1
  O  O34  1  0.62009900  0.54070200  0.40644000  1
  O  O35  1  0.62009900  0.45929800  0.09356000  1
  O  O36  1  0.13562900  0.11447300  0.79521200  1
  O  O37  1  0.13562900  0.88552700  0.70478800  1
  O  O38  1  0.86437100  0.88552700  0.20478800  1
  O  O39  1  0.86437100  0.11447300  0.29521200  1
  O  O40  1  0.62242600  0.86381600  0.04185500  1
  O  O41  1  0.62242600  0.13618400  0.45814500  1
  O  O42  1  0.37757400  0.13618400  0.95814500  1
  O  O43  1  0.37757400  0.86381600  0.54185500  1
  O  O44  1  0.12185600  0.86240600  0.04354200  1
  O  O45  1  0.12185600  0.13759400  0.45645800  1
  O  O46  1  0.36704600  0.12724300  0.28848300  1
  O  O47  1  0.87814400  0.86240600  0.54354200  1
  O  O48  1  0.63295400  0.12724300  0.78848300  1
  O  O49  1  0.63295400  0.87275700  0.71151700  1
  O  O50  1  0.36704600  0.87275700  0.21151700  1
  O  O51  1  0.87814400  0.13759400  0.95645800  1
