# generated using pymatgen
data_CrP(HO)5
_symmetry_space_group_name_H-M   'P 1'
_cell_length_a   6.82348100
_cell_length_b   7.63402500
_cell_length_c   9.32778000
_cell_angle_alpha   90.00000000
_cell_angle_beta   90.00000000
_cell_angle_gamma   90.00000000
_symmetry_Int_Tables_number   1
_chemical_formula_structural   CrP(HO)5
_chemical_formula_sum   'Cr4 P4 H20 O20'
_cell_volume   485.88988578
_cell_formula_units_Z   4
loop_
 _symmetry_equiv_pos_site_id
 _symmetry_equiv_pos_as_xyz
  1  'x, y, z'
loop_
 _atom_site_type_symbol
 _atom_site_label
 _atom_site_symmetry_multiplicity
 _atom_site_fract_x
 _atom_site_fract_y
 _atom_site_fract_z
 _atom_site_occupancy
  Cr  Cr0  1  0.22594900  0.53261300  0.59454400  1
  Cr  Cr1  1  0.72594900  0.96738700  0.40545600  1
  Cr  Cr2  1  0.77405100  0.03261300  0.90545600  1
  Cr  Cr3  1  0.27405100  0.46738700  0.09454400  1
  P  P4  1  0.48117400  0.17894200  0.65026200  1
  P  P5  1  0.98117400  0.32105800  0.34973800  1
  P  P6  1  0.51882600  0.67894200  0.84973800  1
  P  P7  1  0.01882600  0.82105800  0.15026200  1
  H  H8  1  0.62866600  0.29949500  0.61397700  1
  H  H9  1  0.12866600  0.20050500  0.38602300  1
  H  H10  1  0.37133400  0.79949500  0.88602300  1
  H  H11  1  0.87133400  0.70050500  0.11397700  1
  H  H12  1  0.30872400  0.87690100  0.53445100  1
  H  H13  1  0.80872400  0.62309900  0.46554900  1
  H  H14  1  0.69127600  0.37690100  0.96554900  1
  H  H15  1  0.19127600  0.12309900  0.03445100  1
  H  H16  1  0.12245400  0.82078200  0.43695900  1
  H  H17  1  0.62245400  0.67921800  0.56304100  1
  H  H18  1  0.87754600  0.32078200  0.06304100  1
  H  H19  1  0.37754600  0.17921800  0.93695900  1
  H  H20  1  0.52718800  0.55587700  0.34427000  1
  H  H21  1  0.02718800  0.94412300  0.65573000  1
  H  H22  1  0.47281200  0.05587700  0.15573000  1
  H  H23  1  0.97281200  0.44412300  0.84427000  1
  H  H24  1  0.57490700  0.35932500  0.32058500  1
  H  H25  1  0.07490700  0.14067500  0.67941500  1
  H  H26  1  0.42509300  0.85932500  0.17941500  1
  H  H27  1  0.92509300  0.64067500  0.82058500  1
  O  O28  1  0.49359100  0.02726400  0.54069900  1
  O  O29  1  0.99359100  0.47273600  0.45930100  1
  O  O30  1  0.50640900  0.52726400  0.95930100  1
  O  O31  1  0.00640900  0.97273600  0.04069900  1
  O  O32  1  0.28101300  0.27240100  0.64318000  1
  O  O33  1  0.78101300  0.22759900  0.35682000  1
  O  O34  1  0.71898700  0.77240100  0.85682000  1
  O  O35  1  0.21898700  0.72759900  0.14318000  1
  O  O36  1  0.51982800  0.11599600  0.80539900  1
  O  O37  1  0.01982800  0.38400400  0.19460100  1
  O  O38  1  0.48017200  0.61599600  0.69460100  1
  O  O39  1  0.98017200  0.88400400  0.30539900  1
  O  O40  1  0.19230800  0.79632000  0.53031100  1
  O  O41  1  0.69230800  0.70368000  0.46968900  1
  O  O42  1  0.80769200  0.29632000  0.96968900  1
  O  O43  1  0.30769200  0.20368000  0.03031100  1
  O  O44  1  0.46841900  0.44718500  0.30728000  1
  O  O45  1  0.96841900  0.05281500  0.69272000  1
  O  O46  1  0.53158100  0.94718500  0.19272000  1
  O  O47  1  0.03158100  0.55281500  0.80728000  1
