# generated using pymatgen
data_MnAl2P2(HO)18
_symmetry_space_group_name_H-M   'P 1'
_cell_length_a   5.25402900
_cell_length_b   7.00901534
_cell_length_c   10.46580557
_cell_angle_alpha   95.37985805
_cell_angle_beta   101.48776512
_cell_angle_gamma   110.01022686
_symmetry_Int_Tables_number   1
_chemical_formula_structural   MnAl2P2(HO)18
_chemical_formula_sum   'Mn1 Al2 P2 H18 O18'
_cell_volume   349.35886556
_cell_formula_units_Z   1
loop_
 _symmetry_equiv_pos_site_id
 _symmetry_equiv_pos_as_xyz
  1  'x, y, z'
loop_
 _atom_site_type_symbol
 _atom_site_label
 _atom_site_symmetry_multiplicity
 _atom_site_fract_x
 _atom_site_fract_y
 _atom_site_fract_z
 _atom_site_occupancy
  Mn  Mn0  1  0.00000000  0.00000000  0.00000000  1
  Al  Al1  1  0.50000000  0.00000000  0.50000000  1
  Al  Al2  1  0.50000000  0.50000000  0.50000000  1
  P  P3  1  0.99085900  0.08679500  0.33636100  1
  P  P4  1  0.00914100  0.91320500  0.66363900  1
  H  H5  1  0.16786000  0.67347000  0.51179500  1
  H  H6  1  0.83214000  0.32653000  0.48820500  1
  H  H7  1  0.37782800  0.28892400  0.66753600  1
  H  H8  1  0.62217200  0.71107600  0.33246400  1
  H  H9  1  0.29972500  0.47939600  0.71823600  1
  H  H10  1  0.70027500  0.52060400  0.28176400  1
  H  H11  1  0.66339800  0.58811200  0.90219100  1
  H  H12  1  0.33660200  0.41188800  0.09780900  1
  H  H13  1  0.80621800  0.59651400  0.05182800  1
  H  H14  1  0.19378200  0.40348600  0.94817200  1
  H  H15  1  0.69568000  0.05497700  0.78843500  1
  H  H16  1  0.30432000  0.94502300  0.21156500  1
  H  H17  1  0.46222100  0.00600100  0.86776000  1
  H  H18  1  0.53777900  0.99399900  0.13224000  1
  H  H19  1  0.91046000  0.34789800  0.18159300  1
  H  H20  1  0.08954000  0.65210200  0.81840700  1
  H  H21  1  0.10202200  0.57915200  0.24220900  1
  H  H22  1  0.89797800  0.42084800  0.75779100  1
  O  O23  1  0.19413400  0.96830100  0.35092300  1
  O  O24  1  0.80586600  0.03169900  0.64907700  1
  O  O25  1  0.12810200  0.30411100  0.42425400  1
  O  O26  1  0.87189800  0.69588900  0.57574600  1
  O  O27  1  0.90466900  0.10563800  0.18836000  1
  O  O28  1  0.09533100  0.89436200  0.81164000  1
  O  O29  1  0.27885500  0.03793000  0.62166200  1
  O  O30  1  0.72114500  0.96207000  0.37833800  1
  O  O31  1  0.35716400  0.71062500  0.49718700  1
  O  O32  1  0.64283600  0.28937500  0.50281300  1
  O  O33  1  0.44262600  0.44474000  0.67933200  1
  O  O34  1  0.55737400  0.55526000  0.32066800  1
  O  O35  1  0.73660700  0.67646400  0.98912900  1
  O  O36  1  0.26339300  0.32353600  0.01087100  1
  O  O37  1  0.66783200  0.06911400  0.88004300  1
  O  O38  1  0.33216800  0.93088600  0.11995700  1
  O  O39  1  0.91467200  0.49324800  0.18873700  1
  O  O40  1  0.08532800  0.50675200  0.81126300  1
