# generated using pymatgen
data_NaCuF3
_symmetry_space_group_name_H-M   'P 1'
_cell_length_a   5.62870800
_cell_length_b   5.43940600
_cell_length_c   9.48416874
_cell_angle_alpha   55.51686803
_cell_angle_beta   90.00000000
_cell_angle_gamma   90.00000000
_symmetry_Int_Tables_number   1
_chemical_formula_structural   NaCuF3
_chemical_formula_sum   'Na4 Cu4 F12'
_cell_volume   239.35418714
_cell_formula_units_Z   4
loop_
 _symmetry_equiv_pos_site_id
 _symmetry_equiv_pos_as_xyz
  1  'x, y, z'
loop_
 _atom_site_type_symbol
 _atom_site_label
 _atom_site_symmetry_multiplicity
 _atom_site_fract_x
 _atom_site_fract_y
 _atom_site_fract_z
 _atom_site_occupancy
  Na  Na0  1  0.55580200  0.26996800  0.24608700  1
  Na  Na1  1  0.44419800  0.73003200  0.75391300  1
  Na  Na2  1  0.05580200  0.73003200  0.25391300  1
  Na  Na3  1  0.94419800  0.26996800  0.74608700  1
  Cu  Cu4  1  0.00000000  0.50000000  0.00000000  1
  Cu  Cu5  1  0.50000000  0.00000000  0.00000000  1
  Cu  Cu6  1  0.00000000  0.00000000  0.50000000  1
  Cu  Cu7  1  0.50000000  0.50000000  0.50000000  1
  F  F8  1  0.29134700  0.64781300  0.05070600  1
  F  F9  1  0.70865300  0.35218700  0.94929400  1
  F  F10  1  0.20549000  0.26230000  0.94189700  1
  F  F11  1  0.79451000  0.73770000  0.05810300  1
  F  F12  1  0.29451000  0.26230000  0.44189700  1
  F  F13  1  0.70549000  0.73770000  0.55810300  1
  F  F14  1  0.20865300  0.64781300  0.55070600  1
  F  F15  1  0.79134700  0.35218700  0.44929400  1
  F  F16  1  0.96600600  0.14648600  0.25410700  1
  F  F17  1  0.03399400  0.85351400  0.74589300  1
  F  F18  1  0.46600600  0.85351400  0.24589300  1
  F  F19  1  0.53399400  0.14648600  0.75410700  1
