# generated using pymatgen
data_NaFe3O5
_symmetry_space_group_name_H-M   'P 1'
_cell_length_a   3.03135200
_cell_length_b   10.91893100
_cell_length_c   11.88504700
_cell_angle_alpha   90.00000000
_cell_angle_beta   90.00000000
_cell_angle_gamma   90.00000000
_symmetry_Int_Tables_number   1
_chemical_formula_structural   NaFe3O5
_chemical_formula_sum   'Na4 Fe12 O20'
_cell_volume   393.38463637
_cell_formula_units_Z   4
loop_
 _symmetry_equiv_pos_site_id
 _symmetry_equiv_pos_as_xyz
  1  'x, y, z'
loop_
 _atom_site_type_symbol
 _atom_site_label
 _atom_site_symmetry_multiplicity
 _atom_site_fract_x
 _atom_site_fract_y
 _atom_site_fract_z
 _atom_site_occupancy
  Na  Na0  1  0.50000000  0.95795500  0.24903200  1
  Na  Na1  1  0.50000000  0.04204500  0.75096800  1
  Na  Na2  1  0.00000000  0.45795500  0.25096800  1
  Na  Na3  1  0.00000000  0.54204500  0.74903200  1
  Fe  Fe4  1  0.50000000  0.20572100  0.11762700  1
  Fe  Fe5  1  0.50000000  0.79427900  0.88237300  1
  Fe  Fe6  1  0.00000000  0.70572100  0.38237300  1
  Fe  Fe7  1  0.00000000  0.29427900  0.61762700  1
  Fe  Fe8  1  0.00000000  0.22015000  0.38177800  1
  Fe  Fe9  1  0.00000000  0.77985000  0.61822200  1
  Fe  Fe10  1  0.50000000  0.72015000  0.11822200  1
  Fe  Fe11  1  0.50000000  0.27985000  0.88177800  1
  Fe  Fe12  1  0.00000000  0.00000000  0.00000000  1
  Fe  Fe13  1  0.50000000  0.50000000  0.50000000  1
  Fe  Fe14  1  0.00000000  0.50000000  0.00000000  1
  Fe  Fe15  1  0.50000000  0.00000000  0.50000000  1
  O  O16  1  0.00000000  0.08922100  0.14774600  1
  O  O17  1  0.00000000  0.91077900  0.85225400  1
  O  O18  1  0.50000000  0.58922100  0.35225400  1
  O  O19  1  0.50000000  0.41077900  0.64774600  1
  O  O20  1  0.00000000  0.04229200  0.39109300  1
  O  O21  1  0.00000000  0.95770800  0.60890700  1
  O  O22  1  0.50000000  0.54229200  0.10890700  1
  O  O23  1  0.50000000  0.45770800  0.89109300  1
  O  O24  1  0.00000000  0.31405900  0.04092800  1
  O  O25  1  0.00000000  0.68594100  0.95907200  1
  O  O26  1  0.50000000  0.81405900  0.45907200  1
  O  O27  1  0.50000000  0.18594100  0.54092800  1
  O  O28  1  0.50000000  0.26353000  0.28078600  1
  O  O29  1  0.50000000  0.73647000  0.71921400  1
  O  O30  1  0.00000000  0.76353000  0.21921400  1
  O  O31  1  0.00000000  0.23647000  0.78078600  1
  O  O32  1  0.00000000  0.38331100  0.45700700  1
  O  O33  1  0.00000000  0.61668900  0.54299300  1
  O  O34  1  0.50000000  0.88331100  0.04299300  1
  O  O35  1  0.50000000  0.11668900  0.95700700  1
