# generated using pymatgen
data_GdCuSeO
_symmetry_space_group_name_H-M   'P 1'
_cell_length_a   3.93606500
_cell_length_b   3.93606500
_cell_length_c   8.78866100
_cell_angle_alpha   90.00000000
_cell_angle_beta   90.00000000
_cell_angle_gamma   90.00000000
_symmetry_Int_Tables_number   1
_chemical_formula_structural   GdCuSeO
_chemical_formula_sum   'Gd2 Cu2 Se2 O2'
_cell_volume   136.15927694
_cell_formula_units_Z   2
loop_
 _symmetry_equiv_pos_site_id
 _symmetry_equiv_pos_as_xyz
  1  'x, y, z'
loop_
 _atom_site_type_symbol
 _atom_site_label
 _atom_site_symmetry_multiplicity
 _atom_site_fract_x
 _atom_site_fract_y
 _atom_site_fract_z
 _atom_site_occupancy
  Gd  Gd0  1  0.00000000  0.50000000  0.86772700  1
  Gd  Gd1  1  0.50000000  0.00000000  0.13227300  1
  Cu  Cu2  1  0.00000000  0.00000000  0.50000000  1
  Cu  Cu3  1  0.50000000  0.50000000  0.50000000  1
  Se  Se4  1  0.00000000  0.50000000  0.32051900  1
  Se  Se5  1  0.50000000  0.00000000  0.67948100  1
  O  O6  1  0.50000000  0.50000000  0.00000000  1
  O  O7  1  0.00000000  0.00000000  0.00000000  1
