# generated using pymatgen
data_VInO4
_symmetry_space_group_name_H-M   'P 1'
_cell_length_a   7.10027300
_cell_length_b   7.10027300
_cell_length_c   7.17550783
_cell_angle_alpha   79.05023872
_cell_angle_beta   79.05023872
_cell_angle_gamma   84.99312864
_symmetry_Int_Tables_number   1
_chemical_formula_structural   VInO4
_chemical_formula_sum   'V4 In4 O16'
_cell_volume   348.20114256
_cell_formula_units_Z   4
loop_
 _symmetry_equiv_pos_site_id
 _symmetry_equiv_pos_as_xyz
  1  'x, y, z'
loop_
 _atom_site_type_symbol
 _atom_site_label
 _atom_site_symmetry_multiplicity
 _atom_site_fract_x
 _atom_site_fract_y
 _atom_site_fract_z
 _atom_site_occupancy
  V  V0  1  0.74698200  0.25301800  0.00000000  1
  V  V1  1  0.25301800  0.74698200  0.00000000  1
  V  V2  1  0.72531300  0.72531400  0.40749300  1
  V  V3  1  0.27468600  0.27468600  0.59250700  1
  In  In4  1  0.81332000  0.18668000  0.50000000  1
  In  In5  1  0.18668000  0.81332000  0.50000000  1
  In  In6  1  0.21008800  0.21008800  0.12990600  1
  In  In7  1  0.78991200  0.78991200  0.87009400  1
  O  O8  1  0.85866000  0.85866000  0.54054300  1
  O  O9  1  0.14134000  0.14134000  0.45945700  1
  O  O10  1  0.20844500  0.20844500  0.83634200  1
  O  O11  1  0.79155500  0.79155500  0.16365800  1
  O  O12  1  0.21699600  0.51563400  0.10681800  1
  O  O13  1  0.48436600  0.78300400  0.89318200  1
  O  O14  1  0.78300400  0.48436600  0.89318200  1
  O  O15  1  0.51563400  0.21699600  0.10681800  1
  O  O16  1  0.79700100  0.10778300  0.81234100  1
  O  O17  1  0.89221700  0.20299900  0.18765900  1
  O  O18  1  0.20299900  0.89221700  0.18765900  1
  O  O19  1  0.10778300  0.79700100  0.81234100  1
  O  O20  1  0.51072100  0.21211100  0.52325600  1
  O  O21  1  0.78788900  0.48927900  0.47674400  1
  O  O22  1  0.48927900  0.78788900  0.47674400  1
  O  O23  1  0.21211100  0.51072100  0.52325600  1
