# generated using pymatgen
data_NaFeBP2H3O10
_symmetry_space_group_name_H-M   'P 1'
_cell_length_a   6.70833250
_cell_length_b   6.70833250
_cell_length_c   9.27992590
_cell_angle_alpha   69.79568790
_cell_angle_beta   69.79568790
_cell_angle_gamma   76.69728998
_symmetry_Int_Tables_number   1
_chemical_formula_structural   NaFeBP2H3O10
_chemical_formula_sum   'Na2 Fe2 B2 P4 H6 O20'
_cell_volume   364.87690760
_cell_formula_units_Z   2
loop_
 _symmetry_equiv_pos_site_id
 _symmetry_equiv_pos_as_xyz
  1  'x, y, z'
loop_
 _atom_site_type_symbol
 _atom_site_label
 _atom_site_symmetry_multiplicity
 _atom_site_fract_x
 _atom_site_fract_y
 _atom_site_fract_z
 _atom_site_occupancy
  Na  Na0  1  0.86834700  0.13165300  0.75000000  1
  Na  Na1  1  0.13165300  0.86834700  0.25000000  1
  Fe  Fe2  1  0.00000000  0.50000000  0.00000000  1
  Fe  Fe3  1  0.50000000  0.00000000  0.50000000  1
  B  B4  1  0.47282500  0.52717500  0.75000000  1
  B  B5  1  0.52717500  0.47282500  0.25000000  1
  P  P6  1  0.84555100  0.70819200  0.67627400  1
  P  P7  1  0.29180800  0.15444900  0.82372600  1
  P  P8  1  0.15444900  0.29180800  0.32372600  1
  P  P9  1  0.70819200  0.84555100  0.17627400  1
  H  H10  1  0.33959200  0.69011800  0.92250500  1
  H  H11  1  0.30988200  0.66040800  0.57749500  1
  H  H12  1  0.66040800  0.30988200  0.07749500  1
  H  H13  1  0.69011800  0.33959200  0.42250500  1
  H  H14  1  0.00000000  0.50000000  0.50000000  1
  H  H15  1  0.50000000  0.00000000  0.00000000  1
  O  O16  1  0.69192600  0.53020600  0.74912200  1
  O  O17  1  0.46979400  0.30807400  0.75087800  1
  O  O18  1  0.30807400  0.46979400  0.25087800  1
  O  O19  1  0.53020600  0.69192600  0.24912200  1
  O  O20  1  0.96418900  0.36250600  0.45783700  1
  O  O21  1  0.63749400  0.03581100  0.04216300  1
  O  O22  1  0.03581100  0.63749400  0.54216300  1
  O  O23  1  0.36250600  0.96418900  0.95783700  1
  O  O24  1  0.07148000  0.27429700  0.89056400  1
  O  O25  1  0.72570300  0.92852000  0.60943600  1
  O  O26  1  0.92852000  0.72570300  0.10943600  1
  O  O27  1  0.27429700  0.07148000  0.39056400  1
  O  O28  1  0.92523200  0.72481100  0.80722100  1
  O  O29  1  0.27518900  0.07476800  0.69277900  1
  O  O30  1  0.07476800  0.27518900  0.19277900  1
  O  O31  1  0.72481100  0.92523200  0.30722100  1
  O  O32  1  0.31512400  0.56709700  0.89853200  1
  O  O33  1  0.43290300  0.68487600  0.60146800  1
  O  O34  1  0.68487600  0.43290300  0.10146800  1
  O  O35  1  0.56709700  0.31512400  0.39853200  1
