# generated using pymatgen
data_CsNiF3
_symmetry_space_group_name_H-M   'P 1'
_cell_length_a   8.34991789
_cell_length_b   8.34991789
_cell_length_c   8.34991858
_cell_angle_alpha   43.78677003
_cell_angle_beta   43.78677003
_cell_angle_gamma   43.78677183
_symmetry_Int_Tables_number   1
_chemical_formula_structural   CsNiF3
_chemical_formula_sum   'Cs3 Ni3 F9'
_cell_volume   253.07704733
_cell_formula_units_Z   3
loop_
 _symmetry_equiv_pos_site_id
 _symmetry_equiv_pos_as_xyz
  1  'x, y, z'
loop_
 _atom_site_type_symbol
 _atom_site_label
 _atom_site_symmetry_multiplicity
 _atom_site_fract_x
 _atom_site_fract_y
 _atom_site_fract_z
 _atom_site_occupancy
  Cs  Cs0  1  0.00000000  0.00000000  0.00000000  1
  Cs  Cs1  1  0.21460300  0.21460300  0.21460300  1
  Cs  Cs2  1  0.78539700  0.78539700  0.78539700  1
  Ni  Ni3  1  0.50000000  0.50000000  0.50000000  1
  Ni  Ni4  1  0.37946600  0.37946600  0.37946600  1
  Ni  Ni5  1  0.62053400  0.62053400  0.62053400  1
  F  F6  1  0.50000000  0.50000000  0.00000000  1
  F  F7  1  0.50000000  0.00000000  0.50000000  1
  F  F8  1  0.00000000  0.50000000  0.50000000  1
  F  F9  1  0.27573600  0.70107200  0.70107200  1
  F  F10  1  0.70107200  0.70107200  0.27573600  1
  F  F11  1  0.70107200  0.27573600  0.70107200  1
  F  F12  1  0.29892800  0.72426400  0.29892800  1
  F  F13  1  0.72426400  0.29892800  0.29892800  1
  F  F14  1  0.29892800  0.29892800  0.72426400  1
