# generated using pymatgen
data_Fe3O4
_symmetry_space_group_name_H-M   'P 1'
_cell_length_a   3.01278002
_cell_length_b   10.05688600
_cell_length_c   10.46110310
_cell_angle_alpha   90.00000000
_cell_angle_beta   90.01387427
_cell_angle_gamma   90.00000000
_symmetry_Int_Tables_number   1
_chemical_formula_structural   Fe3O4
_chemical_formula_sum   'Fe12 O16'
_cell_volume   316.96289056
_cell_formula_units_Z   4
loop_
 _symmetry_equiv_pos_site_id
 _symmetry_equiv_pos_as_xyz
  1  'x, y, z'
loop_
 _atom_site_type_symbol
 _atom_site_label
 _atom_site_symmetry_multiplicity
 _atom_site_fract_x
 _atom_site_fract_y
 _atom_site_fract_z
 _atom_site_occupancy
  Fe  Fe0  1  0.27918600  0.37735900  0.25075800  1
  Fe  Fe1  1  0.27207700  0.12420500  0.75005500  1
  Fe  Fe2  1  0.72081400  0.87735900  0.24924200  1
  Fe  Fe3  1  0.72792300  0.62420500  0.74994500  1
  Fe  Fe4  1  0.24639600  0.12125700  0.07289900  1
  Fe  Fe5  1  0.75360400  0.62125700  0.42710100  1
  Fe  Fe6  1  0.24570500  0.38164900  0.92668600  1
  Fe  Fe7  1  0.75429500  0.88164900  0.57331400  1
  Fe  Fe8  1  0.75315300  0.88046300  0.92596100  1
  Fe  Fe9  1  0.75395100  0.61984200  0.07326500  1
  Fe  Fe10  1  0.24684700  0.38046200  0.57403900  1
  Fe  Fe11  1  0.24604900  0.11984200  0.42673500  1
  O  O12  1  0.25288700  0.18651800  0.25075300  1
  O  O13  1  0.25294500  0.31211200  0.75124200  1
  O  O14  1  0.74711300  0.68651800  0.24924700  1
  O  O15  1  0.74705500  0.81211200  0.74875800  1
  O  O16  1  0.25280200  0.48753800  0.10160700  1
  O  O17  1  0.25185200  0.01022100  0.89743500  1
  O  O18  1  0.74719800  0.98753800  0.39839300  1
  O  O19  1  0.74814800  0.51022100  0.60256500  1
  O  O20  1  0.74745700  0.51136800  0.89756000  1
  O  O21  1  0.74771300  0.98904700  0.09885300  1
  O  O22  1  0.25254300  0.01136800  0.60244000  1
  O  O23  1  0.25228700  0.48904700  0.40114700  1
  O  O24  1  0.75000200  0.24956200  0.00121000  1
  O  O25  1  0.24999800  0.74956200  0.49879000  1
  O  O26  1  0.25175600  0.74886000  0.99923200  1
  O  O27  1  0.74824400  0.24886000  0.50076800  1
