# generated using pymatgen
data_PuH18C3S3(O2F)9
_symmetry_space_group_name_H-M   'P 1'
_cell_length_a   14.07100407
_cell_length_b   14.07100407
_cell_length_c   7.38538200
_cell_angle_alpha   90.00000000
_cell_angle_beta   90.00000000
_cell_angle_gamma   120.00000032
_symmetry_Int_Tables_number   1
_chemical_formula_structural   PuH18C3S3(O2F)9
_chemical_formula_sum   'Pu2 H36 C6 S6 O36 F18'
_cell_volume   1266.35004782
_cell_formula_units_Z   2
loop_
 _symmetry_equiv_pos_site_id
 _symmetry_equiv_pos_as_xyz
  1  'x, y, z'
loop_
 _atom_site_type_symbol
 _atom_site_label
 _atom_site_symmetry_multiplicity
 _atom_site_fract_x
 _atom_site_fract_y
 _atom_site_fract_z
 _atom_site_occupancy
  Pu  Pu0  1  0.33333300  0.66666700  0.75000000  1
  Pu  Pu1  1  0.66666700  0.33333300  0.25000000  1
  H  H2  1  0.09799100  0.45519500  0.64248700  1
  H  H3  1  0.64279600  0.09799100  0.14248700  1
  H  H4  1  0.45519500  0.35720400  0.14248700  1
  H  H5  1  0.54480500  0.64279600  0.64248700  1
  H  H6  1  0.35720400  0.90200900  0.64248700  1
  H  H7  1  0.90200900  0.54480500  0.14248700  1
  H  H8  1  0.90200900  0.54480500  0.35751300  1
  H  H9  1  0.35720400  0.90200900  0.85751300  1
  H  H10  1  0.54480500  0.64279600  0.85751300  1
  H  H11  1  0.45519500  0.35720400  0.35751300  1
  H  H12  1  0.64279600  0.09799100  0.35751300  1
  H  H13  1  0.09799100  0.45519500  0.85751300  1
  H  H14  1  0.27557700  0.50646300  0.42133500  1
  H  H15  1  0.76911400  0.27557700  0.92133500  1
  H  H16  1  0.50646300  0.23088600  0.92133500  1
  H  H17  1  0.49353700  0.76911400  0.42133500  1
  H  H18  1  0.23088600  0.72442300  0.42133500  1
  H  H19  1  0.72442300  0.49353700  0.92133500  1
  H  H20  1  0.72442300  0.49353700  0.57866500  1
  H  H21  1  0.23088600  0.72442300  0.07866500  1
  H  H22  1  0.49353700  0.76911400  0.07866500  1
  H  H23  1  0.50646300  0.23088600  0.57866500  1
  H  H24  1  0.76911400  0.27557700  0.57866500  1
  H  H25  1  0.27557700  0.50646300  0.07866500  1
  H  H26  1  0.36292700  0.49286400  0.53507600  1
  H  H27  1  0.87006300  0.36292700  0.03507600  1
  H  H28  1  0.49286400  0.12993700  0.03507600  1
  H  H29  1  0.50713600  0.87006300  0.53507600  1
  H  H30  1  0.12993700  0.63707300  0.53507600  1
  H  H31  1  0.63707300  0.50713600  0.03507600  1
  H  H32  1  0.63707300  0.50713600  0.46492400  1
  H  H33  1  0.12993700  0.63707300  0.96492400  1
  H  H34  1  0.50713600  0.87006300  0.96492400  1
  H  H35  1  0.49286400  0.12993700  0.46492400  1
  H  H36  1  0.87006300  0.36292700  0.46492400  1
  H  H37  1  0.36292700  0.49286400  0.96492400  1
  C  C38  1  0.00587700  0.22912700  0.25000000  1
  C  C39  1  0.77675000  0.00587700  0.75000000  1
  C  C40  1  0.22912700  0.22325000  0.75000000  1
  C  C41  1  0.77087300  0.77675000  0.25000000  1
  C  C42  1  0.22325000  0.99412300  0.25000000  1
  C  C43  1  0.99412300  0.77087300  0.75000000  1
  S  S44  1  0.05845900  0.38036300  0.25000000  1
  S  S45  1  0.67809600  0.05845900  0.75000000  1
  S  S46  1  0.38036300  0.32190400  0.75000000  1
  S  S47  1  0.61963700  0.67809600  0.25000000  1
  S  S48  1  0.32190400  0.94154100  0.25000000  1
  S  S49  1  0.94154100  0.61963700  0.75000000  1
  O  O50  1  0.14264200  0.49132500  0.75000000  1
  O  O51  1  0.65131700  0.14264200  0.25000000  1
  O  O52  1  0.49132500  0.34868300  0.25000000  1
  O  O53  1  0.50867500  0.65131700  0.75000000  1
  O  O54  1  0.34868300  0.85735800  0.75000000  1
  O  O55  1  0.85735800  0.50867500  0.25000000  1
  O  O56  1  0.33689200  0.54451000  0.50737200  1
  O  O57  1  0.79238200  0.33689200  0.00737200  1
  O  O58  1  0.54451000  0.20761800  0.00737200  1
  O  O59  1  0.45549000  0.79238200  0.50737200  1
  O  O60  1  0.20761800  0.66310800  0.50737200  1
  O  O61  1  0.66310800  0.45549000  0.00737200  1
  O  O62  1  0.66310800  0.45549000  0.49262800  1
  O  O63  1  0.20761800  0.66310800  0.99262800  1
  O  O64  1  0.45549000  0.79238200  0.99262800  1
  O  O65  1  0.54451000  0.20761800  0.49262800  1
  O  O66  1  0.79238200  0.33689200  0.49262800  1
  O  O67  1  0.33689200  0.54451000  0.99262800  1
  O  O68  1  0.01465100  0.39937400  0.41750300  1
  O  O69  1  0.61527600  0.01465100  0.91750300  1
  O  O70  1  0.39937400  0.38472400  0.91750300  1
  O  O71  1  0.60062600  0.61527600  0.41750300  1
  O  O72  1  0.38472400  0.98534900  0.41750300  1
  O  O73  1  0.98534900  0.60062600  0.91750300  1
  O  O74  1  0.98534900  0.60062600  0.58249700  1
  O  O75  1  0.38472400  0.98534900  0.08249700  1
  O  O76  1  0.60062600  0.61527600  0.08249700  1
  O  O77  1  0.39937400  0.38472400  0.58249700  1
  O  O78  1  0.61527600  0.01465100  0.58249700  1
  O  O79  1  0.01465100  0.39937400  0.08249700  1
  O  O80  1  0.17814600  0.42919000  0.25000000  1
  O  O81  1  0.74895600  0.17814600  0.75000000  1
  O  O82  1  0.42919000  0.25104400  0.75000000  1
  O  O83  1  0.57081000  0.74895600  0.25000000  1
  O  O84  1  0.25104400  0.82185400  0.25000000  1
  O  O85  1  0.82185400  0.57081000  0.75000000  1
  F  F86  1  0.04131500  0.20027100  0.39875000  1
  F  F87  1  0.84104400  0.04131500  0.89875000  1
  F  F88  1  0.20027100  0.15895600  0.89875000  1
  F  F89  1  0.79972900  0.84104400  0.39875000  1
  F  F90  1  0.15895600  0.95868500  0.39875000  1
  F  F91  1  0.95868500  0.79972900  0.89875000  1
  F  F92  1  0.95868500  0.79972900  0.60125000  1
  F  F93  1  0.15895600  0.95868500  0.10125000  1
  F  F94  1  0.79972900  0.84104400  0.10125000  1
  F  F95  1  0.20027100  0.15895600  0.60125000  1
  F  F96  1  0.84104400  0.04131500  0.60125000  1
  F  F97  1  0.04131500  0.20027100  0.10125000  1
  F  F98  1  0.89476500  0.17462500  0.25000000  1
  F  F99  1  0.72014000  0.89476500  0.75000000  1
  F  F100  1  0.17462500  0.27986000  0.75000000  1
  F  F101  1  0.82537500  0.72014000  0.25000000  1
  F  F102  1  0.27986000  0.10523500  0.25000000  1
  F  F103  1  0.10523500  0.82537500  0.75000000  1
