# generated using pymatgen
data_KMo5O13
_symmetry_space_group_name_H-M   'P 1'
_cell_length_a   5.71129872
_cell_length_b   5.71129872
_cell_length_c   16.94906400
_cell_angle_alpha   90.00000000
_cell_angle_beta   90.00000000
_cell_angle_gamma   106.72961559
_symmetry_Int_Tables_number   1
_chemical_formula_structural   KMo5O13
_chemical_formula_sum   'K2 Mo10 O26'
_cell_volume   529.45992315
_cell_formula_units_Z   2
loop_
 _symmetry_equiv_pos_site_id
 _symmetry_equiv_pos_as_xyz
  1  'x, y, z'
loop_
 _atom_site_type_symbol
 _atom_site_label
 _atom_site_symmetry_multiplicity
 _atom_site_fract_x
 _atom_site_fract_y
 _atom_site_fract_z
 _atom_site_occupancy
  K  K0  1  0.13937900  0.86062100  0.75000000  1
  K  K1  1  0.86062100  0.13937900  0.25000000  1
  Mo  Mo2  1  0.00000000  0.00000000  0.00000000  1
  Mo  Mo3  1  0.00000000  0.00000000  0.50000000  1
  Mo  Mo4  1  0.22789500  0.77210500  0.13749400  1
  Mo  Mo5  1  0.77210500  0.22789500  0.63749400  1
  Mo  Mo6  1  0.77210500  0.22789500  0.86250600  1
  Mo  Mo7  1  0.22789500  0.77210500  0.36250600  1
  Mo  Mo8  1  0.38181600  0.61818400  0.92787600  1
  Mo  Mo9  1  0.61818400  0.38181600  0.42787600  1
  Mo  Mo10  1  0.61818400  0.38181600  0.07212400  1
  Mo  Mo11  1  0.38181600  0.61818400  0.57212400  1
  O  O12  1  0.18482300  0.81517700  0.25000000  1
  O  O13  1  0.81517700  0.18482300  0.75000000  1
  O  O14  1  0.50787900  0.90895900  0.86974600  1
  O  O15  1  0.49212100  0.09104100  0.36974600  1
  O  O16  1  0.90895900  0.50787900  0.13025400  1
  O  O17  1  0.09104100  0.49212100  0.63025400  1
  O  O18  1  0.49212100  0.09104100  0.13025400  1
  O  O19  1  0.50787900  0.90895900  0.63025400  1
  O  O20  1  0.09104100  0.49212100  0.86974600  1
  O  O21  1  0.90895900  0.50787900  0.36974600  1
  O  O22  1  0.69229300  0.69229300  0.00000000  1
  O  O23  1  0.30770700  0.30770700  0.50000000  1
  O  O24  1  0.30770700  0.30770700  0.00000000  1
  O  O25  1  0.69229300  0.69229300  0.50000000  1
  O  O26  1  0.22361600  0.77638400  0.00995500  1
  O  O27  1  0.77638400  0.22361600  0.50995500  1
  O  O28  1  0.77638400  0.22361600  0.99004500  1
  O  O29  1  0.22361600  0.77638400  0.49004500  1
  O  O30  1  0.57270700  0.42729300  0.86165300  1
  O  O31  1  0.42729300  0.57270700  0.36165300  1
  O  O32  1  0.42729300  0.57270700  0.13834700  1
  O  O33  1  0.57270700  0.42729300  0.63834700  1
  O  O34  1  0.00830700  0.99169300  0.11079500  1
  O  O35  1  0.99169300  0.00830700  0.61079500  1
  O  O36  1  0.99169300  0.00830700  0.88920500  1
  O  O37  1  0.00830700  0.99169300  0.38920500  1
