# generated using pymatgen
data_NaV2O5
_symmetry_space_group_name_H-M   'P 1'
_cell_length_a   3.65155127
_cell_length_b   5.10106801
_cell_length_c   11.46721959
_cell_angle_alpha   90.00649333
_cell_angle_beta   89.99646723
_cell_angle_gamma   90.00526555
_symmetry_Int_Tables_number   1
_chemical_formula_structural   NaV2O5
_chemical_formula_sum   'Na2 V4 O10'
_cell_volume   213.59773360
_cell_formula_units_Z   2
loop_
 _symmetry_equiv_pos_site_id
 _symmetry_equiv_pos_as_xyz
  1  'x, y, z'
loop_
 _atom_site_type_symbol
 _atom_site_label
 _atom_site_symmetry_multiplicity
 _atom_site_fract_x
 _atom_site_fract_y
 _atom_site_fract_z
 _atom_site_occupancy
  Na  Na0  1  0.00000200  0.86673900  0.01154400  1
  Na  Na1  1  0.49984400  0.13524100  0.51184100  1
  V  V2  1  0.50011600  0.39123300  0.15109000  1
  V  V3  1  0.00008500  0.59756100  0.34899700  1
  V  V4  1  0.49984700  0.40468800  0.84908900  1
  V  V5  1  0.99999100  0.61079400  0.65111400  1
  O  O6  1  0.50000900  0.53592000  0.99283100  1
  O  O7  1  0.99997600  0.46630200  0.49274600  1
  O  O8  1  0.99990200  0.50971100  0.82084400  1
  O  O9  1  0.00011300  0.52116300  0.17825000  1
  O  O10  1  0.49996500  0.48116700  0.67836300  1
  O  O11  1  0.50006300  0.49233900  0.32075700  1
  O  O12  1  0.49970400  0.08608100  0.86716200  1
  O  O13  1  0.50023300  0.06984100  0.12896200  1
  O  O14  1  0.00008600  0.93221100  0.62912200  1
  O  O15  1  0.00006300  0.91611000  0.36728900  1
