# generated using pymatgen
data_TaO2
_symmetry_space_group_name_H-M   'P 1'
_cell_length_a   10.22760131
_cell_length_b   10.22760131
_cell_length_c   10.22760131
_cell_angle_alpha   94.97482101
_cell_angle_beta   94.97482101
_cell_angle_gamma   145.74738885
_symmetry_Int_Tables_number   1
_chemical_formula_structural   TaO2
_chemical_formula_sum   'Ta16 O32'
_cell_volume   575.45423323
_cell_formula_units_Z   16
loop_
 _symmetry_equiv_pos_site_id
 _symmetry_equiv_pos_as_xyz
  1  'x, y, z'
loop_
 _atom_site_type_symbol
 _atom_site_label
 _atom_site_symmetry_multiplicity
 _atom_site_fract_x
 _atom_site_fract_y
 _atom_site_fract_z
 _atom_site_occupancy
  Ta  Ta0  1  0.78340200  0.27585200  0.75718300  1
  Ta  Ta1  1  0.52585200  0.26866900  0.99245000  1
  Ta  Ta2  1  0.27621900  0.53340200  0.00755000  1
  Ta  Ta3  1  0.51866900  0.02621900  0.24281700  1
  Ta  Ta4  1  0.46659800  0.47414800  0.74281700  1
  Ta  Ta5  1  0.72414800  0.48133100  0.50755000  1
  Ta  Ta6  1  0.97378100  0.21659800  0.49245000  1
  Ta  Ta7  1  0.73133100  0.72378100  0.25718300  1
  Ta  Ta8  1  0.21448600  0.72642000  0.74116100  1
  Ta  Ta9  1  0.97642000  0.73525900  0.01193400  1
  Ta  Ta10  1  0.72332500  0.96448600  0.98806600  1
  Ta  Ta11  1  0.98525900  0.47332500  0.25883900  1
  Ta  Ta12  1  0.03551400  0.02358000  0.75883900  1
  Ta  Ta13  1  0.27358000  0.01474100  0.48806600  1
  Ta  Ta14  1  0.52667500  0.78551400  0.51193400  1
  Ta  Ta15  1  0.26474100  0.27667500  0.24116100  1
  O  O16  1  0.39361100  0.75686200  0.88784500  1
  O  O17  1  0.00686200  0.61901800  0.86325100  1
  O  O18  1  0.75576700  0.14361100  0.13674900  1
  O  O19  1  0.86901800  0.50576700  0.11215500  1
  O  O20  1  0.85638900  0.99313800  0.61215500  1
  O  O21  1  0.24313800  0.13098200  0.63674900  1
  O  O22  1  0.49423300  0.60638900  0.36325100  1
  O  O23  1  0.38098200  0.24423300  0.38784500  1
  O  O24  1  0.89852200  0.24898200  0.89906000  1
  O  O25  1  0.49898200  0.09992200  0.85046000  1
  O  O26  1  0.24946200  0.64852200  0.14954000  1
  O  O27  1  0.34992200  0.99946200  0.10094000  1
  O  O28  1  0.35147800  0.50101800  0.60094000  1
  O  O29  1  0.75101800  0.65007800  0.64954000  1
  O  O30  1  0.00053800  0.10147800  0.35046000  1
  O  O31  1  0.90007800  0.75053800  0.39906000  1
  O  O32  1  0.62767500  0.76381000  0.11060700  1
  O  O33  1  0.01381000  0.40320300  0.63613600  1
  O  O34  1  0.76706800  0.37767500  0.36386400  1
  O  O35  1  0.65320300  0.51706800  0.88939300  1
  O  O36  1  0.62232500  0.98619000  0.38939300  1
  O  O37  1  0.23619000  0.34679700  0.86386400  1
  O  O38  1  0.48293200  0.37232500  0.13613600  1
  O  O39  1  0.59679700  0.23293200  0.61060700  1
  O  O40  1  0.09187000  0.24554500  0.09910400  1
  O  O41  1  0.49554500  0.89644100  0.65367400  1
  O  O42  1  0.24276700  0.84187000  0.34632600  1
  O  O43  1  0.14644100  0.99276700  0.90089600  1
  O  O44  1  0.15813000  0.50445500  0.40089600  1
  O  O45  1  0.75445500  0.85355900  0.84632600  1
  O  O46  1  0.00723300  0.90813000  0.15367400  1
  O  O47  1  0.10355900  0.75723300  0.59910400  1
