# generated using pymatgen
data_CeMo5O8
_symmetry_space_group_name_H-M   'P 1'
_cell_length_a   9.39019900
_cell_length_b   8.46972000
_cell_length_c   10.80961526
_cell_angle_alpha   69.19167420
_cell_angle_beta   90.00000000
_cell_angle_gamma   90.00000000
_symmetry_Int_Tables_number   1
_chemical_formula_structural   CeMo5O8
_chemical_formula_sum   'Ce4 Mo20 O32'
_cell_volume   803.63851153
_cell_formula_units_Z   4
loop_
 _symmetry_equiv_pos_site_id
 _symmetry_equiv_pos_as_xyz
  1  'x, y, z'
loop_
 _atom_site_type_symbol
 _atom_site_label
 _atom_site_symmetry_multiplicity
 _atom_site_fract_x
 _atom_site_fract_y
 _atom_site_fract_z
 _atom_site_occupancy
  Ce  Ce0  1  0.47598200  0.71935100  0.50719700  1
  Ce  Ce1  1  0.97598200  0.28064900  0.99280300  1
  Ce  Ce2  1  0.52401800  0.28064900  0.49280300  1
  Ce  Ce3  1  0.02401800  0.71935100  0.00719700  1
  Mo  Mo4  1  0.14726900  0.39608700  0.48223200  1
  Mo  Mo5  1  0.64726900  0.60391300  0.01776800  1
  Mo  Mo6  1  0.85273100  0.60391300  0.51776800  1
  Mo  Mo7  1  0.35273100  0.39608700  0.98223200  1
  Mo  Mo8  1  0.13119200  0.58672300  0.69506400  1
  Mo  Mo9  1  0.63119200  0.41327700  0.80493600  1
  Mo  Mo10  1  0.86880800  0.41327700  0.30493600  1
  Mo  Mo11  1  0.36880800  0.58672300  0.19506400  1
  Mo  Mo12  1  0.12384700  0.80702000  0.36387000  1
  Mo  Mo13  1  0.62384700  0.19298000  0.13613000  1
  Mo  Mo14  1  0.87615300  0.19298000  0.63613000  1
  Mo  Mo15  1  0.37615300  0.80702000  0.86387000  1
  Mo  Mo16  1  0.14902600  0.20432400  0.27800500  1
  Mo  Mo17  1  0.64902600  0.79567600  0.22199500  1
  Mo  Mo18  1  0.85097400  0.79567600  0.72199500  1
  Mo  Mo19  1  0.35097400  0.20432400  0.77800500  1
  Mo  Mo20  1  0.14671800  0.98832600  0.58826600  1
  Mo  Mo21  1  0.64671800  0.01167400  0.91173400  1
  Mo  Mo22  1  0.85328200  0.01167400  0.41173400  1
  Mo  Mo23  1  0.35328200  0.98832600  0.08826600  1
  O  O24  1  0.99021800  0.59012000  0.85307000  1
  O  O25  1  0.49021800  0.40988000  0.64693000  1
  O  O26  1  0.00978200  0.40988000  0.14693000  1
  O  O27  1  0.50978200  0.59012000  0.35307000  1
  O  O28  1  0.24759300  0.98420400  0.91394800  1
  O  O29  1  0.74759300  0.01579600  0.58605200  1
  O  O30  1  0.75240700  0.01579600  0.08605200  1
  O  O31  1  0.25240700  0.98420400  0.41394800  1
  O  O32  1  0.99907300  0.02700600  0.25391300  1
  O  O33  1  0.49907300  0.97299400  0.24608700  1
  O  O34  1  0.00092700  0.97299400  0.74608700  1
  O  O35  1  0.50092700  0.02700600  0.75391300  1
  O  O36  1  0.25477800  0.60676200  0.01193600  1
  O  O37  1  0.75477800  0.39323800  0.48806400  1
  O  O38  1  0.74522200  0.39323800  0.98806400  1
  O  O39  1  0.24522200  0.60676200  0.51193600  1
  O  O40  1  0.22530700  0.19071600  0.09938700  1
  O  O41  1  0.72530700  0.80928400  0.40061300  1
  O  O42  1  0.77469300  0.80928400  0.90061300  1
  O  O43  1  0.27469300  0.19071600  0.59938700  1
  O  O44  1  0.22635500  0.78287300  0.19793500  1
  O  O45  1  0.72635500  0.21712700  0.30206500  1
  O  O46  1  0.77364500  0.21712700  0.80206500  1
  O  O47  1  0.27364500  0.78287300  0.69793500  1
  O  O48  1  0.21302000  0.36944600  0.83628400  1
  O  O49  1  0.71302000  0.63055400  0.66371600  1
  O  O50  1  0.78698000  0.63055400  0.16371600  1
  O  O51  1  0.28698000  0.36944600  0.33628400  1
  O  O52  1  0.99852800  0.58756300  0.36538200  1
  O  O53  1  0.49852800  0.41243700  0.13461800  1
  O  O54  1  0.00147200  0.41243700  0.63461800  1
  O  O55  1  0.50147200  0.58756300  0.86538200  1
