# generated using pymatgen
data_BaTm2NiO5
_symmetry_space_group_name_H-M   'P 1'
_cell_length_a   5.67570700
_cell_length_b   7.01012200
_cell_length_c   12.24473600
_cell_angle_alpha   90.00000000
_cell_angle_beta   90.00000000
_cell_angle_gamma   90.00000000
_symmetry_Int_Tables_number   1
_chemical_formula_structural   BaTm2NiO5
_chemical_formula_sum   'Ba4 Tm8 Ni4 O20'
_cell_volume   487.18619084
_cell_formula_units_Z   4
loop_
 _symmetry_equiv_pos_site_id
 _symmetry_equiv_pos_as_xyz
  1  'x, y, z'
loop_
 _atom_site_type_symbol
 _atom_site_label
 _atom_site_symmetry_multiplicity
 _atom_site_fract_x
 _atom_site_fract_y
 _atom_site_fract_z
 _atom_site_occupancy
  Ba  Ba0  1  0.25000000  0.92464700  0.90205300  1
  Ba  Ba1  1  0.75000000  0.07535300  0.09794700  1
  Ba  Ba2  1  0.75000000  0.42464700  0.59794700  1
  Ba  Ba3  1  0.25000000  0.57535300  0.40205300  1
  Tm  Tm4  1  0.25000000  0.11943200  0.29150500  1
  Tm  Tm5  1  0.75000000  0.88056800  0.70849500  1
  Tm  Tm6  1  0.75000000  0.61943200  0.20849500  1
  Tm  Tm7  1  0.25000000  0.38056800  0.79150500  1
  Tm  Tm8  1  0.25000000  0.39838800  0.07377000  1
  Tm  Tm9  1  0.75000000  0.60161200  0.92623000  1
  Tm  Tm10  1  0.75000000  0.89838800  0.42623000  1
  Tm  Tm11  1  0.25000000  0.10161200  0.57377000  1
  Ni  Ni12  1  0.25000000  0.69738700  0.65575000  1
  Ni  Ni13  1  0.75000000  0.30261300  0.34425000  1
  Ni  Ni14  1  0.75000000  0.19738700  0.84425000  1
  Ni  Ni15  1  0.25000000  0.80261300  0.15575000  1
  O  O16  1  0.99782500  0.16487900  0.43421000  1
  O  O17  1  0.49782500  0.83512100  0.56579000  1
  O  O18  1  0.00217500  0.66487900  0.06579000  1
  O  O19  1  0.50217500  0.33512100  0.93421000  1
  O  O20  1  0.00217500  0.83512100  0.56579000  1
  O  O21  1  0.50217500  0.16487900  0.43421000  1
  O  O22  1  0.99782500  0.33512100  0.93421000  1
  O  O23  1  0.49782500  0.66487900  0.06579000  1
  O  O24  1  0.49959400  0.36149800  0.22527800  1
  O  O25  1  0.99959400  0.63850200  0.77472200  1
  O  O26  1  0.50040600  0.86149800  0.27472200  1
  O  O27  1  0.00040600  0.13850200  0.72527800  1
  O  O28  1  0.50040600  0.63850200  0.77472200  1
  O  O29  1  0.00040600  0.36149800  0.22527800  1
  O  O30  1  0.49959400  0.13850200  0.72527800  1
  O  O31  1  0.99959400  0.86149800  0.27472200  1
  O  O32  1  0.25000000  0.07549700  0.10358200  1
  O  O33  1  0.75000000  0.92450300  0.89641800  1
  O  O34  1  0.75000000  0.57549700  0.39641800  1
  O  O35  1  0.25000000  0.42450300  0.60358200  1
