# generated using pymatgen
data_BaGd2Mn2O7
_symmetry_space_group_name_H-M   'P 1'
_cell_length_a   5.54418800
_cell_length_b   5.54418800
_cell_length_c   20.09860100
_cell_angle_alpha   90.00000000
_cell_angle_beta   90.00000000
_cell_angle_gamma   90.00000000
_symmetry_Int_Tables_number   1
_chemical_formula_structural   BaGd2Mn2O7
_chemical_formula_sum   'Ba4 Gd8 Mn8 O28'
_cell_volume   617.79121115
_cell_formula_units_Z   4
loop_
 _symmetry_equiv_pos_site_id
 _symmetry_equiv_pos_as_xyz
  1  'x, y, z'
loop_
 _atom_site_type_symbol
 _atom_site_label
 _atom_site_symmetry_multiplicity
 _atom_site_fract_x
 _atom_site_fract_y
 _atom_site_fract_z
 _atom_site_occupancy
  Ba  Ba0  1  0.24402800  0.24402800  0.00000000  1
  Ba  Ba1  1  0.25597200  0.74402800  0.50000000  1
  Ba  Ba2  1  0.74402800  0.25597200  0.50000000  1
  Ba  Ba3  1  0.75597200  0.75597200  0.00000000  1
  Gd  Gd4  1  0.22873100  0.22873100  0.18366000  1
  Gd  Gd5  1  0.27126900  0.72873100  0.68366000  1
  Gd  Gd6  1  0.72873100  0.27126900  0.68366000  1
  Gd  Gd7  1  0.72873100  0.27126900  0.31634000  1
  Gd  Gd8  1  0.27126900  0.72873100  0.31634000  1
  Gd  Gd9  1  0.77126900  0.77126900  0.18366000  1
  Gd  Gd10  1  0.22873100  0.22873100  0.81634000  1
  Gd  Gd11  1  0.77126900  0.77126900  0.81634000  1
  Mn  Mn12  1  0.24632700  0.24632700  0.39784100  1
  Mn  Mn13  1  0.25367300  0.74632700  0.89784100  1
  Mn  Mn14  1  0.74632700  0.25367300  0.89784100  1
  Mn  Mn15  1  0.74632700  0.25367300  0.10215900  1
  Mn  Mn16  1  0.25367300  0.74632700  0.10215900  1
  Mn  Mn17  1  0.75367300  0.75367300  0.39784100  1
  Mn  Mn18  1  0.24632700  0.24632700  0.60215900  1
  Mn  Mn19  1  0.75367300  0.75367300  0.60215900  1
  O  O20  1  0.27408000  0.72592000  0.00000000  1
  O  O21  1  0.77408000  0.77408000  0.50000000  1
  O  O22  1  0.22592000  0.22592000  0.50000000  1
  O  O23  1  0.72592000  0.27408000  0.00000000  1
  O  O24  1  0.00000000  0.50000000  0.38765000  1
  O  O25  1  0.00000000  0.50000000  0.88765000  1
  O  O26  1  0.50000000  0.00000000  0.11235000  1
  O  O27  1  0.50000000  0.00000000  0.61235000  1
  O  O28  1  0.00000000  0.50000000  0.61235000  1
  O  O29  1  0.00000000  0.50000000  0.11235000  1
  O  O30  1  0.50000000  0.00000000  0.88765000  1
  O  O31  1  0.50000000  0.00000000  0.38765000  1
  O  O32  1  0.00000000  0.00000000  0.09955700  1
  O  O33  1  0.50000000  0.50000000  0.59955700  1
  O  O34  1  0.50000000  0.50000000  0.40044300  1
  O  O35  1  0.00000000  0.00000000  0.90044300  1
  O  O36  1  0.00000000  0.00000000  0.37539700  1
  O  O37  1  0.50000000  0.50000000  0.87539700  1
  O  O38  1  0.50000000  0.50000000  0.12460300  1
  O  O39  1  0.00000000  0.00000000  0.62460300  1
  O  O40  1  0.29819600  0.29819600  0.29165000  1
  O  O41  1  0.20180400  0.79819600  0.79165000  1
  O  O42  1  0.79819600  0.20180400  0.79165000  1
  O  O43  1  0.79819600  0.20180400  0.20835000  1
  O  O44  1  0.20180400  0.79819600  0.20835000  1
  O  O45  1  0.70180400  0.70180400  0.29165000  1
  O  O46  1  0.29819600  0.29819600  0.70835000  1
  O  O47  1  0.70180400  0.70180400  0.70835000  1
