# generated using pymatgen
data_Dy2Te4O11
_symmetry_space_group_name_H-M   'P 1'
_cell_length_a   6.76458928
_cell_length_b   6.76458928
_cell_length_c   16.30714463
_cell_angle_alpha   75.84899007
_cell_angle_beta   75.84899007
_cell_angle_gamma   44.99493493
_symmetry_Int_Tables_number   1
_chemical_formula_structural   Dy2Te4O11
_chemical_formula_sum   'Dy4 Te8 O22'
_cell_volume   508.79605974
_cell_formula_units_Z   2
loop_
 _symmetry_equiv_pos_site_id
 _symmetry_equiv_pos_as_xyz
  1  'x, y, z'
loop_
 _atom_site_type_symbol
 _atom_site_label
 _atom_site_symmetry_multiplicity
 _atom_site_fract_x
 _atom_site_fract_y
 _atom_site_fract_z
 _atom_site_occupancy
  Dy  Dy0  1  0.36918400  0.86915100  0.46289300  1
  Dy  Dy1  1  0.86915100  0.36918400  0.96289300  1
  Dy  Dy2  1  0.13084900  0.63081600  0.03710700  1
  Dy  Dy3  1  0.63081600  0.13084900  0.53710700  1
  Te  Te4  1  0.59998900  0.15683000  0.19839600  1
  Te  Te5  1  0.15683000  0.59998900  0.69839600  1
  Te  Te6  1  0.84317000  0.40001100  0.30160400  1
  Te  Te7  1  0.58940000  0.15367100  0.87469900  1
  Te  Te8  1  0.40001100  0.84317000  0.80160400  1
  Te  Te9  1  0.41060000  0.84632900  0.12530100  1
  Te  Te10  1  0.84632900  0.41060000  0.62530100  1
  Te  Te11  1  0.15367100  0.58940000  0.37469900  1
  O  O12  1  0.20627300  0.09167600  0.33271400  1
  O  O13  1  0.44630000  0.60226100  0.90385700  1
  O  O14  1  0.18998200  0.31525700  0.62755500  1
  O  O15  1  0.82345400  0.03790400  0.95508800  1
  O  O16  1  0.55370000  0.39773900  0.09614300  1
  O  O17  1  0.03790400  0.82345400  0.45508800  1
  O  O18  1  0.75290100  0.66285700  0.05227300  1
  O  O19  1  0.31525700  0.18998200  0.12755500  1
  O  O20  1  0.66285700  0.75290100  0.55227300  1
  O  O21  1  0.24709900  0.33714300  0.94772700  1
  O  O22  1  0.85457100  0.14542900  0.25000000  1
  O  O23  1  0.33714300  0.24709900  0.44772700  1
  O  O24  1  0.39773900  0.55370000  0.59614300  1
  O  O25  1  0.60226100  0.44630000  0.40385700  1
  O  O26  1  0.79372700  0.90832400  0.66728600  1
  O  O27  1  0.14542900  0.85457100  0.75000000  1
  O  O28  1  0.68474300  0.81001800  0.87244500  1
  O  O29  1  0.17654600  0.96209600  0.04491200  1
  O  O30  1  0.09167600  0.20627300  0.83271400  1
  O  O31  1  0.90832400  0.79372700  0.16728600  1
  O  O32  1  0.81001800  0.68474300  0.37244500  1
  O  O33  1  0.96209600  0.17654600  0.54491200  1
