# generated using pymatgen
data_Ba2CdGe
_symmetry_space_group_name_H-M   'P 1'
_cell_length_a   13.84320446
_cell_length_b   13.84320446
_cell_length_c   13.84320446
_cell_angle_alpha   121.38990331
_cell_angle_beta   119.48548336
_cell_angle_gamma   89.25156756
_symmetry_Int_Tables_number   1
_chemical_formula_structural   Ba2CdGe
_chemical_formula_sum   'Ba2 Cd1 Ge1'
_cell_volume   1862.59995018
_cell_formula_units_Z   1
loop_
 _symmetry_equiv_pos_site_id
 _symmetry_equiv_pos_as_xyz
  1  'x, y, z'
loop_
 _atom_site_type_symbol
 _atom_site_label
 _atom_site_symmetry_multiplicity
 _atom_site_fract_x
 _atom_site_fract_y
 _atom_site_fract_z
 _atom_site_occupancy
  Ba  Ba0  1  0.00000000  0.21691500  0.21691500  1
  Ba  Ba1  1  0.00000000  0.78308500  0.78308500  1
  Cd  Cd2  1  0.00000000  0.50000000  0.50000000  1
  Ge  Ge3  1  0.00000000  0.00000000  0.00000000  1
