# generated using pymatgen
data_Fe2CoAs2(H5O7)2
_symmetry_space_group_name_H-M   'P 1'
_cell_length_a   9.69253300
_cell_length_b   5.63784400
_cell_length_c   10.44336938
_cell_angle_alpha   86.03207171
_cell_angle_beta   90.00000000
_cell_angle_gamma   90.00000000
_symmetry_Int_Tables_number   1
_chemical_formula_structural   Fe2CoAs2(H5O7)2
_chemical_formula_sum   'Fe4 Co2 As4 H20 O28'
_cell_volume   569.30985631
_cell_formula_units_Z   2
loop_
 _symmetry_equiv_pos_site_id
 _symmetry_equiv_pos_as_xyz
  1  'x, y, z'
loop_
 _atom_site_type_symbol
 _atom_site_label
 _atom_site_symmetry_multiplicity
 _atom_site_fract_x
 _atom_site_fract_y
 _atom_site_fract_z
 _atom_site_occupancy
  Fe  Fe0  1  0.86424100  0.33836900  0.54937900  1
  Fe  Fe1  1  0.36424100  0.16163100  0.45062100  1
  Fe  Fe2  1  0.13575900  0.66163100  0.45062100  1
  Fe  Fe3  1  0.63575900  0.83836900  0.54937900  1
  Co  Co4  1  0.00000000  0.00000000  0.00000000  1
  Co  Co5  1  0.50000000  0.50000000  0.00000000  1
  As  As6  1  0.56840000  0.32753900  0.70644500  1
  As  As7  1  0.06840000  0.17246100  0.29355500  1
  As  As8  1  0.43160000  0.67246100  0.29355500  1
  As  As9  1  0.93160000  0.82753900  0.70644500  1
  H  H10  1  0.84151900  0.98242300  0.41770700  1
  H  H11  1  0.34151900  0.51757700  0.58229300  1
  H  H12  1  0.15848100  0.01757700  0.58229300  1
  H  H13  1  0.65848100  0.48242300  0.41770700  1
  H  H14  1  0.08456800  0.24161600  0.78589100  1
  H  H15  1  0.58456800  0.25838400  0.21410900  1
  H  H16  1  0.91543200  0.75838400  0.21410900  1
  H  H17  1  0.41543200  0.74161600  0.78589100  1
  H  H18  1  0.05797400  0.45348500  0.87412300  1
  H  H19  1  0.55797400  0.04651500  0.12587700  1
  H  H20  1  0.94202600  0.54651500  0.12587700  1
  H  H21  1  0.44202600  0.95348500  0.87412300  1
  H  H22  1  0.78725900  0.21579200  0.87176200  1
  H  H23  1  0.28725900  0.28420800  0.12823800  1
  H  H24  1  0.21274100  0.78420800  0.12823800  1
  H  H25  1  0.71274100  0.71579200  0.87176200  1
  H  H26  1  0.74723100  0.18016000  0.02115700  1
  H  H27  1  0.24723100  0.31984000  0.97884300  1
  H  H28  1  0.25276900  0.81984000  0.97884300  1
  H  H29  1  0.75276900  0.68016000  0.02115700  1
  O  O30  1  0.51342700  0.11974400  0.59962800  1
  O  O31  1  0.01342700  0.38025600  0.40037200  1
  O  O32  1  0.48657300  0.88025600  0.40037200  1
  O  O33  1  0.98657300  0.61974400  0.59962800  1
  O  O34  1  0.50465500  0.60354200  0.65001700  1
  O  O35  1  0.00465500  0.89645800  0.34998300  1
  O  O36  1  0.49534500  0.39645800  0.34998300  1
  O  O37  1  0.99534500  0.10354200  0.65001700  1
  O  O38  1  0.50078600  0.25427700  0.85403700  1
  O  O39  1  0.00078600  0.24572300  0.14596300  1
  O  O40  1  0.49921400  0.74572300  0.14596300  1
  O  O41  1  0.99921400  0.75427700  0.85403700  1
  O  O42  1  0.74619300  0.31972700  0.70974800  1
  O  O43  1  0.24619300  0.18027300  0.29025200  1
  O  O44  1  0.25380700  0.68027300  0.29025200  1
  O  O45  1  0.75380700  0.81972700  0.70974800  1
  O  O46  1  0.77188400  0.07060600  0.46538200  1
  O  O47  1  0.27188400  0.42939400  0.53461800  1
  O  O48  1  0.22811600  0.92939400  0.53461800  1
  O  O49  1  0.72811600  0.57060600  0.46538200  1
  O  O50  1  0.09659400  0.28858900  0.87489200  1
  O  O51  1  0.59659400  0.21141100  0.12510800  1
  O  O52  1  0.90340600  0.71141100  0.12510800  1
  O  O53  1  0.40340600  0.78858900  0.87489200  1
  O  O54  1  0.80910300  0.12516600  0.95410200  1
  O  O55  1  0.30910300  0.37483400  0.04589800  1
  O  O56  1  0.19089700  0.87483400  0.04589800  1
  O  O57  1  0.69089700  0.62516600  0.95410200  1
