# generated using pymatgen
data_VCu3O4
_symmetry_space_group_name_H-M   'P 1'
_cell_length_a   5.56407841
_cell_length_b   5.56407841
_cell_length_c   5.56407841
_cell_angle_alpha   131.26644336
_cell_angle_beta   131.26644336
_cell_angle_gamma   71.39009693
_symmetry_Int_Tables_number   1
_chemical_formula_structural   VCu3O4
_chemical_formula_sum   'V1 Cu3 O4'
_cell_volume   95.25241197
_cell_formula_units_Z   1
loop_
 _symmetry_equiv_pos_site_id
 _symmetry_equiv_pos_as_xyz
  1  'x, y, z'
loop_
 _atom_site_type_symbol
 _atom_site_label
 _atom_site_symmetry_multiplicity
 _atom_site_fract_x
 _atom_site_fract_y
 _atom_site_fract_z
 _atom_site_occupancy
  V  V0  1  0.00000000  0.00000000  0.00000000  1
  Cu  Cu1  1  0.25000000  0.75000000  0.50000000  1
  Cu  Cu2  1  0.50000000  0.50000000  0.00000000  1
  Cu  Cu3  1  0.75000000  0.25000000  0.50000000  1
  O  O4  1  0.11159900  0.65947000  0.00000000  1
  O  O5  1  0.34053000  0.34053000  0.45212800  1
  O  O6  1  0.88840100  0.88840100  0.54787200  1
  O  O7  1  0.65947000  0.11159900  0.00000000  1
