# generated using pymatgen
data_Mn2ZnH12(NO2)4
_symmetry_space_group_name_H-M   'P 1'
_cell_length_a   7.45651313
_cell_length_b   7.45651313
_cell_length_c   7.45651313
_cell_angle_alpha   60.00000000
_cell_angle_beta   60.00000000
_cell_angle_gamma   60.00000000
_symmetry_Int_Tables_number   1
_chemical_formula_structural   Mn2ZnH12(NO2)4
_chemical_formula_sum   'Mn2 Zn1 H12 N4 O8'
_cell_volume   293.15166381
_cell_formula_units_Z   1
loop_
 _symmetry_equiv_pos_site_id
 _symmetry_equiv_pos_as_xyz
  1  'x, y, z'
loop_
 _atom_site_type_symbol
 _atom_site_label
 _atom_site_symmetry_multiplicity
 _atom_site_fract_x
 _atom_site_fract_y
 _atom_site_fract_z
 _atom_site_occupancy
  Mn  Mn0  1  0.50000000  0.50000000  0.50000000  1
  Mn  Mn1  1  0.25000000  0.25000000  0.25000000  1
  Zn  Zn2  1  0.00000000  0.00000000  0.00000000  1
  H  H3  1  0.01475500  0.79272500  0.79272500  1
  H  H4  1  0.39979400  0.79272500  0.01475500  1
  H  H5  1  0.79272500  0.39979400  0.79272500  1
  H  H6  1  0.79272500  0.79272500  0.39979400  1
  H  H7  1  0.39979400  0.01475500  0.79272500  1
  H  H8  1  0.79272500  0.01475500  0.39979400  1
  H  H9  1  0.79272500  0.39979400  0.01475500  1
  H  H10  1  0.79272500  0.01475500  0.79272500  1
  H  H11  1  0.79272500  0.79272500  0.01475500  1
  H  H12  1  0.01475500  0.39979400  0.79272500  1
  H  H13  1  0.01475500  0.79272500  0.39979400  1
  H  H14  1  0.39979400  0.79272500  0.79272500  1
  N  N15  1  0.88723500  0.88723500  0.88723500  1
  N  N16  1  0.33829400  0.88723500  0.88723500  1
  N  N17  1  0.88723500  0.33829400  0.88723500  1
  N  N18  1  0.88723500  0.88723500  0.33829400  1
  O  O19  1  0.58881500  0.58881500  0.58881500  1
  O  O20  1  0.23355500  0.58881500  0.58881500  1
  O  O21  1  0.58881500  0.23355500  0.58881500  1
  O  O22  1  0.58881500  0.58881500  0.23355500  1
  O  O23  1  0.16140700  0.16140700  0.16140700  1
  O  O24  1  0.51577800  0.16140700  0.16140700  1
  O  O25  1  0.16140700  0.51577800  0.16140700  1
  O  O26  1  0.16140700  0.16140700  0.51577800  1
