# generated using pymatgen
data_K2FeH12(SO7)2
_symmetry_space_group_name_H-M   'P 1'
_cell_length_a   12.44811400
_cell_length_b   6.25149700
_cell_length_c   9.09783141
_cell_angle_alpha   76.01476953
_cell_angle_beta   90.00000000
_cell_angle_gamma   90.00000000
_symmetry_Int_Tables_number   1
_chemical_formula_structural   K2FeH12(SO7)2
_chemical_formula_sum   'K4 Fe2 H24 S4 O28'
_cell_volume   687.00118238
_cell_formula_units_Z   2
loop_
 _symmetry_equiv_pos_site_id
 _symmetry_equiv_pos_as_xyz
  1  'x, y, z'
loop_
 _atom_site_type_symbol
 _atom_site_label
 _atom_site_symmetry_multiplicity
 _atom_site_fract_x
 _atom_site_fract_y
 _atom_site_fract_z
 _atom_site_occupancy
  K  K0  1  0.15408900  0.65465300  0.63512600  1
  K  K1  1  0.84591100  0.34534700  0.36487400  1
  K  K2  1  0.34591100  0.65465300  0.13512600  1
  K  K3  1  0.65408900  0.34534700  0.86487400  1
  Fe  Fe4  1  0.00000000  0.00000000  0.00000000  1
  Fe  Fe5  1  0.50000000  0.00000000  0.50000000  1
  H  H6  1  0.09041600  0.67162100  0.22288600  1
  H  H7  1  0.80722700  0.99816500  0.14590800  1
  H  H8  1  0.60480800  0.92712700  0.77456400  1
  H  H9  1  0.62532100  0.09643600  0.24624500  1
  H  H10  1  0.12532100  0.90356400  0.25375500  1
  H  H11  1  0.59041600  0.32837900  0.27711400  1
  H  H12  1  0.56338200  0.65908500  0.39558300  1
  H  H13  1  0.06338200  0.34091500  0.10441700  1
  H  H14  1  0.40958400  0.67162100  0.72288600  1
  H  H15  1  0.30722700  0.00183500  0.35409200  1
  H  H16  1  0.43661800  0.34091500  0.60441700  1
  H  H17  1  0.93661800  0.65908500  0.89558300  1
  H  H18  1  0.64617300  0.66740000  0.52809800  1
  H  H19  1  0.10480800  0.07287300  0.72543600  1
  H  H20  1  0.85382700  0.66740000  0.02809800  1
  H  H21  1  0.37467900  0.90356400  0.75375500  1
  H  H22  1  0.39519200  0.07287300  0.22543600  1
  H  H23  1  0.89519200  0.92712700  0.27456400  1
  H  H24  1  0.69277300  0.99816500  0.64590800  1
  H  H25  1  0.90958400  0.32837900  0.77711400  1
  H  H26  1  0.87467900  0.09643600  0.74624500  1
  H  H27  1  0.19277300  0.00183500  0.85409200  1
  H  H28  1  0.14617300  0.33260000  0.97190200  1
  H  H29  1  0.35382700  0.33260000  0.47190200  1
  S  S30  1  0.36236200  0.27287300  0.91038800  1
  S  S31  1  0.86236200  0.72712700  0.58961200  1
  S  S32  1  0.63763800  0.72712700  0.08961200  1
  S  S33  1  0.13763800  0.27287300  0.41038800  1
  O  O34  1  0.93668000  0.61818000  0.71528300  1
  O  O35  1  0.32812800  0.05145200  0.89027800  1
  O  O36  1  0.11865600  0.96817600  0.82559300  1
  O  O37  1  0.57011200  0.69862700  0.49464500  1
  O  O38  1  0.08054900  0.24837100  0.55696000  1
  O  O39  1  0.17187200  0.05145200  0.39027800  1
  O  O40  1  0.76614800  0.58177100  0.59468200  1
  O  O41  1  0.88134400  0.03182400  0.17440700  1
  O  O42  1  0.88660200  0.17574300  0.82691800  1
  O  O43  1  0.43668000  0.38182000  0.78471700  1
  O  O44  1  0.06332000  0.38182000  0.28471700  1
  O  O45  1  0.26614800  0.41822900  0.90531800  1
  O  O46  1  0.82812800  0.94854800  0.60972200  1
  O  O47  1  0.23385200  0.41822900  0.40531800  1
  O  O48  1  0.91945100  0.75162900  0.44304000  1
  O  O49  1  0.61339800  0.17574300  0.32691800  1
  O  O50  1  0.73385200  0.58177100  0.09468200  1
  O  O51  1  0.38134400  0.96817600  0.32559300  1
  O  O52  1  0.38660200  0.82425700  0.67308200  1
  O  O53  1  0.61865600  0.03182400  0.67440700  1
  O  O54  1  0.42988800  0.30137300  0.50535500  1
  O  O55  1  0.11339800  0.82425700  0.17308200  1
  O  O56  1  0.58054900  0.75162900  0.94304000  1
  O  O57  1  0.41945100  0.24837100  0.05696000  1
  O  O58  1  0.92988800  0.69862700  0.99464500  1
  O  O59  1  0.07011200  0.30137300  0.00535500  1
  O  O60  1  0.67187200  0.94854800  0.10972200  1
  O  O61  1  0.56332000  0.61818000  0.21528300  1
