# generated using pymatgen
data_SrV3O7
_symmetry_space_group_name_H-M   'P 1'
_cell_length_a   5.36933100
_cell_length_b   5.66598700
_cell_length_c   10.61440500
_cell_angle_alpha   89.99998449
_cell_angle_beta   90.00002147
_cell_angle_gamma   89.99997922
_symmetry_Int_Tables_number   1
_chemical_formula_structural   SrV3O7
_chemical_formula_sum   'Sr2 V6 O14'
_cell_volume   322.91736921
_cell_formula_units_Z   2
loop_
 _symmetry_equiv_pos_site_id
 _symmetry_equiv_pos_as_xyz
  1  'x, y, z'
loop_
 _atom_site_type_symbol
 _atom_site_label
 _atom_site_symmetry_multiplicity
 _atom_site_fract_x
 _atom_site_fract_y
 _atom_site_fract_z
 _atom_site_occupancy
  Sr  Sr0  1  0.25000000  0.14553600  0.25000000  1
  Sr  Sr1  1  0.75000000  0.85449100  0.75000000  1
  V  V2  1  0.75000000  0.57695800  0.25000000  1
  V  V3  1  0.75000000  0.38378200  0.98008300  1
  V  V4  1  0.75000000  0.38378200  0.51991700  1
  V  V5  1  0.25000000  0.42289800  0.75000000  1
  V  V6  1  0.25000000  0.61626700  0.01986500  1
  V  V7  1  0.25000000  0.61626700  0.48013500  1
  O  O8  1  0.75000000  0.86997000  0.25000000  1
  O  O9  1  0.25000000  0.12979900  0.75000000  1
  O  O10  1  0.25000000  0.89886800  0.05999900  1
  O  O11  1  0.75000000  0.10117900  0.93997400  1
  O  O12  1  0.75000000  0.10117900  0.56002600  1
  O  O13  1  0.25000000  0.89886800  0.44000100  1
  O  O14  1  0.51311300  0.45197900  0.11970000  1
  O  O15  1  0.01312500  0.54806000  0.88026200  1
  O  O16  1  0.48687500  0.54806000  0.61973800  1
  O  O17  1  0.98688800  0.45197900  0.38030000  1
  O  O18  1  0.48687500  0.54806000  0.88026200  1
  O  O19  1  0.98688800  0.45197900  0.11970000  1
  O  O20  1  0.51311200  0.45197900  0.38030000  1
  O  O21  1  0.01312500  0.54806000  0.61973800  1
