# generated using pymatgen
data_BaSi2O5
_symmetry_space_group_name_H-M   'P 1'
_cell_length_a   11.99362210
_cell_length_b   11.99362210
_cell_length_c   13.82168649
_cell_angle_alpha   82.78279207
_cell_angle_beta   82.78279207
_cell_angle_gamma   22.74948094
_symmetry_Int_Tables_number   1
_chemical_formula_structural   BaSi2O5
_chemical_formula_sum   'Ba6 Si12 O30'
_cell_volume   762.50600462
_cell_formula_units_Z   6
loop_
 _symmetry_equiv_pos_site_id
 _symmetry_equiv_pos_as_xyz
  1  'x, y, z'
loop_
 _atom_site_type_symbol
 _atom_site_label
 _atom_site_symmetry_multiplicity
 _atom_site_fract_x
 _atom_site_fract_y
 _atom_site_fract_z
 _atom_site_occupancy
  Ba  Ba0  1  0.38307600  0.28983700  0.43539300  1
  Ba  Ba1  1  0.71016300  0.61692400  0.06460700  1
  Ba  Ba2  1  0.61692400  0.71016300  0.56460700  1
  Ba  Ba3  1  0.28983700  0.38307600  0.93539300  1
  Ba  Ba4  1  0.00000000  0.00000000  0.00000000  1
  Ba  Ba5  1  0.00000000  0.00000000  0.50000000  1
  Si  Si6  1  0.37730400  0.14796700  0.17960700  1
  Si  Si7  1  0.85203300  0.62269600  0.32039300  1
  Si  Si8  1  0.62269600  0.85203300  0.82039300  1
  Si  Si9  1  0.14796700  0.37730400  0.67960700  1
  Si  Si10  1  0.48203600  0.31332400  0.15043000  1
  Si  Si11  1  0.68667600  0.51796400  0.34957000  1
  Si  Si12  1  0.51796400  0.68667600  0.84957000  1
  Si  Si13  1  0.31332400  0.48203600  0.65043000  1
  Si  Si14  1  0.03538500  0.83137700  0.27073400  1
  Si  Si15  1  0.16862300  0.96461500  0.22926600  1
  Si  Si16  1  0.96461500  0.16862300  0.72926600  1
  Si  Si17  1  0.83137700  0.03538500  0.77073400  1
  O  O18  1  0.18845400  0.33599400  0.28056900  1
  O  O19  1  0.66400600  0.81154600  0.21943100  1
  O  O20  1  0.81154600  0.66400600  0.71943100  1
  O  O21  1  0.33599400  0.18845400  0.78056900  1
  O  O22  1  0.23249700  0.22539000  0.09403700  1
  O  O23  1  0.77461000  0.76750300  0.40596300  1
  O  O24  1  0.76750300  0.77461000  0.90596300  1
  O  O25  1  0.22539000  0.23249700  0.59403700  1
  O  O26  1  0.49296200  0.16871900  0.13525800  1
  O  O27  1  0.83128100  0.50703800  0.36474200  1
  O  O28  1  0.50703800  0.83128100  0.86474200  1
  O  O29  1  0.16871900  0.49296200  0.63525800  1
  O  O30  1  0.39710400  0.46257200  0.04995900  1
  O  O31  1  0.53742800  0.60289600  0.45004100  1
  O  O32  1  0.60289600  0.53742800  0.95004100  1
  O  O33  1  0.46257200  0.39710400  0.54995900  1
  O  O34  1  0.80751900  0.05023000  0.17989300  1
  O  O35  1  0.94977000  0.19248100  0.32010700  1
  O  O36  1  0.78250300  0.21749700  0.75000000  1
  O  O37  1  0.21749700  0.78250300  0.25000000  1
  O  O38  1  0.92351600  0.90370400  0.87838600  1
  O  O39  1  0.09629600  0.07648400  0.62161400  1
  O  O40  1  0.07648400  0.09629600  0.12161400  1
  O  O41  1  0.90370400  0.92351600  0.37838600  1
  O  O42  1  0.51456700  0.27247700  0.74807700  1
  O  O43  1  0.72752300  0.48543300  0.75192300  1
  O  O44  1  0.48543400  0.72752300  0.25192300  1
  O  O45  1  0.27247700  0.51456600  0.24807700  1
  O  O46  1  0.05023000  0.80751900  0.67989300  1
  O  O47  1  0.19248100  0.94977000  0.82010700  1
