# generated using pymatgen
data_Si6O13
_symmetry_space_group_name_H-M   'P 1'
_cell_length_a   13.92908212
_cell_length_b   13.92908212
_cell_length_c   8.62109600
_cell_angle_alpha   90.00000000
_cell_angle_beta   90.00000000
_cell_angle_gamma   120.00000056
_symmetry_Int_Tables_number   1
_chemical_formula_structural   Si6O13
_chemical_formula_sum   'Si24 O52'
_cell_volume   1448.56540129
_cell_formula_units_Z   4
loop_
 _symmetry_equiv_pos_site_id
 _symmetry_equiv_pos_as_xyz
  1  'x, y, z'
loop_
 _atom_site_type_symbol
 _atom_site_label
 _atom_site_symmetry_multiplicity
 _atom_site_fract_x
 _atom_site_fract_y
 _atom_site_fract_z
 _atom_site_occupancy
  Si  Si0  1  0.54468800  0.87748500  0.31261000  1
  Si  Si1  1  0.54468800  0.87748500  0.68739000  1
  Si  Si2  1  0.66720300  0.12251500  0.81261000  1
  Si  Si3  1  0.66720300  0.12251500  0.18739000  1
  Si  Si4  1  0.87748500  0.33279700  0.68739000  1
  Si  Si5  1  0.54468800  0.66720300  0.81261000  1
  Si  Si6  1  0.54468800  0.66720300  0.18739000  1
  Si  Si7  1  0.87748500  0.33279700  0.31261000  1
  Si  Si8  1  0.12251500  0.45531200  0.18739000  1
  Si  Si9  1  0.12251500  0.45531200  0.81261000  1
  Si  Si10  1  0.66720300  0.54468800  0.31261000  1
  Si  Si11  1  0.66720300  0.54468800  0.68739000  1
  Si  Si12  1  0.33279700  0.45531200  0.31261000  1
  Si  Si13  1  0.33279700  0.45531200  0.68739000  1
  Si  Si14  1  0.87748500  0.54468800  0.18739000  1
  Si  Si15  1  0.87748500  0.54468800  0.81261000  1
  Si  Si16  1  0.12251500  0.66720300  0.68739000  1
  Si  Si17  1  0.45531200  0.33279700  0.81261000  1
  Si  Si18  1  0.45531200  0.33279700  0.18739000  1
  Si  Si19  1  0.12251500  0.66720300  0.31261000  1
  Si  Si20  1  0.33279700  0.87748500  0.81261000  1
  Si  Si21  1  0.33279700  0.87748500  0.18739000  1
  Si  Si22  1  0.45531200  0.12251500  0.31261000  1
  Si  Si23  1  0.45531200  0.12251500  0.68739000  1
  O  O24  1  0.57913000  0.15825900  0.25000000  1
  O  O25  1  0.57913000  0.15825900  0.75000000  1
  O  O26  1  0.66651500  0.12237900  0.00000000  1
  O  O27  1  0.54413600  0.87762100  0.50000000  1
  O  O28  1  0.42087000  0.57913000  0.75000000  1
  O  O29  1  0.42087000  0.57913000  0.25000000  1
  O  O30  1  0.63468200  0.00000000  0.25000000  1
  O  O31  1  0.63468200  0.00000000  0.75000000  1
  O  O32  1  0.58049500  0.79024700  0.25000000  1
  O  O33  1  0.79024700  0.20975300  0.75000000  1
  O  O34  1  0.79024700  0.20975300  0.25000000  1
  O  O35  1  0.58049500  0.79024700  0.75000000  1
  O  O36  1  0.54413600  0.66651500  0.00000000  1
  O  O37  1  0.87762100  0.33348500  0.50000000  1
  O  O38  1  0.63468200  0.63468200  0.25000000  1
  O  O39  1  0.00000000  0.36531800  0.25000000  1
  O  O40  1  0.00000000  0.36531800  0.75000000  1
  O  O41  1  0.63468200  0.63468200  0.75000000  1
  O  O42  1  0.15825900  0.57913000  0.25000000  1
  O  O43  1  0.15825900  0.57913000  0.75000000  1
  O  O44  1  0.12237900  0.45586400  0.00000000  1
  O  O45  1  0.66651500  0.54413600  0.50000000  1
  O  O46  1  0.20975300  0.41950500  0.75000000  1
  O  O47  1  0.00000000  0.00000000  0.57150000  1
  O  O48  1  0.79024700  0.58049500  0.75000000  1
  O  O49  1  0.00000000  0.00000000  0.92850000  1
  O  O50  1  0.00000000  0.00000000  0.07150000  1
  O  O51  1  0.20975300  0.41950500  0.25000000  1
  O  O52  1  0.00000000  0.00000000  0.42850000  1
  O  O53  1  0.79024700  0.58049500  0.25000000  1
  O  O54  1  0.33348500  0.45586400  0.50000000  1
  O  O55  1  0.87762100  0.54413600  0.00000000  1
  O  O56  1  0.84174100  0.42087000  0.25000000  1
  O  O57  1  0.84174100  0.42087000  0.75000000  1
  O  O58  1  0.36531800  0.36531800  0.25000000  1
  O  O59  1  0.00000000  0.63468200  0.25000000  1
  O  O60  1  0.00000000  0.63468200  0.75000000  1
  O  O61  1  0.36531800  0.36531800  0.75000000  1
  O  O62  1  0.45586400  0.33348500  0.00000000  1
  O  O63  1  0.12237900  0.66651500  0.50000000  1
  O  O64  1  0.41950500  0.20975300  0.25000000  1
  O  O65  1  0.20975300  0.79024700  0.75000000  1
  O  O66  1  0.20975300  0.79024700  0.25000000  1
  O  O67  1  0.41950500  0.20975300  0.75000000  1
  O  O68  1  0.36531800  0.00000000  0.25000000  1
  O  O69  1  0.36531800  0.00000000  0.75000000  1
  O  O70  1  0.57913000  0.42087000  0.75000000  1
  O  O71  1  0.57913000  0.42087000  0.25000000  1
  O  O72  1  0.45586400  0.12237900  0.50000000  1
  O  O73  1  0.33348500  0.87762100  0.00000000  1
  O  O74  1  0.42087000  0.84174100  0.25000000  1
  O  O75  1  0.42087000  0.84174100  0.75000000  1
