# generated using pymatgen
data_Fe43O64
_symmetry_space_group_name_H-M   'P 1'
_cell_length_a   8.53030074
_cell_length_b   8.53030074
_cell_length_c   17.05978047
_cell_angle_alpha   89.75408495
_cell_angle_beta   89.75408495
_cell_angle_gamma   90.39865061
_symmetry_Int_Tables_number   1
_chemical_formula_structural   Fe43O64
_chemical_formula_sum   'Fe43 O64'
_cell_volume   1241.31943503
_cell_formula_units_Z   1
loop_
 _symmetry_equiv_pos_site_id
 _symmetry_equiv_pos_as_xyz
  1  'x, y, z'
loop_
 _atom_site_type_symbol
 _atom_site_label
 _atom_site_symmetry_multiplicity
 _atom_site_fract_x
 _atom_site_fract_y
 _atom_site_fract_z
 _atom_site_occupancy
  Fe  Fe0  1  0.00705700  0.25247700  0.93560100  1
  Fe  Fe1  1  0.00310800  0.26078200  0.43556500  1
  Fe  Fe2  1  0.12047100  0.13240800  0.12161500  1
  Fe  Fe3  1  0.11655500  0.11395600  0.62110000  1
  Fe  Fe4  1  0.13490000  0.38189300  0.74761200  1
  Fe  Fe5  1  0.12692700  0.39035100  0.24317700  1
  Fe  Fe6  1  0.12555600  0.87444400  0.00000000  1
  Fe  Fe7  1  0.13425500  0.63045800  0.87197800  1
  Fe  Fe8  1  0.13891000  0.64028200  0.37354000  1
  Fe  Fe9  1  0.24428000  0.00767100  0.81021400  1
  Fe  Fe10  1  0.24964700  0.00894800  0.30819200  1
  Fe  Fe11  1  0.26074800  0.49708300  0.05854100  1
  Fe  Fe12  1  0.24912300  0.49561500  0.55759400  1
  Fe  Fe13  1  0.36954200  0.86574500  0.12802200  1
  Fe  Fe14  1  0.35971800  0.86109000  0.62646000  1
  Fe  Fe15  1  0.38444900  0.11858400  0.99449700  1
  Fe  Fe16  1  0.36398400  0.11568200  0.49759700  1
  Fe  Fe17  1  0.38908000  0.37556500  0.87017000  1
  Fe  Fe18  1  0.37927100  0.38583700  0.36904500  1
  Fe  Fe19  1  0.49249400  0.24479400  0.18474400  1
  Fe  Fe20  1  0.49561300  0.23769300  0.68752600  1
  Fe  Fe21  1  0.50291700  0.73925200  0.94145900  1
  Fe  Fe22  1  0.50438500  0.75087700  0.44240600  1
  Fe  Fe23  1  0.60964900  0.87307300  0.75682300  1
  Fe  Fe24  1  0.61810700  0.86510000  0.25238800  1
  Fe  Fe25  1  0.62443500  0.61092000  0.12983000  1
  Fe  Fe26  1  0.61416300  0.62072900  0.63095500  1
  Fe  Fe27  1  0.62563000  0.12562800  0.37410800  1
  Fe  Fe28  1  0.63792000  0.36208000  0.00000000  1
  Fe  Fe29  1  0.62403700  0.37596300  0.50000000  1
  Fe  Fe30  1  0.74752300  0.99294300  0.06439900  1
  Fe  Fe31  1  0.73921800  0.99689200  0.56443500  1
  Fe  Fe32  1  0.75520600  0.50750600  0.81525600  1
  Fe  Fe33  1  0.76230700  0.50438700  0.31247400  1
  Fe  Fe34  1  0.87176700  0.13423000  0.24409700  1
  Fe  Fe35  1  0.86577000  0.12823300  0.75590300  1
  Fe  Fe36  1  0.87437200  0.37437000  0.62589200  1
  Fe  Fe37  1  0.86759200  0.87952900  0.87838500  1
  Fe  Fe38  1  0.88604400  0.88344500  0.37890000  1
  Fe  Fe39  1  0.88141600  0.61555100  0.00550300  1
  Fe  Fe40  1  0.88431800  0.63601600  0.50240300  1
  Fe  Fe41  1  0.99105200  0.75035300  0.69180800  1
  Fe  Fe42  1  0.99232900  0.75572000  0.18978600  1
  O  O43  1  0.10916900  0.13844900  0.74119400  1
  O  O44  1  0.11167400  0.13838400  0.24470400  1
  O  O45  1  0.11612800  0.86534300  0.87248500  1
  O  O46  1  0.11739500  0.87263100  0.36828900  1
  O  O47  1  0.10759400  0.61199200  0.75411900  1
  O  O48  1  0.10619700  0.61817700  0.25716900  1
  O  O49  1  0.13465700  0.88387200  0.12751500  1
  O  O50  1  0.12736900  0.88260500  0.63171100  1
  O  O51  1  0.11720900  0.62368100  0.99582000  1
  O  O52  1  0.11177500  0.60838700  0.49253700  1
  O  O53  1  0.14512100  0.36575400  0.12894000  1
  O  O54  1  0.11374200  0.36729500  0.62772900  1
  O  O55  1  0.13365900  0.12439100  0.00486800  1
  O  O56  1  0.13200300  0.14415200  0.50350800  1
  O  O57  1  0.13533200  0.38742600  0.86688100  1
  O  O58  1  0.13995300  0.38751300  0.36951100  1
  O  O59  1  0.36273700  0.11047700  0.11856500  1
  O  O60  1  0.35914400  0.11481400  0.61712700  1
  O  O61  1  0.36590800  0.35855400  0.75247700  1
  O  O62  1  0.36410900  0.35708000  0.25660200  1
  O  O63  1  0.35646800  0.13798900  0.87988700  1
  O  O64  1  0.38562500  0.13365000  0.37959500  1
  O  O65  1  0.38800800  0.89240600  0.24588100  1
  O  O66  1  0.38182300  0.89380300  0.74283100  1
  O  O67  1  0.36291500  0.61148100  0.88375000  1
  O  O68  1  0.37047800  0.61733200  0.38402400  1
  O  O69  1  0.37631900  0.88279100  0.00418000  1
  O  O70  1  0.39161300  0.88822500  0.50746300  1
  O  O71  1  0.38851900  0.63708500  0.11625000  1
  O  O72  1  0.38266800  0.62952200  0.61597600  1
  O  O73  1  0.38953600  0.35946300  0.99257300  1
  O  O74  1  0.38814300  0.36191900  0.49448800  1
  O  O75  1  0.61257400  0.86466800  0.13311900  1
  O  O76  1  0.61248700  0.86004700  0.63048900  1
  O  O77  1  0.61712000  0.13118800  0.00772800  1
  O  O78  1  0.61682700  0.13620600  0.49588000  1
  O  O79  1  0.60893100  0.38169600  0.12027700  1
  O  O80  1  0.63146800  0.37885900  0.62079800  1
  O  O81  1  0.63789900  0.10995200  0.74077200  1
  O  O82  1  0.63388700  0.12013500  0.25529200  1
  O  O83  1  0.61830400  0.39106900  0.87972300  1
  O  O84  1  0.62114100  0.36853200  0.37920200  1
  O  O85  1  0.64292000  0.63589100  0.74339800  1
  O  O86  1  0.64144600  0.63409200  0.24752300  1
  O  O87  1  0.63424600  0.85487900  0.87106000  1
  O  O88  1  0.63270500  0.88625800  0.37227100  1
  O  O89  1  0.64053700  0.61046400  0.00742700  1
  O  O90  1  0.63808100  0.61185700  0.50551200  1
  O  O91  1  0.86161600  0.88832600  0.75529600  1
  O  O92  1  0.86155100  0.89083100  0.25880600  1
  O  O93  1  0.86201100  0.64353200  0.12011300  1
  O  O94  1  0.86635000  0.61437500  0.62040500  1
  O  O95  1  0.87560900  0.86634100  0.99513200  1
  O  O96  1  0.85584800  0.86799700  0.49649200  1
  O  O97  1  0.88668300  0.10714900  0.13030400  1
  O  O98  1  0.87929300  0.13344600  0.62566300  1
  O  O99  1  0.86881200  0.38288000  0.99227200  1
  O  O100  1  0.86379400  0.38317300  0.50412000  1
  O  O101  1  0.89285100  0.11331700  0.86969600  1
  O  O102  1  0.86655400  0.12070700  0.37433700  1
  O  O103  1  0.89004800  0.36210100  0.25922800  1
  O  O104  1  0.87986500  0.36611300  0.74470800  1
  O  O105  1  0.88952300  0.63726300  0.88143500  1
  O  O106  1  0.88518600  0.64085600  0.38287300  1
