# generated using pymatgen
data_MgAl6O10
_symmetry_space_group_name_H-M   'P 1'
_cell_length_a   5.70707525
_cell_length_b   5.70707525
_cell_length_c   23.36448779
_cell_angle_alpha   82.67015310
_cell_angle_beta   82.67015310
_cell_angle_gamma   60.21702381
_symmetry_Int_Tables_number   1
_chemical_formula_structural   MgAl6O10
_chemical_formula_sum   'Mg4 Al24 O40'
_cell_volume   653.25773893
_cell_formula_units_Z   4
loop_
 _symmetry_equiv_pos_site_id
 _symmetry_equiv_pos_as_xyz
  1  'x, y, z'
loop_
 _atom_site_type_symbol
 _atom_site_label
 _atom_site_symmetry_multiplicity
 _atom_site_fract_x
 _atom_site_fract_y
 _atom_site_fract_z
 _atom_site_occupancy
  Mg  Mg0  1  0.12626900  0.12626900  0.62490100  1
  Mg  Mg1  1  0.72328700  0.72328700  0.83167400  1
  Mg  Mg2  1  0.47525700  0.47525700  0.57447900  1
  Mg  Mg3  1  0.07247700  0.07247700  0.78019400  1
  Al  Al4  1  0.32287600  0.32287600  0.03026600  1
  Al  Al5  1  0.80158500  0.80158500  0.09697000  1
  Al  Al6  1  0.93085900  0.93085900  0.22444800  1
  Al  Al7  1  0.80303600  0.29218000  0.09609700  1
  Al  Al8  1  0.29218000  0.80303600  0.09609700  1
  Al  Al9  1  0.58430400  0.58430400  0.20211600  1
  Al  Al10  1  0.40261700  0.90210100  0.29605000  1
  Al  Al11  1  0.53469100  0.53469100  0.41835900  1
  Al  Al12  1  0.90210100  0.40261700  0.29605000  1
  Al  Al13  1  0.00214300  0.00214300  0.49673900  1
  Al  Al14  1  0.21707700  0.21707700  0.39100100  1
  Al  Al15  1  0.26710000  0.26710000  0.17422600  1
  Al  Al16  1  0.00055000  0.50545800  0.49716800  1
  Al  Al17  1  0.50545800  0.00055000  0.49716800  1
  Al  Al18  1  0.59908300  0.59908300  0.70211500  1
  Al  Al19  1  0.87453500  0.87453500  0.36872300  1
  Al  Al20  1  0.80076400  0.80076400  0.60031400  1
  Al  Al21  1  0.10024500  0.59892300  0.70215700  1
  Al  Al22  1  0.19412000  0.19412000  0.90732100  1
  Al  Al23  1  0.19437600  0.70306000  0.90710100  1
  Al  Al24  1  0.39830300  0.39830300  0.80492000  1
  Al  Al25  1  0.59892300  0.10024500  0.70215700  1
  Al  Al26  1  0.70306000  0.19437600  0.90710100  1
  Al  Al27  1  0.67438800  0.67438800  0.97292800  1
  O  O28  1  0.64555900  0.14495100  0.05933300  1
  O  O29  1  0.14495100  0.64555900  0.05933300  1
  O  O30  1  0.94888000  0.94888000  0.14539200  1
  O  O31  1  0.14591300  0.14591300  0.05930300  1
  O  O32  1  0.26501300  0.76381100  0.24731400  1
  O  O33  1  0.45598900  0.45598900  0.14965300  1
  O  O34  1  0.76381100  0.26501300  0.24731400  1
  O  O35  1  0.56563800  0.56563800  0.34346500  1
  O  O36  1  0.46280000  0.91755100  0.14844100  1
  O  O37  1  0.64572200  0.64572200  0.05454100  1
  O  O38  1  0.74333800  0.74333800  0.24928900  1
  O  O39  1  0.91755100  0.46280000  0.14844100  1
  O  O40  1  0.87074800  0.34261500  0.44949700  1
  O  O41  1  0.06177100  0.06177100  0.34784600  1
  O  O42  1  0.34261500  0.87074800  0.44949700  1
  O  O43  1  0.23747000  0.23747000  0.25106200  1
  O  O44  1  0.15686800  0.15686800  0.53726200  1
  O  O45  1  0.03731700  0.53662600  0.34977500  1
  O  O46  1  0.34638400  0.34638400  0.44751500  1
  O  O47  1  0.53662600  0.03731700  0.34977500  1
  O  O48  1  0.48649500  0.93179500  0.65141600  1
  O  O49  1  0.67143500  0.67143500  0.54358900  1
  O  O50  1  0.75202000  0.75202000  0.74372400  1
  O  O51  1  0.93179500  0.48649500  0.65141600  1
  O  O52  1  0.85287700  0.85287700  0.44966400  1
  O  O53  1  0.67177100  0.11648400  0.54335700  1
  O  O54  1  0.93203500  0.93203500  0.65125500  1
  O  O55  1  0.11648400  0.67177100  0.54335700  1
  O  O56  1  0.08917600  0.52720400  0.85634200  1
  O  O57  1  0.26703700  0.26703700  0.74834700  1
  O  O58  1  0.34848700  0.34848700  0.95235000  1
  O  O59  1  0.52720400  0.08917600  0.85634200  1
  O  O60  1  0.26722200  0.71697700  0.74821900  1
  O  O61  1  0.44786500  0.44786500  0.65773400  1
  O  O62  1  0.52733500  0.52733500  0.85617700  1
  O  O63  1  0.71697700  0.26722200  0.74821900  1
  O  O64  1  0.85040900  0.85040900  0.94730400  1
  O  O65  1  0.85011500  0.34954800  0.94735500  1
  O  O66  1  0.04561200  0.04561200  0.86361700  1
  O  O67  1  0.34954800  0.85011500  0.94735500  1
