# generated using pymatgen
data_Li10Co11O21
_symmetry_space_group_name_H-M   'P 1'
_cell_length_a   34.83090509
_cell_length_b   9.53119871
_cell_length_c   28.59343750
_cell_angle_alpha   17.26981267
_cell_angle_beta   16.71229731
_cell_angle_gamma   16.71211631
_symmetry_Int_Tables_number   1
_chemical_formula_structural   Li10Co11O21
_chemical_formula_sum   'Li20 Co22 O42'
_cell_volume   699.07479042
_cell_formula_units_Z   2
loop_
 _symmetry_equiv_pos_site_id
 _symmetry_equiv_pos_as_xyz
  1  'x, y, z'
loop_
 _atom_site_type_symbol
 _atom_site_label
 _atom_site_symmetry_multiplicity
 _atom_site_fract_x
 _atom_site_fract_y
 _atom_site_fract_z
 _atom_site_occupancy
  Li  Li0  1  0.00005100  0.99930900  0.00010300  1
  Li  Li1  1  0.14275700  0.00030000  0.00004200  1
  Li  Li2  1  0.28343500  0.99988000  0.00269500  1
  Li  Li3  1  0.14280600  0.00069100  0.33323000  1
  Li  Li4  1  0.42861800  0.00028500  0.99987100  1
  Li  Li5  1  0.28579300  0.99992300  0.33327300  1
  Li  Li6  1  0.57145000  0.99247100  0.00248400  1
  Li  Li7  1  0.14273400  0.99969400  0.66696500  1
  Li  Li8  1  0.42852400  0.00048200  0.33323900  1
  Li  Li9  1  0.71433300  0.99951800  0.00009400  1
  Li  Li10  1  0.28345400  0.00797900  0.66663100  1
  Li  Li11  1  0.57140800  0.00752900  0.33084900  1
  Li  Li12  1  0.85706400  0.00007700  0.00006000  1
  Li  Li13  1  0.42900700  0.99852300  0.66665500  1
  Li  Li14  1  0.71423900  0.99971500  0.33346200  1
  Li  Li15  1  0.85942200  0.00012000  0.33063800  1
  Li  Li16  1  0.71385000  0.00147700  0.66667900  1
  Li  Li17  1  0.00010000  0.99970000  0.33329100  1
  Li  Li18  1  0.85940300  0.99202100  0.66670300  1
  Li  Li19  1  0.00012300  0.00030600  0.66636900  1
  Co  Co20  1  0.07142900  0.50000000  0.16666700  1
  Co  Co21  1  0.21415500  0.49991800  0.16687900  1
  Co  Co22  1  0.07154600  0.49959300  0.50004700  1
  Co  Co23  1  0.35672400  0.49944500  0.16740500  1
  Co  Co24  1  0.21416700  0.50059800  0.49996400  1
  Co  Co25  1  0.50002000  0.49997100  0.16667900  1
  Co  Co26  1  0.07131200  0.50040700  0.83328600  1
  Co  Co27  1  0.35671100  0.50227100  0.49980900  1
  Co  Co28  1  0.64283700  0.50002900  0.16665500  1
  Co  Co29  1  0.21359300  0.50114800  0.83372300  1
  Co  Co30  1  0.49987200  0.50087000  0.49884500  1
  Co  Co31  1  0.78613300  0.50055500  0.16592900  1
  Co  Co32  1  0.57142900  0.00000000  0.66666700  1
  Co  Co33  1  0.35603700  0.50337200  0.83450000  1
  Co  Co34  1  0.64298700  0.50344300  0.49972800  1
  Co  Co35  1  0.92870200  0.50008200  0.16645500  1
  Co  Co36  1  0.49987000  0.49655700  0.83360500  1
  Co  Co37  1  0.78682000  0.49662800  0.49883300  1
  Co  Co38  1  0.64298500  0.49913000  0.83448800  1
  Co  Co39  1  0.92926400  0.49885200  0.49961000  1
  Co  Co40  1  0.78614600  0.49772900  0.83352400  1
  Co  Co41  1  0.92869000  0.49940200  0.83336900  1
  O  O42  1  0.10864200  0.23861500  0.07985800  1
  O  O43  1  0.25120500  0.23793200  0.08039400  1
  O  O44  1  0.03421500  0.76138500  0.25347600  1
  O  O45  1  0.10919900  0.23799000  0.41269900  1
  O  O46  1  0.39421200  0.23886900  0.07992000  1
  O  O47  1  0.17682300  0.76145000  0.25374400  1
  O  O48  1  0.25111100  0.23979300  0.41321300  1
  O  O49  1  0.53704700  0.23729200  0.08045600  1
  O  O50  1  0.03422200  0.76040400  0.58712700  1
  O  O51  1  0.31985600  0.76123500  0.25370300  1
  O  O52  1  0.10863500  0.23959600  0.74620600  1
  O  O53  1  0.39418700  0.23983000  0.41297000  1
  O  O54  1  0.68000200  0.23928500  0.07979500  1
  O  O55  1  0.17680700  0.76127800  0.58716000  1
  O  O56  1  0.46285500  0.76071500  0.25353900  1
  O  O57  1  0.25104400  0.24135800  0.74609900  1
  O  O58  1  0.53703300  0.24165800  0.41232500  1
  O  O59  1  0.82300200  0.23876500  0.07963100  1
  O  O60  1  0.03365800  0.76201000  0.92063400  1
  O  O61  1  0.31904900  0.76295700  0.58734600  1
  O  O62  1  0.60581000  0.76270800  0.25287800  1
  O  O63  1  0.40003700  0.22907800  0.74306100  1
  O  O64  1  0.67723700  0.22932400  0.41962400  1
  O  O65  1  0.96603400  0.23855000  0.07959000  1
  O  O66  1  0.17669200  0.76159300  0.92052500  1
  O  O67  1  0.46563200  0.74113400  0.59022400  1
  O  O68  1  0.74864500  0.76113100  0.25341400  1
  O  O69  1  0.53686600  0.24095200  0.74723700  1
  O  O70  1  0.82393000  0.23774300  0.41223700  1
  O  O71  1  0.31892800  0.76225700  0.92109600  1
  O  O72  1  0.60599100  0.75904800  0.58609600  1
  O  O73  1  0.89165200  0.76206800  0.25294000  1
  O  O74  1  0.67722500  0.25886600  0.74310900  1
  O  O75  1  0.96616500  0.23840700  0.41280800  1
  O  O76  1  0.46562000  0.77067600  0.91370900  1
  O  O77  1  0.74282000  0.77092200  0.59027200  1
  O  O78  1  0.82380900  0.23704300  0.74598700  1
  O  O79  1  0.60582400  0.75834200  0.92100800  1
  O  O80  1  0.89181300  0.75864200  0.58723400  1
  O  O81  1  0.96605000  0.23872200  0.74617300  1
  O  O82  1  0.74867000  0.76017000  0.92036300  1
  O  O83  1  0.89174600  0.76020700  0.92012000  1
