# generated using pymatgen
data_Sm2Zr2O7
_symmetry_space_group_name_H-M   'P 1'
_cell_length_a   7.60915596
_cell_length_b   7.60915596
_cell_length_c   25.03974562
_cell_angle_alpha   80.94827532
_cell_angle_beta   80.94827532
_cell_angle_gamma   59.76239399
_symmetry_Int_Tables_number   1
_chemical_formula_structural   Sm2Zr2O7
_chemical_formula_sum   'Sm16 Zr16 O56'
_cell_volume   1231.74038056
_cell_formula_units_Z   8
loop_
 _symmetry_equiv_pos_site_id
 _symmetry_equiv_pos_as_xyz
  1  'x, y, z'
loop_
 _atom_site_type_symbol
 _atom_site_label
 _atom_site_symmetry_multiplicity
 _atom_site_fract_x
 _atom_site_fract_y
 _atom_site_fract_z
 _atom_site_occupancy
  Sm  Sm0  1  0.36199800  0.36199800  0.88554600  1
  Sm  Sm1  1  0.86104900  0.37034800  0.87368600  1
  Sm  Sm2  1  0.74473800  0.74473800  0.74932800  1
  Sm  Sm3  1  0.63800200  0.63800200  0.11445400  1
  Sm  Sm4  1  0.37034800  0.86104900  0.87368600  1
  Sm  Sm5  1  0.13895100  0.62965200  0.12631400  1
  Sm  Sm6  1  0.00000000  0.00000000  0.00000000  1
  Sm  Sm7  1  0.62965200  0.13895100  0.12631400  1
  Sm  Sm8  1  0.37424600  0.37424600  0.37653900  1
  Sm  Sm9  1  0.37414300  0.87499200  0.37456700  1
  Sm  Sm10  1  0.25526200  0.25526200  0.25067200  1
  Sm  Sm11  1  0.87499200  0.37414300  0.37456700  1
  Sm  Sm12  1  0.62575400  0.62575400  0.62346100  1
  Sm  Sm13  1  0.62585700  0.12500800  0.62543300  1
  Sm  Sm14  1  0.50000000  0.50000000  0.50000000  1
  Sm  Sm15  1  0.12500800  0.62585700  0.62543300  1
  Zr  Zr16  1  0.74416700  0.24998600  0.75134700  1
  Zr  Zr17  1  0.24998600  0.74416700  0.75134700  1
  Zr  Zr18  1  0.24675400  0.24675400  0.75292800  1
  Zr  Zr19  1  0.00000000  0.50000000  0.00000000  1
  Zr  Zr20  1  0.87767800  0.87767800  0.86567700  1
  Zr  Zr21  1  0.50000000  0.00000000  0.00000000  1
  Zr  Zr22  1  0.50000000  0.50000000  0.00000000  1
  Zr  Zr23  1  0.25583300  0.75001400  0.24865300  1
  Zr  Zr24  1  0.12232200  0.12232200  0.13432300  1
  Zr  Zr25  1  0.87585200  0.87585200  0.37363300  1
  Zr  Zr26  1  0.75001400  0.25583300  0.24865300  1
  Zr  Zr27  1  0.75324600  0.75324600  0.24707200  1
  Zr  Zr28  1  0.50000000  0.00000000  0.50000000  1
  Zr  Zr29  1  0.12414800  0.12414800  0.62636700  1
  Zr  Zr30  1  0.00000000  0.50000000  0.50000000  1
  Zr  Zr31  1  0.00000000  0.00000000  0.50000000  1
  O  O32  1  0.68326800  0.23714200  0.83553800  1
  O  O33  1  0.56259400  0.56259400  0.72903900  1
  O  O34  1  0.23714200  0.68326800  0.83553800  1
  O  O35  1  0.56100800  0.14253900  0.73016100  1
  O  O36  1  0.99853600  0.60945700  0.91640400  1
  O  O37  1  0.22750000  0.22750000  0.84046700  1
  O  O38  1  0.14253900  0.56100800  0.73016100  1
  O  O39  1  0.92944600  0.92944600  0.77492700  1
  O  O40  1  0.00146400  0.39054300  0.08359600  1
  O  O41  1  0.74575300  0.74575300  0.02982500  1
  O  O42  1  0.60945700  0.99853600  0.91640400  1
  O  O43  1  0.39054300  0.00146400  0.08359600  1
  O  O44  1  0.93051200  0.36036900  0.77070600  1
  O  O45  1  0.83043200  0.36960000  0.98066000  1
  O  O46  1  0.72237100  0.72237100  0.84014900  1
  O  O47  1  0.31673200  0.76285800  0.16446200  1
  O  O48  1  0.48225500  0.48225500  0.08419300  1
  O  O49  1  0.36960000  0.83043200  0.98066000  1
  O  O50  1  0.25424700  0.25424700  0.97017500  1
  O  O51  1  0.36036900  0.93051200  0.77070600  1
  O  O52  1  0.51774500  0.51774500  0.91580700  1
  O  O53  1  0.17280600  0.75123800  0.33364700  1
  O  O54  1  0.07055400  0.07055400  0.22507300  1
  O  O55  1  0.76285800  0.31673200  0.16446200  1
  O  O56  1  0.75123800  0.17280600  0.33364700  1
  O  O57  1  0.16956800  0.63040000  0.01934000  1
  O  O58  1  0.01129200  0.01129200  0.90507600  1
  O  O59  1  0.06948800  0.63963100  0.22929400  1
  O  O60  1  0.98870800  0.98870800  0.09492300  1
  O  O61  1  0.57992800  0.00362000  0.41545400  1
  O  O62  1  0.43740600  0.43740600  0.27096100  1
  O  O63  1  0.63963100  0.06948800  0.22929400  1
  O  O64  1  0.75035200  0.75035200  0.33226500  1
  O  O65  1  0.63040000  0.16956800  0.01934000  1
  O  O66  1  0.42007200  0.99638000  0.58454600  1
  O  O67  1  0.77250000  0.77250000  0.15953300  1
  O  O68  1  0.31565500  0.31565500  0.47780000  1
  O  O69  1  0.00362000  0.57992800  0.41545400  1
  O  O70  1  0.99638000  0.42007200  0.58454600  1
  O  O71  1  0.43899200  0.85746100  0.26983900  1
  O  O72  1  0.27762900  0.27762900  0.15985100  1
  O  O73  1  0.31603700  0.89131400  0.47808200  1
  O  O74  1  0.21923300  0.21923300  0.34508400  1
  O  O75  1  0.82719400  0.24876200  0.66635300  1
  O  O76  1  0.99724600  0.99724600  0.58442800  1
  O  O77  1  0.89131400  0.31603700  0.47808200  1
  O  O78  1  0.68434500  0.68434500  0.52220000  1
  O  O79  1  0.85746100  0.43899200  0.26983900  1
  O  O80  1  0.00275400  0.00275400  0.41557200  1
  O  O81  1  0.24876200  0.82719400  0.66635300  1
  O  O82  1  0.68396300  0.10868600  0.52191800  1
  O  O83  1  0.53153100  0.53153100  0.40601700  1
  O  O84  1  0.46846900  0.46846900  0.59398300  1
  O  O85  1  0.10868600  0.68396300  0.52191800  1
  O  O86  1  0.24964800  0.24964800  0.66773500  1
  O  O87  1  0.78076700  0.78076700  0.65491600  1
