# generated using pymatgen
data_Ti11Fe13O36
_symmetry_space_group_name_H-M   'P 1'
_cell_length_a   5.15600100
_cell_length_b   5.59192692
_cell_length_c   25.61093614
_cell_angle_alpha   92.91247292
_cell_angle_beta   90.14695477
_cell_angle_gamma   117.34338846
_symmetry_Int_Tables_number   1
_chemical_formula_structural   Ti11Fe13O36
_chemical_formula_sum   'Ti11 Fe13 O36'
_cell_volume   654.78423040
_cell_formula_units_Z   1
loop_
 _symmetry_equiv_pos_site_id
 _symmetry_equiv_pos_as_xyz
  1  'x, y, z'
loop_
 _atom_site_type_symbol
 _atom_site_label
 _atom_site_symmetry_multiplicity
 _atom_site_fract_x
 _atom_site_fract_y
 _atom_site_fract_z
 _atom_site_occupancy
  Ti  Ti0  1  0.47550700  0.94660500  0.94348100  1
  Ti  Ti1  1  0.81692400  0.60913800  0.77356500  1
  Ti  Ti2  1  0.86181100  0.73074300  0.64084400  1
  Ti  Ti3  1  0.14579800  0.28139400  0.85929400  1
  Ti  Ti4  1  0.12214500  0.26977700  0.60787300  1
  Ti  Ti5  1  0.19799300  0.39371500  0.47333800  1
  Ti  Ti6  1  0.53058300  0.05261600  0.30883900  1
  Ti  Ti7  1  0.85549900  0.72078300  0.14293000  1
  Ti  Ti8  1  0.13986800  0.27745300  0.35722000  1
  Ti  Ti9  1  0.47042800  0.94667100  0.19058000  1
  Ti  Ti10  1  0.82147400  0.61752100  0.02528400  1
  Fe  Fe11  1  0.18821200  0.37929700  0.97710700  1
  Fe  Fe12  1  0.53333300  0.05796600  0.80958600  1
  Fe  Fe13  1  0.85560100  0.71372400  0.89327000  1
  Fe  Fe14  1  0.19125200  0.38423900  0.72564600  1
  Fe  Fe15  1  0.47266400  0.95223300  0.69199400  1
  Fe  Fe16  1  0.47317500  0.95183600  0.44052900  1
  Fe  Fe17  1  0.52726000  0.04615600  0.55735900  1
  Fe  Fe18  1  0.79795800  0.60956100  0.52314100  1
  Fe  Fe19  1  0.81156700  0.61417700  0.27418800  1
  Fe  Fe20  1  0.86157900  0.71675200  0.39315600  1
  Fe  Fe21  1  0.13972300  0.28465700  0.10735300  1
  Fe  Fe22  1  0.19036400  0.38539600  0.22608200  1
  Fe  Fe23  1  0.53072200  0.05300200  0.05888500  1
  O  O24  1  0.86473800  0.08931900  0.92036800  1
  O  O25  1  0.32084000  0.01391800  0.87738500  1
  O  O26  1  0.48325400  0.22430300  0.98503900  1
  O  O27  1  0.88719700  0.42329200  0.84118600  1
  O  O28  1  0.04104800  0.68886400  0.96293000  1
  O  O29  1  0.21522000  0.77497300  0.76252100  1
  O  O30  1  0.39818400  0.55391000  0.90349700  1
  O  O31  1  0.66023100  0.66580900  0.70916400  1
  O  O32  1  0.79618100  0.88530200  0.81889600  1
  O  O33  1  0.18581800  0.08583500  0.67191600  1
  O  O34  1  0.36912000  0.33905400  0.79791000  1
  O  O35  1  0.55333800  0.44042600  0.59819500  1
  O  O36  1  0.75791700  0.24664000  0.74495300  1
  O  O37  1  0.99608800  0.34176500  0.54300500  1
  O  O38  1  0.10728600  0.55054900  0.65098500  1
  O  O39  1  0.53759100  0.76150900  0.50657800  1
  O  O40  1  0.71585500  0.99814200  0.62613700  1
  O  O41  1  0.92956800  0.12060500  0.42759300  1
  O  O42  1  0.07732200  0.89039700  0.57555800  1
  O  O43  1  0.31354900  0.00586200  0.37018900  1
  O  O44  1  0.45300400  0.25401900  0.49298900  1
  O  O45  1  0.88220400  0.41502100  0.34082400  1
  O  O46  1  0.02415700  0.65105000  0.46137400  1
  O  O47  1  0.25558200  0.78929000  0.26136300  1
  O  O48  1  0.40743500  0.53945100  0.40638700  1
  O  O49  1  0.63452500  0.66707400  0.20352700  1
  O  O50  1  0.79063400  0.91488000  0.32668900  1
  O  O51  1  0.21188000  0.08588500  0.17293100  1
  O  O52  1  0.36269700  0.33140700  0.29620000  1
  O  O53  1  0.59069900  0.46807700  0.09303000  1
  O  O54  1  0.73984600  0.20950900  0.23985700  1
  O  O55  1  0.96051100  0.34502100  0.04212100  1
  O  O56  1  0.11874800  0.58559000  0.16039000  1
  O  O57  1  0.56731200  0.76446600  0.00411600  1
  O  O58  1  0.69293100  0.99640800  0.13098900  1
  O  O59  1  0.08605300  0.88696600  0.07166200  1
