# generated using pymatgen
data_Na17(WO3)20
_symmetry_space_group_name_H-M   'P 1'
_cell_length_a   21.37986019
_cell_length_b   21.37986019
_cell_length_c   3.94669400
_cell_angle_alpha   90.00000000
_cell_angle_beta   90.00000000
_cell_angle_gamma   136.46420970
_symmetry_Int_Tables_number   1
_chemical_formula_structural   Na17(WO3)20
_chemical_formula_sum   'Na17 W20 O60'
_cell_volume   1242.62783561
_cell_formula_units_Z   1
loop_
 _symmetry_equiv_pos_site_id
 _symmetry_equiv_pos_as_xyz
  1  'x, y, z'
loop_
 _atom_site_type_symbol
 _atom_site_label
 _atom_site_symmetry_multiplicity
 _atom_site_fract_x
 _atom_site_fract_y
 _atom_site_fract_z
 _atom_site_occupancy
  Na  Na0  1  0.94868800  0.54816900  0.00000000  1
  Na  Na1  1  0.05131200  0.45183100  0.00000000  1
  Na  Na2  1  0.20110100  0.79889900  0.00000000  1
  Na  Na3  1  0.15198600  0.35165500  0.00000000  1
  Na  Na4  1  0.45183100  0.05131200  0.00000000  1
  Na  Na5  1  0.39879400  0.60120600  0.00000000  1
  Na  Na6  1  0.54816900  0.94868800  0.00000000  1
  Na  Na7  1  0.79889900  0.20110100  0.00000000  1
  Na  Na8  1  0.60120600  0.39879400  0.00000000  1
  Na  Na9  1  0.75092500  0.75092500  0.00000000  1
  Na  Na10  1  0.90187100  0.09812900  0.00000000  1
  Na  Na11  1  0.84801400  0.64834500  0.00000000  1
  Na  Na12  1  0.09812900  0.90187100  0.00000000  1
  Na  Na13  1  0.24907500  0.24907500  0.00000000  1
  Na  Na14  1  0.50000000  0.50000000  0.00000000  1
  Na  Na15  1  0.64834500  0.84801400  0.00000000  1
  Na  Na16  1  0.35165500  0.15198600  0.00000000  1
  W  W17  1  0.87365800  0.37418300  0.50000000  1
  W  W18  1  0.22552000  0.52750000  0.50000000  1
  W  W19  1  0.12634200  0.62581700  0.50000000  1
  W  W20  1  0.42496700  0.32455800  0.50000000  1
  W  W21  1  0.37418300  0.87365800  0.50000000  1
  W  W22  1  0.72473100  0.02516900  0.50000000  1
  W  W23  1  0.47250000  0.77448000  0.50000000  1
  W  W24  1  0.32455800  0.42496700  0.50000000  1
  W  W25  1  0.62581700  0.12634200  0.50000000  1
  W  W26  1  0.92561400  0.82636600  0.50000000  1
  W  W27  1  0.57503300  0.67544200  0.50000000  1
  W  W28  1  0.67544200  0.57503300  0.50000000  1
  W  W29  1  0.97483100  0.27526900  0.50000000  1
  W  W30  1  0.82636600  0.92561400  0.50000000  1
  W  W31  1  0.77448000  0.47250000  0.50000000  1
  W  W32  1  0.07438600  0.17363400  0.50000000  1
  W  W33  1  0.17363400  0.07438600  0.50000000  1
  W  W34  1  0.02516900  0.72473100  0.50000000  1
  W  W35  1  0.27526900  0.97483100  0.50000000  1
  W  W36  1  0.52750000  0.22552000  0.50000000  1
  O  O37  1  0.87740300  0.37632800  0.00000000  1
  O  O38  1  0.12259700  0.62367200  0.00000000  1
  O  O39  1  0.22372600  0.52371600  0.00000000  1
  O  O40  1  0.37632800  0.87740300  0.00000000  1
  O  O41  1  0.32627200  0.42819400  0.00000000  1
  O  O42  1  0.47628500  0.77627400  0.00000000  1
  O  O43  1  0.62367200  0.12259700  0.00000000  1
  O  O44  1  0.57180600  0.67372800  0.00000000  1
  O  O45  1  0.42819400  0.32627200  0.00000000  1
  O  O46  1  0.72451000  0.02508300  0.00000000  1
  O  O47  1  0.97491700  0.27549000  0.00000000  1
  O  O48  1  0.81899100  0.92251800  0.00000000  1
  O  O49  1  0.67372800  0.57180600  0.00000000  1
  O  O50  1  0.77627400  0.47628400  0.00000000  1
  O  O51  1  0.92251800  0.81899100  0.00000000  1
  O  O52  1  0.07748200  0.18100900  0.00000000  1
  O  O53  1  0.02508300  0.72451000  0.00000000  1
  O  O54  1  0.18100900  0.07748200  0.00000000  1
  O  O55  1  0.27549000  0.97491700  0.00000000  1
  O  O56  1  0.52371500  0.22372600  0.00000000  1
  O  O57  1  0.92720000  0.32461400  0.50000000  1
  O  O58  1  0.00000000  0.50000000  0.50000000  1
  O  O59  1  0.10103800  0.40155600  0.50000000  1
  O  O60  1  0.07280000  0.67538600  0.50000000  1
  O  O61  1  0.17466100  0.57206800  0.50000000  1
  O  O62  1  0.82533900  0.42793200  0.50000000  1
  O  O63  1  0.35169100  0.64830900  0.50000000  1
  O  O64  1  0.42793200  0.82533900  0.50000000  1
  O  O65  1  0.20390800  0.30507100  0.50000000  1
  O  O66  1  0.27343400  0.47694400  0.50000000  1
  O  O67  1  0.37886400  0.37886400  0.50000000  1
  O  O68  1  0.50000000  0.00000000  0.50000000  1
  O  O69  1  0.57206800  0.17466100  0.50000000  1
  O  O70  1  0.67538600  0.07280000  0.50000000  1
  O  O71  1  0.24762800  0.75237200  0.50000000  1
  O  O72  1  0.32461400  0.92720000  0.50000000  1
  O  O73  1  0.62113600  0.62113600  0.50000000  1
  O  O74  1  0.59844400  0.89896200  0.50000000  1
  O  O75  1  0.55078300  0.44921700  0.50000000  1
  O  O76  1  0.69492900  0.79609200  0.50000000  1
  O  O77  1  0.77262000  0.97634100  0.50000000  1
  O  O78  1  0.86440700  0.86440700  0.50000000  1
  O  O79  1  0.84891600  0.15108400  0.50000000  1
  O  O80  1  0.44921700  0.55078300  0.50000000  1
  O  O81  1  0.52305600  0.72656600  0.50000000  1
  O  O82  1  0.79609200  0.69492900  0.50000000  1
  O  O83  1  0.75237200  0.24762800  0.50000000  1
  O  O84  1  0.89896200  0.59844400  0.50000000  1
  O  O85  1  0.97634100  0.77262000  0.50000000  1
  O  O86  1  0.05427200  0.94572800  0.50000000  1
  O  O87  1  0.13559300  0.13559300  0.50000000  1
  O  O88  1  0.64830900  0.35169100  0.50000000  1
  O  O89  1  0.72656600  0.52305600  0.50000000  1
  O  O90  1  0.94572800  0.05427200  0.50000000  1
  O  O91  1  0.02365900  0.22738000  0.50000000  1
  O  O92  1  0.30507100  0.20390800  0.50000000  1
  O  O93  1  0.40155600  0.10103800  0.50000000  1
  O  O94  1  0.47694400  0.27343400  0.50000000  1
  O  O95  1  0.15108400  0.84891600  0.50000000  1
  O  O96  1  0.22738000  0.02365900  0.50000000  1
