# generated using pymatgen
data_Sr2V3O9
_symmetry_space_group_name_H-M   'P 1'
_cell_length_a   7.10250516
_cell_length_b   7.48602798
_cell_length_c   18.08948653
_cell_angle_alpha   103.52209940
_cell_angle_beta   101.83918225
_cell_angle_gamma   116.79072366
_symmetry_Int_Tables_number   1
_chemical_formula_structural   Sr2V3O9
_chemical_formula_sum   'Sr8 V12 O36'
_cell_volume   779.49925865
_cell_formula_units_Z   4
loop_
 _symmetry_equiv_pos_site_id
 _symmetry_equiv_pos_as_xyz
  1  'x, y, z'
loop_
 _atom_site_type_symbol
 _atom_site_label
 _atom_site_symmetry_multiplicity
 _atom_site_fract_x
 _atom_site_fract_y
 _atom_site_fract_z
 _atom_site_occupancy
  Sr  Sr0  1  0.12069200  0.37523400  0.87496100  1
  Sr  Sr1  1  0.12409500  0.37839100  0.37489600  1
  Sr  Sr2  1  0.70161800  0.95422200  0.95158600  1
  Sr  Sr3  1  0.29888800  0.05200400  0.54857900  1
  Sr  Sr4  1  0.70111200  0.94799600  0.45142100  1
  Sr  Sr5  1  0.29838200  0.04577800  0.04841400  1
  Sr  Sr6  1  0.87590500  0.62160900  0.62510400  1
  Sr  Sr7  1  0.87930800  0.62476600  0.12503900  1
  V  V8  1  0.09043000  0.84153700  0.84014000  1
  V  V9  1  0.08899100  0.84151100  0.34022000  1
  V  V10  1  0.33204800  0.58193500  0.58012100  1
  V  V11  1  0.50511800  0.53985300  0.75534600  1
  V  V12  1  0.50499800  0.97057800  0.25535300  1
  V  V13  1  0.33284900  0.58135700  0.08016700  1
  V  V14  1  0.66715100  0.41864300  0.91983300  1
  V  V15  1  0.49500200  0.02942200  0.74464700  1
  V  V16  1  0.49488200  0.46014700  0.24465400  1
  V  V17  1  0.66795200  0.41806500  0.41987900  1
  V  V18  1  0.91100900  0.15848900  0.65978000  1
  V  V19  1  0.90957000  0.15846300  0.15986000  1
  O  O20  1  0.22194600  0.93799400  0.77410600  1
  O  O21  1  0.25991600  0.78767500  0.90154700  1
  O  O22  1  0.04740600  0.01922700  0.90268600  1
  O  O23  1  0.29544800  0.78211400  0.63927900  1
  O  O24  1  0.17312100  0.38883900  0.72388800  1
  O  O25  1  0.22435800  0.93726100  0.27508600  1
  O  O26  1  0.07835200  0.35886600  0.51982300  1
  O  O27  1  0.25881900  0.79102800  0.40317700  1
  O  O28  1  0.54508100  0.78579000  0.78796900  1
  O  O29  1  0.04291700  0.01919700  0.40118200  1
  O  O30  1  0.29944100  0.78334600  0.14028000  1
  O  O31  1  0.17401600  0.38587400  0.22307800  1
  O  O32  1  0.07749400  0.35964700  0.02010100  1
  O  O33  1  0.50927500  0.49674600  0.85977300  1
  O  O34  1  0.46252100  0.67977100  0.51802600  1
  O  O35  1  0.53897400  0.31954900  0.98216600  1
  O  O36  1  0.48809100  0.50328600  0.64108900  1
  O  O37  1  0.47271400  0.21201300  0.71230300  1
  O  O38  1  0.52728600  0.78798700  0.28769700  1
  O  O39  1  0.51190900  0.49671400  0.35891100  1
  O  O40  1  0.46102600  0.68045100  0.01783400  1
  O  O41  1  0.53747900  0.32022900  0.48197400  1
  O  O42  1  0.49072500  0.50325400  0.14022700  1
  O  O43  1  0.92250600  0.64035300  0.97989900  1
  O  O44  1  0.82598400  0.61412600  0.77692200  1
  O  O45  1  0.70055900  0.21665400  0.85972000  1
  O  O46  1  0.95708300  0.98080300  0.59881800  1
  O  O47  1  0.45491900  0.21421000  0.21203100  1
  O  O48  1  0.74118100  0.20897200  0.59682300  1
  O  O49  1  0.92164800  0.64113400  0.48017700  1
  O  O50  1  0.77564200  0.06273900  0.72491400  1
  O  O51  1  0.82687900  0.61116100  0.27611200  1
  O  O52  1  0.70455200  0.21788600  0.36072100  1
  O  O53  1  0.95259400  0.98077300  0.09731400  1
  O  O54  1  0.74008400  0.21232500  0.09845300  1
  O  O55  1  0.77805400  0.06200600  0.22589400  1
