# generated using pymatgen
data_TiFe5O8
_symmetry_space_group_name_H-M   'P 1'
_cell_length_a   6.05103305
_cell_length_b   6.02785837
_cell_length_c   30.08870960
_cell_angle_alpha   59.99674623
_cell_angle_beta   60.12695238
_cell_angle_gamma   60.19729369
_symmetry_Int_Tables_number   1
_chemical_formula_structural   TiFe5O8
_chemical_formula_sum   'Ti5 Fe25 O40'
_cell_volume   777.91109986
_cell_formula_units_Z   5
loop_
 _symmetry_equiv_pos_site_id
 _symmetry_equiv_pos_as_xyz
  1  'x, y, z'
loop_
 _atom_site_type_symbol
 _atom_site_label
 _atom_site_symmetry_multiplicity
 _atom_site_fract_x
 _atom_site_fract_y
 _atom_site_fract_z
 _atom_site_occupancy
  Ti  Ti0  1  0.99977600  0.50032100  0.30002200  1
  Ti  Ti1  1  0.49999900  0.00004100  0.09999300  1
  Ti  Ti2  1  0.00005800  0.50001600  0.49997400  1
  Ti  Ti3  1  0.99994600  0.49998900  0.70002500  1
  Ti  Ti4  1  0.00017600  0.49967400  0.89998600  1
  Fe  Fe5  1  0.12216500  0.12324300  0.02554700  1
  Fe  Fe6  1  0.49171300  0.50853800  0.99998500  1
  Fe  Fe7  1  0.12201800  0.12356500  0.22545800  1
  Fe  Fe8  1  0.49997200  0.50000100  0.10000200  1
  Fe  Fe9  1  0.11727600  0.12722200  0.42556400  1
  Fe  Fe10  1  0.50827600  0.49147200  0.20001600  1
  Fe  Fe11  1  0.00000700  0.50000700  0.10000300  1
  Fe  Fe12  1  0.50045200  0.49934800  0.30007100  1
  Fe  Fe13  1  0.49980500  0.50037900  0.39995100  1
  Fe  Fe14  1  0.87785500  0.87676500  0.17445500  1
  Fe  Fe15  1  0.50055400  0.00113700  0.29967600  1
  Fe  Fe16  1  0.11731600  0.12726300  0.62557500  1
  Fe  Fe17  1  0.50006500  0.49998100  0.49999000  1
  Fe  Fe18  1  0.88299800  0.87266700  0.37438900  1
  Fe  Fe19  1  0.50002700  0.99995900  0.50000300  1
  Fe  Fe20  1  0.50002200  0.49998900  0.60000800  1
  Fe  Fe21  1  0.11698500  0.12728900  0.82562000  1
  Fe  Fe22  1  0.49994500  0.50005900  0.70000300  1
  Fe  Fe23  1  0.49999000  0.00004700  0.69999400  1
  Fe  Fe24  1  0.88274100  0.87277100  0.57441700  1
  Fe  Fe25  1  0.50021000  0.49960400  0.80003900  1
  Fe  Fe26  1  0.49955800  0.50063300  0.89993300  1
  Fe  Fe27  1  0.88273000  0.87276900  0.77442500  1
  Fe  Fe28  1  0.49945200  0.99880900  0.90032500  1
  Fe  Fe29  1  0.87796800  0.87642700  0.97454600  1
  O  O30  1  0.26653900  0.23933300  0.05282900  1
  O  O31  1  0.26512300  0.23957000  0.14602400  1
  O  O32  1  0.25630500  0.73030000  0.05173800  1
  O  O33  1  0.72640000  0.24174300  0.05298600  1
  O  O34  1  0.23941400  0.26651300  0.25277100  1
  O  O35  1  0.27362600  0.75823100  0.14702200  1
  O  O36  1  0.74366600  0.26973000  0.14825500  1
  O  O37  1  0.73482800  0.76042900  0.05398100  1
  O  O38  1  0.24155600  0.72615100  0.25308700  1
  O  O39  1  0.24054700  0.26397100  0.34603200  1
  O  O40  1  0.73072600  0.25687800  0.25158900  1
  O  O41  1  0.73342100  0.76067300  0.14717900  1
  O  O42  1  0.27488400  0.74211800  0.34821900  1
  O  O43  1  0.23951200  0.26515700  0.45298900  1
  O  O44  1  0.76042900  0.26937700  0.34708000  1
  O  O45  1  0.76160400  0.73393500  0.25393100  1
  O  O46  1  0.23953800  0.26506000  0.54605000  1
  O  O47  1  0.23958700  0.73041900  0.45298400  1
  O  O48  1  0.72530300  0.25826500  0.45163600  1
  O  O49  1  0.76081200  0.73489000  0.34691300  1
  O  O50  1  0.27461300  0.74186300  0.54833000  1
  O  O51  1  0.23952800  0.26508700  0.65301800  1
  O  O52  1  0.76037700  0.26968200  0.54700600  1
  O  O53  1  0.76052500  0.73498000  0.45391400  1
  O  O54  1  0.23962600  0.73033700  0.65298600  1
  O  O55  1  0.23946600  0.26504400  0.74608900  1
  O  O56  1  0.76052100  0.73491200  0.54698100  1
  O  O57  1  0.72543600  0.25811000  0.65167600  1
  O  O58  1  0.23918000  0.26510400  0.85309400  1
  O  O59  1  0.27470000  0.74176300  0.74835900  1
  O  O60  1  0.76043200  0.26957900  0.74700500  1
  O  O61  1  0.23836300  0.26605600  0.94607900  1
  O  O62  1  0.76050000  0.73497300  0.65394000  1
  O  O63  1  0.23958000  0.73056500  0.85293000  1
  O  O64  1  0.72508200  0.25783700  0.85179100  1
  O  O65  1  0.76047800  0.73487100  0.74700200  1
  O  O66  1  0.26925400  0.74316200  0.94840300  1
  O  O67  1  0.75842000  0.27384100  0.94692200  1
  O  O68  1  0.75947700  0.73601800  0.85395800  1
  O  O69  1  0.76057000  0.73348800  0.94722800  1
