# generated using pymatgen
data_Ho10Ti6O27
_symmetry_space_group_name_H-M   'P 1'
_cell_length_a   7.24163497
_cell_length_b   7.24163497
_cell_length_c   24.77908074
_cell_angle_alpha   82.61410411
_cell_angle_beta   82.61410411
_cell_angle_gamma   60.39498639
_symmetry_Int_Tables_number   1
_chemical_formula_structural   Ho10Ti6O27
_chemical_formula_sum   'Ho20 Ti12 O54'
_cell_volume   1117.23930571
_cell_formula_units_Z   2
loop_
 _symmetry_equiv_pos_site_id
 _symmetry_equiv_pos_as_xyz
  1  'x, y, z'
loop_
 _atom_site_type_symbol
 _atom_site_label
 _atom_site_symmetry_multiplicity
 _atom_site_fract_x
 _atom_site_fract_y
 _atom_site_fract_z
 _atom_site_occupancy
  Ho  Ho0  1  0.74429700  0.24188700  0.75388600  1
  Ho  Ho1  1  0.00283800  0.00283800  0.00099100  1
  Ho  Ho2  1  0.89518300  0.35947400  0.88109300  1
  Ho  Ho3  1  0.49114200  0.49114200  0.00971800  1
  Ho  Ho4  1  0.24188700  0.74429700  0.75388600  1
  Ho  Ho5  1  0.75800500  0.75800500  0.74247500  1
  Ho  Ho6  1  0.12575900  0.12575900  0.61262900  1
  Ho  Ho7  1  0.35947400  0.89518300  0.88109300  1
  Ho  Ho8  1  0.63107600  0.11136000  0.61667500  1
  Ho  Ho9  1  0.24862600  0.24862600  0.75324500  1
  Ho  Ho10  1  0.11136000  0.63107600  0.61667500  1
  Ho  Ho11  1  0.87867800  0.87867800  0.36950500  1
  Ho  Ho12  1  0.36842900  0.87250100  0.37253200  1
  Ho  Ho13  1  0.99494400  0.99494400  0.49640500  1
  Ho  Ho14  1  0.62123300  0.62123300  0.12818500  1
  Ho  Ho15  1  0.87250100  0.36842900  0.37253200  1
  Ho  Ho16  1  0.24744400  0.24744400  0.25292100  1
  Ho  Ho17  1  0.12043600  0.63613900  0.13683500  1
  Ho  Ho18  1  0.73364700  0.73364700  0.24992300  1
  Ho  Ho19  1  0.63613900  0.12043600  0.13683500  1
  Ti  Ti20  1  0.97760800  0.47603400  0.01268300  1
  Ti  Ti21  1  0.47603400  0.97760800  0.01268300  1
  Ti  Ti22  1  0.38025100  0.38025100  0.85880300  1
  Ti  Ti23  1  0.49871800  0.00472200  0.49217300  1
  Ti  Ti24  1  0.87932500  0.87932500  0.87459500  1
  Ti  Ti25  1  0.37181400  0.37181400  0.36488800  1
  Ti  Ti26  1  0.00472200  0.49871800  0.49217300  1
  Ti  Ti27  1  0.49753200  0.49753200  0.48900000  1
  Ti  Ti28  1  0.64064000  0.64064000  0.61658000  1
  Ti  Ti29  1  0.25629400  0.71998300  0.25770700  1
  Ti  Ti30  1  0.11220900  0.11220900  0.13574400  1
  Ti  Ti31  1  0.71998300  0.25629400  0.25770700  1
  O  O32  1  0.65926300  0.28447000  0.85750800  1
  O  O33  1  0.81746000  0.35991200  0.97010500  1
  O  O34  1  0.28447000  0.65926300  0.85750800  1
  O  O35  1  0.49939500  0.91365300  0.58136300  1
  O  O36  1  0.00992600  0.00992600  0.90514600  1
  O  O37  1  0.42657800  0.88312400  0.78393300  1
  O  O38  1  0.90506300  0.90506300  0.79159300  1
  O  O39  1  0.35991200  0.81746000  0.97010500  1
  O  O40  1  0.60584100  0.96958500  0.89738600  1
  O  O41  1  0.22883100  0.22883100  0.84795500  1
  O  O42  1  0.88312400  0.42657800  0.78393300  1
  O  O43  1  0.57531600  0.12057800  0.70715800  1
  O  O44  1  0.91365300  0.49939500  0.58136300  1
  O  O45  1  0.22429600  0.68055200  0.34391300  1
  O  O46  1  0.80923600  0.80923600  0.48554700  1
  O  O47  1  0.19891200  0.59296700  0.52159800  1
  O  O48  1  0.76184300  0.76184300  0.65567600  1
  O  O49  1  0.96958500  0.60584100  0.89738600  1
  O  O50  1  0.12057800  0.57531600  0.70715800  1
  O  O51  1  0.40744400  0.40744400  0.78089700  1
  O  O52  1  0.48816200  0.48816200  0.61063000  1
  O  O53  1  0.29671200  0.88114100  0.67663300  1
  O  O54  1  0.96754900  0.96754900  0.59071600  1
  O  O55  1  0.59296700  0.19891200  0.52159800  1
  O  O56  1  0.40689400  0.79950000  0.48382800  1
  O  O57  1  0.68055200  0.22429600  0.34391300  1
  O  O58  1  0.02795200  0.02795200  0.41071600  1
  O  O59  1  0.49411100  0.49411100  0.41686700  1
  O  O60  1  0.89662700  0.36842900  0.27908900  1
  O  O61  1  0.97261900  0.39250600  0.08470500  1
  O  O62  1  0.56756400  0.56756400  0.22031900  1
  O  O63  1  0.22813500  0.22813500  0.34614400  1
  O  O64  1  0.18950500  0.18950500  0.51816400  1
  O  O65  1  0.79950000  0.40689400  0.48382800  1
  O  O66  1  0.88114100  0.29671200  0.67663300  1
  O  O67  1  0.08766300  0.49350000  0.42029400  1
  O  O68  1  0.71594100  0.71594100  0.34632000  1
  O  O69  1  0.36842900  0.89662700  0.27908900  1
  O  O70  1  0.39250600  0.97261900  0.08470500  1
  O  O71  1  0.09527300  0.60052600  0.22613600  1
  O  O72  1  0.77557400  0.77557400  0.15525800  1
  O  O73  1  0.63486400  0.11580900  0.01116700  1
  O  O74  1  0.24911300  0.24911300  0.16168400  1
  O  O75  1  0.98216900  0.98216900  0.09076100  1
  O  O76  1  0.95239400  0.95239400  0.27740300  1
  O  O77  1  0.49350000  0.08766300  0.42029400  1
  O  O78  1  0.60052600  0.09527300  0.22613600  1
  O  O79  1  0.46226000  0.46226000  0.09749400  1
  O  O80  1  0.84072400  0.23905400  0.17363600  1
  O  O81  1  0.11580800  0.63486400  0.01116700  1
  O  O82  1  0.40799600  0.40799600  0.28440200  1
  O  O83  1  0.68026600  0.68026600  0.02733500  1
  O  O84  1  0.23905400  0.84072400  0.17363600  1
  O  O85  1  0.20834300  0.20834300  0.98884700  1
