# generated using pymatgen
data_U7(Te12O35)2
_symmetry_space_group_name_H-M   'P 1'
_cell_length_a   11.51770716
_cell_length_b   11.51770716
_cell_length_c   11.51770667
_cell_angle_alpha   90.42240620
_cell_angle_beta   90.42240620
_cell_angle_gamma   90.42241075
_symmetry_Int_Tables_number   1
_chemical_formula_structural   U7(Te12O35)2
_chemical_formula_sum   'U7 Te24 O70'
_cell_volume   1527.78588817
_cell_formula_units_Z   1
loop_
 _symmetry_equiv_pos_site_id
 _symmetry_equiv_pos_as_xyz
  1  'x, y, z'
loop_
 _atom_site_type_symbol
 _atom_site_label
 _atom_site_symmetry_multiplicity
 _atom_site_fract_x
 _atom_site_fract_y
 _atom_site_fract_z
 _atom_site_occupancy
  U  U0  1  0.00000000  0.00000000  0.50000000  1
  U  U1  1  0.50000000  0.50000000  0.50000000  1
  U  U2  1  0.00000000  0.50000000  0.50000000  1
  U  U3  1  0.50000000  0.50000000  0.00000000  1
  U  U4  1  0.00000000  0.50000000  0.00000000  1
  U  U5  1  0.50000000  0.00000000  0.50000000  1
  U  U6  1  0.50000000  0.00000000  0.00000000  1
  Te  Te7  1  0.25916100  0.04080700  0.28773800  1
  Te  Te8  1  0.23018700  0.02744500  0.79654800  1
  Te  Te9  1  0.54958000  0.21493100  0.26362900  1
  Te  Te10  1  0.97255500  0.20345200  0.76981300  1
  Te  Te11  1  0.79654800  0.23018700  0.02744500  1
  Te  Te12  1  0.71119900  0.24398700  0.55267900  1
  Te  Te13  1  0.28773800  0.25916100  0.04080700  1
  Te  Te14  1  0.21493100  0.26362900  0.54958000  1
  Te  Te15  1  0.04080700  0.28773800  0.25916100  1
  Te  Te16  1  0.44732100  0.28880100  0.75601300  1
  Te  Te17  1  0.75601300  0.44732100  0.28880100  1
  Te  Te18  1  0.73637100  0.45042000  0.78506900  1
  Te  Te19  1  0.26362900  0.54958000  0.21493100  1
  Te  Te20  1  0.24398700  0.55267900  0.71119900  1
  Te  Te21  1  0.55267900  0.71119900  0.24398700  1
  Te  Te22  1  0.95919300  0.71226200  0.74083900  1
  Te  Te23  1  0.78506900  0.73637100  0.45042000  1
  Te  Te24  1  0.71226200  0.74083900  0.95919300  1
  Te  Te25  1  0.28880100  0.75601300  0.44732100  1
  Te  Te26  1  0.20345200  0.76981300  0.97255500  1
  Te  Te27  1  0.02744500  0.79654800  0.23018700  1
  Te  Te28  1  0.45042000  0.78506900  0.73637100  1
  Te  Te29  1  0.74083900  0.95919300  0.71226200  1
  Te  Te30  1  0.76981300  0.97255500  0.20345200  1
  O  O31  1  0.60081100  0.08304700  0.17590800  1
  O  O32  1  0.91048500  0.07652300  0.68072900  1
  O  O33  1  0.85012800  0.09789100  0.12321400  1
  O  O34  1  0.90819000  0.09263500  0.41058800  1
  O  O35  1  0.41001100  0.09178400  0.59225300  1
  O  O36  1  0.58941200  0.09181000  0.90736500  1
  O  O37  1  0.65862000  0.09134300  0.61283300  1
  O  O38  1  0.17555600  0.09457200  0.41985100  1
  O  O39  1  0.31927100  0.08951500  0.92347700  1
  O  O40  1  0.40637700  0.11124300  0.34200300  1
  O  O41  1  0.09789100  0.12321400  0.85012800  1
  O  O42  1  0.60900400  0.15576400  0.41174200  1
  O  O43  1  0.87678600  0.14987200  0.90210900  1
  O  O44  1  0.08304700  0.17590800  0.60081100  1
  O  O45  1  0.41985100  0.17555600  0.09457200  1
  O  O46  1  0.20291100  0.20291100  0.20291100  1
  O  O47  1  0.27988400  0.23829100  0.71699000  1
  O  O48  1  0.71699000  0.27988400  0.23829100  1
  O  O49  1  0.76170900  0.28301000  0.72011600  1
  O  O50  1  0.57014600  0.32162200  0.59225900  1
  O  O51  1  0.92347700  0.31927100  0.08951500  1
  O  O52  1  0.38716700  0.34138000  0.90865700  1
  O  O53  1  0.11124300  0.34200300  0.40637700  1
  O  O54  1  0.58825800  0.39099600  0.84423600  1
  O  O55  1  0.90865700  0.38716700  0.34138000  1
  O  O56  1  0.67837800  0.40774100  0.42985400  1
  O  O57  1  0.82409200  0.39918900  0.91695300  1
  O  O58  1  0.15576400  0.41174200  0.60900400  1
  O  O59  1  0.34200300  0.40637700  0.11124300  1
  O  O60  1  0.09263500  0.41058800  0.90819000  1
  O  O61  1  0.40746200  0.40746200  0.40746200  1
  O  O62  1  0.59225300  0.41001100  0.09178400  1
  O  O63  1  0.90821600  0.40774700  0.58998900  1
  O  O64  1  0.09457200  0.41985100  0.17555600  1
  O  O65  1  0.40774100  0.42985400  0.67837800  1
  O  O66  1  0.59225900  0.57014600  0.32162200  1
  O  O67  1  0.90542800  0.58014900  0.82444400  1
  O  O68  1  0.09178400  0.59225300  0.41001100  1
  O  O69  1  0.59253800  0.59253800  0.59253800  1
  O  O70  1  0.40774700  0.58998900  0.90821600  1
  O  O71  1  0.84423600  0.58825800  0.39099600  1
  O  O72  1  0.90736500  0.58941200  0.09181000  1
  O  O73  1  0.65799700  0.59362300  0.88875700  1
  O  O74  1  0.17590800  0.60081100  0.08304700  1
  O  O75  1  0.32162200  0.59225900  0.57014600  1
  O  O76  1  0.41174200  0.60900400  0.15576400  1
  O  O77  1  0.09134300  0.61283300  0.65862000  1
  O  O78  1  0.88875700  0.65799700  0.59362300  1
  O  O79  1  0.61283300  0.65862000  0.09134300  1
  O  O80  1  0.07652300  0.68072900  0.91048500  1
  O  O81  1  0.42985400  0.67837800  0.40774100  1
  O  O82  1  0.23829100  0.71699000  0.27988400  1
  O  O83  1  0.28301000  0.72011600  0.76170900  1
  O  O84  1  0.72011600  0.76170900  0.28301000  1
  O  O85  1  0.79708900  0.79708900  0.79708900  1
  O  O86  1  0.58014900  0.82444400  0.90542800  1
  O  O87  1  0.91695300  0.82409200  0.39918900  1
  O  O88  1  0.12321400  0.85012800  0.09789100  1
  O  O89  1  0.39099600  0.84423600  0.58825800  1
  O  O90  1  0.59362300  0.88875700  0.65799700  1
  O  O91  1  0.90210900  0.87678600  0.14987200  1
  O  O92  1  0.68072900  0.91048500  0.07652300  1
  O  O93  1  0.82444400  0.90542800  0.58014900  1
  O  O94  1  0.09181000  0.90736500  0.58941200  1
  O  O95  1  0.14987200  0.90210900  0.87678600  1
  O  O96  1  0.34138000  0.90865700  0.38716700  1
  O  O97  1  0.41058800  0.90819000  0.09263500  1
  O  O98  1  0.58998900  0.90821600  0.40774700  1
  O  O99  1  0.08951500  0.92347700  0.31927100  1
  O  O100  1  0.39918900  0.91695300  0.82409200  1
