# generated using pymatgen
data_Mg7Al22O40
_symmetry_space_group_name_H-M   'P 1'
_cell_length_a   5.73179702
_cell_length_b   5.73179702
_cell_length_c   23.64655373
_cell_angle_alpha   82.84891244
_cell_angle_beta   82.84891244
_cell_angle_gamma   60.07024856
_symmetry_Int_Tables_number   1
_chemical_formula_structural   Mg7Al22O40
_chemical_formula_sum   'Mg7 Al22 O40'
_cell_volume   666.26966686
_cell_formula_units_Z   1
loop_
 _symmetry_equiv_pos_site_id
 _symmetry_equiv_pos_as_xyz
  1  'x, y, z'
loop_
 _atom_site_type_symbol
 _atom_site_label
 _atom_site_symmetry_multiplicity
 _atom_site_fract_x
 _atom_site_fract_y
 _atom_site_fract_z
 _atom_site_occupancy
  Mg  Mg0  1  0.12780700  0.12780700  0.62127600  1
  Mg  Mg1  1  0.40392600  0.40392600  0.29606600  1
  Mg  Mg2  1  0.72332100  0.72332100  0.82706400  1
  Mg  Mg3  1  0.87209300  0.87209300  0.37357000  1
  Mg  Mg4  1  0.99863800  0.99863800  0.49862500  1
  Mg  Mg5  1  0.46936700  0.46936700  0.57612100  1
  Mg  Mg6  1  0.07289600  0.07289600  0.77675400  1
  Al  Al7  1  0.32603300  0.32603300  0.02974200  1
  Al  Al8  1  0.94008700  0.94008700  0.22083400  1
  Al  Al9  1  0.98312900  0.98312900  0.00792800  1
  Al  Al10  1  0.30074700  0.79804900  0.10132900  1
  Al  Al11  1  0.61908200  0.61908200  0.19453800  1
  Al  Al12  1  0.53469500  0.53469500  0.42056400  1
  Al  Al13  1  0.79804900  0.30074700  0.10132900  1
  Al  Al14  1  0.90934300  0.40033600  0.29760900  1
  Al  Al15  1  0.40033600  0.90934300  0.29760900  1
  Al  Al16  1  0.26931200  0.26931200  0.17223400  1
  Al  Al17  1  0.20420700  0.20420700  0.39519700  1
  Al  Al18  1  0.50673300  0.99671000  0.49938700  1
  Al  Al19  1  0.79804000  0.79804000  0.59955700  1
  Al  Al20  1  0.99671000  0.50673300  0.49938700  1
  Al  Al21  1  0.09748100  0.59965000  0.70091000  1
  Al  Al22  1  0.39783300  0.39783300  0.80138600  1
  Al  Al23  1  0.59965000  0.09748100  0.70091000  1
  Al  Al24  1  0.59882800  0.59882800  0.70132100  1
  Al  Al25  1  0.69411700  0.19875100  0.90297300  1
  Al  Al26  1  0.19875100  0.69411700  0.90297300  1
  Al  Al27  1  0.19720500  0.19720500  0.90341900  1
  Al  Al28  1  0.66551700  0.66551700  0.98043600  1
  O  O29  1  0.66392400  0.16439700  0.04826700  1
  O  O30  1  0.96537900  0.96537900  0.14508700  1
  O  O31  1  0.16439700  0.66392400  0.04826700  1
  O  O32  1  0.13927600  0.13927600  0.05001900  1
  O  O33  1  0.27876600  0.75788200  0.24728700  1
  O  O34  1  0.45822100  0.45822100  0.14821700  1
  O  O35  1  0.63457700  0.63457700  0.05436900  1
  O  O36  1  0.56351100  0.56351100  0.34244300  1
  O  O37  1  0.75788200  0.27876600  0.24728700  1
  O  O38  1  0.44050500  0.93540000  0.14894100  1
  O  O39  1  0.93540000  0.44050500  0.14894100  1
  O  O40  1  0.75072900  0.75072900  0.24791200  1
  O  O41  1  0.87163500  0.35374000  0.44561700  1
  O  O42  1  0.06834700  0.06834700  0.34319200  1
  O  O43  1  0.05914600  0.51649100  0.34482600  1
  O  O44  1  0.35374000  0.87163500  0.44561700  1
  O  O45  1  0.16355600  0.16355600  0.53742600  1
  O  O46  1  0.24626400  0.24626400  0.24905100  1
  O  O47  1  0.34885200  0.34885200  0.44637700  1
  O  O48  1  0.51649100  0.05914600  0.34482600  1
  O  O49  1  0.48034400  0.92907100  0.65537500  1
  O  O50  1  0.66274900  0.66274900  0.54774500  1
  O  O51  1  0.75134400  0.75134400  0.74453000  1
  O  O52  1  0.65234800  0.11163100  0.55052200  1
  O  O53  1  0.83830700  0.83830700  0.45633100  1
  O  O54  1  0.92907100  0.48034400  0.65537500  1
  O  O55  1  0.11163100  0.65234800  0.55052200  1
  O  O56  1  0.93165900  0.93165900  0.65436600  1
  O  O57  1  0.08304100  0.52710600  0.85737100  1
  O  O58  1  0.26660200  0.26660200  0.75103300  1
  O  O59  1  0.52710600  0.08304100  0.85737100  1
  O  O60  1  0.26671000  0.71186000  0.75100400  1
  O  O61  1  0.44533600  0.44533600  0.66083400  1
  O  O62  1  0.34704900  0.34704900  0.94973400  1
  O  O63  1  0.52741000  0.52741000  0.85707100  1
  O  O64  1  0.71186000  0.26671000  0.75100400  1
  O  O65  1  0.85361500  0.85361500  0.95191800  1
  O  O66  1  0.85720800  0.32939700  0.94974800  1
  O  O67  1  0.04222000  0.04222000  0.86334400  1
  O  O68  1  0.32939700  0.85720800  0.94974800  1
