# generated using pymatgen
data_Tb6CdS10
_symmetry_space_group_name_H-M   'P 1'
_cell_length_a   7.23316000
_cell_length_b   7.26718627
_cell_length_c   29.92985480
_cell_angle_alpha   94.39682344
_cell_angle_beta   94.84136637
_cell_angle_gamma   108.79817743
_symmetry_Int_Tables_number   1
_chemical_formula_structural   Tb6CdS10
_chemical_formula_sum   'Tb24 Cd4 S40'
_cell_volume   1474.99980410
_cell_formula_units_Z   4
loop_
 _symmetry_equiv_pos_site_id
 _symmetry_equiv_pos_as_xyz
  1  'x, y, z'
loop_
 _atom_site_type_symbol
 _atom_site_label
 _atom_site_symmetry_multiplicity
 _atom_site_fract_x
 _atom_site_fract_y
 _atom_site_fract_z
 _atom_site_occupancy
  Tb  Tb0  1  0.82400000  0.19514600  0.02557400  1
  Tb  Tb1  1  0.99219100  0.63234000  0.12683400  1
  Tb  Tb2  1  0.43193700  0.79407000  0.22697700  1
  Tb  Tb3  1  0.46271300  0.60892500  0.07098300  1
  Tb  Tb4  1  0.60509100  0.24102900  0.32775900  1
  Tb  Tb5  1  0.02942500  0.38207600  0.43493100  1
  Tb  Tb6  1  0.40662400  0.26529600  0.17108100  1
  Tb  Tb7  1  0.06216100  0.19837900  0.27157100  1
  Tb  Tb8  1  0.18910600  0.83561000  0.52760200  1
  Tb  Tb9  1  0.63261100  0.00741700  0.62525300  1
  Tb  Tb10  1  0.01419100  0.87971900  0.37541600  1
  Tb  Tb11  1  0.42093400  0.67247500  0.34995400  1
  Tb  Tb12  1  0.67274200  0.79970000  0.47439200  1
  Tb  Tb13  1  0.80425400  0.43085700  0.72444100  1
  Tb  Tb14  1  0.22320900  0.59597300  0.82593600  1
  Tb  Tb15  1  0.60479600  0.45457500  0.57051400  1
  Tb  Tb16  1  0.26849600  0.39893100  0.66994000  1
  Tb  Tb17  1  0.40415900  0.01811100  0.92186000  1
  Tb  Tb18  1  0.18694600  0.07670000  0.77970600  1
  Tb  Tb19  1  0.62770100  0.87404100  0.75371100  1
  Tb  Tb20  1  0.08014300  0.82362200  0.64922800  1
  Tb  Tb21  1  0.80527700  0.68097500  0.97027900  1
  Tb  Tb22  1  0.21408700  0.45336500  0.94742200  1
  Tb  Tb23  1  0.68028900  0.42866500  0.85197000  1
  Cd  Cd24  1  0.83079800  0.08140500  0.14909500  1
  Cd  Cd25  1  0.27583700  0.03053500  0.05092100  1
  Cd  Cd26  1  0.87477300  0.62599500  0.24909000  1
  Cd  Cd27  1  0.47535100  0.23161400  0.45278500  1
  S  S28  1  0.17307000  0.31109500  0.09944100  1
  S  S29  1  0.67254100  0.30415400  0.10097400  1
  S  S30  1  0.76267100  0.89906800  0.30169200  1
  S  S31  1  0.65284100  0.64318700  0.17551900  1
  S  S32  1  0.27899900  0.91797400  0.30202900  1
  S  S33  1  0.10341200  0.97353900  0.19842100  1
  S  S34  1  0.07344200  0.57079400  0.02583600  1
  S  S35  1  0.84027600  0.85758500  0.07504700  1
  S  S36  1  0.36774800  0.49951000  0.49964700  1
  S  S37  1  0.25499800  0.26503500  0.37261000  1
  S  S38  1  0.36821100  0.87944300  0.12506000  1
  S  S39  1  0.85913700  0.51690900  0.50041600  1
  S  S40  1  0.70936000  0.57562900  0.39616200  1
  S  S41  1  0.44034000  0.44882400  0.27304800  1
  S  S42  1  0.68012800  0.16613600  0.22541800  1
  S  S43  1  0.96680900  0.09916300  0.69990500  1
  S  S44  1  0.10384000  0.47789500  0.20128700  1
  S  S45  1  0.98475900  0.49063600  0.32272400  1
  S  S46  1  0.84697200  0.83831400  0.57412400  1
  S  S47  1  0.46750900  0.10169000  0.70201700  1
  S  S48  1  0.30625700  0.15036400  0.60109500  1
  S  S49  1  0.27428500  0.75340000  0.42611500  1
  S  S50  1  0.54437900  0.69473400  0.89957400  1
  S  S51  1  0.04731500  0.04043800  0.46801700  1
  S  S52  1  0.68581000  0.06768100  0.40122600  1
  S  S53  1  0.57140100  0.07306500  0.52633000  1
  S  S54  1  0.06019600  0.68950800  0.90058000  1
  S  S55  1  0.45512100  0.45387500  0.77251200  1
  S  S56  1  0.90038400  0.74425600  0.79841500  1
  S  S57  1  0.88894400  0.39474100  0.63196700  1
  S  S58  1  0.65254500  0.66394500  0.67468100  1
  S  S59  1  0.31427400  0.67287900  0.60186000  1
  S  S60  1  0.19110100  0.68335100  0.72719600  1
  S  S61  1  0.07457000  0.05965200  0.97763700  1
  S  S62  1  0.51358100  0.38129400  0.99858600  1
  S  S63  1  0.46853700  0.97705100  0.82700400  1
  S  S64  1  0.26583800  0.25804400  0.86977300  1
  S  S65  1  0.89813600  0.26252900  0.79785000  1
  S  S66  1  0.78473400  0.28595500  0.92931900  1
  S  S67  1  0.49568600  0.86411300  0.99866000  1
