# generated using pymatgen
data_Ba23U8O48
_symmetry_space_group_name_H-M   'P 1'
_cell_length_a   13.05845206
_cell_length_b   13.05845206
_cell_length_c   13.05845206
_cell_angle_alpha   60.00000000
_cell_angle_beta   60.00000000
_cell_angle_gamma   60.00000000
_symmetry_Int_Tables_number   1
_chemical_formula_structural   Ba23U8O48
_chemical_formula_sum   'Ba23 U8 O48'
_cell_volume   1574.56320600
_cell_formula_units_Z   1
loop_
 _symmetry_equiv_pos_site_id
 _symmetry_equiv_pos_as_xyz
  1  'x, y, z'
loop_
 _atom_site_type_symbol
 _atom_site_label
 _atom_site_symmetry_multiplicity
 _atom_site_fract_x
 _atom_site_fract_y
 _atom_site_fract_z
 _atom_site_occupancy
  Ba  Ba0  1  0.50000000  0.50000000  0.00000000  1
  Ba  Ba1  1  0.63240800  0.63240800  0.10277600  1
  Ba  Ba2  1  0.36759200  0.36759200  0.36759200  1
  Ba  Ba3  1  0.50000000  0.50000000  0.50000000  1
  Ba  Ba4  1  0.00000000  0.50000000  0.00000000  1
  Ba  Ba5  1  0.50000000  0.00000000  0.00000000  1
  Ba  Ba6  1  0.00000000  0.50000000  0.50000000  1
  Ba  Ba7  1  0.36759200  0.89722400  0.36759200  1
  Ba  Ba8  1  0.10277600  0.63240800  0.63240800  1
  Ba  Ba9  1  0.31876400  0.89374500  0.89374500  1
  Ba  Ba10  1  0.10625500  0.68123600  0.10625500  1
  Ba  Ba11  1  0.89374500  0.89374500  0.89374500  1
  Ba  Ba12  1  0.10625500  0.10625500  0.68123600  1
  Ba  Ba13  1  0.89374500  0.89374500  0.31876400  1
  Ba  Ba14  1  0.10625500  0.10625500  0.10625500  1
  Ba  Ba15  1  0.00000000  0.00000000  0.50000000  1
  Ba  Ba16  1  0.89374500  0.31876400  0.89374500  1
  Ba  Ba17  1  0.68123600  0.10625500  0.10625500  1
  Ba  Ba18  1  0.89722400  0.36759200  0.36759200  1
  Ba  Ba19  1  0.63240800  0.10277600  0.63240800  1
  Ba  Ba20  1  0.50000000  0.00000000  0.50000000  1
  Ba  Ba21  1  0.63240800  0.63240800  0.63240800  1
  Ba  Ba22  1  0.36759200  0.36759200  0.89722400  1
  U  U23  1  0.25000000  0.25000000  0.25000000  1
  U  U24  1  0.25027300  0.74972700  0.74972700  1
  U  U25  1  0.25027300  0.74972700  0.25027300  1
  U  U26  1  0.25027300  0.25027300  0.74972700  1
  U  U27  1  0.74972700  0.74972700  0.25027300  1
  U  U28  1  0.75000000  0.75000000  0.75000000  1
  U  U29  1  0.74972700  0.25027300  0.74972700  1
  U  U30  1  0.74972700  0.25027300  0.25027300  1
  O  O31  1  0.86683100  0.13316900  0.86683100  1
  O  O32  1  0.86527500  0.35934800  0.64065200  1
  O  O33  1  0.64065200  0.13472500  0.86527500  1
  O  O34  1  0.35934800  0.13472500  0.86527500  1
  O  O35  1  0.86527500  0.64065200  0.35934800  1
  O  O36  1  0.63886200  0.36113800  0.63886200  1
  O  O37  1  0.64065200  0.35934800  0.86527500  1
  O  O38  1  0.86683100  0.86683100  0.13316900  1
  O  O39  1  0.36113800  0.36113800  0.63886200  1
  O  O40  1  0.13316900  0.13316900  0.86683100  1
  O  O41  1  0.63886200  0.63886200  0.36113800  1
  O  O42  1  0.36113800  0.63886200  0.36113800  1
  O  O43  1  0.64065200  0.86527500  0.13472500  1
  O  O44  1  0.13472500  0.35934800  0.64065200  1
  O  O45  1  0.13472500  0.35934800  0.86527500  1
  O  O46  1  0.64065200  0.86527500  0.35934800  1
  O  O47  1  0.36113800  0.63886200  0.63886200  1
  O  O48  1  0.35934800  0.64065200  0.86527500  1
  O  O49  1  0.35934800  0.86527500  0.13472500  1
  O  O50  1  0.13472500  0.64065200  0.35934800  1
  O  O51  1  0.35934800  0.86527500  0.64065200  1
  O  O52  1  0.13472500  0.64065200  0.86527500  1
  O  O53  1  0.13316900  0.86683100  0.13316900  1
  O  O54  1  0.13472500  0.86527500  0.35934800  1
  O  O55  1  0.86230300  0.63769700  0.63769700  1
  O  O56  1  0.36230300  0.13769700  0.13769700  1
  O  O57  1  0.13472500  0.86527500  0.64065200  1
  O  O58  1  0.86230300  0.63769700  0.86230300  1
  O  O59  1  0.36230300  0.13769700  0.36230300  1
  O  O60  1  0.13316900  0.86683100  0.86683100  1
  O  O61  1  0.86230300  0.86230300  0.63769700  1
  O  O62  1  0.36230300  0.36230300  0.13769700  1
  O  O63  1  0.63769700  0.63769700  0.86230300  1
  O  O64  1  0.13769700  0.13769700  0.36230300  1
  O  O65  1  0.86683100  0.13316900  0.13316900  1
  O  O66  1  0.13769700  0.36230300  0.13769700  1
  O  O67  1  0.86527500  0.13472500  0.35934800  1
  O  O68  1  0.63769700  0.86230300  0.63769700  1
  O  O69  1  0.13769700  0.36230300  0.36230300  1
  O  O70  1  0.86527500  0.13472500  0.64065200  1
  O  O71  1  0.63769700  0.86230300  0.86230300  1
  O  O72  1  0.86527500  0.35934800  0.13472500  1
  O  O73  1  0.64065200  0.13472500  0.35934800  1
  O  O74  1  0.64065200  0.35934800  0.13472500  1
  O  O75  1  0.86527500  0.64065200  0.13472500  1
  O  O76  1  0.35934800  0.13472500  0.64065200  1
  O  O77  1  0.63886200  0.36113800  0.36113800  1
  O  O78  1  0.35934800  0.64065200  0.13472500  1
