# generated using pymatgen
data_CsB9O13
_symmetry_space_group_name_H-M   'P 1'
_cell_length_a   9.36878300
_cell_length_b   9.36878300
_cell_length_c   12.93727000
_cell_angle_alpha   90.00000000
_cell_angle_beta   90.00000000
_cell_angle_gamma   90.00000000
_symmetry_Int_Tables_number   1
_chemical_formula_structural   CsB9O13
_chemical_formula_sum   'Cs4 B36 O52'
_cell_volume   1135.55716474
_cell_formula_units_Z   4
loop_
 _symmetry_equiv_pos_site_id
 _symmetry_equiv_pos_as_xyz
  1  'x, y, z'
loop_
 _atom_site_type_symbol
 _atom_site_label
 _atom_site_symmetry_multiplicity
 _atom_site_fract_x
 _atom_site_fract_y
 _atom_site_fract_z
 _atom_site_occupancy
  Cs  Cs0  1  0.00000000  0.42828300  0.00000000  1
  Cs  Cs1  1  0.00000000  0.57171700  0.50000000  1
  Cs  Cs2  1  0.42828300  0.00000000  0.75000000  1
  Cs  Cs3  1  0.57171700  0.00000000  0.25000000  1
  B  B4  1  0.01516000  0.15057000  0.81183500  1
  B  B5  1  0.01516000  0.84943000  0.68816500  1
  B  B6  1  0.11179800  0.66950400  0.79910000  1
  B  B7  1  0.11179800  0.33049600  0.70090000  1
  B  B8  1  0.14851700  0.30655200  0.27747400  1
  B  B9  1  0.14851700  0.69344800  0.22252600  1
  B  B10  1  0.15057000  0.01516000  0.93816500  1
  B  B11  1  0.15057000  0.98484000  0.56183500  1
  B  B12  1  0.30655200  0.85148300  0.02747400  1
  B  B13  1  0.30655200  0.14851700  0.47252600  1
  B  B14  1  0.33049600  0.11179800  0.04910000  1
  B  B15  1  0.33049600  0.88820200  0.45090000  1
  B  B16  1  0.38056500  0.38056500  0.37500000  1
  B  B17  1  0.38056500  0.61943500  0.12500000  1
  B  B18  1  0.36496500  0.56584300  0.79805300  1
  B  B19  1  0.36496500  0.43415700  0.70194700  1
  B  B20  1  0.43415700  0.36496500  0.04805300  1
  B  B21  1  0.43415700  0.63503500  0.45194700  1
  B  B22  1  0.56584300  0.63503500  0.54805300  1
  B  B23  1  0.56584300  0.36496500  0.95194700  1
  B  B24  1  0.63503500  0.56584300  0.20194700  1
  B  B25  1  0.63503500  0.43415700  0.29805300  1
  B  B26  1  0.61943500  0.38056500  0.62500000  1
  B  B27  1  0.61943500  0.61943500  0.87500000  1
  B  B28  1  0.66950400  0.11179800  0.95090000  1
  B  B29  1  0.66950400  0.88820200  0.54910000  1
  B  B30  1  0.69344800  0.14851700  0.52747400  1
  B  B31  1  0.69344800  0.85148300  0.97252600  1
  B  B32  1  0.84943000  0.01516000  0.06183500  1
  B  B33  1  0.84943000  0.98484000  0.43816500  1
  B  B34  1  0.85148300  0.30655200  0.72252600  1
  B  B35  1  0.85148300  0.69344800  0.77747400  1
  B  B36  1  0.88820200  0.66950400  0.20090000  1
  B  B37  1  0.88820200  0.33049600  0.29910000  1
  B  B38  1  0.98484000  0.15057000  0.18816500  1
  B  B39  1  0.98484000  0.84943000  0.31183500  1
  O  O40  1  0.02777500  0.36638900  0.32668600  1
  O  O41  1  0.02777500  0.63361100  0.17331400  1
  O  O42  1  0.03407300  0.03407300  0.87500000  1
  O  O43  1  0.03407300  0.96592700  0.62500000  1
  O  O44  1  0.12036000  0.19676400  0.20547800  1
  O  O45  1  0.12036000  0.80323600  0.29452200  1
  O  O46  1  0.13321700  0.78174100  0.72925000  1
  O  O47  1  0.13321700  0.21825900  0.77075000  1
  O  O48  1  0.19676400  0.12036000  0.54452200  1
  O  O49  1  0.19676400  0.87964000  0.95547800  1
  O  O50  1  0.21825900  0.13321700  0.97925000  1
  O  O51  1  0.21825900  0.86678300  0.52075000  1
  O  O52  1  0.22315800  0.59360000  0.83412300  1
  O  O53  1  0.22315800  0.40640000  0.66587700  1
  O  O54  1  0.28237800  0.34462400  0.29098000  1
  O  O55  1  0.28237800  0.65537700  0.20902000  1
  O  O56  1  0.34462400  0.71762200  0.04098000  1
  O  O57  1  0.34462400  0.28237800  0.45902000  1
  O  O58  1  0.35969600  0.47018600  0.09155600  1
  O  O59  1  0.35969600  0.52981400  0.40844400  1
  O  O60  1  0.36638900  0.97222500  0.07668600  1
  O  O61  1  0.36638900  0.02777500  0.42331400  1
  O  O62  1  0.40640000  0.22315800  0.08412300  1
  O  O63  1  0.40640000  0.77684200  0.41587700  1
  O  O64  1  0.47018600  0.35969600  0.65844400  1
  O  O65  1  0.47018600  0.64030400  0.84155600  1
  O  O66  1  0.52981400  0.35969600  0.34155600  1
  O  O67  1  0.52981400  0.64030400  0.15844400  1
  O  O68  1  0.59360000  0.77684200  0.58412300  1
  O  O69  1  0.59360000  0.22315800  0.91587700  1
  O  O70  1  0.63361100  0.02777500  0.57668600  1
  O  O71  1  0.63361100  0.97222500  0.92331400  1
  O  O72  1  0.64030400  0.47018600  0.90844400  1
  O  O73  1  0.64030400  0.52981400  0.59155600  1
  O  O74  1  0.65537700  0.28237800  0.54098000  1
  O  O75  1  0.65537700  0.71762200  0.95902000  1
  O  O76  1  0.71762200  0.34462400  0.70902000  1
  O  O77  1  0.71762200  0.65537700  0.79098000  1
  O  O78  1  0.77684200  0.40640000  0.33412300  1
  O  O79  1  0.77684200  0.59360000  0.16587700  1
  O  O80  1  0.78174100  0.13321700  0.02075000  1
  O  O81  1  0.78174100  0.86678300  0.47925000  1
  O  O82  1  0.80323600  0.12036000  0.45547800  1
  O  O83  1  0.80323600  0.87964000  0.04452200  1
  O  O84  1  0.86678300  0.78174100  0.27075000  1
  O  O85  1  0.86678300  0.21825900  0.22925000  1
  O  O86  1  0.87964000  0.80323600  0.70547800  1
  O  O87  1  0.87964000  0.19676400  0.79452200  1
  O  O88  1  0.96592700  0.03407300  0.12500000  1
  O  O89  1  0.96592700  0.96592700  0.37500000  1
  O  O90  1  0.97222500  0.36638900  0.67331400  1
  O  O91  1  0.97222500  0.63361100  0.82668600  1
