# generated using pymatgen
data_La6Mn5O18
_symmetry_space_group_name_H-M   'P 1'
_cell_length_a   7.86912600
_cell_length_b   9.44279254
_cell_length_c   11.21681735
_cell_angle_alpha   107.40992447
_cell_angle_beta   89.98073764
_cell_angle_gamma   113.25935591
_symmetry_Int_Tables_number   1
_chemical_formula_structural   La6Mn5O18
_chemical_formula_sum   'La12 Mn10 O36'
_cell_volume   724.03404771
_cell_formula_units_Z   2
loop_
 _symmetry_equiv_pos_site_id
 _symmetry_equiv_pos_as_xyz
  1  'x, y, z'
loop_
 _atom_site_type_symbol
 _atom_site_label
 _atom_site_symmetry_multiplicity
 _atom_site_fract_x
 _atom_site_fract_y
 _atom_site_fract_z
 _atom_site_occupancy
  La  La0  1  0.89895800  0.31548300  0.07773500  1
  La  La1  1  0.10104200  0.68451700  0.92226500  1
  La  La2  1  0.42312100  0.30631800  0.07532000  1
  La  La3  1  0.24451700  0.99703000  0.75131600  1
  La  La4  1  0.40086600  0.31648800  0.58028900  1
  La  La5  1  0.57687900  0.69368200  0.92468000  1
  La  La6  1  0.74443100  0.99685700  0.74737100  1
  La  La7  1  0.59913400  0.68351200  0.41971100  1
  La  La8  1  0.75548300  0.00297000  0.24868400  1
  La  La9  1  0.92521600  0.30577600  0.57842400  1
  La  La10  1  0.07478400  0.69422400  0.42157600  1
  La  La11  1  0.25556900  0.00314300  0.25262900  1
  Mn  Mn12  1  0.33020900  0.65931500  0.16800000  1
  Mn  Mn13  1  0.66979100  0.34068500  0.83200000  1
  Mn  Mn14  1  0.83111100  0.66298800  0.16225900  1
  Mn  Mn15  1  0.00000000  0.00000000  0.00000000  1
  Mn  Mn16  1  0.16888900  0.33701200  0.83774100  1
  Mn  Mn17  1  0.33116200  0.66446600  0.66416600  1
  Mn  Mn18  1  0.50000000  0.00000000  0.50000000  1
  Mn  Mn19  1  0.66883800  0.33553400  0.33583400  1
  Mn  Mn20  1  0.83009200  0.66110800  0.66737500  1
  Mn  Mn21  1  0.16990800  0.33889200  0.33262500  1
  O  O22  1  0.62858300  0.20066900  0.92688900  1
  O  O23  1  0.76823200  0.00490600  0.03474200  1
  O  O24  1  0.58231600  0.66244200  0.13156000  1
  O  O25  1  0.96362800  0.85489200  0.10424900  1
  O  O26  1  0.86687600  0.80710700  0.84327800  1
  O  O27  1  0.80263200  0.52897500  0.98460900  1
  O  O28  1  0.94746700  0.84196900  0.61429800  1
  O  O29  1  0.19736800  0.47102500  0.01539100  1
  O  O30  1  0.07961900  0.66314100  0.69940100  1
  O  O31  1  0.13312400  0.19289300  0.15672200  1
  O  O32  1  0.91640000  0.33294200  0.79985700  1
  O  O33  1  0.03637200  0.14510800  0.89575100  1
  O  O34  1  0.29037400  0.52682600  0.77847000  1
  O  O35  1  0.41768400  0.33755800  0.86844000  1
  O  O36  1  0.20796900  0.47065000  0.51530900  1
  O  O37  1  0.23176800  0.99509400  0.96525800  1
  O  O38  1  0.13021300  0.19759400  0.67267600  1
  O  O39  1  0.37141700  0.79933100  0.07311100  1
  O  O40  1  0.30352400  0.52932000  0.27994900  1
  O  O41  1  0.53620200  0.14679600  0.67784700  1
  O  O42  1  0.41847800  0.33315600  0.36623500  1
  O  O43  1  0.44691100  0.84357700  0.80879900  1
  O  O44  1  0.26924500  0.00625500  0.46683900  1
  O  O45  1  0.36564700  0.81032600  0.56025800  1
  O  O46  1  0.63435300  0.18967400  0.43974200  1
  O  O47  1  0.73075500  0.99374500  0.53316100  1
  O  O48  1  0.55308900  0.15642300  0.19120100  1
  O  O49  1  0.58152200  0.66684400  0.63376500  1
  O  O50  1  0.46379800  0.85320400  0.32215300  1
  O  O51  1  0.69647600  0.47068000  0.72005100  1
  O  O52  1  0.86978700  0.80240600  0.32732400  1
  O  O53  1  0.79203100  0.52935000  0.48469100  1
  O  O54  1  0.70962600  0.47317400  0.22153000  1
  O  O55  1  0.08360000  0.66705800  0.20014300  1
  O  O56  1  0.92038100  0.33685900  0.30059900  1
  O  O57  1  0.05253300  0.15803100  0.38570200  1
