# generated using pymatgen
data_P4N6O
_symmetry_space_group_name_H-M   'P 1'
_cell_length_a   6.13371300
_cell_length_b   9.75467000
_cell_length_c   15.36019394
_cell_angle_alpha   72.16379363
_cell_angle_beta   90.00000000
_cell_angle_gamma   90.00000000
_symmetry_Int_Tables_number   1
_chemical_formula_structural   P4N6O
_chemical_formula_sum   'P24 N36 O6'
_cell_volume   874.86389906
_cell_formula_units_Z   6
loop_
 _symmetry_equiv_pos_site_id
 _symmetry_equiv_pos_as_xyz
  1  'x, y, z'
loop_
 _atom_site_type_symbol
 _atom_site_label
 _atom_site_symmetry_multiplicity
 _atom_site_fract_x
 _atom_site_fract_y
 _atom_site_fract_z
 _atom_site_occupancy
  P  P0  1  0.25854200  0.60304200  0.10369000  1
  P  P1  1  0.24742700  0.93751500  0.43792500  1
  P  P2  1  0.24970500  0.06241100  0.56239800  1
  P  P3  1  0.25113200  0.27439800  0.77153200  1
  P  P4  1  0.25504000  0.39800600  0.89385700  1
  P  P5  1  0.05272700  0.90776300  0.04640900  1
  P  P6  1  0.04796800  0.23953300  0.37954600  1
  P  P7  1  0.04282700  0.57576500  0.71421600  1
  P  P8  1  0.94727300  0.40776300  0.04640900  1
  P  P9  1  0.95203200  0.73953300  0.37954600  1
  P  P10  1  0.95717300  0.07576500  0.71421600  1
  P  P11  1  0.74145800  0.10304200  0.10369000  1
  P  P12  1  0.75583600  0.22647900  0.22822100  1
  P  P13  1  0.75257300  0.43751500  0.43792500  1
  P  P14  1  0.75029500  0.56241100  0.56239800  1
  P  P15  1  0.74886800  0.77439800  0.77153200  1
  P  P16  1  0.74496000  0.89800600  0.89385700  1
  P  P17  1  0.53951200  0.92571000  0.28543400  1
  P  P18  1  0.54390600  0.26165800  0.62083200  1
  P  P19  1  0.55349800  0.59285700  0.95654000  1
  P  P20  1  0.46048800  0.42571000  0.28543400  1
  P  P21  1  0.45609400  0.76165800  0.62083200  1
  P  P22  1  0.44650200  0.09285700  0.95654000  1
  P  P23  1  0.24416400  0.72647900  0.22822100  1
  N  N24  1  0.24027400  0.99618400  0.98983800  1
  N  N25  1  0.13500400  0.75069500  0.12127000  1
  N  N26  1  0.14983600  0.09180500  0.45469700  1
  N  N27  1  0.13967600  0.42531900  0.78995500  1
  N  N28  1  0.10287400  0.47545300  0.10305800  1
  N  N29  1  0.07405000  0.68160500  0.30804700  1
  N  N30  1  0.06684800  0.82300000  0.43961600  1
  N  N31  1  0.07087700  0.02210400  0.63916800  1
  N  N32  1  0.07991200  0.15444700  0.77471200  1
  N  N33  1  0.89712600  0.97545300  0.10305800  1
  N  N34  1  0.92595000  0.18160500  0.30804700  1
  N  N35  1  0.93315200  0.32300000  0.43961600  1
  N  N36  1  0.92912300  0.52210400  0.63916800  1
  N  N37  1  0.92008800  0.65444700  0.77471200  1
  N  N38  1  0.86499600  0.25069500  0.12127000  1
  N  N39  1  0.85016400  0.59180500  0.45469700  1
  N  N40  1  0.86032400  0.92531900  0.78995500  1
  N  N41  1  0.75972600  0.49618400  0.98983800  1
  N  N42  1  0.64732500  0.07410800  0.21265300  1
  N  N43  1  0.65183400  0.40750200  0.54645800  1
  N  N44  1  0.64062200  0.74813800  0.87794800  1
  N  N45  1  0.56143900  0.15577200  0.02879900  1
  N  N46  1  0.58600000  0.34923500  0.22376200  1
  N  N47  1  0.57447400  0.47802200  0.36127100  1
  N  N48  1  0.57266400  0.67857200  0.56114400  1
  N  N49  1  0.57743900  0.82111300  0.69220200  1
  N  N50  1  0.60567400  0.02693300  0.89672800  1
  N  N51  1  0.43856100  0.65577200  0.02879900  1
  N  N52  1  0.41400000  0.84923500  0.22376200  1
  N  N53  1  0.42552600  0.97802200  0.36127100  1
  N  N54  1  0.42733600  0.17857200  0.56114400  1
  N  N55  1  0.42256100  0.32111300  0.69220200  1
  N  N56  1  0.39432600  0.52693300  0.89672800  1
  N  N57  1  0.35267500  0.57410800  0.21265300  1
  N  N58  1  0.34816600  0.90750200  0.54645800  1
  N  N59  1  0.35937800  0.24813800  0.87794800  1
  O  O60  1  0.25570800  0.32840700  0.33036000  1
  O  O61  1  0.25448700  0.66656500  0.67200800  1
  O  O62  1  0.08535900  0.33988200  0.97570600  1
  O  O63  1  0.91464100  0.83988200  0.97570600  1
  O  O64  1  0.74429200  0.82840700  0.33036000  1
  O  O65  1  0.74551300  0.16656500  0.67200800  1
