# generated using pymatgen
data_Cd(GaO2)2
_symmetry_space_group_name_H-M   'P 1'
_cell_length_a   6.17552206
_cell_length_b   6.17552206
_cell_length_c   30.46183700
_cell_angle_alpha   90.00000000
_cell_angle_beta   90.00000000
_cell_angle_gamma   120.00000062
_symmetry_Int_Tables_number   1
_chemical_formula_structural   Cd(GaO2)2
_chemical_formula_sum   'Cd12 Ga24 O48'
_cell_volume   1006.08360860
_cell_formula_units_Z   12
loop_
 _symmetry_equiv_pos_site_id
 _symmetry_equiv_pos_as_xyz
  1  'x, y, z'
loop_
 _atom_site_type_symbol
 _atom_site_label
 _atom_site_symmetry_multiplicity
 _atom_site_fract_x
 _atom_site_fract_y
 _atom_site_fract_z
 _atom_site_occupancy
  Cd  Cd0  1  0.33333300  0.66666700  0.95689400  1
  Cd  Cd1  1  0.66666700  0.33333300  0.98098900  1
  Cd  Cd2  1  0.66666700  0.33333300  0.78975300  1
  Cd  Cd3  1  0.00000000  0.00000000  0.81071500  1
  Cd  Cd4  1  0.00000000  0.00000000  0.62310000  1
  Cd  Cd5  1  0.00000000  0.00000000  0.49994800  1
  Cd  Cd6  1  0.66666700  0.33333300  0.66878100  1
  Cd  Cd7  1  0.33333300  0.66666700  0.45895100  1
  Cd  Cd8  1  0.66666700  0.33333300  0.29230300  1
  Cd  Cd9  1  0.33333300  0.66666700  0.33319700  1
  Cd  Cd10  1  0.00000000  0.00000000  0.12495200  1
  Cd  Cd11  1  0.66666700  0.33333300  0.16536500  1
  Ga  Ga12  1  0.00000000  0.00000000  0.00198600  1
  Ga  Ga13  1  0.82853200  0.17146800  0.89584200  1
  Ga  Ga14  1  0.34293600  0.17146800  0.89584200  1
  Ga  Ga15  1  0.33333300  0.66666700  0.83692100  1
  Ga  Ga16  1  0.82853200  0.65706400  0.89584200  1
  Ga  Ga17  1  0.16395600  0.83604400  0.72698600  1
  Ga  Ga18  1  0.67208900  0.83604400  0.72698600  1
  Ga  Ga19  1  0.16395600  0.32791100  0.72698600  1
  Ga  Ga20  1  0.50015300  0.49984700  0.56264200  1
  Ga  Ga21  1  0.99969400  0.49984700  0.56264200  1
  Ga  Ga22  1  0.33333300  0.66666700  0.64519800  1
  Ga  Ga23  1  0.50015300  0.00030600  0.56264200  1
  Ga  Ga24  1  0.83320600  0.16679400  0.39605100  1
  Ga  Ga25  1  0.66666700  0.33333300  0.47941300  1
  Ga  Ga26  1  0.33358700  0.16679400  0.39605100  1
  Ga  Ga27  1  0.83320600  0.66641300  0.39605100  1
  Ga  Ga28  1  0.16606300  0.83393700  0.22956100  1
  Ga  Ga29  1  0.00000000  0.00000000  0.31293000  1
  Ga  Ga30  1  0.66787300  0.83393700  0.22956100  1
  Ga  Ga31  1  0.16606300  0.33212700  0.22956100  1
  Ga  Ga32  1  0.49589900  0.50410100  0.06380800  1
  Ga  Ga33  1  0.00820200  0.50410100  0.06380800  1
  Ga  Ga34  1  0.33333300  0.66666700  0.14756100  1
  Ga  Ga35  1  0.49589900  0.99179800  0.06380800  1
  O  O36  1  0.51700700  0.03401400  0.92957700  1
  O  O37  1  0.96598600  0.48299300  0.92957700  1
  O  O38  1  0.66666700  0.33333300  0.86064200  1
  O  O39  1  0.51700700  0.48299300  0.92957700  1
  O  O40  1  0.16180400  0.83819600  0.86080600  1
  O  O41  1  0.84751300  0.69502600  0.75932600  1
  O  O42  1  0.00000000  0.00000000  0.93698500  1
  O  O43  1  0.67639300  0.83819600  0.86080600  1
  O  O44  1  0.30497400  0.15248700  0.75932600  1
  O  O45  1  0.00000000  0.00000000  0.69293400  1
  O  O46  1  0.16180400  0.32360700  0.86080600  1
  O  O47  1  0.84751300  0.15248700  0.75932600  1
  O  O48  1  0.47226500  0.52773500  0.69015000  1
  O  O49  1  0.19122700  0.38245500  0.60038500  1
  O  O50  1  0.33333300  0.66666700  0.77342200  1
  O  O51  1  0.61754500  0.80877300  0.60038500  1
  O  O52  1  0.05547100  0.52773500  0.69015000  1
  O  O53  1  0.33333300  0.66666700  0.52964300  1
  O  O54  1  0.47226500  0.94452900  0.69015000  1
  O  O55  1  0.19122700  0.80877300  0.60038500  1
  O  O56  1  0.80899500  0.19100500  0.52372200  1
  O  O57  1  0.52396800  0.04793600  0.43428900  1
  O  O58  1  0.66666700  0.33333300  0.59587800  1
  O  O59  1  0.95206400  0.47603200  0.43428900  1
  O  O60  1  0.38201100  0.19100500  0.52372200  1
  O  O61  1  0.66666700  0.33333300  0.36325600  1
  O  O62  1  0.80899500  0.61798900  0.52372200  1
  O  O63  1  0.52396800  0.47603200  0.43428900  1
  O  O64  1  0.85737400  0.71474800  0.26781200  1
  O  O65  1  0.14253700  0.85746300  0.35702000  1
  O  O66  1  0.00000000  0.00000000  0.42830700  1
  O  O67  1  0.71492600  0.85746300  0.35702000  1
  O  O68  1  0.28525200  0.14262600  0.26781200  1
  O  O69  1  0.00000000  0.00000000  0.19649600  1
  O  O70  1  0.14253700  0.28507400  0.35702000  1
  O  O71  1  0.85737400  0.14262600  0.26781200  1
  O  O72  1  0.19241700  0.38483400  0.10295900  1
  O  O73  1  0.47702300  0.52297700  0.19074600  1
  O  O74  1  0.33333300  0.66666700  0.26151300  1
  O  O75  1  0.04595300  0.52297700  0.19074600  1
  O  O76  1  0.33333300  0.66666700  0.02985600  1
  O  O77  1  0.61516600  0.80758300  0.10295900  1
  O  O78  1  0.47702300  0.95404700  0.19074600  1
  O  O79  1  0.19241700  0.80758300  0.10295900  1
  O  O80  1  0.83601000  0.16399000  0.02838200  1
  O  O81  1  0.32798100  0.16399000  0.02838200  1
  O  O82  1  0.66666700  0.33333300  0.09192000  1
  O  O83  1  0.83601000  0.67201900  0.02838200  1
