# generated using pymatgen
data_MnV2O4
_symmetry_space_group_name_H-M   'P 1'
_cell_length_a   6.03465565
_cell_length_b   6.03465597
_cell_length_c   24.49686530
_cell_angle_alpha   60.48259375
_cell_angle_beta   60.48259199
_cell_angle_gamma   60.00000046
_symmetry_Int_Tables_number   1
_chemical_formula_structural   MnV2O4
_chemical_formula_sum   'Mn8 V16 O32'
_cell_volume   635.37514710
_cell_formula_units_Z   8
loop_
 _symmetry_equiv_pos_site_id
 _symmetry_equiv_pos_as_xyz
  1  'x, y, z'
loop_
 _atom_site_type_symbol
 _atom_site_label
 _atom_site_symmetry_multiplicity
 _atom_site_fract_x
 _atom_site_fract_y
 _atom_site_fract_z
 _atom_site_occupancy
  Mn  Mn0  1  0.50299000  0.50299000  0.99775800  1
  Mn  Mn1  1  0.49843900  0.49843900  0.25117100  1
  Mn  Mn2  1  0.13020400  0.13020400  0.52734700  1
  Mn  Mn3  1  0.12873100  0.12873100  0.77845100  1
  Mn  Mn4  1  0.87773200  0.87773200  0.21670100  1
  Mn  Mn5  1  0.87593600  0.87593600  0.46804800  1
  Mn  Mn6  1  0.87422200  0.87422200  0.71933400  1
  Mn  Mn7  1  0.87670600  0.87670600  0.96747100  1
  V  V8  1  0.12412700  0.12412700  0.03190500  1
  V  V9  1  0.50023500  0.99872000  0.12520300  1
  V  V10  1  0.12316200  0.12316200  0.28262900  1
  V  V11  1  0.50023500  0.50023500  0.12520300  1
  V  V12  1  0.50413400  0.98727000  0.37611600  1
  V  V13  1  0.99872000  0.50023500  0.12520300  1
  V  V14  1  0.50413400  0.50413400  0.37611600  1
  V  V15  1  0.49212000  0.49212000  0.50591000  1
  V  V16  1  0.50300800  0.99517100  0.62470300  1
  V  V17  1  0.98727000  0.50413400  0.37611600  1
  V  V18  1  0.50300800  0.50300800  0.62470300  1
  V  V19  1  0.49787500  0.49787500  0.75159400  1
  V  V20  1  0.50000600  0.00586700  0.87353100  1
  V  V21  1  0.99517100  0.50300800  0.62470300  1
  V  V22  1  0.50000600  0.50000600  0.87353100  1
  V  V23  1  0.00586700  0.50000600  0.87353100  1
  O  O24  1  0.24865100  0.24865100  0.06663400  1
  O  O25  1  0.24865100  0.73616500  0.06663400  1
  O  O26  1  0.25387100  0.25387100  0.18459700  1
  O  O27  1  0.73616500  0.24865100  0.06663400  1
  O  O28  1  0.24199200  0.24199200  0.31997000  1
  O  O29  1  0.28801600  0.74668700  0.17965300  1
  O  O30  1  0.73873900  0.73873900  0.07094600  1
  O  O31  1  0.74668700  0.28801600  0.17965300  1
  O  O32  1  0.26644700  0.26644700  0.42516500  1
  O  O33  1  0.24199200  0.73613500  0.31997000  1
  O  O34  1  0.73613500  0.24199200  0.31997000  1
  O  O35  1  0.74668700  0.74668700  0.17965300  1
  O  O36  1  0.28965600  0.72782900  0.43867100  1
  O  O37  1  0.25619200  0.25619200  0.56812500  1
  O  O38  1  0.73977600  0.73977600  0.32016800  1
  O  O39  1  0.26523600  0.26523600  0.67607300  1
  O  O40  1  0.72782900  0.28965600  0.43867100  1
  O  O41  1  0.25619200  0.71511500  0.56812500  1
  O  O42  1  0.72782900  0.72782900  0.43867100  1
  O  O43  1  0.71511500  0.25619200  0.56812500  1
  O  O44  1  0.26327700  0.26327700  0.81462300  1
  O  O45  1  0.29013200  0.73431600  0.68530900  1
  O  O46  1  0.73887300  0.73887300  0.57084600  1
  O  O47  1  0.73431600  0.29013200  0.68530900  1
  O  O48  1  0.25383600  0.25383600  0.93462300  1
  O  O49  1  0.26327700  0.71495200  0.81462300  1
  O  O50  1  0.71495200  0.26327700  0.81462300  1
  O  O51  1  0.73431600  0.73431600  0.68530900  1
  O  O52  1  0.28933700  0.75198100  0.92667500  1
  O  O53  1  0.73783000  0.73783000  0.82162800  1
  O  O54  1  0.75198100  0.28933700  0.92667500  1
  O  O55  1  0.75198100  0.75198100  0.92667500  1
