# generated using pymatgen
data_Nd6F17
_symmetry_space_group_name_H-M   'P 1'
_cell_length_a   7.08277022
_cell_length_b   7.08277022
_cell_length_c   21.81109700
_cell_angle_alpha   90.00000000
_cell_angle_beta   90.00000000
_cell_angle_gamma   120.00000203
_symmetry_Int_Tables_number   1
_chemical_formula_structural   Nd6F17
_chemical_formula_sum   'Nd18 F51'
_cell_volume   947.57683868
_cell_formula_units_Z   3
loop_
 _symmetry_equiv_pos_site_id
 _symmetry_equiv_pos_as_xyz
  1  'x, y, z'
loop_
 _atom_site_type_symbol
 _atom_site_label
 _atom_site_symmetry_multiplicity
 _atom_site_fract_x
 _atom_site_fract_y
 _atom_site_fract_z
 _atom_site_occupancy
  Nd  Nd0  1  0.99865000  0.65501800  0.25021700  1
  Nd  Nd1  1  0.00235000  0.65768700  0.58409500  1
  Nd  Nd2  1  0.99980300  0.65657300  0.91659800  1
  Nd  Nd3  1  0.34047900  0.99969000  0.08404200  1
  Nd  Nd4  1  0.65677000  0.00019700  0.24993100  1
  Nd  Nd5  1  0.65636800  0.00135000  0.58355100  1
  Nd  Nd6  1  0.34231300  0.34466300  0.25076200  1
  Nd  Nd7  1  0.34342700  0.34323000  0.58326400  1
  Nd  Nd8  1  0.34498200  0.34363200  0.91688400  1
  Nd  Nd9  1  0.65580600  0.65626600  0.08383300  1
  Nd  Nd10  1  0.65921100  0.65952100  0.41737500  1
  Nd  Nd11  1  0.65659600  0.65572700  0.74977200  1
  Nd  Nd12  1  0.34427300  0.00086900  0.41643900  1
  Nd  Nd13  1  0.34373400  0.99954000  0.75050000  1
  Nd  Nd14  1  0.65533700  0.99765000  0.91742800  1
  Nd  Nd15  1  0.99913100  0.34340400  0.08310500  1
  Nd  Nd16  1  0.00046000  0.34419400  0.41716700  1
  Nd  Nd17  1  0.00031000  0.34078900  0.75070800  1
  F  F18  1  0.99480700  0.99887100  0.08155800  1
  F  F19  1  0.06025900  0.68949800  0.02587800  1
  F  F20  1  0.06024200  0.69249500  0.35945400  1
  F  F21  1  0.31174500  0.93714400  0.19459600  1
  F  F22  1  0.31062700  0.94053600  0.52672300  1
  F  F23  1  0.30946600  0.93782100  0.86082700  1
  F  F24  1  0.05946400  0.37009100  0.19339000  1
  F  F25  1  0.06217900  0.37164500  0.52749400  1
  F  F26  1  0.06285600  0.37460100  0.86126200  1
  F  F27  1  0.33631300  0.66939500  0.10355400  1
  F  F28  1  0.33308100  0.66368700  0.43688800  1
  F  F29  1  0.00406400  0.00519300  0.41489200  1
  F  F30  1  0.99872900  0.00215300  0.58340000  1
  F  F31  1  0.00112900  0.99593600  0.74822500  1
  F  F32  1  0.33060500  0.66691900  0.77022100  1
  F  F33  1  0.33283400  0.66704000  0.27313600  1
  F  F34  1  0.33420600  0.66716600  0.60646900  1
  F  F35  1  0.33296000  0.66579400  0.93980200  1
  F  F36  1  0.30750500  0.36774700  0.02612000  1
  F  F37  1  0.31050200  0.37076100  0.69254500  1
  F  F38  1  0.62923900  0.93974100  0.35921100  1
  F  F39  1  0.63225300  0.93975800  0.69278700  1
  F  F40  1  0.36778500  0.30892200  0.14002000  1
  F  F41  1  0.36806500  0.31212700  0.47123700  1
  F  F42  1  0.36671400  0.30955900  0.80658200  1
  F  F43  1  0.62835500  0.69053400  0.19416100  1
  F  F44  1  0.62539900  0.68825500  0.52792900  1
  F  F45  1  0.62990900  0.68937300  0.86005600  1
  F  F46  1  0.37109200  0.06938700  0.30758400  1
  F  F47  1  0.36233600  0.05319500  0.64009500  1
  F  F48  1  0.38082000  0.06163800  0.97395800  1
  F  F49  1  0.68081800  0.61918000  0.30729100  1
  F  F50  1  0.69829500  0.62890800  0.64091800  1
  F  F51  1  0.69085900  0.63766400  0.97342900  1
  F  F52  1  0.66586800  0.33290900  0.06140300  1
  F  F53  1  0.66704100  0.33413200  0.39473600  1
  F  F54  1  0.66709100  0.33295900  0.72806900  1
  F  F55  1  0.66731100  0.33224300  0.22796000  1
  F  F56  1  0.66493300  0.33268900  0.56129300  1
  F  F57  1  0.66775700  0.33506700  0.89462600  1
  F  F58  1  0.94406100  0.63193500  0.80457100  1
  F  F59  1  0.94284500  0.63328600  0.13991500  1
  F  F60  1  0.94113600  0.63221500  0.47335400  1
  F  F61  1  0.68787300  0.05593900  0.13790400  1
  F  F62  1  0.69044100  0.05715500  0.47324800  1
  F  F63  1  0.69107800  0.05886400  0.80668700  1
  F  F64  1  0.94680500  0.30914100  0.30676200  1
  F  F65  1  0.93836200  0.31918200  0.64062400  1
  F  F66  1  0.93061300  0.30170500  0.97425100  1
  F  F67  1  0.99784700  0.99657600  0.25006700  1
  F  F68  1  0.00342400  0.00127100  0.91673400  1
