# generated using pymatgen
data_Mn2VO4
_symmetry_space_group_name_H-M   'P 1'
_cell_length_a   6.21324551
_cell_length_b   6.20742411
_cell_length_c   24.70774045
_cell_angle_alpha   120.08762542
_cell_angle_beta   119.92151043
_cell_angle_gamma   91.66709619
_symmetry_Int_Tables_number   1
_chemical_formula_structural   Mn2VO4
_chemical_formula_sum   'Mn16 V8 O32'
_cell_volume   663.27475954
_cell_formula_units_Z   8
loop_
 _symmetry_equiv_pos_site_id
 _symmetry_equiv_pos_as_xyz
  1  'x, y, z'
loop_
 _atom_site_type_symbol
 _atom_site_label
 _atom_site_symmetry_multiplicity
 _atom_site_fract_x
 _atom_site_fract_y
 _atom_site_fract_z
 _atom_site_occupancy
  Mn  Mn0  1  0.10597900  0.87921500  0.81398700  1
  Mn  Mn1  1  0.50010400  0.50348200  0.00186900  1
  Mn  Mn2  1  0.49372800  0.49247600  0.87321400  1
  Mn  Mn3  1  0.10878600  0.88705600  0.56186900  1
  Mn  Mn4  1  0.49386100  0.49238000  0.74907800  1
  Mn  Mn5  1  0.88118300  0.12180500  0.93678200  1
  Mn  Mn6  1  0.50187200  0.49526800  0.62421000  1
  Mn  Mn7  1  0.11297500  0.88396800  0.30898700  1
  Mn  Mn8  1  0.50069500  0.49367900  0.49934700  1
  Mn  Mn9  1  0.87474000  0.11667600  0.68507300  1
  Mn  Mn10  1  0.50886000  0.50097300  0.37575500  1
  Mn  Mn11  1  0.50544500  0.50180500  0.25076900  1
  Mn  Mn12  1  0.88189300  0.12311700  0.43821800  1
  Mn  Mn13  1  0.49354700  0.49714500  0.12329600  1
  Mn  Mn14  1  0.49716200  0.00354500  0.00039600  1
  Mn  Mn15  1  0.89350800  0.14142300  0.19201900  1
  V  V16  1  0.97718800  0.47645400  0.86677100  1
  V  V17  1  0.00376300  0.50607700  0.62598700  1
  V  V18  1  0.47178700  0.97627300  0.74475900  1
  V  V19  1  0.01847500  0.52002200  0.37934900  1
  V  V20  1  0.48945000  0.99128500  0.49688500  1
  V  V21  1  0.98710100  0.51979400  0.12626500  1
  V  V22  1  0.12007100  0.87793500  0.06358900  1
  V  V23  1  0.51347900  0.01280200  0.25198000  1
  O  O24  1  0.23656100  0.75551500  0.00485700  1
  O  O25  1  0.22519600  0.29866500  0.88108100  1
  O  O26  1  0.23603500  0.71885200  0.87614700  1
  O  O27  1  0.76468100  0.75539500  0.00406900  1
  O  O28  1  0.24260700  0.74521000  0.74358700  1
  O  O29  1  0.28350500  0.22057200  0.74949600  1
  O  O30  1  0.24362300  0.74314600  0.62909400  1
  O  O31  1  0.22984300  0.29672000  0.62778400  1
  O  O32  1  0.77896900  0.70237800  0.87330900  1
  O  O33  1  0.72792700  0.23047200  0.86063000  1
  O  O34  1  0.69361900  0.75938000  0.74504900  1
  O  O35  1  0.74069000  0.23469800  0.75546500  1
  O  O36  1  0.25137700  0.74984700  0.49404900  1
  O  O37  1  0.29103900  0.22571000  0.50172000  1
  O  O38  1  0.25006200  0.74970700  0.37943800  1
  O  O39  1  0.23655800  0.29732200  0.37768400  1
  O  O40  1  0.77013500  0.70610300  0.62192900  1
  O  O41  1  0.74911800  0.24740200  0.61491900  1
  O  O42  1  0.69941400  0.76516600  0.49586400  1
  O  O43  1  0.74855400  0.24563800  0.50812500  1
  O  O44  1  0.25656100  0.74030600  0.23910400  1
  O  O45  1  0.30055700  0.22763700  0.25405700  1
  O  O46  1  0.23887400  0.23607600  0.12265100  1
  O  O47  1  0.24505900  0.77198500  0.12699300  1
  O  O48  1  0.77556300  0.71256000  0.37355900  1
  O  O49  1  0.76065300  0.25333100  0.36739100  1
  O  O50  1  0.69741200  0.76678900  0.24292600  1
  O  O51  1  0.76132600  0.26087800  0.26152200  1
  O  O52  1  0.28410700  0.25912700  0.00521400  1
  O  O53  1  0.77743200  0.72893100  0.12627600  1
  O  O54  1  0.77929000  0.29430000  0.12866300  1
  O  O55  1  0.78800400  0.28552000  0.01689700  1
