# generated using pymatgen
data_YbPr11Se16
_symmetry_space_group_name_H-M   'P 1'
_cell_length_a   8.99712800
_cell_length_b   9.00292900
_cell_length_c   17.96796900
_cell_angle_alpha   90.00000000
_cell_angle_beta   90.00000000
_cell_angle_gamma   90.00000000
_symmetry_Int_Tables_number   1
_chemical_formula_structural   YbPr11Se16
_chemical_formula_sum   'Yb2 Pr22 Se32'
_cell_volume   1455.41455542
_cell_formula_units_Z   2
loop_
 _symmetry_equiv_pos_site_id
 _symmetry_equiv_pos_as_xyz
  1  'x, y, z'
loop_
 _atom_site_type_symbol
 _atom_site_label
 _atom_site_symmetry_multiplicity
 _atom_site_fract_x
 _atom_site_fract_y
 _atom_site_fract_z
 _atom_site_occupancy
  Yb  Yb0  1  0.50000000  0.62482100  0.00000000  1
  Yb  Yb1  1  0.00000000  0.37517900  0.50000000  1
  Pr  Pr2  1  0.37661900  0.25029400  0.37560400  1
  Pr  Pr3  1  0.12584400  0.74848200  0.37557600  1
  Pr  Pr4  1  0.74991200  0.50044600  0.31255800  1
  Pr  Pr5  1  0.49941100  0.87234900  0.24901400  1
  Pr  Pr6  1  0.87661900  0.74970600  0.12439600  1
  Pr  Pr7  1  0.24991200  0.49955400  0.18744200  1
  Pr  Pr8  1  0.99941100  0.12765100  0.25098600  1
  Pr  Pr9  1  0.62584400  0.25151800  0.12442400  1
  Pr  Pr10  1  0.25049500  0.99891600  0.06259200  1
  Pr  Pr11  1  0.00000000  0.37748400  0.00000000  1
  Pr  Pr12  1  0.74950500  0.99891600  0.93740800  1
  Pr  Pr13  1  0.37415600  0.25151800  0.87557600  1
  Pr  Pr14  1  0.12338100  0.74970600  0.87560400  1
  Pr  Pr15  1  0.75008800  0.49955400  0.81255800  1
  Pr  Pr16  1  0.50058900  0.87234900  0.75098600  1
  Pr  Pr17  1  0.87415600  0.74848200  0.62442400  1
  Pr  Pr18  1  0.25008800  0.50044600  0.68744200  1
  Pr  Pr19  1  0.00058900  0.12765100  0.74901400  1
  Pr  Pr20  1  0.62338100  0.25029400  0.62439600  1
  Pr  Pr21  1  0.24950500  0.00108400  0.56259200  1
  Pr  Pr22  1  0.75049500  0.00108400  0.43740800  1
  Pr  Pr23  1  0.50000000  0.62251600  0.50000000  1
  Se  Se24  1  0.07454100  0.42441300  0.33830300  1
  Se  Se25  1  0.67421700  0.17520800  0.28765000  1
  Se  Se26  1  0.42481900  0.57545200  0.33763900  1
  Se  Se27  1  0.57454100  0.57558700  0.16169700  1
  Se  Se28  1  0.92481900  0.42454800  0.16236100  1
  Se  Se29  1  0.82439100  0.82529000  0.28709600  1
  Se  Se30  1  0.32439100  0.17471000  0.21290400  1
  Se  Se31  1  0.57517300  0.92680300  0.08760600  1
  Se  Se32  1  0.17421700  0.82479200  0.21235000  1
  Se  Se33  1  0.17791100  0.67392800  0.03716900  1
  Se  Se34  1  0.92647700  0.07491000  0.08752100  1
  Se  Se35  1  0.07352300  0.07491000  0.91247900  1
  Se  Se36  1  0.42482700  0.92680300  0.91239400  1
  Se  Se37  1  0.32478400  0.32391000  0.03723000  1
  Se  Se38  1  0.82208900  0.67392800  0.96283100  1
  Se  Se39  1  0.07518100  0.42454800  0.83763900  1
  Se  Se40  1  0.67521600  0.32391000  0.96277000  1
  Se  Se41  1  0.67560900  0.17471000  0.78709600  1
  Se  Se42  1  0.42545900  0.57558700  0.83830300  1
  Se  Se43  1  0.57518100  0.57545200  0.66236100  1
  Se  Se44  1  0.92545900  0.42441300  0.66169700  1
  Se  Se45  1  0.82578300  0.82479200  0.78765000  1
  Se  Se46  1  0.32578300  0.17520800  0.71235000  1
  Se  Se47  1  0.57352300  0.92509000  0.58752100  1
  Se  Se48  1  0.17560900  0.82529000  0.71290400  1
  Se  Se49  1  0.17521600  0.67609000  0.53723000  1
  Se  Se50  1  0.92482700  0.07319700  0.58760600  1
  Se  Se51  1  0.07517300  0.07319700  0.41239400  1
  Se  Se52  1  0.42647700  0.92509000  0.41247900  1
  Se  Se53  1  0.82478400  0.67609000  0.46277000  1
  Se  Se54  1  0.32208900  0.32607200  0.53716900  1
  Se  Se55  1  0.67791100  0.32607200  0.46283100  1
