# generated using pymatgen
data_Ca12Al14O33
_symmetry_space_group_name_H-M   'P 1'
_cell_length_a   10.44952100
_cell_length_b   10.46028919
_cell_length_c   10.46896361
_cell_angle_alpha   109.32709100
_cell_angle_beta   109.91832318
_cell_angle_gamma   109.09723593
_symmetry_Int_Tables_number   1
_chemical_formula_structural   Ca12Al14O33
_chemical_formula_sum   'Ca12 Al14 O33'
_cell_volume   881.62534184
_cell_formula_units_Z   1
loop_
 _symmetry_equiv_pos_site_id
 _symmetry_equiv_pos_as_xyz
  1  'x, y, z'
loop_
 _atom_site_type_symbol
 _atom_site_label
 _atom_site_symmetry_multiplicity
 _atom_site_fract_x
 _atom_site_fract_y
 _atom_site_fract_z
 _atom_site_occupancy
  Ca  Ca0  1  0.45553100  0.74650000  0.69914000  1
  Ca  Ca1  1  0.75582800  0.61135700  0.36205300  1
  Ca  Ca2  1  0.13634300  0.39189400  0.25093300  1
  Ca  Ca3  1  0.75059600  0.13499600  0.88574900  1
  Ca  Ca4  1  0.36153700  0.10732100  0.74655900  1
  Ca  Ca5  1  0.80353400  0.74674400  0.05192600  1
  Ca  Ca6  1  0.24910400  0.88408900  0.14055500  1
  Ca  Ca7  1  0.61374400  0.86299600  0.25072700  1
  Ca  Ca8  1  0.11056800  0.24682700  0.85907500  1
  Ca  Ca9  1  0.87674300  0.64453600  0.75745600  1
  Ca  Ca10  1  0.64080200  0.25181600  0.39225100  1
  Ca  Ca11  1  0.25621400  0.36596800  0.61464500  1
  Al  Al12  1  0.37394400  0.24821300  0.12595900  1
  Al  Al13  1  0.12509200  0.74853900  0.37510500  1
  Al  Al14  1  0.75109400  0.87437900  0.62293900  1
  Al  Al15  1  0.46078700  0.46051100  0.96489900  1
  Al  Al16  1  0.00182900  0.03730600  0.00203200  1
  Al  Al17  1  0.00113300  0.53602500  0.00109700  1
  Al  Al18  1  0.96617800  0.96374000  0.46095700  1
  Al  Al19  1  0.62487000  0.37506800  0.75158600  1
  Al  Al20  1  0.49798500  0.99645000  0.53531400  1
  Al  Al21  1  0.24845500  0.62454300  0.87411900  1
  Al  Al22  1  0.53693700  0.49973400  0.49985200  1
  Al  Al23  1  0.03845000  0.50241400  0.50310800  1
  Al  Al24  1  0.87684800  0.12666600  0.25207500  1
  Al  Al25  1  0.50098900  0.00173600  0.03861500  1
  O  O26  1  0.70587400  0.68118400  0.57236100  1
  O  O27  1  0.87155600  0.49851700  0.50808400  1
  O  O28  1  0.52425500  0.40144900  0.31395500  1
  O  O29  1  0.36109500  0.48533700  0.48422400  1
  O  O30  1  0.09409800  0.58107300  0.39289100  1
  O  O31  1  0.98439700  0.79503600  0.39916800  1
  O  O32  1  0.59539000  0.90745300  0.61739000  1
  O  O33  1  0.31062100  0.91466700  0.51561000  1
  O  O34  1  0.91365000  0.12155100  0.09876300  1
  O  O35  1  0.38022800  0.28794700  0.97708000  1
  O  O36  1  0.50826400  0.01162900  0.87865700  1
  O  O37  1  0.18585700  0.21021700  0.09294600  1
  O  O38  1  0.10878600  0.70143400  0.19031100  1
  O  O39  1  0.79688300  0.89685600  0.48202200  1
  O  O40  1  0.99682100  0.36417100  0.99133100  1
  O  O41  1  0.90925000  0.01853100  0.81310100  1
  O  O42  1  0.47692900  0.37450700  0.79611400  1
  O  O43  1  0.81422700  0.52025000  0.90867400  1
  O  O44  1  0.59608800  0.18570900  0.70592100  1
  O  O45  1  0.01556700  0.87755200  0.00571800  1
  O  O46  1  0.62145100  0.62606300  0.13590100  1
  O  O47  1  0.09036300  0.61361200  0.90417200  1
  O  O48  1  0.88270500  0.97556200  0.28782400  1
  O  O49  1  0.28946700  0.47655300  0.88516700  1
  O  O50  1  0.40477800  0.81429300  0.02038200  1
  O  O51  1  0.61309500  0.40434100  0.59261600  1
  O  O52  1  0.13104600  0.13376200  0.62760500  1
  O  O53  1  0.50464200  0.99929400  0.37131600  1
  O  O54  1  0.21331900  0.59256800  0.68683600  1
  O  O55  1  0.64039100  0.72115400  0.84034300  1
  O  O56  1  0.02170100  0.31343500  0.41203200  1
  O  O57  1  0.68741900  0.09471300  0.21088300  1
  O  O58  1  0.40549200  0.09111300  0.11581300  1
