# generated using pymatgen
data_K2Ba3Sb4
_symmetry_space_group_name_H-M   'P 1'
_cell_length_a   9.46589500
_cell_length_b   11.32349994
_cell_length_c   29.58191825
_cell_angle_alpha   91.41209056
_cell_angle_beta   90.17754564
_cell_angle_gamma   96.94231316
_symmetry_Int_Tables_number   1
_chemical_formula_structural   K2Ba3Sb4
_chemical_formula_sum   'K16 Ba24 Sb32'
_cell_volume   3146.53682028
_cell_formula_units_Z   8
loop_
 _symmetry_equiv_pos_site_id
 _symmetry_equiv_pos_as_xyz
  1  'x, y, z'
loop_
 _atom_site_type_symbol
 _atom_site_label
 _atom_site_symmetry_multiplicity
 _atom_site_fract_x
 _atom_site_fract_y
 _atom_site_fract_z
 _atom_site_occupancy
  K  K0  1  0.02904600  0.10567400  0.05980200  1
  K  K1  1  0.98459100  0.11436400  0.69632300  1
  K  K2  1  0.87640800  0.50866500  0.37482700  1
  K  K3  1  0.85324400  0.52559000  0.86373500  1
  K  K4  1  0.80863900  0.68453500  0.05463100  1
  K  K5  1  0.80410400  0.67488400  0.20008700  1
  K  K6  1  0.82892000  0.68419800  0.54323700  1
  K  K7  1  0.63461000  0.96666500  0.10977700  1
  K  K8  1  0.65427900  0.96807300  0.64074600  1
  K  K9  1  0.48948000  0.62848200  0.80143500  1
  K  K10  1  0.49019500  0.35296700  0.18858300  1
  K  K11  1  0.49407900  0.35897300  0.55931000  1
  K  K12  1  0.43766900  0.99933800  0.38017200  1
  K  K13  1  0.35133500  0.04038100  0.88528900  1
  K  K14  1  0.11894500  0.49475700  0.13627800  1
  K  K15  1  0.12891200  0.50560500  0.62267100  1
  Ba  Ba16  1  0.96166500  0.09539300  0.20029800  1
  Ba  Ba17  1  0.01122800  0.11133600  0.56130800  1
  Ba  Ba18  1  0.82860000  0.67871300  0.69152100  1
  Ba  Ba19  1  0.66108700  0.19637200  0.29565100  1
  Ba  Ba20  1  0.67109800  0.20001500  0.45678400  1
  Ba  Ba21  1  0.66937400  0.17226700  0.80039700  1
  Ba  Ba22  1  0.70558700  0.21410200  0.94810200  1
  Ba  Ba23  1  0.49472100  0.60517500  0.30714000  1
  Ba  Ba24  1  0.49389800  0.61396300  0.44222100  1
  Ba  Ba25  1  0.47095600  0.67128000  0.92622400  1
  Ba  Ba26  1  0.53805000  0.36564800  0.06177900  1
  Ba  Ba27  1  0.50860000  0.36779300  0.68682400  1
  Ba  Ba28  1  0.29208700  0.78697100  0.05064700  1
  Ba  Ba29  1  0.34592100  0.80795300  0.20733300  1
  Ba  Ba30  1  0.35030100  0.82861500  0.54587900  1
  Ba  Ba31  1  0.33919500  0.81055500  0.70615200  1
  Ba  Ba32  1  0.17091100  0.32358100  0.30314300  1
  Ba  Ba33  1  0.18820700  0.33841200  0.80292600  1
  Ba  Ba34  1  0.19952700  0.32972300  0.95367900  1
  Ba  Ba35  1  0.17215700  0.32411400  0.44711800  1
  Ba  Ba36  1  0.02094800  0.92341600  0.79944500  1
  Ba  Ba37  1  0.02780700  0.90766200  0.30695300  1
  Ba  Ba38  1  0.03707800  0.92218800  0.44068700  1
  Ba  Ba39  1  0.93711800  0.90038600  0.93527100  1
  Sb  Sb40  1  0.93797500  0.16617100  0.37235500  1
  Sb  Sb41  1  0.98791900  0.16846900  0.87650600  1
  Sb  Sb42  1  0.86647400  0.38150100  0.21685300  1
  Sb  Sb43  1  0.88013400  0.38167100  0.53951700  1
  Sb  Sb44  1  0.87253100  0.38791900  0.71519200  1
  Sb  Sb45  1  0.90317500  0.38441600  0.04157300  1
  Sb  Sb46  1  0.73768600  0.79522700  0.37499400  1
  Sb  Sb47  1  0.65829400  0.88958100  0.85575700  1
  Sb  Sb48  1  0.79284000  0.26545400  0.12685200  1
  Sb  Sb49  1  0.77756100  0.26996400  0.62464300  1
  Sb  Sb50  1  0.60992400  0.92858500  0.99254600  1
  Sb  Sb51  1  0.66326200  0.88391300  0.28415600  1
  Sb  Sb52  1  0.67573100  0.88948700  0.46691100  1
  Sb  Sb53  1  0.68684100  0.88358200  0.75645200  1
  Sb  Sb54  1  0.48402600  0.62241800  0.12433500  1
  Sb  Sb55  1  0.50365300  0.63659200  0.62505100  1
  Sb  Sb56  1  0.48841800  0.35647000  0.37538600  1
  Sb  Sb57  1  0.49691300  0.37737000  0.87790900  1
  Sb  Sb58  1  0.30351500  0.09983500  0.24252200  1
  Sb  Sb59  1  0.31723600  0.10547100  0.50108000  1
  Sb  Sb60  1  0.32253400  0.11282000  0.73936500  1
  Sb  Sb61  1  0.38091800  0.08087600  0.00677100  1
  Sb  Sb62  1  0.23493800  0.73012500  0.37408500  1
  Sb  Sb63  1  0.18132100  0.74153100  0.86998600  1
  Sb  Sb64  1  0.28908000  0.05556200  0.14265100  1
  Sb  Sb65  1  0.30170300  0.06407900  0.63730200  1
  Sb  Sb66  1  0.09026400  0.62580700  0.95568200  1
  Sb  Sb67  1  0.12461500  0.62003300  0.28775400  1
  Sb  Sb68  1  0.13231300  0.63258600  0.46106500  1
  Sb  Sb69  1  0.10483200  0.62288200  0.78026100  1
  Sb  Sb70  1  0.04863500  0.86282500  0.13347000  1
  Sb  Sb71  1  0.06416200  0.86800000  0.62663500  1
