# generated using pymatgen
data_Ti5Fe7O18
_symmetry_space_group_name_H-M   'P 1'
_cell_length_a   5.59400800
_cell_length_b   9.18792103
_cell_length_c   12.76763704
_cell_angle_alpha   87.98147208
_cell_angle_beta   87.14904051
_cell_angle_gamma   84.47975927
_symmetry_Int_Tables_number   1
_chemical_formula_structural   Ti5Fe7O18
_chemical_formula_sum   'Ti10 Fe14 O36'
_cell_volume   652.06444797
_cell_formula_units_Z   2
loop_
 _symmetry_equiv_pos_site_id
 _symmetry_equiv_pos_as_xyz
  1  'x, y, z'
loop_
 _atom_site_type_symbol
 _atom_site_label
 _atom_site_symmetry_multiplicity
 _atom_site_fract_x
 _atom_site_fract_y
 _atom_site_fract_z
 _atom_site_occupancy
  Ti  Ti0  1  0.70611500  0.24172300  0.11574700  1
  Ti  Ti1  1  0.28907300  0.76251200  0.38450000  1
  Ti  Ti2  1  0.70247200  0.56851400  0.29157100  1
  Ti  Ti3  1  0.79305300  0.93248100  0.71513400  1
  Ti  Ti4  1  0.22021600  0.06733600  0.28172700  1
  Ti  Ti5  1  0.20927500  0.73476300  0.61888700  1
  Ti  Ti6  1  0.29565600  0.42797200  0.71511500  1
  Ti  Ti7  1  0.70703900  0.23558000  0.61513400  1
  Ti  Ti8  1  0.20292100  0.41044200  0.94819200  1
  Ti  Ti9  1  0.70218200  0.89968600  0.95082700  1
  Fe  Fe10  1  0.28656600  0.09425800  0.04961200  1
  Fe  Fe11  1  0.79513600  0.60017700  0.04759300  1
  Fe  Fe12  1  0.21335700  0.73607100  0.11771900  1
  Fe  Fe13  1  0.29014600  0.42978100  0.21450800  1
  Fe  Fe14  1  0.71256000  0.90920200  0.45235200  1
  Fe  Fe15  1  0.79144000  0.59502300  0.55152500  1
  Fe  Fe16  1  0.79978400  0.92541200  0.21372100  1
  Fe  Fe17  1  0.79540700  0.26649200  0.38159600  1
  Fe  Fe18  1  0.20968600  0.07041000  0.78716400  1
  Fe  Fe19  1  0.20630400  0.40229700  0.45027300  1
  Fe  Fe20  1  0.28726900  0.09667200  0.54860800  1
  Fe  Fe21  1  0.71272000  0.57295500  0.78497200  1
  Fe  Fe22  1  0.78540600  0.26021800  0.88256600  1
  Fe  Fe23  1  0.29008400  0.76481400  0.88159000  1
  O  O24  1  0.67004000  0.44054200  0.14406600  1
  O  O25  1  0.98730000  0.22764500  0.02902700  1
  O  O26  1  0.97845200  0.44477300  0.31675800  1
  O  O27  1  0.15640700  0.51362400  0.07558700  1
  O  O28  1  0.15519500  0.62882100  0.47539700  1
  O  O29  1  0.14326800  0.95615500  0.15241400  1
  O  O30  1  0.35738900  0.20142000  0.18835400  1
  O  O31  1  0.35254400  0.65927100  0.25946400  1
  O  O32  1  0.51396800  0.40345500  0.34659000  1
  O  O33  1  0.51434700  0.73273900  0.01200600  1
  O  O34  1  0.49744800  0.94218700  0.31047600  1
  O  O35  1  0.65030800  0.68445700  0.41023600  1
  O  O36  1  0.65806500  0.01078500  0.08020600  1
  O  O37  1  0.64926400  0.12663300  0.48024200  1
  O  O38  1  0.82769200  0.71024100  0.19154700  1
  O  O39  1  0.85108300  0.81890100  0.59320600  1
  O  O40  1  0.83843100  0.15644600  0.24338000  1
  O  O41  1  0.02118300  0.89649400  0.34581200  1
  O  O42  1  0.98312500  0.10750600  0.65129300  1
  O  O43  1  0.15604200  0.84437800  0.74081800  1
  O  O44  1  0.14702300  0.17539000  0.40195900  1
  O  O45  1  0.16435600  0.29540000  0.81440800  1
  O  O46  1  0.34018600  0.86931000  0.51927000  1
  O  O47  1  0.35457400  0.98830300  0.92261800  1
  O  O48  1  0.34608900  0.31993800  0.59197500  1
  O  O49  1  0.52393300  0.05841900  0.68295000  1
  O  O50  1  0.47693600  0.60651900  0.65148900  1
  O  O51  1  0.47248700  0.27116500  0.99262000  1
  O  O52  1  0.64975500  0.34747500  0.73883700  1
  O  O53  1  0.66613800  0.79532700  0.80987400  1
  O  O54  1  0.83912400  0.03957000  0.85637900  1
  O  O55  1  0.84290100  0.37191300  0.52404000  1
  O  O56  1  0.86015400  0.47888600  0.92157700  1
  O  O57  1  0.02764200  0.55996000  0.68198100  1
  O  O58  1  0.97643300  0.77487900  0.98540200  1
  O  O59  1  0.34685100  0.53628200  0.85711300  1
