# generated using pymatgen
data_Na11Ti10O21
_symmetry_space_group_name_H-M   'P 1'
_cell_length_a   5.71964300
_cell_length_b   9.13658615
_cell_length_c   18.36867357
_cell_angle_alpha   89.96309853
_cell_angle_beta   97.65872289
_cell_angle_gamma   105.52608815
_symmetry_Int_Tables_number   1
_chemical_formula_structural   Na11Ti10O21
_chemical_formula_sum   'Na22 Ti20 O42'
_cell_volume   916.01454185
_cell_formula_units_Z   2
loop_
 _symmetry_equiv_pos_site_id
 _symmetry_equiv_pos_as_xyz
  1  'x, y, z'
loop_
 _atom_site_type_symbol
 _atom_site_label
 _atom_site_symmetry_multiplicity
 _atom_site_fract_x
 _atom_site_fract_y
 _atom_site_fract_z
 _atom_site_occupancy
  Na  Na0  1  0.15389700  0.85521900  0.14694300  1
  Na  Na1  1  0.00274800  0.65808300  0.00060500  1
  Na  Na2  1  0.28979000  0.71567400  0.28630500  1
  Na  Na3  1  0.14689100  0.52988200  0.14359900  1
  Na  Na4  1  0.99725200  0.34191700  0.99939500  1
  Na  Na5  1  0.42901700  0.57136700  0.42866200  1
  Na  Na6  1  0.28613900  0.38085300  0.28533900  1
  Na  Na7  1  0.14305200  0.19176200  0.14348500  1
  Na  Na8  1  0.57158100  0.09411200  0.07116600  1
  Na  Na9  1  0.57098300  0.42863300  0.57133800  1
  Na  Na10  1  0.42937000  0.23840600  0.42885700  1
  Na  Na11  1  0.28867200  0.04781800  0.28834300  1
  Na  Na12  1  0.43034000  0.90476900  0.42846200  1
  Na  Na13  1  0.84610300  0.14478100  0.85305700  1
  Na  Na14  1  0.57063000  0.76159400  0.57114300  1
  Na  Na15  1  0.71021000  0.28432600  0.71369500  1
  Na  Na16  1  0.56966000  0.09523100  0.57153800  1
  Na  Na17  1  0.85694800  0.80823800  0.85651500  1
  Na  Na18  1  0.71386100  0.61914700  0.71466100  1
  Na  Na19  1  0.71132800  0.95218200  0.71165700  1
  Na  Na20  1  0.42841900  0.90588800  0.92883400  1
  Na  Na21  1  0.85310900  0.47011800  0.85640100  1
  Ti  Ti22  1  0.00000000  0.00000000  0.00000000  1
  Ti  Ti23  1  0.56220200  0.77137400  0.06708700  1
  Ti  Ti24  1  0.71503400  0.61926600  0.21430100  1
  Ti  Ti25  1  0.55796300  0.41693000  0.06947900  1
  Ti  Ti26  1  0.86051600  0.47766500  0.35955000  1
  Ti  Ti27  1  0.71161200  0.28266000  0.21270400  1
  Ti  Ti28  1  0.85914900  0.14559100  0.35707700  1
  Ti  Ti29  1  0.99760700  0.32998800  0.49772200  1
  Ti  Ti30  1  0.72430200  0.95128500  0.20889700  1
  Ti  Ti31  1  0.85718000  0.80580500  0.35689600  1
  Ti  Ti32  1  0.14282000  0.19419500  0.64310400  1
  Ti  Ti33  1  0.00000000  0.00000000  0.50000000  1
  Ti  Ti34  1  0.27569800  0.04871500  0.79110300  1
  Ti  Ti35  1  0.14085100  0.85440900  0.64292300  1
  Ti  Ti36  1  0.00239300  0.67001200  0.50227800  1
  Ti  Ti37  1  0.28838800  0.71734000  0.78729600  1
  Ti  Ti38  1  0.13948400  0.52233500  0.64045000  1
  Ti  Ti39  1  0.44203700  0.58307000  0.93052100  1
  Ti  Ti40  1  0.28496600  0.38073400  0.78569900  1
  Ti  Ti41  1  0.43779800  0.22862600  0.93291300  1
  O  O42  1  0.30676800  0.86676500  0.03982400  1
  O  O43  1  0.33555400  0.55300900  0.03464900  1
  O  O44  1  0.47637800  0.74467300  0.17794100  1
  O  O45  1  0.79787500  0.63175800  0.11081200  1
  O  O46  1  0.46866400  0.40883800  0.17721600  1
  O  O47  1  0.29091700  0.21932100  0.03055700  1
  O  O48  1  0.61086000  0.60149200  0.31924900  1
  O  O49  1  0.95468500  0.49309200  0.25403700  1
  O  O50  1  0.81782800  0.32464500  0.11420500  1
  O  O51  1  0.75641000  0.45973600  0.46283000  1
  O  O52  1  0.61864800  0.27186900  0.32052500  1
  O  O53  1  0.48791800  0.08079200  0.18820900  1
  O  O54  1  0.84789100  0.96352600  0.10659300  1
  O  O55  1  0.10675700  0.34972600  0.39417800  1
  O  O56  1  0.96054800  0.16026000  0.25159100  1
  O  O57  1  0.89636000  0.31497100  0.60498200  1
  O  O58  1  0.62568000  0.93499300  0.31906100  1
  O  O59  1  0.75262500  0.12475600  0.46189200  1
  O  O60  1  0.10113600  0.01724500  0.39585000  1
  O  O61  1  0.96133100  0.82654400  0.25278300  1
  O  O62  1  0.24405800  0.20780200  0.53777800  1
  O  O63  1  0.89886400  0.98275500  0.60415000  1
  O  O64  1  0.03866900  0.17345600  0.74721700  1
  O  O65  1  0.75594200  0.79219800  0.46222200  1
  O  O66  1  0.10364000  0.68502900  0.39501800  1
  O  O67  1  0.37432000  0.06500700  0.68093900  1
  O  O68  1  0.24737500  0.87524400  0.53810800  1
  O  O69  1  0.15210900  0.03647400  0.89340700  1
  O  O70  1  0.89324300  0.65027400  0.60582200  1
  O  O71  1  0.03945200  0.83974000  0.74840900  1
  O  O72  1  0.38135200  0.72813100  0.67947500  1
  O  O73  1  0.24359000  0.54026400  0.53717000  1
  O  O74  1  0.51208200  0.91920800  0.81179100  1
  O  O75  1  0.18217200  0.67535500  0.88579500  1
  O  O76  1  0.04531500  0.50690800  0.74596300  1
  O  O77  1  0.38914000  0.39850800  0.68075100  1
  O  O78  1  0.70908300  0.78067900  0.96944300  1
  O  O79  1  0.53133600  0.59116200  0.82278400  1
  O  O80  1  0.20212500  0.36824200  0.88918800  1
  O  O81  1  0.66444600  0.44699100  0.96535100  1
  O  O82  1  0.52362200  0.25532700  0.82205900  1
  O  O83  1  0.69323200  0.13323500  0.96017600  1
