# generated using pymatgen
data_SrLa7TiGa7O24
_symmetry_space_group_name_H-M   'P 1'
_cell_length_a   5.58696800
_cell_length_b   5.57701700
_cell_length_c   31.42748813
_cell_angle_alpha   89.99476038
_cell_angle_beta   90.00000000
_cell_angle_gamma   90.00000000
_symmetry_Int_Tables_number   1
_chemical_formula_structural   SrLa7TiGa7O24
_chemical_formula_sum   'Sr2 La14 Ti2 Ga14 O48'
_cell_volume   979.23701518
_cell_formula_units_Z   2
loop_
 _symmetry_equiv_pos_site_id
 _symmetry_equiv_pos_as_xyz
  1  'x, y, z'
loop_
 _atom_site_type_symbol
 _atom_site_label
 _atom_site_symmetry_multiplicity
 _atom_site_fract_x
 _atom_site_fract_y
 _atom_site_fract_z
 _atom_site_occupancy
  Sr  Sr0  1  0.49531100  0.76466800  0.43581600  1
  Sr  Sr1  1  0.99531100  0.23533200  0.56418400  1
  La  La2  1  0.49529000  0.77432300  0.68747300  1
  La  La3  1  0.49272600  0.77691100  0.93759000  1
  La  La4  1  0.49271300  0.77718400  0.18743800  1
  La  La5  1  0.99271300  0.22281600  0.81256200  1
  La  La6  1  0.99272600  0.22308900  0.06241000  1
  La  La7  1  0.99529000  0.22567700  0.31252700  1
  La  La8  1  0.00704100  0.27050500  0.43454800  1
  La  La9  1  0.00850100  0.27584100  0.68727400  1
  La  La10  1  0.00847800  0.27738800  0.18736300  1
  La  La11  1  0.00771700  0.27689300  0.93755400  1
  La  La12  1  0.50704100  0.72949500  0.56545200  1
  La  La13  1  0.50771700  0.72310700  0.06244600  1
  La  La14  1  0.50850100  0.72415900  0.31272600  1
  La  La15  1  0.50847800  0.72261200  0.81263700  1
  Ti  Ti16  1  0.00319200  0.75161700  0.49948100  1
  Ti  Ti17  1  0.50319200  0.24838300  0.50051900  1
  Ga  Ga18  1  0.00260000  0.74916500  0.37453800  1
  Ga  Ga19  1  0.99820200  0.75287900  0.62530800  1
  Ga  Ga20  1  0.00159200  0.74983000  0.75023000  1
  Ga  Ga21  1  0.00015100  0.74998000  0.99999800  1
  Ga  Ga22  1  0.00025400  0.75011600  0.12487200  1
  Ga  Ga23  1  0.00027400  0.75067100  0.24975700  1
  Ga  Ga24  1  0.49820200  0.24712100  0.37469200  1
  Ga  Ga25  1  0.50027400  0.24932900  0.75024300  1
  Ga  Ga26  1  0.50015100  0.25002000  0.00000200  1
  Ga  Ga27  1  0.50260000  0.25083500  0.62546200  1
  Ga  Ga28  1  0.50052000  0.25008700  0.12486700  1
  Ga  Ga29  1  0.50159200  0.25017000  0.24977000  1
  Ga  Ga30  1  0.50025400  0.24988400  0.87512800  1
  Ga  Ga31  1  0.00052000  0.74991300  0.87513300  1
  O  O32  1  0.06920500  0.75503400  0.56133600  1
  O  O33  1  0.07921100  0.76354200  0.81262400  1
  O  O34  1  0.07860200  0.76374000  0.06244700  1
  O  O35  1  0.07805100  0.76296800  0.31212000  1
  O  O36  1  0.72116000  0.97297900  0.61593600  1
  O  O37  1  0.72467000  0.97864100  0.50880700  1
  O  O38  1  0.72281600  0.97155900  0.76081700  1
  O  O39  1  0.72327700  0.97252600  0.11425100  1
  O  O40  1  0.72299800  0.97230200  0.01057200  1
  O  O41  1  0.72326100  0.97211800  0.86451300  1
  O  O42  1  0.72264200  0.97123400  0.26050600  1
  O  O43  1  0.72830000  0.97696100  0.36500100  1
  O  O44  1  0.22264200  0.02876600  0.73949400  1
  O  O45  1  0.22467000  0.02135900  0.49119300  1
  O  O46  1  0.22116000  0.02702100  0.38406400  1
  O  O47  1  0.22830000  0.02303900  0.63499900  1
  O  O48  1  0.22299800  0.02769800  0.98942800  1
  O  O49  1  0.22327700  0.02747400  0.88574900  1
  O  O50  1  0.22281600  0.02844100  0.23918300  1
  O  O51  1  0.22326100  0.02788200  0.13548700  1
  O  O52  1  0.56920500  0.24496600  0.43866400  1
  O  O53  1  0.57805100  0.23703200  0.68788000  1
  O  O54  1  0.57921100  0.23645800  0.18737600  1
  O  O55  1  0.57860200  0.23626000  0.93755300  1
  O  O56  1  0.44122500  0.25946000  0.56138800  1
  O  O57  1  0.42191600  0.26383100  0.81266600  1
  O  O58  1  0.42181600  0.26372500  0.06244300  1
  O  O59  1  0.42550500  0.26209500  0.31203300  1
  O  O60  1  0.75521200  0.48944500  0.50826200  1
  O  O61  1  0.76412800  0.48618500  0.61610200  1
  O  O62  1  0.77765700  0.47210700  0.86450900  1
  O  O63  1  0.77810200  0.47185700  0.76070500  1
  O  O64  1  0.77739700  0.47249100  0.11422400  1
  O  O65  1  0.77726600  0.47234600  0.01056700  1
  O  O66  1  0.77279900  0.47479800  0.36561300  1
  O  O67  1  0.77822600  0.47247700  0.26057600  1
  O  O68  1  0.27279900  0.52520200  0.63438700  1
  O  O69  1  0.25521200  0.51055500  0.49173800  1
  O  O70  1  0.26412800  0.51381500  0.38389800  1
  O  O71  1  0.27822600  0.52752300  0.73942400  1
  O  O72  1  0.27726600  0.52765400  0.98943300  1
  O  O73  1  0.27810200  0.52814300  0.23929500  1
  O  O74  1  0.27739700  0.52750900  0.88577600  1
  O  O75  1  0.27765700  0.52789300  0.13549100  1
  O  O76  1  0.92550500  0.73790500  0.68796700  1
  O  O77  1  0.94122500  0.74054000  0.43861200  1
  O  O78  1  0.92191600  0.73616900  0.18733400  1
  O  O79  1  0.92181600  0.73627500  0.93755700  1
