# generated using pymatgen
data_NdAl6Si30(N15O)3
_symmetry_space_group_name_H-M   'P 1'
_cell_length_a   7.87232100
_cell_length_b   7.89069507
_cell_length_c   17.14120903
_cell_angle_alpha   90.31063566
_cell_angle_beta   89.88884259
_cell_angle_gamma   119.55659519
_symmetry_Int_Tables_number   1
_chemical_formula_structural   NdAl6Si30(N15O)3
_chemical_formula_sum   'Nd1 Al6 Si30 N45 O3'
_cell_volume   926.20422422
_cell_formula_units_Z   1
loop_
 _symmetry_equiv_pos_site_id
 _symmetry_equiv_pos_as_xyz
  1  'x, y, z'
loop_
 _atom_site_type_symbol
 _atom_site_label
 _atom_site_symmetry_multiplicity
 _atom_site_fract_x
 _atom_site_fract_y
 _atom_site_fract_z
 _atom_site_occupancy
  Nd  Nd0  1  0.67355600  0.34387300  0.26961600  1
  Al  Al1  1  0.09744100  0.51466000  0.28366600  1
  Al  Al2  1  0.92732300  0.43383700  0.10587700  1
  Al  Al3  1  0.91666600  0.43198300  0.45004600  1
  Al  Al4  1  0.91376700  0.74718400  0.67992300  1
  Al  Al5  1  0.92506900  0.75453000  0.35029200  1
  Al  Al6  1  0.91441600  0.74751000  0.01270200  1
  Si  Si7  1  0.16961800  0.24059600  0.84820000  1
  Si  Si8  1  0.16856700  0.24103900  0.51986200  1
  Si  Si9  1  0.16910500  0.24255100  0.18184700  1
  Si  Si10  1  0.08229100  0.51633200  0.94426600  1
  Si  Si11  1  0.08753800  0.51865500  0.61639500  1
  Si  Si12  1  0.08865500  0.82812000  0.84628600  1
  Si  Si13  1  0.08881200  0.82733500  0.51476100  1
  Si  Si14  1  0.08115400  0.82444500  0.18015100  1
  Si  Si15  1  0.48589300  0.56882800  0.94376200  1
  Si  Si16  1  0.48857800  0.56823700  0.61346400  1
  Si  Si17  1  0.48672400  0.58204000  0.28085200  1
  Si  Si18  1  0.42812600  0.91763600  0.94281800  1
  Si  Si19  1  0.43149500  0.91941200  0.61266700  1
  Si  Si20  1  0.42480600  0.91459400  0.27933300  1
  Si  Si21  1  0.25344500  0.16757600  0.68277300  1
  Si  Si22  1  0.24517200  0.17328900  0.35219700  1
  Si  Si23  1  0.24780100  0.16780200  0.01403900  1
  Si  Si24  1  0.51511500  0.08457300  0.77862400  1
  Si  Si25  1  0.51224800  0.08376500  0.44903200  1
  Si  Si26  1  0.50849900  0.07998400  0.10888900  1
  Si  Si27  1  0.74443300  0.90932100  0.84742300  1
  Si  Si28  1  0.74518200  0.91059600  0.51689000  1
  Si  Si29  1  0.74748900  0.91669400  0.18028200  1
  Si  Si30  1  0.83689300  0.08813100  0.68206200  1
  Si  Si31  1  0.83527100  0.08862500  0.01122300  1
  Si  Si32  1  0.83117500  0.08414300  0.35150700  1
  Si  Si33  1  0.56900200  0.48799400  0.77782000  1
  Si  Si34  1  0.56299400  0.48549200  0.44795800  1
  Si  Si35  1  0.56345400  0.48973600  0.10814200  1
  Si  Si36  1  0.91421700  0.43409000  0.77567100  1
  N  N37  1  0.30999100  0.31971600  0.93214900  1
  N  N38  1  0.31710500  0.31916100  0.60106200  1
  N  N39  1  0.32134000  0.32525100  0.26708000  1
  N  N40  1  0.00487800  0.67851500  0.92582200  1
  N  N41  1  0.00501200  0.67519900  0.59436700  1
  N  N42  1  0.98982200  0.66939400  0.25959500  1
  N  N43  1  0.33075200  0.66606100  0.95748600  1
  N  N44  1  0.33553100  0.66790200  0.62798900  1
  N  N45  1  0.34783100  0.68151400  0.30337300  1
  N  N46  1  0.00683400  0.01356600  0.68109200  1
  N  N47  1  0.00308500  0.01434100  0.34771700  1
  N  N48  1  0.99803000  0.99795100  0.18307500  1
  N  N49  1  0.00295000  0.01202700  0.01352000  1
  N  N50  1  0.60904000  0.65381300  0.85371200  1
  N  N51  1  0.60822900  0.65541700  0.52204400  1
  N  N52  1  0.60874600  0.65516800  0.18914500  1
  N  N53  1  0.34727700  0.96152100  0.85353600  1
  N  N54  1  0.34669600  0.95982700  0.52323000  1
  N  N55  1  0.34748100  0.96379500  0.19000500  1
  N  N56  1  0.39213500  0.04699100  0.68849300  1
  N  N57  1  0.39688300  0.05976000  0.35362400  1
  N  N58  1  0.39014800  0.04826500  0.01937700  1
  N  N59  1  0.31890200  0.31269100  0.76806300  1
  N  N60  1  0.30873300  0.31960800  0.43567600  1
  N  N61  1  0.31439400  0.31324900  0.10035100  1
  N  N62  1  0.67687100  0.98934100  0.93194800  1
  N  N63  1  0.68198200  0.99611600  0.60074900  1
  N  N64  1  0.68059000  0.00756700  0.26517000  1
  N  N65  1  0.69024100  0.00888500  0.76678400  1
  N  N66  1  0.68186100  0.00033000  0.43486400  1
  N  N67  1  0.68892300  0.01041500  0.09899600  1
  N  N68  1  0.99778200  0.99525600  0.84732100  1
  N  N69  1  0.66825900  0.33419000  0.79697700  1
  N  N70  1  0.65239600  0.32966300  0.46531400  1
  N  N71  1  0.65754200  0.33161000  0.13150400  1
  N  N72  1  0.64444300  0.59295200  0.35418000  1
  N  N73  1  0.64360000  0.60278700  0.68906300  1
  N  N74  1  0.64038700  0.60272900  0.02054500  1
  N  N75  1  0.95517400  0.34612400  0.68801100  1
  N  N76  1  0.93140400  0.33184100  0.35220800  1
  N  N77  1  0.95181200  0.34019200  0.01114000  1
  N  N78  1  0.00869300  0.67828600  0.76657200  1
  N  N79  1  0.01888000  0.69025000  0.43370200  1
  N  N80  1  0.01352000  0.69078300  0.09869600  1
  N  N81  1  0.99792600  0.99586000  0.51619200  1
  O  O82  1  0.04425000  0.38228400  0.85127100  1
  O  O83  1  0.04696600  0.37572100  0.52941200  1
  O  O84  1  0.04935300  0.37424000  0.18801500  1
