# generated using pymatgen
data_Rb2TiFe(PO4)3
_symmetry_space_group_name_H-M   'P 1'
_cell_length_a   10.05200900
_cell_length_b   10.05200900
_cell_length_c   10.05200900
_cell_angle_alpha   90.00000000
_cell_angle_beta   90.00000000
_cell_angle_gamma   90.00000000
_symmetry_Int_Tables_number   1
_chemical_formula_structural   Rb2TiFe(PO4)3
_chemical_formula_sum   'Rb8 Ti4 Fe4 P12 O48'
_cell_volume   1015.68398876
_cell_formula_units_Z   4
loop_
 _symmetry_equiv_pos_site_id
 _symmetry_equiv_pos_as_xyz
  1  'x, y, z'
loop_
 _atom_site_type_symbol
 _atom_site_label
 _atom_site_symmetry_multiplicity
 _atom_site_fract_x
 _atom_site_fract_y
 _atom_site_fract_z
 _atom_site_occupancy
  Rb  Rb0  1  0.06927400  0.06927400  0.06927400  1
  Rb  Rb1  1  0.20944300  0.70944300  0.79055700  1
  Rb  Rb2  1  0.29055700  0.29055700  0.29055700  1
  Rb  Rb3  1  0.43072600  0.93072600  0.56927400  1
  Rb  Rb4  1  0.56927400  0.43072600  0.93072600  1
  Rb  Rb5  1  0.70944300  0.79055700  0.20944300  1
  Rb  Rb6  1  0.79055700  0.20944300  0.70944300  1
  Rb  Rb7  1  0.93072600  0.56927400  0.43072600  1
  Ti  Ti8  1  0.14190800  0.35809200  0.64190800  1
  Ti  Ti9  1  0.35809200  0.64190800  0.14190800  1
  Ti  Ti10  1  0.64190800  0.14190800  0.35809200  1
  Ti  Ti11  1  0.85809200  0.85809200  0.85809200  1
  Fe  Fe12  1  0.08722500  0.91277500  0.41277500  1
  Fe  Fe13  1  0.41277500  0.08722500  0.91277500  1
  Fe  Fe14  1  0.58722500  0.58722500  0.58722500  1
  Fe  Fe15  1  0.91277500  0.41277500  0.08722500  1
  P  P16  1  0.04340000  0.72609600  0.12645700  1
  P  P17  1  0.12645700  0.04340000  0.72609600  1
  P  P18  1  0.22609600  0.37354300  0.95660000  1
  P  P19  1  0.27390400  0.62645700  0.45660000  1
  P  P20  1  0.37354300  0.95660000  0.22609600  1
  P  P21  1  0.45660000  0.27390400  0.62645700  1
  P  P22  1  0.54340000  0.77390400  0.87354300  1
  P  P23  1  0.62645700  0.45660000  0.27390400  1
  P  P24  1  0.72609600  0.12645700  0.04340000  1
  P  P25  1  0.77390400  0.87354300  0.54340000  1
  P  P26  1  0.87354300  0.54340000  0.77390400  1
  P  P27  1  0.95660000  0.22609600  0.37354300  1
  O  O28  1  0.99909900  0.58208600  0.14806300  1
  O  O29  1  0.01287900  0.96099800  0.79431300  1
  O  O30  1  0.01834100  0.80809600  0.25335500  1
  O  O31  1  0.03900200  0.29431300  0.48712100  1
  O  O32  1  0.08208600  0.35193700  0.00090100  1
  O  O33  1  0.08462200  0.19307000  0.73240200  1
  O  O34  1  0.14806300  0.99909900  0.58208600  1
  O  O35  1  0.19307000  0.73240200  0.08462200  1
  O  O36  1  0.19190400  0.75335500  0.48165900  1
  O  O37  1  0.20568700  0.51287900  0.53900200  1
  O  O38  1  0.23240200  0.41537800  0.80693000  1
  O  O39  1  0.24664500  0.98165900  0.30809600  1
  O  O40  1  0.25335500  0.01834100  0.80809600  1
  O  O41  1  0.26759800  0.58462200  0.30693000  1
  O  O42  1  0.29431300  0.48712100  0.03900200  1
  O  O43  1  0.30809600  0.24664500  0.98165900  1
  O  O44  1  0.30693000  0.26759800  0.58462200  1
  O  O45  1  0.35193700  0.00090100  0.08208600  1
  O  O46  1  0.41537800  0.80693000  0.23240200  1
  O  O47  1  0.41791400  0.64806300  0.50090100  1
  O  O48  1  0.46099800  0.70568700  0.98712100  1
  O  O49  1  0.48165900  0.19190400  0.75335500  1
  O  O50  1  0.48712100  0.03900200  0.29431300  1
  O  O51  1  0.50090100  0.41791400  0.64806300  1
  O  O52  1  0.49909900  0.91791400  0.85193700  1
  O  O53  1  0.51287900  0.53900200  0.20568700  1
  O  O54  1  0.51834100  0.69190400  0.74664500  1
  O  O55  1  0.53900200  0.20568700  0.51287900  1
  O  O56  1  0.58208600  0.14806300  0.99909900  1
  O  O57  1  0.58462200  0.30693000  0.26759800  1
  O  O58  1  0.64806300  0.50090100  0.41791400  1
  O  O59  1  0.69307000  0.76759800  0.91537800  1
  O  O60  1  0.69190400  0.74664500  0.51834100  1
  O  O61  1  0.70568700  0.98712100  0.46099800  1
  O  O62  1  0.73240200  0.08462200  0.19307000  1
  O  O63  1  0.74664500  0.51834100  0.69190400  1
  O  O64  1  0.75335500  0.48165900  0.19190400  1
  O  O65  1  0.76759800  0.91537800  0.69307000  1
  O  O66  1  0.79431300  0.01287900  0.96099800  1
  O  O67  1  0.80809600  0.25335500  0.01834100  1
  O  O68  1  0.80693000  0.23240200  0.41537800  1
  O  O69  1  0.85193700  0.49909900  0.91791400  1
  O  O70  1  0.91537800  0.69307000  0.76759800  1
  O  O71  1  0.91791400  0.85193700  0.49909900  1
  O  O72  1  0.96099800  0.79431300  0.01287900  1
  O  O73  1  0.98165900  0.30809600  0.24664500  1
  O  O74  1  0.98712100  0.46099800  0.70568700  1
  O  O75  1  0.00090100  0.08208600  0.35193700  1
