# generated using pymatgen
data_Ca8Mg5Fe2(SiO3)16
_symmetry_space_group_name_H-M   'P 1'
_cell_length_a   7.65204224
_cell_length_b   7.65204224
_cell_length_c   16.41787704
_cell_angle_alpha   86.76617331
_cell_angle_beta   86.76617331
_cell_angle_gamma   72.60888489
_symmetry_Int_Tables_number   1
_chemical_formula_structural   Ca8Mg5Fe2(SiO3)16
_chemical_formula_sum   'Ca8 Mg5 Fe2 Si16 O48'
_cell_volume   915.13249480
_cell_formula_units_Z   1
loop_
 _symmetry_equiv_pos_site_id
 _symmetry_equiv_pos_as_xyz
  1  'x, y, z'
loop_
 _atom_site_type_symbol
 _atom_site_label
 _atom_site_symmetry_multiplicity
 _atom_site_fract_x
 _atom_site_fract_y
 _atom_site_fract_z
 _atom_site_occupancy
  Ca  Ca0  1  0.24265800  0.75734200  0.00000000  1
  Ca  Ca1  1  0.76564900  0.45932900  0.11138000  1
  Ca  Ca2  1  0.48889300  0.01963000  0.24403700  1
  Ca  Ca3  1  0.00945500  0.73676100  0.37662600  1
  Ca  Ca4  1  0.73508300  0.26491700  0.50000000  1
  Ca  Ca5  1  0.26323900  0.99054500  0.62337400  1
  Ca  Ca6  1  0.98037000  0.51110700  0.75596300  1
  Ca  Ca7  1  0.54067100  0.23435100  0.88862000  1
  Mg  Mg8  1  0.08572000  0.40615300  0.25017500  1
  Mg  Mg9  1  0.40333100  0.34555800  0.37461100  1
  Mg  Mg10  1  0.34385000  0.65615000  0.50000000  1
  Mg  Mg11  1  0.65444200  0.59666900  0.62538900  1
  Mg  Mg12  1  0.59384700  0.91428000  0.74982500  1
  Fe  Fe13  1  0.14687700  0.09071100  0.11966500  1
  Fe  Fe14  1  0.90928900  0.85312300  0.88033500  1
  Si  Si15  1  0.07999100  0.39323000  0.52237500  1
  Si  Si16  1  0.39053900  0.33476600  0.64799800  1
  Si  Si17  1  0.32724800  0.64518600  0.77340600  1
  Si  Si18  1  0.64057000  0.59257700  0.89610300  1
  Si  Si19  1  0.58585600  0.89026300  0.02433600  1
  Si  Si20  1  0.89274700  0.82021800  0.14980900  1
  Si  Si21  1  0.83006800  0.13706500  0.27256400  1
  Si  Si22  1  0.60677000  0.92000900  0.47762500  1
  Si  Si23  1  0.14304400  0.08127800  0.39694900  1
  Si  Si24  1  0.91872200  0.85695600  0.60305100  1
  Si  Si25  1  0.86293500  0.16993200  0.72743600  1
  Si  Si26  1  0.17978200  0.10725300  0.85019100  1
  Si  Si27  1  0.10973700  0.41414400  0.97566400  1
  Si  Si28  1  0.40742300  0.35943000  0.10389700  1
  Si  Si29  1  0.35481400  0.67275200  0.22659400  1
  Si  Si30  1  0.66523400  0.60946100  0.35200200  1
  O  O31  1  0.94369100  0.23455900  0.20720200  1
  O  O32  1  0.24382900  0.19454000  0.33363900  1
  O  O33  1  0.19217800  0.49530900  0.45916600  1
  O  O34  1  0.48844700  0.11934300  0.66391800  1
  O  O35  1  0.49321200  0.44676400  0.58491300  1
  O  O36  1  0.33605600  0.44074900  0.73691200  1
  O  O37  1  0.10822100  0.73554400  0.79072200  1
  O  O38  1  0.43760400  0.75084800  0.71106500  1
  O  O39  1  0.42932100  0.60371400  0.86352800  1
  O  O40  1  0.75089100  0.38226500  0.90443500  1
  O  O41  1  0.73997100  0.71383200  0.83516000  1
  O  O42  1  0.58778600  0.68391200  0.98940400  1
  O  O43  1  0.36732400  0.99082400  0.03988400  1
  O  O44  1  0.70182500  0.97611700  0.95722700  1
  O  O45  1  0.68408500  0.84337700  0.11363200  1
  O  O46  1  0.55925100  0.66394400  0.26308800  1
  O  O47  1  0.97520200  0.60328300  0.16398800  1
  O  O48  1  0.01689200  0.91901500  0.09143400  1
  O  O49  1  0.88065700  0.51155300  0.33608200  1
  O  O50  1  0.84190600  0.92745300  0.23907200  1
  O  O51  1  0.65904900  0.81512500  0.38838900  1
  O  O52  1  0.61551900  0.23599300  0.28927800  1
  O  O53  1  0.51151800  0.13570300  0.46125400  1
  O  O54  1  0.93500600  0.09102400  0.36170900  1
  O  O55  1  0.81452100  0.90960900  0.51328300  1
  O  O56  1  0.23658500  0.86558700  0.41370300  1
  O  O57  1  0.13441300  0.76341500  0.58629700  1
  O  O58  1  0.09039100  0.18547900  0.48671700  1
  O  O59  1  0.90897600  0.06499400  0.63829100  1
  O  O60  1  0.86429700  0.48848200  0.53874600  1
  O  O61  1  0.76544100  0.05630900  0.79279800  1
  O  O62  1  0.76400700  0.38448100  0.71072200  1
  O  O63  1  0.18487500  0.34095100  0.61161100  1
  O  O64  1  0.07254700  0.15809400  0.76092800  1
  O  O65  1  0.08098500  0.98310800  0.90856600  1
  O  O66  1  0.39671700  0.02479800  0.83601200  1
  O  O67  1  0.15662300  0.31591500  0.88636800  1
  O  O68  1  0.02388300  0.29817500  0.04277300  1
  O  O69  1  0.00917600  0.63267600  0.96011600  1
  O  O70  1  0.31608800  0.41221400  0.01059600  1
  O  O71  1  0.28616800  0.26002900  0.16484000  1
  O  O72  1  0.61773500  0.24910900  0.09556500  1
  O  O73  1  0.39628600  0.57067900  0.13647200  1
  O  O74  1  0.24915200  0.56239600  0.28893500  1
  O  O75  1  0.26445600  0.89177900  0.20927800  1
  O  O76  1  0.55323600  0.50678800  0.41508700  1
  O  O77  1  0.50469100  0.80782200  0.54083400  1
  O  O78  1  0.80546000  0.75617100  0.66636100  1
