# generated using pymatgen
data_KSrLa4Mn6O18
_symmetry_space_group_name_H-M   'P 1'
_cell_length_a   5.48531731
_cell_length_b   10.95943808
_cell_length_c   19.71581866
_cell_angle_alpha   46.43495857
_cell_angle_beta   56.67221116
_cell_angle_gamma   60.51328842
_symmetry_Int_Tables_number   1
_chemical_formula_structural   KSrLa4Mn6O18
_chemical_formula_sum   'K2 Sr2 La8 Mn12 O36'
_cell_volume   704.83567537
_cell_formula_units_Z   2
loop_
 _symmetry_equiv_pos_site_id
 _symmetry_equiv_pos_as_xyz
  1  'x, y, z'
loop_
 _atom_site_type_symbol
 _atom_site_label
 _atom_site_symmetry_multiplicity
 _atom_site_fract_x
 _atom_site_fract_y
 _atom_site_fract_z
 _atom_site_occupancy
  K  K0  1  0.25612200  0.41292500  0.41698500  1
  K  K1  1  0.74387800  0.42040900  0.91634900  1
  Sr  Sr2  1  0.25953600  0.91248000  0.41642400  1
  Sr  Sr3  1  0.74046400  0.92085400  0.91691000  1
  La  La4  1  0.24706400  0.08892800  0.08113200  1
  La  La5  1  0.24766700  0.58265400  0.08354500  1
  La  La6  1  0.75233300  0.25067900  0.24978800  1
  La  La7  1  0.24410000  0.25181900  0.75149900  1
  La  La8  1  0.75245500  0.08323200  0.58280100  1
  La  La9  1  0.75293600  0.74440500  0.25220100  1
  La  La10  1  0.24754500  0.75010100  0.75053200  1
  La  La11  1  0.75590000  0.58151400  0.58183400  1
  Mn  Mn12  1  0.99825600  0.00316000  0.99876600  1
  Mn  Mn13  1  0.00047300  0.50226900  0.99768400  1
  Mn  Mn14  1  0.49987900  0.16747500  0.16614300  1
  Mn  Mn15  1  0.50012100  0.66585900  0.16719100  1
  Mn  Mn16  1  0.50228200  0.00141400  0.49834900  1
  Mn  Mn17  1  0.50508500  0.49947700  0.49805300  1
  Mn  Mn18  1  0.99952700  0.33106400  0.33564900  1
  Mn  Mn19  1  0.49491500  0.33385600  0.83528000  1
  Mn  Mn20  1  0.00133500  0.16737900  0.66638100  1
  Mn  Mn21  1  0.00174400  0.83017300  0.33456700  1
  Mn  Mn22  1  0.49771800  0.83191900  0.83498400  1
  Mn  Mn23  1  0.99866500  0.66595500  0.66695300  1
  O  O24  1  0.20134400  0.02630200  0.24790400  1
  O  O25  1  0.26034200  0.34071300  0.07932000  1
  O  O26  1  0.26504700  0.27851700  0.23504000  1
  O  O27  1  0.73719700  0.04834100  0.10160200  1
  O  O28  1  0.20545400  0.52688100  0.24412800  1
  O  O29  1  0.27700100  0.84204400  0.07372200  1
  O  O30  1  0.30181500  0.16601000  0.40190400  1
  O  O31  1  0.79454600  0.30645200  0.08920500  1
  O  O32  1  0.26280300  0.78499200  0.23173100  1
  O  O33  1  0.25885400  0.08878200  0.58021000  1
  O  O34  1  0.73495300  0.55481600  0.09829300  1
  O  O35  1  0.20136400  0.35316700  0.58990200  1
  O  O36  1  0.73965800  0.49262000  0.25401300  1
  O  O37  1  0.29774200  0.67773700  0.40137300  1
  O  O38  1  0.29645000  0.01658900  0.73413200  1
  O  O39  1  0.79607100  0.14217400  0.41766700  1
  O  O40  1  0.79865600  0.80703100  0.08542900  1
  O  O41  1  0.25850500  0.60232600  0.57332400  1
  O  O42  1  0.75394500  0.38467500  0.43153500  1
  O  O43  1  0.20102700  0.85602500  0.58408700  1
  O  O44  1  0.22141400  0.17971000  0.91741600  1
  O  O45  1  0.72299900  0.99128900  0.25961100  1
  O  O46  1  0.70204500  0.31897500  0.60098500  1
  O  O47  1  0.29795500  0.51435800  0.73234800  1
  O  O48  1  0.77858600  0.65362400  0.41591800  1
  O  O49  1  0.24605500  0.44865900  0.90179900  1
  O  O50  1  0.74149500  0.23100700  0.76000900  1
  O  O51  1  0.75605200  0.88394100  0.43182300  1
  O  O52  1  0.20392900  0.69116000  0.91566700  1
  O  O53  1  0.70225800  0.15559700  0.93196100  1
  O  O54  1  0.70355000  0.81674400  0.59920100  1
  O  O55  1  0.79863600  0.48016600  0.74343100  1
  O  O56  1  0.24394800  0.94939300  0.90151100  1
  O  O57  1  0.74114600  0.74455100  0.75312300  1
  O  O58  1  0.69818500  0.66732400  0.93143000  1
  O  O59  1  0.79897300  0.97730800  0.74924600  1
