# generated using pymatgen
data_Na2SrNd2Ti5O15
_symmetry_space_group_name_H-M   'P 1'
_cell_length_a   5.56517355
_cell_length_b   5.49475367
_cell_length_c   38.71192900
_cell_angle_alpha   90.00000000
_cell_angle_beta   90.00000000
_cell_angle_gamma   89.74575349
_symmetry_Int_Tables_number   1
_chemical_formula_structural   Na2SrNd2Ti5O15
_chemical_formula_sum   'Na8 Sr4 Nd8 Ti20 O60'
_cell_volume   1183.77040183
_cell_formula_units_Z   4
loop_
 _symmetry_equiv_pos_site_id
 _symmetry_equiv_pos_as_xyz
  1  'x, y, z'
loop_
 _atom_site_type_symbol
 _atom_site_label
 _atom_site_symmetry_multiplicity
 _atom_site_fract_x
 _atom_site_fract_y
 _atom_site_fract_z
 _atom_site_occupancy
  Na  Na0  1  0.52043300  0.99565400  0.65000000  1
  Na  Na1  1  0.52258400  0.99602800  0.45121100  1
  Na  Na2  1  0.52258400  0.99602800  0.84878900  1
  Na  Na3  1  0.97420000  0.50371600  0.15000000  1
  Na  Na4  1  0.97834200  0.49685200  0.55060900  1
  Na  Na5  1  0.97834200  0.49685200  0.74939100  1
  Na  Na6  1  0.97628100  0.50080000  0.35123900  1
  Na  Na7  1  0.97628100  0.50080000  0.94876100  1
  Sr  Sr8  1  0.00819000  0.49348800  0.04925100  1
  Sr  Sr9  1  0.00819000  0.49348800  0.25074900  1
  Sr  Sr10  1  0.50265600  0.99826700  0.04916900  1
  Sr  Sr11  1  0.50265600  0.99826700  0.25083100  1
  Nd  Nd12  1  0.05524700  0.48696500  0.45112500  1
  Nd  Nd13  1  0.05452000  0.48764900  0.65000000  1
  Nd  Nd14  1  0.05524700  0.48696500  0.84887500  1
  Nd  Nd15  1  0.45396900  0.99195100  0.35162600  1
  Nd  Nd16  1  0.46258700  0.99572400  0.15000000  1
  Nd  Nd17  1  0.44471200  0.98771100  0.55061800  1
  Nd  Nd18  1  0.44471200  0.98771100  0.74938200  1
  Nd  Nd19  1  0.45396900  0.99195100  0.94837400  1
  Ti  Ti20  1  0.98118800  0.00090200  0.99776200  1
  Ti  Ti21  1  0.98468400  0.00056700  0.19959000  1
  Ti  Ti22  1  0.98994400  0.98279800  0.40097100  1
  Ti  Ti23  1  0.98118800  0.00090200  0.30223800  1
  Ti  Ti24  1  0.98485400  0.98236900  0.50156200  1
  Ti  Ti25  1  0.98485400  0.98236900  0.79843800  1
  Ti  Ti26  1  0.98457600  0.98260900  0.59970100  1
  Ti  Ti27  1  0.98457600  0.98260900  0.70029900  1
  Ti  Ti28  1  0.98994400  0.98279800  0.89902900  1
  Ti  Ti29  1  0.49118800  0.49481300  0.10017400  1
  Ti  Ti30  1  0.49013300  0.49312900  0.30205800  1
  Ti  Ti31  1  0.51371700  0.48223500  0.50038800  1
  Ti  Ti32  1  0.51511800  0.48451900  0.89781400  1
  Ti  Ti33  1  0.49013300  0.49312900  0.99794200  1
  Ti  Ti34  1  0.51335400  0.48230300  0.69909100  1
  Ti  Ti35  1  0.49118800  0.49481300  0.19982600  1
  Ti  Ti36  1  0.51335400  0.48230300  0.60090900  1
  Ti  Ti37  1  0.51511800  0.48451900  0.40218600  1
  Ti  Ti38  1  0.51371700  0.48223500  0.79961200  1
  Ti  Ti39  1  0.98468400  0.00056700  0.10041000  1
  O  O40  1  0.99885500  0.95152300  0.04910400  1
  O  O41  1  0.99885500  0.95152300  0.25089600  1
  O  O42  1  0.98519600  0.92593900  0.45119100  1
  O  O43  1  0.98401900  0.92609900  0.65000000  1
  O  O44  1  0.98519600  0.92593900  0.84880900  1
  O  O45  1  0.24489000  0.74065400  0.19419200  1
  O  O46  1  0.24489000  0.74065400  0.10580800  1
  O  O47  1  0.24132200  0.73921200  0.30779300  1
  O  O48  1  0.21455200  0.72695700  0.50793000  1
  O  O49  1  0.21407100  0.72691500  0.59327100  1
  O  O50  1  0.21407100  0.72691500  0.70673000  1
  O  O51  1  0.21833200  0.72721300  0.39455500  1
  O  O52  1  0.21455200  0.72695700  0.79207000  1
  O  O53  1  0.24132200  0.73921200  0.99220700  1
  O  O54  1  0.21833200  0.72721300  0.90544500  1
  O  O55  1  0.27608100  0.23069700  0.09515600  1
  O  O56  1  0.27487900  0.23104900  0.29675900  1
  O  O57  1  0.27487900  0.23104900  0.00324100  1
  O  O58  1  0.28905900  0.22721400  0.49388500  1
  O  O59  1  0.28853500  0.22714400  0.69273900  1
  O  O60  1  0.27608100  0.23069700  0.20484500  1
  O  O61  1  0.29092600  0.22648200  0.40839300  1
  O  O62  1  0.29092600  0.22648200  0.89160700  1
  O  O63  1  0.28853500  0.22714400  0.60726100  1
  O  O64  1  0.28905900  0.22721400  0.80611500  1
  O  O65  1  0.51517700  0.43001900  0.35198700  1
  O  O66  1  0.51080100  0.43401400  0.15000000  1
  O  O67  1  0.51841500  0.42586100  0.55059800  1
  O  O68  1  0.51841500  0.42586100  0.74940200  1
  O  O69  1  0.51517700  0.43001900  0.94801300  1
  O  O70  1  0.50319100  0.54428700  0.04908800  1
  O  O71  1  0.50319100  0.54428700  0.25091200  1
  O  O72  1  0.48541200  0.57226200  0.65000000  1
  O  O73  1  0.48684500  0.57235700  0.45121400  1
  O  O74  1  0.48684500  0.57235700  0.84878600  1
  O  O75  1  0.72838800  0.77795000  0.10689900  1
  O  O76  1  0.72838800  0.77795000  0.19310100  1
  O  O77  1  0.72532200  0.77974500  0.30860800  1
  O  O78  1  0.71035600  0.79812400  0.39340400  1
  O  O79  1  0.70690200  0.79829200  0.50888300  1
  O  O80  1  0.70654600  0.79816400  0.59234100  1
  O  O81  1  0.70654600  0.79816400  0.70765900  1
  O  O82  1  0.70690200  0.79829200  0.79111700  1
  O  O83  1  0.72532200  0.77974500  0.99139200  1
  O  O84  1  0.71035600  0.79812400  0.90659600  1
  O  O85  1  0.77049700  0.26695500  0.09476500  1
  O  O86  1  0.76924700  0.26806100  0.00412800  1
  O  O87  1  0.77049700  0.26695500  0.20523500  1
  O  O88  1  0.76924700  0.26806100  0.29587200  1
  O  O89  1  0.79801000  0.29870800  0.40906300  1
  O  O90  1  0.79557900  0.29815100  0.69169800  1
  O  O91  1  0.79612400  0.29800300  0.49284800  1
  O  O92  1  0.79557900  0.29815100  0.60830200  1
  O  O93  1  0.79801000  0.29870800  0.89093700  1
  O  O94  1  0.79612400  0.29800300  0.80715200  1
  O  O95  1  0.02300700  0.05772300  0.15000000  1
  O  O96  1  0.01933900  0.06687700  0.35175100  1
  O  O97  1  0.01513700  0.07272000  0.55059700  1
  O  O98  1  0.01513700  0.07272000  0.74940300  1
  O  O99  1  0.01933900  0.06687700  0.94824900  1
