# generated using pymatgen
data_B13N2
_symmetry_space_group_name_H-M   'P 1'
_cell_length_a   5.21221967
_cell_length_b   5.21221967
_cell_length_c   5.21221987
_cell_angle_alpha   63.57529986
_cell_angle_beta   63.57529986
_cell_angle_gamma   63.57531402
_symmetry_Int_Tables_number   1
_chemical_formula_structural   B13N2
_chemical_formula_sum   'B13 N2'
_cell_volume   108.03893992
_cell_formula_units_Z   1
loop_
 _symmetry_equiv_pos_site_id
 _symmetry_equiv_pos_as_xyz
  1  'x, y, z'
loop_
 _atom_site_type_symbol
 _atom_site_label
 _atom_site_symmetry_multiplicity
 _atom_site_fract_x
 _atom_site_fract_y
 _atom_site_fract_z
 _atom_site_occupancy
  B  B0  1  0.68025900  0.19677500  0.19677500  1
  B  B1  1  0.19677500  0.19677500  0.68025900  1
  B  B2  1  0.19677500  0.68025900  0.19677500  1
  B  B3  1  0.80322500  0.31974100  0.80322500  1
  B  B4  1  0.31974100  0.80322500  0.80322500  1
  B  B5  1  0.80322500  0.80322500  0.31974100  1
  B  B6  1  0.66910800  0.99541800  0.99541800  1
  B  B7  1  0.99541800  0.99541800  0.66910800  1
  B  B8  1  0.99541800  0.66910800  0.99541800  1
  B  B9  1  0.00458200  0.33089200  0.00458200  1
  B  B10  1  0.33089200  0.00458200  0.00458200  1
  B  B11  1  0.00458200  0.00458200  0.33089200  1
  B  B12  1  0.50000000  0.50000000  0.50000000  1
  N  N13  1  0.61514500  0.61514500  0.61514500  1
  N  N14  1  0.38485500  0.38485500  0.38485500  1
