# generated using pymatgen
data_Sr3Pr10Al12Si18(N2O)18
_symmetry_space_group_name_H-M   'P 1'
_cell_length_a   11.70973373
_cell_length_b   11.70973373
_cell_length_c   11.70921533
_cell_angle_alpha   70.56586440
_cell_angle_beta   70.56586440
_cell_angle_gamma   109.44843388
_symmetry_Int_Tables_number   1
_chemical_formula_structural   Sr3Pr10Al12Si18(N2O)18
_chemical_formula_sum   'Sr3 Pr10 Al12 Si18 N36 O18'
_cell_volume   1237.42394340
_cell_formula_units_Z   1
loop_
 _symmetry_equiv_pos_site_id
 _symmetry_equiv_pos_as_xyz
  1  'x, y, z'
loop_
 _atom_site_type_symbol
 _atom_site_label
 _atom_site_symmetry_multiplicity
 _atom_site_fract_x
 _atom_site_fract_y
 _atom_site_fract_z
 _atom_site_occupancy
  Sr  Sr0  1  0.99906900  0.99906900  0.00085000  1
  Sr  Sr1  1  0.00036300  0.57535100  0.67991300  1
  Sr  Sr2  1  0.57535100  0.00036300  0.67991300  1
  Pr  Pr3  1  0.67467500  0.67467500  0.74807700  1
  Pr  Pr4  1  0.57564500  0.32386500  0.99867800  1
  Pr  Pr5  1  0.67569000  0.24953100  0.32967600  1
  Pr  Pr6  1  0.75046400  0.42620400  0.57829500  1
  Pr  Pr7  1  0.32421900  0.99851700  0.42492800  1
  Pr  Pr8  1  0.99851700  0.32421900  0.42492800  1
  Pr  Pr9  1  0.42620400  0.75046400  0.57829500  1
  Pr  Pr10  1  0.32386500  0.57564500  0.99867800  1
  Pr  Pr11  1  0.24953100  0.67569000  0.32967600  1
  Pr  Pr12  1  0.42377300  0.42377300  0.25195700  1
  Al  Al13  1  0.16248400  0.16248400  0.59073200  1
  Al  Al14  1  0.75421200  0.75421200  0.40782900  1
  Al  Al15  1  0.40867500  0.16182400  0.83736500  1
  Al  Al16  1  0.99954600  0.83717800  0.75412500  1
  Al  Al17  1  0.75280100  0.58995000  0.24682900  1
  Al  Al18  1  0.24637400  0.00042000  0.16272100  1
  Al  Al19  1  0.83776500  0.24648400  0.99960200  1
  Al  Al20  1  0.16182400  0.40867500  0.83736500  1
  Al  Al21  1  0.00042000  0.24637400  0.16272100  1
  Al  Al22  1  0.24648400  0.83776500  0.99960200  1
  Al  Al23  1  0.58995000  0.75280100  0.24682900  1
  Al  Al24  1  0.83717800  0.99954600  0.75412500  1
  Si  Si25  1  0.30011600  0.30011600  0.99985500  1
  Si  Si26  1  0.16060300  0.16060300  0.30093500  1
  Si  Si27  1  0.46119000  0.46119000  0.69905400  1
  Si  Si28  1  0.69881600  0.69881600  0.00033700  1
  Si  Si29  1  0.46076100  0.30054600  0.53884600  1
  Si  Si30  1  0.99989800  0.83922700  0.46219200  1
  Si  Si31  1  0.69837700  0.15796300  0.84078200  1
  Si  Si32  1  0.83880300  0.53782500  0.00144800  1
  Si  Si33  1  0.99958200  0.29995100  0.69987000  1
  Si  Si34  1  0.29995100  0.99958200  0.69987000  1
  Si  Si35  1  0.00095400  0.70154200  0.29913400  1
  Si  Si36  1  0.15796300  0.69837700  0.84078200  1
  Si  Si37  1  0.00051900  0.53880100  0.16102400  1
  Si  Si38  1  0.53880100  0.00051900  0.16102400  1
  Si  Si39  1  0.30054600  0.46076100  0.53884600  1
  Si  Si40  1  0.70154200  0.00095400  0.29913400  1
  Si  Si41  1  0.53782500  0.83880300  0.00144800  1
  Si  Si42  1  0.83922700  0.99989800  0.46219200  1
  N  N43  1  0.47729600  0.32724600  0.67256300  1
  N  N44  1  0.31109700  0.15720600  0.99999600  1
  N  N45  1  0.69425900  0.54860500  0.00141600  1
  N  N46  1  0.00001900  0.69735000  0.44809600  1
  N  N47  1  0.44832300  0.14570200  0.54979000  1
  N  N48  1  0.14980100  0.00036200  0.32738100  1
  N  N49  1  0.30548800  0.99975600  0.84482800  1
  N  N50  1  0.67211600  0.14990200  0.00054100  1
  N  N51  1  0.85264700  0.30054600  0.69616900  1
  N  N52  1  0.15702500  0.00029000  0.68848600  1
  N  N53  1  0.84727700  0.69074400  0.30812700  1
  N  N54  1  0.84916300  0.52024500  0.15222400  1
  N  N55  1  0.99784100  0.67422400  0.85592000  1
  N  N56  1  0.14570200  0.44832300  0.54979000  1
  N  N57  1  0.99975600  0.30548800  0.84482800  1
  N  N58  1  0.84487900  0.15375800  0.15560000  1
  N  N59  1  0.00414800  0.55340300  0.30234300  1
  N  N60  1  0.30054600  0.85264700  0.69616900  1
  N  N61  1  0.14990200  0.67211600  0.00054100  1
  N  N62  1  0.15375800  0.84487900  0.15560000  1
  N  N63  1  0.55340300  0.00414800  0.30234300  1
  N  N64  1  0.15720600  0.31109700  0.99999600  1
  N  N65  1  0.00036200  0.14980100  0.32738100  1
  N  N66  1  0.32724600  0.47729600  0.67256300  1
  N  N67  1  0.69735000  0.00001900  0.44809600  1
  N  N68  1  0.00029000  0.15702500  0.68848600  1
  N  N69  1  0.69074400  0.84727700  0.30812700  1
  N  N70  1  0.30431500  0.30431500  0.14535600  1
  N  N71  1  0.44851500  0.44851500  0.85487600  1
  N  N72  1  0.52024500  0.84916300  0.15222400  1
  N  N73  1  0.67422400  0.99784100  0.85592000  1
  N  N74  1  0.54860500  0.69425900  0.00141600  1
  N  N75  1  0.85017600  0.85017600  0.47664700  1
  N  N76  1  0.32698700  0.32698700  0.52345100  1
  N  N77  1  0.68740700  0.68740700  0.15458400  1
  N  N78  1  0.84205500  0.84205500  0.84785700  1
  O  O79  1  0.18899700  0.18899700  0.42128200  1
  O  O80  1  0.60967700  0.60967700  0.57619900  1
  O  O81  1  0.57667700  0.18588100  0.81402500  1
  O  O82  1  0.49805300  0.24986700  0.25113000  1
  O  O83  1  0.73459800  0.49389200  0.75495800  1
  O  O84  1  0.00072500  0.81673100  0.60890400  1
  O  O85  1  0.60817100  0.42254500  0.38992600  1
  O  O86  1  0.81164900  0.38946200  0.00058000  1
  O  O87  1  0.39065300  0.00167600  0.18723800  1
  O  O88  1  0.26606600  0.75936400  0.48784100  1
  O  O89  1  0.75936400  0.26606600  0.48784100  1
  O  O90  1  0.00167600  0.39065300  0.18723800  1
  O  O91  1  0.18588100  0.57667700  0.81402500  1
  O  O92  1  0.42254500  0.60817100  0.38992600  1
  O  O93  1  0.38946300  0.81164900  0.00058000  1
  O  O94  1  0.24986700  0.49805300  0.25113000  1
  O  O95  1  0.49389200  0.73459800  0.75495800  1
  O  O96  1  0.81673200  0.00072500  0.60890400  1
