# generated using pymatgen
data_MnAl2Fe
_symmetry_space_group_name_H-M   'P 1'
_cell_length_a   10.71993333
_cell_length_b   10.71993333
_cell_length_c   10.71993333
_cell_angle_alpha   124.13000913
_cell_angle_beta   118.19314788
_cell_angle_gamma   88.07920112
_symmetry_Int_Tables_number   1
_chemical_formula_structural   MnAl2Fe
_chemical_formula_sum   'Mn1 Al2 Fe1'
_cell_volume   852.27613415
_cell_formula_units_Z   1
loop_
 _symmetry_equiv_pos_site_id
 _symmetry_equiv_pos_as_xyz
  1  'x, y, z'
loop_
 _atom_site_type_symbol
 _atom_site_label
 _atom_site_symmetry_multiplicity
 _atom_site_fract_x
 _atom_site_fract_y
 _atom_site_fract_z
 _atom_site_occupancy
  Mn  Mn0  1  0.00000000  0.00000000  0.00000000  1
  Al  Al1  1  0.00000000  0.25715800  0.25715800  1
  Al  Al2  1  0.00000000  0.74284200  0.74284200  1
  Fe  Fe3  1  0.00000000  0.50000000  0.50000000  1
