# generated using pymatgen
data_BaHg2Bi
_symmetry_space_group_name_H-M   'P 1'
_cell_length_a   13.03161126
_cell_length_b   13.03161126
_cell_length_c   13.03161126
_cell_angle_alpha   125.24291888
_cell_angle_beta   117.66061916
_cell_angle_gamma   87.63429329
_symmetry_Int_Tables_number   1
_chemical_formula_structural   BaHg2Bi
_chemical_formula_sum   'Ba1 Hg2 Bi1'
_cell_volume   1520.29513610
_cell_formula_units_Z   1
loop_
 _symmetry_equiv_pos_site_id
 _symmetry_equiv_pos_as_xyz
  1  'x, y, z'
loop_
 _atom_site_type_symbol
 _atom_site_label
 _atom_site_symmetry_multiplicity
 _atom_site_fract_x
 _atom_site_fract_y
 _atom_site_fract_z
 _atom_site_occupancy
  Ba  Ba0  1  0.00000000  0.00000000  0.00000000  1
  Hg  Hg1  1  0.00000000  0.26767200  0.26767200  1
  Hg  Hg2  1  0.00000000  0.73232800  0.73232800  1
  Bi  Bi3  1  0.00000000  0.50000000  0.50000000  1
