# generated using pymatgen
data_Ti(PO3)4
_symmetry_space_group_name_H-M   'P 1'
_cell_length_a   7.45148056
_cell_length_b   7.45148056
_cell_length_c   9.89214112
_cell_angle_alpha   68.56129522
_cell_angle_beta   68.56129522
_cell_angle_gamma   66.93112029
_symmetry_Int_Tables_number   1
_chemical_formula_structural   Ti(PO3)4
_chemical_formula_sum   'Ti2 P8 O24'
_cell_volume   454.24873332
_cell_formula_units_Z   2
loop_
 _symmetry_equiv_pos_site_id
 _symmetry_equiv_pos_as_xyz
  1  'x, y, z'
loop_
 _atom_site_type_symbol
 _atom_site_label
 _atom_site_symmetry_multiplicity
 _atom_site_fract_x
 _atom_site_fract_y
 _atom_site_fract_z
 _atom_site_occupancy
  Ti  Ti0  1  0.50000000  0.00000000  0.00000000  1
  Ti  Ti1  1  0.00000000  0.50000000  0.50000000  1
  P  P2  1  0.75168800  0.25891800  0.46652900  1
  P  P3  1  0.74108200  0.24831200  0.03347100  1
  P  P4  1  0.69246000  0.65800500  0.81431600  1
  P  P5  1  0.25891800  0.75168800  0.96652900  1
  P  P6  1  0.24831200  0.74108200  0.53347100  1
  P  P7  1  0.34199500  0.30754000  0.68568400  1
  P  P8  1  0.65800500  0.69246000  0.31431600  1
  P  P9  1  0.30754000  0.34199500  0.18568400  1
  O  O10  1  0.65923700  0.46768100  0.34392800  1
  O  O11  1  0.19301900  0.35511200  0.34480800  1
  O  O12  1  0.80698100  0.64488800  0.65519200  1
  O  O13  1  0.82548500  0.33434500  0.55707200  1
  O  O14  1  0.33434500  0.82548500  0.05707200  1
  O  O15  1  0.46768100  0.65923700  0.84392800  1
  O  O16  1  0.31102600  0.16187300  0.14561800  1
  O  O17  1  0.20835900  0.54386200  0.07533600  1
  O  O18  1  0.54386200  0.20835900  0.57533600  1
  O  O19  1  0.09625100  0.88063300  0.89477700  1
  O  O20  1  0.34076300  0.53231900  0.65607200  1
  O  O21  1  0.35511200  0.19301900  0.84480800  1
  O  O22  1  0.83812700  0.68897400  0.35438200  1
  O  O23  1  0.11936700  0.90374900  0.60522300  1
  O  O24  1  0.88063300  0.09625100  0.39477700  1
  O  O25  1  0.66565500  0.17451500  0.94292800  1
  O  O26  1  0.64488800  0.80698100  0.15519200  1
  O  O27  1  0.17451500  0.66565500  0.44292800  1
  O  O28  1  0.90374900  0.11936700  0.10522300  1
  O  O29  1  0.45613800  0.79164100  0.42466400  1
  O  O30  1  0.79164100  0.45613800  0.92466400  1
  O  O31  1  0.68897400  0.83812700  0.85438200  1
  O  O32  1  0.53231900  0.34076300  0.15607200  1
  O  O33  1  0.16187300  0.31102600  0.64561800  1
