# generated using pymatgen
data_Mo2P3O13
_symmetry_space_group_name_H-M   'P 1'
_cell_length_a   9.16895858
_cell_length_b   9.16895858
_cell_length_c   9.03623058
_cell_angle_alpha   69.72824817
_cell_angle_beta   69.72824817
_cell_angle_gamma   107.62214404
_symmetry_Int_Tables_number   1
_chemical_formula_structural   Mo2P3O13
_chemical_formula_sum   'Mo4 P6 O26'
_cell_volume   586.26888819
_cell_formula_units_Z   2
loop_
 _symmetry_equiv_pos_site_id
 _symmetry_equiv_pos_as_xyz
  1  'x, y, z'
loop_
 _atom_site_type_symbol
 _atom_site_label
 _atom_site_symmetry_multiplicity
 _atom_site_fract_x
 _atom_site_fract_y
 _atom_site_fract_z
 _atom_site_occupancy
  Mo  Mo0  1  0.16537400  0.34822700  0.16878900  1
  Mo  Mo1  1  0.65568900  0.83591400  0.33200000  1
  Mo  Mo2  1  0.34822700  0.16537400  0.66878900  1
  Mo  Mo3  1  0.83591400  0.65568900  0.83200000  1
  P  P4  1  0.15919900  0.73713800  0.93374800  1
  P  P5  1  0.73713800  0.15919900  0.43374800  1
  P  P6  1  0.26261500  0.84053700  0.56516600  1
  P  P7  1  0.84053700  0.26261500  0.06516600  1
  P  P8  1  0.50985500  0.48998900  0.74874300  1
  P  P9  1  0.48998900  0.50985500  0.24874300  1
  O  O10  1  0.50590700  0.60864300  0.58539400  1
  O  O11  1  0.17053500  0.61106500  0.08223700  1
  O  O12  1  0.60864300  0.50590700  0.08539400  1
  O  O13  1  0.02869200  0.30889700  0.04354300  1
  O  O14  1  0.84478600  0.40055300  0.91242100  1
  O  O15  1  0.37775600  0.47483000  0.92577800  1
  O  O16  1  0.97134300  0.69327300  0.96835600  1
  O  O17  1  0.43982700  0.29972700  0.77190200  1
  O  O18  1  0.82830800  0.84850400  0.76660200  1
  O  O19  1  0.26111700  0.93506500  0.88211900  1
  O  O20  1  0.61106500  0.17053500  0.58223700  1
  O  O21  1  0.15222900  0.16873000  0.73375900  1
  O  O22  1  0.93506500  0.26111700  0.38211900  1
  O  O23  1  0.69346600  0.55151100  0.72725300  1
  O  O24  1  0.26424000  0.73494600  0.75014800  1
  O  O25  1  0.16873000  0.15222900  0.23375900  1
  O  O26  1  0.69327300  0.97134300  0.46835600  1
  O  O27  1  0.30889700  0.02869200  0.54354300  1
  O  O28  1  0.55151100  0.69346600  0.22725300  1
  O  O29  1  0.73494600  0.26424000  0.25014800  1
  O  O30  1  0.29972700  0.43982700  0.27190200  1
  O  O31  1  0.07372200  0.74797400  0.60213000  1
  O  O32  1  0.84850400  0.82830800  0.26660200  1
  O  O33  1  0.40055300  0.84478600  0.41242100  1
  O  O34  1  0.74797400  0.07372200  0.10213000  1
  O  O35  1  0.47483000  0.37775600  0.42577800  1
