# generated using pymatgen
data_NaH2ClO5
_symmetry_space_group_name_H-M   'P 1'
_cell_length_a   8.50261226
_cell_length_b   8.50261226
_cell_length_c   11.09448897
_cell_angle_alpha   70.93366860
_cell_angle_beta   70.93366860
_cell_angle_gamma   38.09826897
_symmetry_Int_Tables_number   1
_chemical_formula_structural   NaH2ClO5
_chemical_formula_sum   'Na4 H8 Cl4 O20'
_cell_volume   464.39500440
_cell_formula_units_Z   4
loop_
 _symmetry_equiv_pos_site_id
 _symmetry_equiv_pos_as_xyz
  1  'x, y, z'
loop_
 _atom_site_type_symbol
 _atom_site_label
 _atom_site_symmetry_multiplicity
 _atom_site_fract_x
 _atom_site_fract_y
 _atom_site_fract_z
 _atom_site_occupancy
  Na  Na0  1  0.00000000  0.50000000  0.50000000  1
  Na  Na1  1  0.50000000  0.00000000  0.00000000  1
  Na  Na2  1  0.53452300  0.46547700  0.75000000  1
  Na  Na3  1  0.46547700  0.53452300  0.25000000  1
  H  H4  1  0.35438500  0.43137000  0.02222900  1
  H  H5  1  0.56863000  0.64561500  0.47777100  1
  H  H6  1  0.64561500  0.56863000  0.97777100  1
  H  H7  1  0.43137000  0.35438500  0.52222900  1
  H  H8  1  0.16556500  0.54713200  0.93379500  1
  H  H9  1  0.45286800  0.83443500  0.56620500  1
  H  H10  1  0.83443500  0.45286800  0.06620500  1
  H  H11  1  0.54713200  0.16556500  0.43379500  1
  Cl  Cl12  1  0.15374000  0.09843400  0.80583500  1
  Cl  Cl13  1  0.90156600  0.84626000  0.69416500  1
  Cl  Cl14  1  0.84626000  0.90156600  0.19416500  1
  Cl  Cl15  1  0.09843400  0.15374000  0.30583500  1
  O  O16  1  0.19091900  0.14020100  0.66514000  1
  O  O17  1  0.85979900  0.80908100  0.83486000  1
  O  O18  1  0.80908100  0.85979900  0.33486000  1
  O  O19  1  0.14020100  0.19091900  0.16514000  1
  O  O20  1  0.20917600  0.18171800  0.86175900  1
  O  O21  1  0.81828200  0.79082400  0.63824100  1
  O  O22  1  0.79082400  0.81828200  0.13824100  1
  O  O23  1  0.18171800  0.20917600  0.36175900  1
  O  O24  1  0.88719400  0.24727200  0.84848200  1
  O  O25  1  0.75272800  0.11280600  0.65151800  1
  O  O26  1  0.11280600  0.75272800  0.15151800  1
  O  O27  1  0.24727200  0.88719400  0.34848200  1
  O  O28  1  0.32432200  0.82583700  0.84630900  1
  O  O29  1  0.17416300  0.67567800  0.65369100  1
  O  O30  1  0.67567800  0.17416300  0.15369100  1
  O  O31  1  0.82583700  0.32432200  0.34630900  1
  O  O32  1  0.34728000  0.40087900  0.94749300  1
  O  O33  1  0.59912100  0.65272000  0.55250700  1
  O  O34  1  0.65272000  0.59912100  0.05250700  1
  O  O35  1  0.40087900  0.34728000  0.44749300  1
