# generated using pymatgen
data_CsMnI3
_symmetry_space_group_name_H-M   'P 1'
_cell_length_a   8.35872731
_cell_length_b   8.35872731
_cell_length_c   7.01280200
_cell_angle_alpha   90.00000000
_cell_angle_beta   90.00000000
_cell_angle_gamma   119.99999458
_symmetry_Int_Tables_number   1
_chemical_formula_structural   CsMnI3
_chemical_formula_sum   'Cs2 Mn2 I6'
_cell_volume   424.32883766
_cell_formula_units_Z   2
loop_
 _symmetry_equiv_pos_site_id
 _symmetry_equiv_pos_as_xyz
  1  'x, y, z'
loop_
 _atom_site_type_symbol
 _atom_site_label
 _atom_site_symmetry_multiplicity
 _atom_site_fract_x
 _atom_site_fract_y
 _atom_site_fract_z
 _atom_site_occupancy
  Cs  Cs0  1  0.33333300  0.66666700  0.75000000  1
  Cs  Cs1  1  0.66666700  0.33333300  0.25000000  1
  Mn  Mn2  1  0.00000000  0.00000000  0.00000000  1
  Mn  Mn3  1  0.00000000  0.00000000  0.50000000  1
  I  I4  1  0.16098000  0.32195900  0.25000000  1
  I  I5  1  0.83902000  0.16098000  0.75000000  1
  I  I6  1  0.32195900  0.16098000  0.75000000  1
  I  I7  1  0.67804100  0.83902000  0.25000000  1
  I  I8  1  0.16098000  0.83902000  0.25000000  1
  I  I9  1  0.83902000  0.67804100  0.75000000  1
