# generated using pymatgen
data_FeSO3
_symmetry_space_group_name_H-M   'P 1'
_cell_length_a   7.93967749
_cell_length_b   7.92967601
_cell_length_c   7.94416701
_cell_angle_alpha   109.22212730
_cell_angle_beta   109.53183509
_cell_angle_gamma   109.66899002
_symmetry_Int_Tables_number   1
_chemical_formula_structural   FeSO3
_chemical_formula_sum   'Fe6 S6 O18'
_cell_volume   384.97256366
_cell_formula_units_Z   6
loop_
 _symmetry_equiv_pos_site_id
 _symmetry_equiv_pos_as_xyz
  1  'x, y, z'
loop_
 _atom_site_type_symbol
 _atom_site_label
 _atom_site_symmetry_multiplicity
 _atom_site_fract_x
 _atom_site_fract_y
 _atom_site_fract_z
 _atom_site_occupancy
  Fe  Fe0  1  0.30965700  0.13216400  0.81106200  1
  Fe  Fe1  1  0.19034400  0.69081100  0.86806400  1
  Fe  Fe2  1  0.86604200  0.18766900  0.68869400  1
  Fe  Fe3  1  0.81594300  0.31304900  0.13121900  1
  Fe  Fe4  1  0.13327400  0.81168300  0.31167400  1
  Fe  Fe5  1  0.68974100  0.86753300  0.18925600  1
  S  S6  1  0.29154800  0.47315200  0.14599600  1
  S  S7  1  0.14712000  0.29364300  0.47581100  1
  S  S8  1  0.47400900  0.14556200  0.29099700  1
  S  S9  1  0.70830800  0.52531400  0.85418200  1
  S  S10  1  0.85427100  0.70849600  0.52545600  1
  S  S11  1  0.52420500  0.85266100  0.70715800  1
  O  O12  1  0.38580800  0.63512400  0.08635100  1
  O  O13  1  0.08529500  0.38604200  0.63541600  1
  O  O14  1  0.63466200  0.08485800  0.38536800  1
  O  O15  1  0.61587000  0.36397900  0.91693900  1
  O  O16  1  0.91732100  0.61762300  0.36688800  1
  O  O17  1  0.36460200  0.91563000  0.61489600  1
  O  O18  1  0.12674600  0.51468100  0.18548500  1
  O  O19  1  0.18539000  0.12845700  0.51632700  1
  O  O20  1  0.51597500  0.18543600  0.12766000  1
  O  O21  1  0.87181600  0.48313300  0.81439800  1
  O  O22  1  0.81275500  0.87190800  0.48247400  1
  O  O23  1  0.48204200  0.81192200  0.87089700  1
  O  O24  1  0.15704500  0.26549200  0.93672500  1
  O  O25  1  0.93717700  0.16026100  0.26649300  1
  O  O26  1  0.26462500  0.93460700  0.15682300  1
  O  O27  1  0.84208400  0.73384900  0.06208100  1
  O  O28  1  0.06292200  0.84422500  0.73478100  1
  O  O29  1  0.73340200  0.06103700  0.84043000  1
