# generated using pymatgen
data_Na2Nb4O11
_symmetry_space_group_name_H-M   'P 1'
_cell_length_a   12.94249259
_cell_length_b   12.94249259
_cell_length_c   12.94249272
_cell_angle_alpha   28.20928009
_cell_angle_beta   28.20928009
_cell_angle_gamma   28.20927979
_symmetry_Int_Tables_number   1
_chemical_formula_structural   Na2Nb4O11
_chemical_formula_sum   'Na4 Nb8 O22'
_cell_volume   427.97595721
_cell_formula_units_Z   2
loop_
 _symmetry_equiv_pos_site_id
 _symmetry_equiv_pos_as_xyz
  1  'x, y, z'
loop_
 _atom_site_type_symbol
 _atom_site_label
 _atom_site_symmetry_multiplicity
 _atom_site_fract_x
 _atom_site_fract_y
 _atom_site_fract_z
 _atom_site_occupancy
  Na  Na0  1  0.83246500  0.83246500  0.83246500  1
  Na  Na1  1  0.66753500  0.66753500  0.66753500  1
  Na  Na2  1  0.16753500  0.16753500  0.16753500  1
  Na  Na3  1  0.33246500  0.33246500  0.33246500  1
  Nb  Nb4  1  0.25000000  0.61278700  0.88721300  1
  Nb  Nb5  1  0.88721300  0.25000000  0.61278700  1
  Nb  Nb6  1  0.75000000  0.38721300  0.11278700  1
  Nb  Nb7  1  0.11278700  0.75000000  0.38721300  1
  Nb  Nb8  1  0.61278700  0.88721300  0.25000000  1
  Nb  Nb9  1  0.38721300  0.11278700  0.75000000  1
  Nb  Nb10  1  0.00000000  0.00000000  0.00000000  1
  Nb  Nb11  1  0.50000000  0.50000000  0.50000000  1
  O  O12  1  0.24497800  0.72283600  0.93715600  1
  O  O13  1  0.77716400  0.25502200  0.56284400  1
  O  O14  1  0.75502200  0.27716400  0.06284400  1
  O  O15  1  0.22283600  0.74497800  0.43715600  1
  O  O16  1  0.25502200  0.56284400  0.77716400  1
  O  O17  1  0.93715600  0.24497800  0.72283600  1
  O  O18  1  0.74497800  0.43715600  0.22283600  1
  O  O19  1  0.06284400  0.75502200  0.27716400  1
  O  O20  1  0.72283600  0.93715600  0.24497800  1
  O  O21  1  0.56284400  0.77716400  0.25502200  1
  O  O22  1  0.27716400  0.06284400  0.75502200  1
  O  O23  1  0.43715600  0.22283600  0.74497800  1
  O  O24  1  0.49688300  0.25000000  0.00311700  1
  O  O25  1  0.25000000  0.00311700  0.49688300  1
  O  O26  1  0.50311700  0.75000000  0.99688300  1
  O  O27  1  0.75000000  0.99688300  0.50311700  1
  O  O28  1  0.90479800  0.90479800  0.90479800  1
  O  O29  1  0.59520200  0.59520200  0.59520200  1
  O  O30  1  0.09520200  0.09520200  0.09520200  1
  O  O31  1  0.40479800  0.40479800  0.40479800  1
  O  O32  1  0.00311700  0.49688300  0.25000000  1
  O  O33  1  0.99688300  0.50311700  0.75000000  1
