# generated using pymatgen
data_V2CuO6
_symmetry_space_group_name_H-M   'P 1'
_cell_length_a   5.02512203
_cell_length_b   5.02512203
_cell_length_c   6.66217237
_cell_angle_alpha   74.04811044
_cell_angle_beta   74.04811044
_cell_angle_gamma   41.65923783
_symmetry_Int_Tables_number   1
_chemical_formula_structural   V2CuO6
_chemical_formula_sum   'V2 Cu1 O6'
_cell_volume   106.88009279
_cell_formula_units_Z   1
loop_
 _symmetry_equiv_pos_site_id
 _symmetry_equiv_pos_as_xyz
  1  'x, y, z'
loop_
 _atom_site_type_symbol
 _atom_site_label
 _atom_site_symmetry_multiplicity
 _atom_site_fract_x
 _atom_site_fract_y
 _atom_site_fract_z
 _atom_site_occupancy
  V  V0  1  0.79526000  0.79526000  0.16907400  1
  V  V1  1  0.20474000  0.20474000  0.83092600  1
  Cu  Cu2  1  0.00000000  0.00000000  0.50000000  1
  O  O3  1  0.95619400  0.95619400  0.24188900  1
  O  O4  1  0.04380600  0.04380600  0.75811100  1
  O  O5  1  0.65029700  0.65029700  0.39054700  1
  O  O6  1  0.34970300  0.34970300  0.60945300  1
  O  O7  1  0.70104600  0.70104600  0.92385000  1
  O  O8  1  0.29895400  0.29895400  0.07615000  1
