# generated using pymatgen
data_S4N4O3
_symmetry_space_group_name_H-M   'P 1'
_cell_length_a   10.55465300
_cell_length_b   6.21524200
_cell_length_c   13.22424864
_cell_angle_alpha   73.07910618
_cell_angle_beta   90.00000000
_cell_angle_gamma   90.00000000
_symmetry_Int_Tables_number   1
_chemical_formula_structural   S4N4O3
_chemical_formula_sum   'S16 N16 O12'
_cell_volume   829.95050347
_cell_formula_units_Z   4
loop_
 _symmetry_equiv_pos_site_id
 _symmetry_equiv_pos_as_xyz
  1  'x, y, z'
loop_
 _atom_site_type_symbol
 _atom_site_label
 _atom_site_symmetry_multiplicity
 _atom_site_fract_x
 _atom_site_fract_y
 _atom_site_fract_z
 _atom_site_occupancy
  S  S0  1  0.94518300  0.07158500  0.12041400  1
  S  S1  1  0.44518300  0.92841500  0.37958600  1
  S  S2  1  0.05481700  0.92841500  0.87958600  1
  S  S3  1  0.55481700  0.07158500  0.62041400  1
  S  S4  1  0.69017600  0.01729500  0.02536900  1
  S  S5  1  0.19017600  0.98270500  0.47463100  1
  S  S6  1  0.30982400  0.98270500  0.97463100  1
  S  S7  1  0.80982400  0.01729500  0.52536900  1
  S  S8  1  0.61516100  0.35374200  0.12982700  1
  S  S9  1  0.11516100  0.64625800  0.37017300  1
  S  S10  1  0.38483900  0.64625800  0.87017300  1
  S  S11  1  0.88483900  0.35374200  0.62982700  1
  S  S12  1  0.89284700  0.31863900  0.19243300  1
  S  S13  1  0.39284700  0.68136100  0.30756700  1
  S  S14  1  0.10715300  0.68136100  0.80756700  1
  S  S15  1  0.60715300  0.31863900  0.69243300  1
  N  N16  1  0.83003400  0.99917700  0.06223400  1
  N  N17  1  0.33003400  0.00082300  0.43776600  1
  N  N18  1  0.16996600  0.00082300  0.93776600  1
  N  N19  1  0.66996600  0.99917700  0.56223400  1
  N  N20  1  0.59965200  0.18612400  0.06023700  1
  N  N21  1  0.09965200  0.81387600  0.43976300  1
  N  N22  1  0.40034800  0.81387600  0.93976300  1
  N  N23  1  0.90034800  0.18612400  0.56023700  1
  N  N24  1  0.74746400  0.37442400  0.17706100  1
  N  N25  1  0.24746400  0.62557600  0.32293900  1
  N  N26  1  0.25253600  0.62557600  0.82293900  1
  N  N27  1  0.75253600  0.37442400  0.67706100  1
  N  N28  1  0.20053900  0.33393600  0.14908300  1
  N  N29  1  0.70053900  0.66606400  0.35091700  1
  N  N30  1  0.79946100  0.66606400  0.85091700  1
  N  N31  1  0.29946100  0.33393600  0.64908300  1
  O  O32  1  0.15382400  0.49068300  0.07606300  1
  O  O33  1  0.65382400  0.50931700  0.42393700  1
  O  O34  1  0.84617600  0.50931700  0.92393700  1
  O  O35  1  0.34617600  0.49068300  0.57606300  1
  O  O36  1  0.12451800  0.19305500  0.21404300  1
  O  O37  1  0.62451800  0.80694500  0.28595700  1
  O  O38  1  0.87548200  0.80694500  0.78595700  1
  O  O39  1  0.37548200  0.19305500  0.71404300  1
  O  O40  1  0.31754100  0.30605700  0.16253300  1
  O  O41  1  0.81754100  0.69394300  0.33746700  1
  O  O42  1  0.68245900  0.69394300  0.83746700  1
  O  O43  1  0.18245900  0.30605700  0.66253300  1
