# generated using pymatgen
data_Rb6O
_symmetry_space_group_name_H-M   'P 1'
_cell_length_a   8.46389381
_cell_length_b   8.46389381
_cell_length_c   30.81083400
_cell_angle_alpha   90.00000000
_cell_angle_beta   90.00000000
_cell_angle_gamma   119.99999852
_symmetry_Int_Tables_number   1
_chemical_formula_structural   Rb6O
_chemical_formula_sum   'Rb24 O4'
_cell_volume   1911.50088877
_cell_formula_units_Z   4
loop_
 _symmetry_equiv_pos_site_id
 _symmetry_equiv_pos_as_xyz
  1  'x, y, z'
loop_
 _atom_site_type_symbol
 _atom_site_label
 _atom_site_symmetry_multiplicity
 _atom_site_fract_x
 _atom_site_fract_y
 _atom_site_fract_z
 _atom_site_occupancy
  Rb  Rb0  1  0.31664100  0.38613500  0.13951800  1
  Rb  Rb1  1  0.93050600  0.31664100  0.63951800  1
  Rb  Rb2  1  0.38613500  0.06949400  0.63951800  1
  Rb  Rb3  1  0.61386500  0.93050600  0.13951800  1
  Rb  Rb4  1  0.06949400  0.68335900  0.13951800  1
  Rb  Rb5  1  0.68335900  0.61386500  0.63951800  1
  Rb  Rb6  1  0.68335900  0.61386500  0.86048200  1
  Rb  Rb7  1  0.06949400  0.68335900  0.36048200  1
  Rb  Rb8  1  0.61386500  0.93050600  0.36048200  1
  Rb  Rb9  1  0.38613500  0.06949400  0.86048200  1
  Rb  Rb10  1  0.93050600  0.31664100  0.86048200  1
  Rb  Rb11  1  0.31664100  0.38613500  0.36048200  1
  Rb  Rb12  1  0.08062700  0.42682000  0.25000000  1
  Rb  Rb13  1  0.65380700  0.08062700  0.75000000  1
  Rb  Rb14  1  0.42682000  0.34619300  0.75000000  1
  Rb  Rb15  1  0.57318000  0.65380700  0.25000000  1
  Rb  Rb16  1  0.34619300  0.91937300  0.25000000  1
  Rb  Rb17  1  0.91937300  0.57318000  0.75000000  1
  Rb  Rb18  1  0.00000000  0.00000000  0.00000000  1
  Rb  Rb19  1  0.00000000  0.00000000  0.50000000  1
  Rb  Rb20  1  0.33333300  0.66666700  0.98390800  1
  Rb  Rb21  1  0.66666700  0.33333300  0.48390800  1
  Rb  Rb22  1  0.66666700  0.33333300  0.01609200  1
  Rb  Rb23  1  0.33333300  0.66666700  0.51609200  1
  O  O24  1  0.33333300  0.66666700  0.18701100  1
  O  O25  1  0.66666700  0.33333300  0.68701100  1
  O  O26  1  0.66666700  0.33333300  0.81298900  1
  O  O27  1  0.33333300  0.66666700  0.31298900  1
