# generated using pymatgen
data_CdC2(SN)2
_symmetry_space_group_name_H-M   'P 1'
_cell_length_a   13.53274700
_cell_length_b   5.90518500
_cell_length_c   7.80534165
_cell_angle_alpha   66.20615265
_cell_angle_beta   90.00000000
_cell_angle_gamma   90.00000000
_symmetry_Int_Tables_number   1
_chemical_formula_structural   CdC2(SN)2
_chemical_formula_sum   'Cd4 C8 S8 N8'
_cell_volume   570.73420905
_cell_formula_units_Z   4
loop_
 _symmetry_equiv_pos_site_id
 _symmetry_equiv_pos_as_xyz
  1  'x, y, z'
loop_
 _atom_site_type_symbol
 _atom_site_label
 _atom_site_symmetry_multiplicity
 _atom_site_fract_x
 _atom_site_fract_y
 _atom_site_fract_z
 _atom_site_occupancy
  Cd  Cd0  1  0.86933800  0.17537900  0.88434100  1
  Cd  Cd1  1  0.36933800  0.82462100  0.61565900  1
  Cd  Cd2  1  0.13066200  0.82462100  0.11565900  1
  Cd  Cd3  1  0.63066200  0.17537900  0.38434100  1
  C  C4  1  0.98600400  0.72446900  0.77874300  1
  C  C5  1  0.48600400  0.27553100  0.72125700  1
  C  C6  1  0.01399600  0.27553100  0.22125700  1
  C  C7  1  0.51399600  0.72446900  0.27874300  1
  C  C8  1  0.75375100  0.62334300  0.98570700  1
  C  C9  1  0.25375100  0.37665700  0.51429300  1
  C  C10  1  0.24624900  0.37665700  0.01429300  1
  C  C11  1  0.74624900  0.62334300  0.48570700  1
  S  S12  1  0.03305500  0.98871000  0.76267000  1
  S  S13  1  0.53305500  0.01129000  0.73733000  1
  S  S14  1  0.96694500  0.01129000  0.23733000  1
  S  S15  1  0.46694500  0.98871000  0.26267000  1
  S  S16  1  0.70728500  0.35706400  0.00593600  1
  S  S17  1  0.20728500  0.64293600  0.49406400  1
  S  S18  1  0.29271500  0.64293600  0.99406400  1
  S  S19  1  0.79271500  0.35706400  0.50593600  1
  N  N20  1  0.95252600  0.53696000  0.78572900  1
  N  N21  1  0.45252600  0.46304000  0.71427100  1
  N  N22  1  0.04747400  0.46304000  0.21427100  1
  N  N23  1  0.54747400  0.53696000  0.28572900  1
  N  N24  1  0.78656200  0.81566700  0.96953900  1
  N  N25  1  0.28656200  0.18433300  0.53046100  1
  N  N26  1  0.21343800  0.18433300  0.03046100  1
  N  N27  1  0.71343800  0.81566700  0.46953900  1
