# generated using pymatgen
data_Eu3BrO4
_symmetry_space_group_name_H-M   'P 1'
_cell_length_a   6.48227047
_cell_length_b   6.48227047
_cell_length_c   11.91130500
_cell_angle_alpha   90.00000000
_cell_angle_beta   90.00000000
_cell_angle_gamma   142.39037159
_symmetry_Int_Tables_number   1
_chemical_formula_structural   Eu3BrO4
_chemical_formula_sum   'Eu6 Br2 O8'
_cell_volume   305.45101146
_cell_formula_units_Z   2
loop_
 _symmetry_equiv_pos_site_id
 _symmetry_equiv_pos_as_xyz
  1  'x, y, z'
loop_
 _atom_site_type_symbol
 _atom_site_label
 _atom_site_symmetry_multiplicity
 _atom_site_fract_x
 _atom_site_fract_y
 _atom_site_fract_z
 _atom_site_occupancy
  Eu  Eu0  1  0.82118100  0.17881900  0.40062600  1
  Eu  Eu1  1  0.17881900  0.82118100  0.59937400  1
  Eu  Eu2  1  0.17881900  0.82118100  0.90062600  1
  Eu  Eu3  1  0.82118100  0.17881900  0.09937400  1
  Eu  Eu4  1  0.87906100  0.12093900  0.75000000  1
  Eu  Eu5  1  0.12093900  0.87906100  0.25000000  1
  Br  Br6  1  0.50000000  0.50000000  0.00000000  1
  Br  Br7  1  0.50000000  0.50000000  0.50000000  1
  O  O8  1  0.30416900  0.69583100  0.75000000  1
  O  O9  1  0.69583100  0.30416900  0.25000000  1
  O  O10  1  0.06720700  0.93279300  0.75000000  1
  O  O11  1  0.93279300  0.06720700  0.25000000  1
  O  O12  1  0.76632800  0.23367200  0.91238600  1
  O  O13  1  0.23367200  0.76632800  0.08761400  1
  O  O14  1  0.23367200  0.76632800  0.41238600  1
  O  O15  1  0.76632800  0.23367200  0.58761400  1
