# generated using pymatgen
data_Ca2AlTl
_symmetry_space_group_name_H-M   'P 1'
_cell_length_a   13.17676029
_cell_length_b   13.17676029
_cell_length_c   13.17676029
_cell_angle_alpha   124.41327132
_cell_angle_beta   118.95936451
_cell_angle_gamma   87.17145887
_symmetry_Int_Tables_number   1
_chemical_formula_structural   Ca2AlTl
_chemical_formula_sum   'Ca2 Al1 Tl1'
_cell_volume   1569.68122737
_cell_formula_units_Z   1
loop_
 _symmetry_equiv_pos_site_id
 _symmetry_equiv_pos_as_xyz
  1  'x, y, z'
loop_
 _atom_site_type_symbol
 _atom_site_label
 _atom_site_symmetry_multiplicity
 _atom_site_fract_x
 _atom_site_fract_y
 _atom_site_fract_z
 _atom_site_occupancy
  Ca  Ca0  1  0.00000000  0.24232900  0.24232900  1
  Ca  Ca1  1  0.00000000  0.75767100  0.75767100  1
  Al  Al2  1  0.00000000  0.00000000  0.00000000  1
  Tl  Tl3  1  0.00000000  0.50000000  0.50000000  1
