# generated using pymatgen
data_LuH18C3S3(O2F)9
_symmetry_space_group_name_H-M   'P 1'
_cell_length_a   13.47599524
_cell_length_b   13.47599524
_cell_length_c   7.67476900
_cell_angle_alpha   90.00000000
_cell_angle_beta   90.00000000
_cell_angle_gamma   119.99999627
_symmetry_Int_Tables_number   1
_chemical_formula_structural   LuH18C3S3(O2F)9
_chemical_formula_sum   'Lu2 H36 C6 S6 O36 F18'
_cell_volume   1207.02887208
_cell_formula_units_Z   2
loop_
 _symmetry_equiv_pos_site_id
 _symmetry_equiv_pos_as_xyz
  1  'x, y, z'
loop_
 _atom_site_type_symbol
 _atom_site_label
 _atom_site_symmetry_multiplicity
 _atom_site_fract_x
 _atom_site_fract_y
 _atom_site_fract_z
 _atom_site_occupancy
  Lu  Lu0  1  0.33333300  0.66666700  0.25000000  1
  Lu  Lu1  1  0.66666700  0.33333300  0.75000000  1
  H  H2  1  0.34823800  0.44199300  0.14605700  1
  H  H3  1  0.90624500  0.34823800  0.64605700  1
  H  H4  1  0.44199300  0.09375500  0.64605700  1
  H  H5  1  0.55800700  0.90624500  0.14605700  1
  H  H6  1  0.09375500  0.65176200  0.14605700  1
  H  H7  1  0.65176200  0.55800700  0.64605700  1
  H  H8  1  0.65176200  0.55800700  0.85394300  1
  H  H9  1  0.09375500  0.65176200  0.35394300  1
  H  H10  1  0.55800700  0.90624500  0.35394300  1
  H  H11  1  0.44199300  0.09375500  0.85394300  1
  H  H12  1  0.90624500  0.34823800  0.85394300  1
  H  H13  1  0.34823800  0.44199300  0.35394300  1
  H  H14  1  0.12903000  0.48824100  0.43547900  1
  H  H15  1  0.64078900  0.12903000  0.93547900  1
  H  H16  1  0.48824100  0.35921100  0.93547900  1
  H  H17  1  0.51175900  0.64078900  0.43547900  1
  H  H18  1  0.35921100  0.87097000  0.43547900  1
  H  H19  1  0.87097000  0.51175900  0.93547900  1
  H  H20  1  0.87097000  0.51175900  0.56452100  1
  H  H21  1  0.35921100  0.87097000  0.06452100  1
  H  H22  1  0.51175900  0.64078900  0.06452100  1
  H  H23  1  0.48824100  0.35921100  0.56452100  1
  H  H24  1  0.64078900  0.12903000  0.56452100  1
  H  H25  1  0.12903000  0.48824100  0.06452100  1
  H  H26  1  0.23462900  0.51606400  0.55883100  1
  H  H27  1  0.71856400  0.23462900  0.05883100  1
  H  H28  1  0.51606400  0.28143600  0.05883100  1
  H  H29  1  0.48393600  0.71856400  0.55883100  1
  H  H30  1  0.28143600  0.76537100  0.55883100  1
  H  H31  1  0.76537100  0.48393600  0.05883100  1
  H  H32  1  0.76537100  0.48393600  0.44116900  1
  H  H33  1  0.28143600  0.76537100  0.94116900  1
  H  H34  1  0.48393600  0.71856400  0.94116900  1
  H  H35  1  0.51606400  0.28143600  0.44116900  1
  H  H36  1  0.71856400  0.23462900  0.44116900  1
  H  H37  1  0.23462900  0.51606400  0.94116900  1
  C  C38  1  0.18390400  0.23999700  0.75000000  1
  C  C39  1  0.94390700  0.18390400  0.25000000  1
  C  C40  1  0.23999700  0.05609300  0.25000000  1
  C  C41  1  0.76000300  0.94390700  0.75000000  1
  C  C42  1  0.05609300  0.81609600  0.75000000  1
  C  C43  1  0.81609600  0.76000300  0.25000000  1
  S  S44  1  0.31250800  0.38694000  0.75000000  1
  S  S45  1  0.92556800  0.31250800  0.25000000  1
  S  S46  1  0.38694000  0.07443200  0.25000000  1
  S  S47  1  0.61306000  0.92556800  0.75000000  1
  S  S48  1  0.07443200  0.68749200  0.75000000  1
  S  S49  1  0.68749200  0.61306000  0.25000000  1
  O  O50  1  0.34646100  0.48338200  0.25000000  1
  O  O51  1  0.86307900  0.34646100  0.75000000  1
  O  O52  1  0.48338200  0.13692100  0.75000000  1
  O  O53  1  0.51661800  0.86307900  0.25000000  1
  O  O54  1  0.13692100  0.65353900  0.25000000  1
  O  O55  1  0.65353900  0.51661800  0.75000000  1
  O  O56  1  0.21005500  0.54487400  0.45880800  1
  O  O57  1  0.66518100  0.21005500  0.95880800  1
  O  O58  1  0.54487400  0.33481900  0.95880800  1
  O  O59  1  0.45512600  0.66518100  0.45880800  1
  O  O60  1  0.33481900  0.78994500  0.45880800  1
  O  O61  1  0.78994500  0.45512600  0.95880800  1
  O  O62  1  0.78994500  0.45512600  0.54119200  1
  O  O63  1  0.33481900  0.78994500  0.04119200  1
  O  O64  1  0.45512600  0.66518100  0.04119200  1
  O  O65  1  0.54487400  0.33481900  0.54119200  1
  O  O66  1  0.66518100  0.21005500  0.54119200  1
  O  O67  1  0.21005500  0.54487400  0.04119200  1
  O  O68  1  0.26256000  0.46216800  0.75000000  1
  O  O69  1  0.80039200  0.26256000  0.25000000  1
  O  O70  1  0.46216800  0.19960800  0.25000000  1
  O  O71  1  0.53783200  0.80039200  0.75000000  1
  O  O72  1  0.19960800  0.73744000  0.75000000  1
  O  O73  1  0.73744000  0.53783200  0.25000000  1
  O  O74  1  0.37284800  0.39200200  0.58877900  1
  O  O75  1  0.98084600  0.37284800  0.08877900  1
  O  O76  1  0.39200200  0.01915400  0.08877900  1
  O  O77  1  0.60799800  0.98084600  0.58877900  1
  O  O78  1  0.01915400  0.62715200  0.58877900  1
  O  O79  1  0.62715200  0.60799800  0.08877900  1
  O  O80  1  0.62715200  0.60799800  0.41122100  1
  O  O81  1  0.01915400  0.62715200  0.91122100  1
  O  O82  1  0.60799800  0.98084600  0.91122100  1
  O  O83  1  0.39200200  0.01915400  0.41122100  1
  O  O84  1  0.98084600  0.37284800  0.41122100  1
  O  O85  1  0.37284800  0.39200200  0.91122100  1
  F  F86  1  0.21627300  0.15996000  0.75000000  1
  F  F87  1  0.05631300  0.21627300  0.25000000  1
  F  F88  1  0.15996000  0.94368700  0.25000000  1
  F  F89  1  0.84004000  0.05631300  0.75000000  1
  F  F90  1  0.94368700  0.78372700  0.75000000  1
  F  F91  1  0.78372700  0.84004000  0.25000000  1
  F  F92  1  0.11947800  0.22552600  0.60690000  1
  F  F93  1  0.89395200  0.11947800  0.10690000  1
  F  F94  1  0.22552600  0.10604800  0.10690000  1
  F  F95  1  0.77447400  0.89395200  0.60690000  1
  F  F96  1  0.10604800  0.88052200  0.60690000  1
  F  F97  1  0.88052200  0.77447400  0.10690000  1
  F  F98  1  0.88052200  0.77447400  0.39310000  1
  F  F99  1  0.10604800  0.88052200  0.89310000  1
  F  F100  1  0.77447400  0.89395200  0.89310000  1
  F  F101  1  0.22552600  0.10604800  0.39310000  1
  F  F102  1  0.89395200  0.11947800  0.39310000  1
  F  F103  1  0.11947800  0.22552600  0.89310000  1
