# generated using pymatgen
data_ZnNi(PO3)4
_symmetry_space_group_name_H-M   'P 1'
_cell_length_a   7.26038098
_cell_length_b   7.26038098
_cell_length_c   10.01715677
_cell_angle_alpha   67.08679451
_cell_angle_beta   67.08679451
_cell_angle_gamma   70.36478830
_symmetry_Int_Tables_number   1
_chemical_formula_structural   ZnNi(PO3)4
_chemical_formula_sum   'Zn2 Ni2 P8 O24'
_cell_volume   437.27953741
_cell_formula_units_Z   2
loop_
 _symmetry_equiv_pos_site_id
 _symmetry_equiv_pos_as_xyz
  1  'x, y, z'
loop_
 _atom_site_type_symbol
 _atom_site_label
 _atom_site_symmetry_multiplicity
 _atom_site_fract_x
 _atom_site_fract_y
 _atom_site_fract_z
 _atom_site_occupancy
  Zn  Zn0  1  0.95020800  0.04979200  0.25000000  1
  Zn  Zn1  1  0.04979200  0.95020800  0.75000000  1
  Ni  Ni2  1  0.50000000  0.00000000  0.50000000  1
  Ni  Ni3  1  0.00000000  0.50000000  0.00000000  1
  P  P4  1  0.31288800  0.29614200  0.19687800  1
  P  P5  1  0.70385800  0.68711200  0.30312200  1
  P  P6  1  0.68711200  0.70385800  0.80312200  1
  P  P7  1  0.29614200  0.31288800  0.69687800  1
  P  P8  1  0.72846900  0.25441400  0.97764300  1
  P  P9  1  0.74558600  0.27153100  0.52235700  1
  P  P10  1  0.27153100  0.74558600  0.02235700  1
  P  P11  1  0.25441400  0.72846900  0.47764300  1
  O  O12  1  0.31796700  0.53311000  0.15168600  1
  O  O13  1  0.46689000  0.68203300  0.34831400  1
  O  O14  1  0.68203300  0.46689000  0.84831400  1
  O  O15  1  0.53311000  0.31796700  0.65168600  1
  O  O16  1  0.50238600  0.21120800  0.06803000  1
  O  O17  1  0.78879200  0.49761400  0.43197000  1
  O  O18  1  0.49761400  0.78879200  0.93197000  1
  O  O19  1  0.21120800  0.50238600  0.56803000  1
  O  O20  1  0.34176000  0.19225500  0.34920300  1
  O  O21  1  0.80774500  0.65824000  0.15079700  1
  O  O22  1  0.65824000  0.80774500  0.65079700  1
  O  O23  1  0.19225500  0.34176000  0.84920300  1
  O  O24  1  0.12153000  0.28676000  0.17379400  1
  O  O25  1  0.71324000  0.87847000  0.32620600  1
  O  O26  1  0.87847000  0.71324000  0.82620600  1
  O  O27  1  0.28676000  0.12153000  0.67379400  1
  O  O28  1  0.80856000  0.29381300  0.08193900  1
  O  O29  1  0.70618700  0.19144000  0.41806100  1
  O  O30  1  0.19144000  0.70618700  0.91806100  1
  O  O31  1  0.29381300  0.80856000  0.58193900  1
  O  O32  1  0.84742100  0.08935500  0.90633700  1
  O  O33  1  0.91064500  0.15257900  0.59366300  1
  O  O34  1  0.15257900  0.91064500  0.09366300  1
  O  O35  1  0.08935500  0.84742100  0.40633700  1
