# generated using pymatgen
data_Pb5(IF4)2
_symmetry_space_group_name_H-M   'P 1'
_cell_length_a   19.62513153
_cell_length_b   19.62513153
_cell_length_c   19.62513148
_cell_angle_alpha   12.69449305
_cell_angle_beta   12.69449305
_cell_angle_gamma   12.69449391
_symmetry_Int_Tables_number   1
_chemical_formula_structural   Pb5(IF4)2
_chemical_formula_sum   'Pb5 I2 F8'
_cell_volume   317.40128820
_cell_formula_units_Z   1
loop_
 _symmetry_equiv_pos_site_id
 _symmetry_equiv_pos_as_xyz
  1  'x, y, z'
loop_
 _atom_site_type_symbol
 _atom_site_label
 _atom_site_symmetry_multiplicity
 _atom_site_fract_x
 _atom_site_fract_y
 _atom_site_fract_z
 _atom_site_occupancy
  Pb  Pb0  1  0.99398600  0.99398600  0.99398600  1
  Pb  Pb1  1  0.61125100  0.61125100  0.61125100  1
  Pb  Pb2  1  0.52273800  0.52273800  0.52273800  1
  Pb  Pb3  1  0.80665800  0.80665800  0.80665800  1
  Pb  Pb4  1  0.08018800  0.08018800  0.08018800  1
  I  I5  1  0.23987700  0.23987700  0.23987700  1
  I  I6  1  0.37583100  0.37583100  0.37583100  1
  F  F7  1  0.85336400  0.85336400  0.85336400  1
  F  F8  1  0.75834300  0.75834300  0.75834300  1
  F  F9  1  0.65995100  0.65995100  0.65995100  1
  F  F10  1  0.48102100  0.48102100  0.48102100  1
  F  F11  1  0.12025900  0.12025900  0.12025900  1
  F  F12  1  0.95250900  0.95250900  0.95250900  1
  F  F13  1  0.30703800  0.30703800  0.30703800  1
  F  F14  1  0.17078700  0.17078700  0.17078700  1
