# generated using pymatgen
data_LaH18C3S3(O2F)9
_symmetry_space_group_name_H-M   'P 1'
_cell_length_a   14.14781235
_cell_length_b   14.14781235
_cell_length_c   7.43141900
_cell_angle_alpha   90.00000000
_cell_angle_beta   90.00000000
_cell_angle_gamma   120.00000162
_symmetry_Int_Tables_number   1
_chemical_formula_structural   LaH18C3S3(O2F)9
_chemical_formula_sum   'La2 H36 C6 S6 O36 F18'
_cell_volume   1288.19305871
_cell_formula_units_Z   2
loop_
 _symmetry_equiv_pos_site_id
 _symmetry_equiv_pos_as_xyz
  1  'x, y, z'
loop_
 _atom_site_type_symbol
 _atom_site_label
 _atom_site_symmetry_multiplicity
 _atom_site_fract_x
 _atom_site_fract_y
 _atom_site_fract_z
 _atom_site_occupancy
  La  La0  1  0.33333300  0.66666700  0.25000000  1
  La  La1  1  0.66666700  0.33333300  0.75000000  1
  H  H2  1  0.35417300  0.45086500  0.14322200  1
  H  H3  1  0.90330800  0.35417300  0.64322200  1
  H  H4  1  0.45086500  0.09669200  0.64322200  1
  H  H5  1  0.54913500  0.90330800  0.14322200  1
  H  H6  1  0.09669200  0.64582700  0.14322200  1
  H  H7  1  0.64582700  0.54913500  0.64322200  1
  H  H8  1  0.64582700  0.54913500  0.85677800  1
  H  H9  1  0.09669200  0.64582700  0.35677800  1
  H  H10  1  0.54913500  0.90330800  0.35677800  1
  H  H11  1  0.45086500  0.09669200  0.85677800  1
  H  H12  1  0.90330800  0.35417300  0.85677800  1
  H  H13  1  0.35417300  0.45086500  0.35677800  1
  H  H14  1  0.12689000  0.49132000  0.46438800  1
  H  H15  1  0.63556900  0.12689000  0.96438800  1
  H  H16  1  0.49132000  0.36443100  0.96438800  1
  H  H17  1  0.50868000  0.63556900  0.46438800  1
  H  H18  1  0.36443100  0.87311000  0.46438800  1
  H  H19  1  0.87311000  0.50868000  0.96438800  1
  H  H20  1  0.87311000  0.50868000  0.53561200  1
  H  H21  1  0.36443100  0.87311000  0.03561200  1
  H  H22  1  0.50868000  0.63556900  0.03561200  1
  H  H23  1  0.49132000  0.36443100  0.53561200  1
  H  H24  1  0.63556900  0.12689000  0.53561200  1
  H  H25  1  0.12689000  0.49132000  0.03561200  1
  H  H26  1  0.22641500  0.50410400  0.57898900  1
  H  H27  1  0.72231100  0.22641500  0.07898900  1
  H  H28  1  0.50410400  0.27768900  0.07898900  1
  H  H29  1  0.49589600  0.72231100  0.57898900  1
  H  H30  1  0.27768900  0.77358500  0.57898900  1
  H  H31  1  0.77358500  0.49589600  0.07898900  1
  H  H32  1  0.77358500  0.49589600  0.42101100  1
  H  H33  1  0.27768900  0.77358500  0.92101100  1
  H  H34  1  0.49589600  0.72231100  0.92101100  1
  H  H35  1  0.50410400  0.27768900  0.42101100  1
  H  H36  1  0.72231100  0.22641500  0.42101100  1
  H  H37  1  0.22641500  0.50410400  0.92101100  1
  C  C38  1  0.22179500  0.23022100  0.75000000  1
  C  C39  1  0.99157400  0.22179500  0.25000000  1
  C  C40  1  0.23022100  0.00842600  0.25000000  1
  C  C41  1  0.76977900  0.99157400  0.75000000  1
  C  C42  1  0.00842600  0.77820500  0.75000000  1
  C  C43  1  0.77820500  0.76977900  0.25000000  1
  S  S44  1  0.31989500  0.38063000  0.75000000  1
  S  S45  1  0.93926500  0.31989500  0.25000000  1
  S  S46  1  0.38063000  0.06073500  0.25000000  1
  S  S47  1  0.61937000  0.93926500  0.75000000  1
  S  S48  1  0.06073500  0.68010500  0.75000000  1
  S  S49  1  0.68010500  0.61937000  0.25000000  1
  O  O50  1  0.34731700  0.48777700  0.25000000  1
  O  O51  1  0.85954000  0.34731700  0.75000000  1
  O  O52  1  0.48777700  0.14046000  0.75000000  1
  O  O53  1  0.51222300  0.85954000  0.25000000  1
  O  O54  1  0.14046000  0.65268300  0.25000000  1
  O  O55  1  0.65268300  0.51222300  0.75000000  1
  O  O56  1  0.20418700  0.54210500  0.49226700  1
  O  O57  1  0.66208200  0.20418700  0.99226700  1
  O  O58  1  0.54210500  0.33791800  0.99226700  1
  O  O59  1  0.45789500  0.66208200  0.49226700  1
  O  O60  1  0.33791800  0.79581300  0.49226700  1
  O  O61  1  0.79581300  0.45789500  0.99226700  1
  O  O62  1  0.79581300  0.45789500  0.50773300  1
  O  O63  1  0.33791800  0.79581300  0.00773300  1
  O  O64  1  0.45789500  0.66208200  0.00773300  1
  O  O65  1  0.54210500  0.33791800  0.50773300  1
  O  O66  1  0.66208200  0.20418700  0.50773300  1
  O  O67  1  0.20418700  0.54210500  0.00773300  1
  O  O68  1  0.24945200  0.42927400  0.75000000  1
  O  O69  1  0.82017700  0.24945200  0.25000000  1
  O  O70  1  0.42927400  0.17982300  0.25000000  1
  O  O71  1  0.57072600  0.82017700  0.75000000  1
  O  O72  1  0.17982300  0.75054800  0.75000000  1
  O  O73  1  0.75054800  0.57072600  0.25000000  1
  O  O74  1  0.38236300  0.39945500  0.58363300  1
  O  O75  1  0.98290800  0.38236300  0.08363300  1
  O  O76  1  0.39945500  0.01709200  0.08363300  1
  O  O77  1  0.60054500  0.98290800  0.58363300  1
  O  O78  1  0.01709200  0.61763700  0.58363300  1
  O  O79  1  0.61763700  0.60054500  0.08363300  1
  O  O80  1  0.61763700  0.60054500  0.41636700  1
  O  O81  1  0.01709200  0.61763700  0.91636700  1
  O  O82  1  0.60054500  0.98290800  0.91636700  1
  O  O83  1  0.39945500  0.01709200  0.41636700  1
  O  O84  1  0.98290800  0.38236300  0.41636700  1
  O  O85  1  0.38236300  0.39945500  0.91636700  1
  F  F86  1  0.27812300  0.17604500  0.75000000  1
  F  F87  1  0.10207800  0.27812300  0.25000000  1
  F  F88  1  0.17604500  0.89792200  0.25000000  1
  F  F89  1  0.82395500  0.10207800  0.75000000  1
  F  F90  1  0.89792200  0.72187700  0.75000000  1
  F  F91  1  0.72187700  0.82395500  0.25000000  1
  F  F92  1  0.15782300  0.20147700  0.60216800  1
  F  F93  1  0.95634600  0.15782300  0.10216800  1
  F  F94  1  0.20147700  0.04365400  0.10216800  1
  F  F95  1  0.79852300  0.95634600  0.60216800  1
  F  F96  1  0.04365400  0.84217700  0.60216800  1
  F  F97  1  0.84217700  0.79852300  0.10216800  1
  F  F98  1  0.84217700  0.79852300  0.39783200  1
  F  F99  1  0.04365400  0.84217700  0.89783200  1
  F  F100  1  0.79852300  0.95634600  0.89783200  1
  F  F101  1  0.20147700  0.04365400  0.39783200  1
  F  F102  1  0.95634600  0.15782300  0.39783200  1
  F  F103  1  0.15782300  0.20147700  0.89783200  1
