# generated using pymatgen
data_Cs2NaMoC4N7O
_symmetry_space_group_name_H-M   'P 1'
_cell_length_a   15.92634300
_cell_length_b   7.98328300
_cell_length_c   10.61848800
_cell_angle_alpha   90.00000000
_cell_angle_beta   90.00000000
_cell_angle_gamma   90.00000000
_symmetry_Int_Tables_number   1
_chemical_formula_structural   Cs2NaMoC4N7O
_chemical_formula_sum   'Cs8 Na4 Mo4 C16 N28 O4'
_cell_volume   1350.08238281
_cell_formula_units_Z   4
loop_
 _symmetry_equiv_pos_site_id
 _symmetry_equiv_pos_as_xyz
  1  'x, y, z'
loop_
 _atom_site_type_symbol
 _atom_site_label
 _atom_site_symmetry_multiplicity
 _atom_site_fract_x
 _atom_site_fract_y
 _atom_site_fract_z
 _atom_site_occupancy
  Cs  Cs0  1  0.86226400  0.25000000  0.95726400  1
  Cs  Cs1  1  0.13773600  0.75000000  0.04273600  1
  Cs  Cs2  1  0.63773600  0.75000000  0.45726400  1
  Cs  Cs3  1  0.36226400  0.25000000  0.54273600  1
  Cs  Cs4  1  0.35816100  0.25000000  0.07605500  1
  Cs  Cs5  1  0.64183900  0.75000000  0.92394500  1
  Cs  Cs6  1  0.14183900  0.75000000  0.57605500  1
  Cs  Cs7  1  0.85816100  0.25000000  0.42394500  1
  Na  Na8  1  0.15101400  0.25000000  0.83571000  1
  Na  Na9  1  0.84898600  0.75000000  0.16429000  1
  Na  Na10  1  0.34898600  0.75000000  0.33571000  1
  Na  Na11  1  0.65101400  0.25000000  0.66429000  1
  Mo  Mo12  1  0.10852000  0.25000000  0.21717700  1
  Mo  Mo13  1  0.89148000  0.75000000  0.78282300  1
  Mo  Mo14  1  0.39148000  0.75000000  0.71717700  1
  Mo  Mo15  1  0.60852000  0.25000000  0.28282300  1
  C  C16  1  0.19013800  0.43469600  0.29864900  1
  C  C17  1  0.80986200  0.93469600  0.70135100  1
  C  C18  1  0.30986200  0.56530400  0.79864900  1
  C  C19  1  0.69013800  0.06530400  0.20135100  1
  C  C20  1  0.80986200  0.56530400  0.70135100  1
  C  C21  1  0.19013800  0.06530400  0.29864900  1
  C  C22  1  0.69013800  0.43469600  0.20135100  1
  C  C23  1  0.30986200  0.93469600  0.79864900  1
  C  C24  1  0.01035500  0.43250800  0.19706600  1
  C  C25  1  0.98964500  0.93250800  0.80293400  1
  C  C26  1  0.48964500  0.56749200  0.69706600  1
  C  C27  1  0.51035500  0.06749200  0.30293400  1
  C  C28  1  0.98964500  0.56749200  0.80293400  1
  C  C29  1  0.01035500  0.06749200  0.19706600  1
  C  C30  1  0.51035500  0.43250800  0.30293400  1
  C  C31  1  0.48964500  0.93250800  0.69706600  1
  N  N32  1  0.23634900  0.53138300  0.34613200  1
  N  N33  1  0.76365100  0.03138300  0.65386800  1
  N  N34  1  0.26365100  0.46861700  0.84613200  1
  N  N35  1  0.73634900  0.96861700  0.15386800  1
  N  N36  1  0.76365100  0.46861700  0.65386800  1
  N  N37  1  0.23634900  0.96861700  0.34613200  1
  N  N38  1  0.73634900  0.53138300  0.15386800  1
  N  N39  1  0.26365100  0.03138300  0.84613200  1
  N  N40  1  0.95499600  0.52740000  0.17877100  1
  N  N41  1  0.04500400  0.02740000  0.82122900  1
  N  N42  1  0.54500400  0.47260000  0.67877100  1
  N  N43  1  0.45499600  0.97260000  0.32122900  1
  N  N44  1  0.04500400  0.47260000  0.82122900  1
  N  N45  1  0.95499600  0.97260000  0.17877100  1
  N  N46  1  0.45499600  0.52740000  0.32122900  1
  N  N47  1  0.54500400  0.02740000  0.67877100  1
  N  N48  1  0.06310800  0.25000000  0.42502800  1
  N  N49  1  0.93689200  0.75000000  0.57497200  1
  N  N50  1  0.43689200  0.75000000  0.92502800  1
  N  N51  1  0.56310800  0.25000000  0.07497200  1
  N  N52  1  0.11011000  0.25000000  0.51302600  1
  N  N53  1  0.88989000  0.75000000  0.48697400  1
  N  N54  1  0.38989000  0.75000000  0.01302600  1
  N  N55  1  0.61011000  0.25000000  0.98697400  1
  N  N56  1  0.15671300  0.25000000  0.59835600  1
  N  N57  1  0.84328700  0.75000000  0.40164400  1
  N  N58  1  0.34328700  0.75000000  0.09835600  1
  N  N59  1  0.65671300  0.25000000  0.90164400  1
  O  O60  1  0.15055000  0.25000000  0.06796300  1
  O  O61  1  0.84945000  0.75000000  0.93203700  1
  O  O62  1  0.34945000  0.75000000  0.56796300  1
  O  O63  1  0.65055000  0.25000000  0.43203700  1
