# generated using pymatgen
data_HoH18C3S3(O2F)9
_symmetry_space_group_name_H-M   'P 1'
_cell_length_a   13.70747872
_cell_length_b   13.70747872
_cell_length_c   7.52589400
_cell_angle_alpha   90.00000000
_cell_angle_beta   90.00000000
_cell_angle_gamma   120.00000347
_symmetry_Int_Tables_number   1
_chemical_formula_structural   HoH18C3S3(O2F)9
_chemical_formula_sum   'Ho2 H36 C6 S6 O36 F18'
_cell_volume   1224.62712384
_cell_formula_units_Z   2
loop_
 _symmetry_equiv_pos_site_id
 _symmetry_equiv_pos_as_xyz
  1  'x, y, z'
loop_
 _atom_site_type_symbol
 _atom_site_label
 _atom_site_symmetry_multiplicity
 _atom_site_fract_x
 _atom_site_fract_y
 _atom_site_fract_z
 _atom_site_occupancy
  Ho  Ho0  1  0.33333300  0.66666700  0.25000000  1
  Ho  Ho1  1  0.66666700  0.33333300  0.75000000  1
  H  H2  1  0.09918400  0.44916500  0.35575500  1
  H  H3  1  0.65001900  0.09918400  0.85575500  1
  H  H4  1  0.44916500  0.34998100  0.85575500  1
  H  H5  1  0.55083500  0.65001900  0.35575500  1
  H  H6  1  0.34998100  0.90081600  0.35575500  1
  H  H7  1  0.90081600  0.55083500  0.85575500  1
  H  H8  1  0.90081600  0.55083500  0.64424500  1
  H  H9  1  0.34998100  0.90081600  0.14424500  1
  H  H10  1  0.55083500  0.65001900  0.14424500  1
  H  H11  1  0.44916500  0.34998100  0.64424500  1
  H  H12  1  0.65001900  0.09918400  0.64424500  1
  H  H13  1  0.09918400  0.44916500  0.14424500  1
  H  H14  1  0.36259100  0.49211000  0.44847700  1
  H  H15  1  0.87048000  0.36259100  0.94847700  1
  H  H16  1  0.49211000  0.12952000  0.94847700  1
  H  H17  1  0.50789000  0.87048000  0.44847700  1
  H  H18  1  0.12952000  0.63740900  0.44847700  1
  H  H19  1  0.63740900  0.50789000  0.94847700  1
  H  H20  1  0.63740900  0.50789000  0.55152300  1
  H  H21  1  0.12952000  0.63740900  0.05152300  1
  H  H22  1  0.50789000  0.87048000  0.05152300  1
  H  H23  1  0.49211000  0.12952000  0.55152300  1
  H  H24  1  0.87048000  0.36259100  0.55152300  1
  H  H25  1  0.36259100  0.49211000  0.05152300  1
  H  H26  1  0.27977800  0.51286000  0.56774400  1
  H  H27  1  0.76691800  0.27977800  0.06774400  1
  H  H28  1  0.51286000  0.23308200  0.06774400  1
  H  H29  1  0.48714000  0.76691800  0.56774400  1
  H  H30  1  0.23308200  0.72022200  0.56774400  1
  H  H31  1  0.72022200  0.48714000  0.06774400  1
  H  H32  1  0.72022200  0.48714000  0.43225600  1
  H  H33  1  0.23308200  0.72022200  0.93225600  1
  H  H34  1  0.48714000  0.76691800  0.93225600  1
  H  H35  1  0.51286000  0.23308200  0.43225600  1
  H  H36  1  0.76691800  0.27977800  0.43225600  1
  H  H37  1  0.27977800  0.51286000  0.93225600  1
  C  C38  1  0.23161600  0.20479300  0.25000000  1
  C  C39  1  0.02682300  0.23161600  0.75000000  1
  C  C40  1  0.20479300  0.97317700  0.75000000  1
  C  C41  1  0.79520700  0.02682300  0.25000000  1
  C  C42  1  0.97317700  0.76838400  0.25000000  1
  C  C43  1  0.76838400  0.79520700  0.75000000  1
  S  S44  1  0.38359000  0.31660400  0.25000000  1
  S  S45  1  0.06698600  0.38359000  0.75000000  1
  S  S46  1  0.31660400  0.93301400  0.75000000  1
  S  S47  1  0.68339600  0.06698600  0.25000000  1
  S  S48  1  0.93301400  0.61641000  0.25000000  1
  S  S49  1  0.61641000  0.68339600  0.75000000  1
  O  O50  1  0.14357100  0.48781700  0.25000000  1
  O  O51  1  0.65575400  0.14357100  0.75000000  1
  O  O52  1  0.48781700  0.34424600  0.75000000  1
  O  O53  1  0.51218300  0.65575400  0.25000000  1
  O  O54  1  0.34424600  0.85642900  0.25000000  1
  O  O55  1  0.85642900  0.51218300  0.75000000  1
  O  O56  1  0.33722000  0.54652200  0.47322600  1
  O  O57  1  0.79069800  0.33722000  0.97322600  1
  O  O58  1  0.54652200  0.20930200  0.97322600  1
  O  O59  1  0.45347800  0.79069800  0.47322600  1
  O  O60  1  0.20930200  0.66278000  0.47322600  1
  O  O61  1  0.66278000  0.45347800  0.97322600  1
  O  O62  1  0.66278000  0.45347800  0.52677400  1
  O  O63  1  0.20930200  0.66278000  0.02677400  1
  O  O64  1  0.45347800  0.79069800  0.02677400  1
  O  O65  1  0.54652200  0.20930200  0.52677400  1
  O  O66  1  0.79069800  0.33722000  0.52677400  1
  O  O67  1  0.33722000  0.54652200  0.02677400  1
  O  O68  1  0.44369200  0.25299100  0.25000000  1
  O  O69  1  0.19070100  0.44369200  0.75000000  1
  O  O70  1  0.25299100  0.80929900  0.75000000  1
  O  O71  1  0.74700900  0.19070100  0.25000000  1
  O  O72  1  0.80929900  0.55630800  0.25000000  1
  O  O73  1  0.55630800  0.74700900  0.75000000  1
  O  O74  1  0.39741500  0.37935000  0.41441000  1
  O  O75  1  0.01806500  0.39741500  0.91441000  1
  O  O76  1  0.37935000  0.98193500  0.91441000  1
  O  O77  1  0.62065000  0.01806500  0.41441000  1
  O  O78  1  0.98193500  0.60258500  0.41441000  1
  O  O79  1  0.60258500  0.62065000  0.91441000  1
  O  O80  1  0.60258500  0.62065000  0.58559000  1
  O  O81  1  0.98193500  0.60258500  0.08559000  1
  O  O82  1  0.62065000  0.01806500  0.08559000  1
  O  O83  1  0.37935000  0.98193500  0.58559000  1
  O  O84  1  0.01806500  0.39741500  0.58559000  1
  O  O85  1  0.39741500  0.37935000  0.08559000  1
  F  F86  1  0.16663400  0.25340100  0.25000000  1
  F  F87  1  0.91323200  0.16663400  0.75000000  1
  F  F88  1  0.25340100  0.08676800  0.75000000  1
  F  F89  1  0.74659900  0.91323200  0.25000000  1
  F  F90  1  0.08676800  0.83336600  0.25000000  1
  F  F91  1  0.83336600  0.74659900  0.75000000  1
  F  F92  1  0.20760100  0.13930500  0.39586600  1
  F  F93  1  0.06829700  0.20760100  0.89586600  1
  F  F94  1  0.13930500  0.93170300  0.89586600  1
  F  F95  1  0.86069500  0.06829700  0.39586600  1
  F  F96  1  0.93170300  0.79239900  0.39586600  1
  F  F97  1  0.79239900  0.86069500  0.89586600  1
  F  F98  1  0.79239900  0.86069500  0.60413400  1
  F  F99  1  0.93170300  0.79239900  0.10413400  1
  F  F100  1  0.86069500  0.06829700  0.10413400  1
  F  F101  1  0.13930500  0.93170300  0.60413400  1
  F  F102  1  0.06829700  0.20760100  0.60413400  1
  F  F103  1  0.20760100  0.13930500  0.10413400  1
