# generated using pymatgen
data_Ca2CdAg
_symmetry_space_group_name_H-M   'P 1'
_cell_length_a   12.86531371
_cell_length_b   12.86531371
_cell_length_c   12.86531371
_cell_angle_alpha   120.07977300
_cell_angle_beta   119.86689760
_cell_angle_gamma   90.04628960
_symmetry_Int_Tables_number   1
_chemical_formula_structural   Ca2CdAg
_chemical_formula_sum   'Ca2 Cd1 Ag1'
_cell_volume   1506.32651142
_cell_formula_units_Z   1
loop_
 _symmetry_equiv_pos_site_id
 _symmetry_equiv_pos_as_xyz
  1  'x, y, z'
loop_
 _atom_site_type_symbol
 _atom_site_label
 _atom_site_symmetry_multiplicity
 _atom_site_fract_x
 _atom_site_fract_y
 _atom_site_fract_z
 _atom_site_occupancy
  Ca  Ca0  1  0.00000000  0.23526900  0.23526900  1
  Ca  Ca1  1  0.00000000  0.76473100  0.76473100  1
  Cd  Cd2  1  0.00000000  0.50000000  0.50000000  1
  Ag  Ag3  1  0.00000000  0.00000000  0.00000000  1
