# generated using pymatgen
data_Ba2CdIn
_symmetry_space_group_name_H-M   'P 1'
_cell_length_a   13.84218438
_cell_length_b   13.84218438
_cell_length_c   13.84218438
_cell_angle_alpha   121.22459273
_cell_angle_beta   118.08246056
_cell_angle_gamma   90.62247782
_symmetry_Int_Tables_number   1
_chemical_formula_structural   Ba2CdIn
_chemical_formula_sum   'Ba2 Cd1 In1'
_cell_volume   1883.37396063
_cell_formula_units_Z   1
loop_
 _symmetry_equiv_pos_site_id
 _symmetry_equiv_pos_as_xyz
  1  'x, y, z'
loop_
 _atom_site_type_symbol
 _atom_site_label
 _atom_site_symmetry_multiplicity
 _atom_site_fract_x
 _atom_site_fract_y
 _atom_site_fract_z
 _atom_site_occupancy
  Ba  Ba0  1  0.73688100  0.00000000  0.73688100  1
  Ba  Ba1  1  0.26311900  0.00000000  0.26311900  1
  Cd  Cd2  1  0.00000000  0.00000000  0.00000000  1
  In  In3  1  0.50000000  0.00000000  0.50000000  1
