# generated using pymatgen
data_Hg9(AsO4)4
_symmetry_space_group_name_H-M   'P 1'
_cell_length_a   10.57428600
_cell_length_b   10.57428600
_cell_length_c   10.57428529
_cell_angle_alpha   108.37494123
_cell_angle_beta   108.37494123
_cell_angle_gamma   108.37494239
_symmetry_Int_Tables_number   1
_chemical_formula_structural   Hg9(AsO4)4
_chemical_formula_sum   'Hg18 As8 O32'
_cell_volume   945.32723264
_cell_formula_units_Z   2
loop_
 _symmetry_equiv_pos_site_id
 _symmetry_equiv_pos_as_xyz
  1  'x, y, z'
loop_
 _atom_site_type_symbol
 _atom_site_label
 _atom_site_symmetry_multiplicity
 _atom_site_fract_x
 _atom_site_fract_y
 _atom_site_fract_z
 _atom_site_occupancy
  Hg  Hg0  1  0.45196400  0.40255600  0.18136900  1
  Hg  Hg1  1  0.40255600  0.18136900  0.45196400  1
  Hg  Hg2  1  0.18136900  0.45196400  0.40255600  1
  Hg  Hg3  1  0.90255600  0.95196400  0.68136900  1
  Hg  Hg4  1  0.95196400  0.68136900  0.90255600  1
  Hg  Hg5  1  0.68136900  0.90255600  0.95196400  1
  Hg  Hg6  1  0.27384100  0.19684200  0.64103400  1
  Hg  Hg7  1  0.19684200  0.64103400  0.27384100  1
  Hg  Hg8  1  0.64103400  0.27384100  0.19684200  1
  Hg  Hg9  1  0.69684200  0.77384100  0.14103400  1
  Hg  Hg10  1  0.77384100  0.14103400  0.69684200  1
  Hg  Hg11  1  0.14103400  0.69684200  0.77384100  1
  Hg  Hg12  1  0.96617100  0.35145800  0.10851300  1
  Hg  Hg13  1  0.35145800  0.10851300  0.96617100  1
  Hg  Hg14  1  0.10851300  0.96617100  0.35145800  1
  Hg  Hg15  1  0.85145800  0.46617100  0.60851300  1
  Hg  Hg16  1  0.46617100  0.60851300  0.85145800  1
  Hg  Hg17  1  0.60851300  0.85145800  0.46617100  1
  As  As18  1  0.16487400  0.38276900  0.88485500  1
  As  As19  1  0.38276900  0.88485500  0.16487400  1
  As  As20  1  0.88485500  0.16487400  0.38276900  1
  As  As21  1  0.88276900  0.66487400  0.38485500  1
  As  As22  1  0.66487400  0.38485500  0.88276900  1
  As  As23  1  0.38485500  0.88276900  0.66487400  1
  As  As24  1  0.06255700  0.06255700  0.06255700  1
  As  As25  1  0.56255700  0.56255700  0.56255700  1
  O  O26  1  0.90921200  0.09619600  0.99407800  1
  O  O27  1  0.09619600  0.99407800  0.90921200  1
  O  O28  1  0.99407800  0.90921200  0.09619600  1
  O  O29  1  0.59619600  0.40921200  0.49407800  1
  O  O30  1  0.40921200  0.49407800  0.59619600  1
  O  O31  1  0.49407800  0.59619600  0.40921200  1
  O  O32  1  0.15104300  0.20905200  0.78243100  1
  O  O33  1  0.20905200  0.78243100  0.15104300  1
  O  O34  1  0.78243100  0.15104300  0.20905200  1
  O  O35  1  0.70905200  0.65104300  0.28243100  1
  O  O36  1  0.65104300  0.28243100  0.70905200  1
  O  O37  1  0.28243100  0.70905200  0.65104300  1
  O  O38  1  0.28094400  0.46340900  0.07455400  1
  O  O39  1  0.46340900  0.07455400  0.28094400  1
  O  O40  1  0.07455400  0.28094400  0.46340900  1
  O  O41  1  0.96340900  0.78094400  0.57455400  1
  O  O42  1  0.78094400  0.57455400  0.96340900  1
  O  O43  1  0.57455400  0.96340900  0.78094400  1
  O  O44  1  0.99143000  0.36181200  0.87503100  1
  O  O45  1  0.36181200  0.87503100  0.99143000  1
  O  O46  1  0.87503100  0.99143000  0.36181200  1
  O  O47  1  0.86181200  0.49143000  0.37503100  1
  O  O48  1  0.49143000  0.37503100  0.86181200  1
  O  O49  1  0.37503100  0.86181200  0.49143000  1
  O  O50  1  0.72478500  0.31081700  0.00037500  1
  O  O51  1  0.31081700  0.00037500  0.72478500  1
  O  O52  1  0.00037500  0.72478500  0.31081700  1
  O  O53  1  0.81081700  0.22478500  0.50037500  1
  O  O54  1  0.22478500  0.50037500  0.81081700  1
  O  O55  1  0.50037500  0.81081700  0.22478500  1
  O  O56  1  0.21480700  0.21480700  0.21480700  1
  O  O57  1  0.71480700  0.71480700  0.71480700  1
