# generated using pymatgen
data_Ge2C2(SeF2)3
_symmetry_space_group_name_H-M   'P 1'
_cell_length_a   11.62696670
_cell_length_b   11.62696670
_cell_length_c   11.62696670
_cell_angle_alpha   60.00000000
_cell_angle_beta   60.00000000
_cell_angle_gamma   60.00000000
_symmetry_Int_Tables_number   1
_chemical_formula_structural   Ge2C2(SeF2)3
_chemical_formula_sum   'Ge8 C8 Se12 F24'
_cell_volume   1111.43556149
_cell_formula_units_Z   4
loop_
 _symmetry_equiv_pos_site_id
 _symmetry_equiv_pos_as_xyz
  1  'x, y, z'
loop_
 _atom_site_type_symbol
 _atom_site_label
 _atom_site_symmetry_multiplicity
 _atom_site_fract_x
 _atom_site_fract_y
 _atom_site_fract_z
 _atom_site_occupancy
  Ge  Ge0  1  0.82694800  0.82694800  0.82694800  1
  Ge  Ge1  1  0.73084300  0.42305200  0.42305200  1
  Ge  Ge2  1  0.42305200  0.73084300  0.42305200  1
  Ge  Ge3  1  0.42305200  0.42305200  0.73084300  1
  Ge  Ge4  1  0.82694800  0.51915700  0.82694800  1
  Ge  Ge5  1  0.82694800  0.82694800  0.51915700  1
  Ge  Ge6  1  0.51915700  0.82694800  0.82694800  1
  Ge  Ge7  1  0.42305200  0.42305200  0.42305200  1
  C  C8  1  0.89913200  0.89913200  0.89913200  1
  C  C9  1  0.94739600  0.35086800  0.35086800  1
  C  C10  1  0.35086800  0.94739600  0.35086800  1
  C  C11  1  0.35086800  0.35086800  0.94739600  1
  C  C12  1  0.89913200  0.30260400  0.89913200  1
  C  C13  1  0.89913200  0.89913200  0.30260400  1
  C  C14  1  0.30260400  0.89913200  0.89913200  1
  C  C15  1  0.35086800  0.35086800  0.35086800  1
  Se  Se16  1  0.92265400  0.57734600  0.92265400  1
  Se  Se17  1  0.67265400  0.32734600  0.32734600  1
  Se  Se18  1  0.32734600  0.67265400  0.67265400  1
  Se  Se19  1  0.67265400  0.32734600  0.67265400  1
  Se  Se20  1  0.32734600  0.32734600  0.67265400  1
  Se  Se21  1  0.67265400  0.67265400  0.32734600  1
  Se  Se22  1  0.92265400  0.92265400  0.57734600  1
  Se  Se23  1  0.57734600  0.92265400  0.92265400  1
  Se  Se24  1  0.92265400  0.57734600  0.57734600  1
  Se  Se25  1  0.57734600  0.57734600  0.92265400  1
  Se  Se26  1  0.32734600  0.67265400  0.32734600  1
  Se  Se27  1  0.57734600  0.92265400  0.57734600  1
  F  F28  1  0.79046800  0.97962500  0.97962500  1
  F  F29  1  0.99971800  0.27037500  0.45953200  1
  F  F30  1  0.27037500  0.99971800  0.27037500  1
  F  F31  1  0.27037500  0.27037500  0.99971800  1
  F  F32  1  0.99971800  0.45953200  0.27037500  1
  F  F33  1  0.27037500  0.45953200  0.99971800  1
  F  F34  1  0.27037500  0.99971800  0.45953200  1
  F  F35  1  0.97962500  0.79046800  0.97962500  1
  F  F36  1  0.97962500  0.97962500  0.79046800  1
  F  F37  1  0.79046800  0.25028200  0.97962500  1
  F  F38  1  0.79046800  0.97962500  0.25028200  1
  F  F39  1  0.97962500  0.25028200  0.97962500  1
  F  F40  1  0.25028200  0.79046800  0.97962500  1
  F  F41  1  0.25028200  0.97962500  0.79046800  1
  F  F42  1  0.97962500  0.97962500  0.25028200  1
  F  F43  1  0.45953200  0.99971800  0.27037500  1
  F  F44  1  0.45953200  0.27037500  0.99971800  1
  F  F45  1  0.99971800  0.27037500  0.27037500  1
  F  F46  1  0.45953200  0.27037500  0.27037500  1
  F  F47  1  0.27037500  0.45953200  0.27037500  1
  F  F48  1  0.27037500  0.27037500  0.45953200  1
  F  F49  1  0.97962500  0.79046800  0.25028200  1
  F  F50  1  0.97962500  0.25028200  0.79046800  1
  F  F51  1  0.25028200  0.97962500  0.97962500  1
