# generated using pymatgen
data_CeVO4
_symmetry_space_group_name_H-M   'P 1'
_cell_length_a   7.35253200
_cell_length_b   6.81682100
_cell_length_c   6.96196607
_cell_angle_alpha   63.61207272
_cell_angle_beta   90.00000000
_cell_angle_gamma   90.00000000
_symmetry_Int_Tables_number   1
_chemical_formula_structural   CeVO4
_chemical_formula_sum   'Ce4 V4 O16'
_cell_volume   312.58231690
_cell_formula_units_Z   4
loop_
 _symmetry_equiv_pos_site_id
 _symmetry_equiv_pos_as_xyz
  1  'x, y, z'
loop_
 _atom_site_type_symbol
 _atom_site_label
 _atom_site_symmetry_multiplicity
 _atom_site_fract_x
 _atom_site_fract_y
 _atom_site_fract_z
 _atom_site_occupancy
  Ce  Ce0  1  0.15885100  0.66764000  0.18856000  1
  Ce  Ce1  1  0.65885100  0.83236000  0.81144000  1
  Ce  Ce2  1  0.84114900  0.33236000  0.81144000  1
  Ce  Ce3  1  0.34114900  0.16764000  0.18856000  1
  V  V4  1  0.30560400  0.20030100  0.70326000  1
  V  V5  1  0.80560400  0.29969900  0.29674000  1
  V  V6  1  0.69439600  0.79969900  0.29674000  1
  V  V7  1  0.19439600  0.70030100  0.70326000  1
  O  O8  1  0.00195400  0.26150900  0.18428000  1
  O  O9  1  0.50195400  0.23849100  0.81572000  1
  O  O10  1  0.99804600  0.73849100  0.81572000  1
  O  O11  1  0.49804600  0.76150900  0.18428000  1
  O  O12  1  0.19071700  0.03251700  0.97303300  1
  O  O13  1  0.69071700  0.46748300  0.02696700  1
  O  O14  1  0.80928300  0.96748300  0.02696700  1
  O  O15  1  0.30928300  0.53251700  0.97303300  1
  O  O16  1  0.29845100  0.33980600  0.39560100  1
  O  O17  1  0.79845100  0.16019400  0.60439900  1
  O  O18  1  0.70154900  0.66019400  0.60439900  1
  O  O19  1  0.20154900  0.83980600  0.39560100  1
  O  O20  1  0.13153100  0.43355500  0.67887100  1
  O  O21  1  0.63153100  0.06644500  0.32112900  1
  O  O22  1  0.86846900  0.56644500  0.32112900  1
  O  O23  1  0.36846900  0.93355500  0.67887100  1
