# generated using pymatgen
data_KS2O3
_symmetry_space_group_name_H-M   'P 1'
_cell_length_a   11.99387008
_cell_length_b   11.99387008
_cell_length_c   10.31140125
_cell_angle_alpha   78.67175864
_cell_angle_beta   78.67175864
_cell_angle_gamma   40.49770855
_symmetry_Int_Tables_number   1
_chemical_formula_structural   KS2O3
_chemical_formula_sum   'K8 S16 O24'
_cell_volume   941.94771637
_cell_formula_units_Z   8
loop_
 _symmetry_equiv_pos_site_id
 _symmetry_equiv_pos_as_xyz
  1  'x, y, z'
loop_
 _atom_site_type_symbol
 _atom_site_label
 _atom_site_symmetry_multiplicity
 _atom_site_fract_x
 _atom_site_fract_y
 _atom_site_fract_z
 _atom_site_occupancy
  K  K0  1  0.01657600  0.85579200  0.38638100  1
  K  K1  1  0.85579200  0.01657600  0.88638100  1
  K  K2  1  0.59512500  0.37597500  0.26249200  1
  K  K3  1  0.37597500  0.59512500  0.76249200  1
  K  K4  1  0.21563200  0.34851300  0.43930900  1
  K  K5  1  0.34851300  0.21563200  0.93930900  1
  K  K6  1  0.23697400  0.91505400  0.05093600  1
  K  K7  1  0.91505400  0.23697400  0.55093600  1
  S  S8  1  0.20064200  0.60072700  0.10278400  1
  S  S9  1  0.60072700  0.20064200  0.60278400  1
  S  S10  1  0.99821400  0.63162500  0.09804600  1
  S  S11  1  0.63162500  0.99821400  0.59804600  1
  S  S12  1  0.83812400  0.74529400  0.26145700  1
  S  S13  1  0.74529400  0.83812400  0.76145700  1
  S  S14  1  0.65324400  0.02064300  0.20546500  1
  S  S15  1  0.02064300  0.65324400  0.70546500  1
  S  S16  1  0.38719700  0.72518800  0.43209700  1
  S  S17  1  0.72518800  0.38719700  0.93209700  1
  S  S18  1  0.44314300  0.86038000  0.42202700  1
  S  S19  1  0.86038000  0.44314300  0.92202700  1
  S  S20  1  0.51592400  0.80558700  0.60499300  1
  S  S21  1  0.80558700  0.51592400  0.10499300  1
  S  S22  1  0.27927200  0.01301800  0.72237500  1
  S  S23  1  0.01301800  0.27927200  0.22237500  1
  O  O24  1  0.13402500  0.76614500  0.05385000  1
  O  O25  1  0.76614500  0.13402500  0.55385000  1
  O  O26  1  0.32914100  0.46538400  0.01011200  1
  O  O27  1  0.46538400  0.32914100  0.51011200  1
  O  O28  1  0.24816900  0.54939300  0.24076300  1
  O  O29  1  0.54939300  0.24816900  0.74076300  1
  O  O30  1  0.73032000  0.06488500  0.23619200  1
  O  O31  1  0.06488500  0.73032000  0.73619200  1
  O  O32  1  0.50016400  0.09314200  0.29054400  1
  O  O33  1  0.09314200  0.50016400  0.79054400  1
  O  O34  1  0.63684600  0.04025500  0.06326100  1
  O  O35  1  0.04025500  0.63684700  0.56326100  1
  O  O36  1  0.36373600  0.73765100  0.29277400  1
  O  O37  1  0.73765100  0.36373600  0.79277400  1
  O  O38  1  0.53677500  0.54791600  0.48483900  1
  O  O39  1  0.54791600  0.53677500  0.98483900  1
  O  O40  1  0.22851900  0.81863700  0.51933900  1
  O  O41  1  0.81863700  0.22851900  0.01933900  1
  O  O42  1  0.34968500  0.00622200  0.82927900  1
  O  O43  1  0.00622200  0.34968500  0.32927900  1
  O  O44  1  0.19581900  0.96392400  0.77042900  1
  O  O45  1  0.96392400  0.19581900  0.27042900  1
  O  O46  1  0.17556300  0.17022200  0.63305700  1
  O  O47  1  0.17022200  0.17556300  0.13305700  1
