# generated using pymatgen
data_Hf2ZnOs
_symmetry_space_group_name_H-M   'P 1'
_cell_length_a   11.01904106
_cell_length_b   11.01904106
_cell_length_c   11.01904106
_cell_angle_alpha   123.95800034
_cell_angle_beta   118.77240607
_cell_angle_gamma   87.71233799
_symmetry_Int_Tables_number   1
_chemical_formula_structural   Hf2ZnOs
_chemical_formula_sum   'Hf2 Zn1 Os1'
_cell_volume   923.23888208
_cell_formula_units_Z   1
loop_
 _symmetry_equiv_pos_site_id
 _symmetry_equiv_pos_as_xyz
  1  'x, y, z'
loop_
 _atom_site_type_symbol
 _atom_site_label
 _atom_site_symmetry_multiplicity
 _atom_site_fract_x
 _atom_site_fract_y
 _atom_site_fract_z
 _atom_site_occupancy
  Hf  Hf0  1  0.00000000  0.28083400  0.28083400  1
  Hf  Hf1  1  0.00000000  0.71916600  0.71916600  1
  Zn  Zn2  1  0.00000000  0.00000000  0.00000000  1
  Os  Os3  1  0.00000000  0.50000000  0.50000000  1
