# generated using pymatgen
data_Ba6(NiO3)5
_symmetry_space_group_name_H-M   'P 1'
_cell_length_a   7.21364957
_cell_length_b   7.21364640
_cell_length_c   7.21364807
_cell_angle_alpha   88.26865916
_cell_angle_beta   88.26859750
_cell_angle_gamma   88.26836513
_symmetry_Int_Tables_number   1
_chemical_formula_structural   Ba6(NiO3)5
_chemical_formula_sum   'Ba6 Ni5 O15'
_cell_volume   374.87053375
_cell_formula_units_Z   1
loop_
 _symmetry_equiv_pos_site_id
 _symmetry_equiv_pos_as_xyz
  1  'x, y, z'
loop_
 _atom_site_type_symbol
 _atom_site_label
 _atom_site_symmetry_multiplicity
 _atom_site_fract_x
 _atom_site_fract_y
 _atom_site_fract_z
 _atom_site_occupancy
  Ba  Ba0  1  0.33642900  0.66357000  0.99999900  1
  Ba  Ba1  1  0.00000000  0.33643200  0.66357100  1
  Ba  Ba2  1  0.66357100  0.00000000  0.33643400  1
  Ba  Ba3  1  0.14879900  0.85120300  0.50000100  1
  Ba  Ba4  1  0.49999600  0.14879900  0.85120200  1
  Ba  Ba5  1  0.85120200  0.49999800  0.14879800  1
  Ni  Ni6  1  0.50000700  0.49999300  0.49998600  1
  Ni  Ni7  1  0.28996400  0.28995600  0.28995800  1
  Ni  Ni8  1  0.71004200  0.71004300  0.71004500  1
  Ni  Ni9  1  0.09501200  0.09501400  0.09501400  1
  Ni  Ni10  1  0.90498100  0.90498700  0.90499000  1
  O  O11  1  0.14338300  0.99999900  0.85661400  1
  O  O12  1  0.85661300  0.14338300  0.99999800  1
  O  O13  1  0.99999800  0.85661400  0.14338400  1
  O  O14  1  0.03685600  0.19274100  0.32901000  1
  O  O15  1  0.32900900  0.03685600  0.19274100  1
  O  O16  1  0.19274000  0.32901000  0.03685500  1
  O  O17  1  0.80725900  0.96314300  0.67099400  1
  O  O18  1  0.67099200  0.80726100  0.96314300  1
  O  O19  1  0.96314200  0.67099400  0.80726000  1
  O  O20  1  0.36558300  0.23368000  0.52865200  1
  O  O21  1  0.52865000  0.36558200  0.23367900  1
  O  O22  1  0.23367900  0.52865000  0.36558200  1
  O  O23  1  0.76632200  0.63441900  0.47135000  1
  O  O24  1  0.47135000  0.76632200  0.63441800  1
  O  O25  1  0.63442000  0.47135200  0.76632300  1
