# generated using pymatgen
data_ZnTe
_symmetry_space_group_name_H-M   'P 1'
_cell_length_a   4.35327690
_cell_length_b   4.35327690
_cell_length_c   5.43480600
_cell_angle_alpha   90.00000000
_cell_angle_beta   90.00000000
_cell_angle_gamma   100.94297127
_symmetry_Int_Tables_number   1
_chemical_formula_structural   ZnTe
_chemical_formula_sum   'Zn2 Te2'
_cell_volume   101.12231633
_cell_formula_units_Z   2
loop_
 _symmetry_equiv_pos_site_id
 _symmetry_equiv_pos_as_xyz
  1  'x, y, z'
loop_
 _atom_site_type_symbol
 _atom_site_label
 _atom_site_symmetry_multiplicity
 _atom_site_fract_x
 _atom_site_fract_y
 _atom_site_fract_z
 _atom_site_occupancy
  Zn  Zn0  1  0.63029600  0.36970400  0.25000000  1
  Zn  Zn1  1  0.36970400  0.63029600  0.75000000  1
  Te  Te2  1  0.22504300  0.77495700  0.25000000  1
  Te  Te3  1  0.77495700  0.22504300  0.75000000  1
