# generated using pymatgen
data_Mn2Sb2O7
_symmetry_space_group_name_H-M   'P 1'
_cell_length_a   7.33366372
_cell_length_b   7.33366372
_cell_length_c   17.55171200
_cell_angle_alpha   90.00000000
_cell_angle_beta   90.00000000
_cell_angle_gamma   119.99999745
_symmetry_Int_Tables_number   1
_chemical_formula_structural   Mn2Sb2O7
_chemical_formula_sum   'Mn12 Sb12 O42'
_cell_volume   817.50818626
_cell_formula_units_Z   6
loop_
 _symmetry_equiv_pos_site_id
 _symmetry_equiv_pos_as_xyz
  1  'x, y, z'
loop_
 _atom_site_type_symbol
 _atom_site_label
 _atom_site_symmetry_multiplicity
 _atom_site_fract_x
 _atom_site_fract_y
 _atom_site_fract_z
 _atom_site_occupancy
  Mn  Mn0  1  0.19012900  0.19012900  0.50000000  1
  Mn  Mn1  1  0.80987100  0.00000000  0.83333300  1
  Mn  Mn2  1  0.36377100  0.48806400  0.33544400  1
  Mn  Mn3  1  0.63622900  0.12429300  0.99788900  1
  Mn  Mn4  1  0.86797800  0.00000000  0.33333300  1
  Mn  Mn5  1  0.48806400  0.36377100  0.66455600  1
  Mn  Mn6  1  0.12429300  0.63622900  0.00211100  1
  Mn  Mn7  1  0.13202200  0.13202200  0.00000000  1
  Mn  Mn8  1  0.00000000  0.80987100  0.16666700  1
  Mn  Mn9  1  0.51193600  0.87570700  0.66877800  1
  Mn  Mn10  1  0.00000000  0.86797800  0.66666700  1
  Mn  Mn11  1  0.87570700  0.51193600  0.33122200  1
  Sb  Sb12  1  0.50022200  0.83772800  0.17099200  1
  Sb  Sb13  1  0.16227200  0.66249400  0.50432500  1
  Sb  Sb14  1  0.83772800  0.50022200  0.82900800  1
  Sb  Sb15  1  0.33750600  0.49977800  0.83765800  1
  Sb  Sb16  1  0.31072300  0.00000000  0.33333300  1
  Sb  Sb17  1  0.33417300  0.00000000  0.83333300  1
  Sb  Sb18  1  0.68927700  0.68927700  0.00000000  1
  Sb  Sb19  1  0.66249400  0.16227200  0.49567500  1
  Sb  Sb20  1  0.00000000  0.33417300  0.16666700  1
  Sb  Sb21  1  0.49977800  0.33750600  0.16234200  1
  Sb  Sb22  1  0.00000000  0.31072300  0.66666700  1
  Sb  Sb23  1  0.66582700  0.66582700  0.50000000  1
  O  O24  1  0.96815200  0.77045800  0.53141000  1
  O  O25  1  0.56628900  0.82691900  0.06271500  1
  O  O26  1  0.05875800  0.37067900  0.27974000  1
  O  O27  1  0.40716100  0.56204800  0.94741600  1
  O  O28  1  0.03184800  0.80230600  0.80192300  1
  O  O29  1  0.03557900  0.85129800  0.27913900  1
  O  O30  1  0.17308100  0.73937000  0.39604800  1
  O  O31  1  0.31192000  0.94124200  0.94640700  1
  O  O32  1  0.19703700  0.64521000  0.14236000  1
  O  O33  1  0.18428100  0.14870200  0.38752700  1
  O  O34  1  0.55182600  0.35479000  0.52430700  1
  O  O35  1  0.37067900  0.05875800  0.72026000  1
  O  O36  1  0.44817400  0.80296300  0.80902600  1
  O  O37  1  0.68808000  0.62932100  0.38692600  1
  O  O38  1  0.73937000  0.17308100  0.60395200  1
  O  O39  1  0.55650400  0.61314500  0.20338400  1
  O  O40  1  0.80230600  0.03184800  0.19807700  1
  O  O41  1  0.94124200  0.31192000  0.05359300  1
  O  O42  1  0.84511300  0.43795200  0.71925000  1
  O  O43  1  0.26063000  0.43371100  0.72938200  1
  O  O44  1  0.19769400  0.22954200  0.13525700  1
  O  O45  1  0.77045800  0.96815200  0.46859000  1
  O  O46  1  0.80296300  0.44817400  0.19097400  1
  O  O47  1  0.59283900  0.15488700  0.38591700  1
  O  O48  1  0.64521000  0.19703700  0.85764000  1
  O  O49  1  0.15488700  0.59283900  0.61408300  1
  O  O50  1  0.43371100  0.26063000  0.27061800  1
  O  O51  1  0.81571900  0.96442100  0.94580600  1
  O  O52  1  0.61314500  0.55650400  0.79661600  1
  O  O53  1  0.38685500  0.94335900  0.53671800  1
  O  O54  1  0.94335900  0.38685500  0.46328200  1
  O  O55  1  0.22954200  0.19769400  0.86474300  1
  O  O56  1  0.05664100  0.44349600  0.87005100  1
  O  O57  1  0.44349600  0.05664100  0.12994900  1
  O  O58  1  0.82691900  0.56628900  0.93728500  1
  O  O59  1  0.14870200  0.18428100  0.61247300  1
  O  O60  1  0.62932100  0.68808000  0.61307400  1
  O  O61  1  0.85129800  0.03557900  0.72086100  1
  O  O62  1  0.35479000  0.55182600  0.47569300  1
  O  O63  1  0.56204800  0.40716100  0.05258400  1
  O  O64  1  0.96442100  0.81571900  0.05419400  1
  O  O65  1  0.43795200  0.84511300  0.28075000  1
