# generated using pymatgen
data_Te2MoCl12
_symmetry_space_group_name_H-M   'P 1'
_cell_length_a   14.13781946
_cell_length_b   14.13781946
_cell_length_c   14.13781988
_cell_angle_alpha   48.06195212
_cell_angle_beta   48.06195212
_cell_angle_gamma   48.06195239
_symmetry_Int_Tables_number   1
_chemical_formula_structural   Te2MoCl12
_chemical_formula_sum   'Te6 Mo3 Cl36'
_cell_volume   1432.69912469
_cell_formula_units_Z   3
loop_
 _symmetry_equiv_pos_site_id
 _symmetry_equiv_pos_as_xyz
  1  'x, y, z'
loop_
 _atom_site_type_symbol
 _atom_site_label
 _atom_site_symmetry_multiplicity
 _atom_site_fract_x
 _atom_site_fract_y
 _atom_site_fract_z
 _atom_site_occupancy
  Te  Te0  1  0.60913200  0.89671600  0.24831300  1
  Te  Te1  1  0.24831300  0.60913200  0.89671600  1
  Te  Te2  1  0.89671600  0.24831300  0.60913200  1
  Te  Te3  1  0.39086800  0.10328400  0.75168700  1
  Te  Te4  1  0.75168700  0.39086800  0.10328400  1
  Te  Te5  1  0.10328400  0.75168700  0.39086800  1
  Mo  Mo6  1  0.25262700  0.25262700  0.25262700  1
  Mo  Mo7  1  0.74737300  0.74737300  0.74737300  1
  Mo  Mo8  1  0.50000000  0.50000000  0.50000000  1
  Cl  Cl9  1  0.73479500  0.74046000  0.38934200  1
  Cl  Cl10  1  0.38934200  0.73479500  0.74046000  1
  Cl  Cl11  1  0.74046000  0.38934200  0.73479500  1
  Cl  Cl12  1  0.26520500  0.25954000  0.61065800  1
  Cl  Cl13  1  0.61065800  0.26520500  0.25954000  1
  Cl  Cl14  1  0.25954000  0.61065800  0.26520500  1
  Cl  Cl15  1  0.74807600  0.78067600  0.10320400  1
  Cl  Cl16  1  0.10320400  0.74807600  0.78067600  1
  Cl  Cl17  1  0.78067600  0.10320400  0.74807600  1
  Cl  Cl18  1  0.25192400  0.21932400  0.89679600  1
  Cl  Cl19  1  0.89679600  0.25192400  0.21932400  1
  Cl  Cl20  1  0.21932400  0.89679600  0.25192400  1
  Cl  Cl21  1  0.73076800  0.03966500  0.09562500  1
  Cl  Cl22  1  0.09562500  0.73076800  0.03966500  1
  Cl  Cl23  1  0.03966500  0.09562500  0.73076800  1
  Cl  Cl24  1  0.26923200  0.96033500  0.90437500  1
  Cl  Cl25  1  0.90437500  0.26923200  0.96033500  1
  Cl  Cl26  1  0.96033500  0.90437500  0.26923200  1
  Cl  Cl27  1  0.41269900  0.11412800  0.11927200  1
  Cl  Cl28  1  0.11927200  0.41269900  0.11412800  1
  Cl  Cl29  1  0.11412800  0.11927200  0.41269900  1
  Cl  Cl30  1  0.58730100  0.88587200  0.88072800  1
  Cl  Cl31  1  0.88072800  0.58730100  0.88587200  1
  Cl  Cl32  1  0.88587200  0.88072800  0.58730100  1
  Cl  Cl33  1  0.39264600  0.09165800  0.38351400  1
  Cl  Cl34  1  0.38351400  0.39264600  0.09165800  1
  Cl  Cl35  1  0.09165800  0.38351400  0.39264600  1
  Cl  Cl36  1  0.60735400  0.90834200  0.61648600  1
  Cl  Cl37  1  0.61648600  0.60735400  0.90834200  1
  Cl  Cl38  1  0.90834200  0.61648600  0.60735400  1
  Cl  Cl39  1  0.43633600  0.73301700  0.44085600  1
  Cl  Cl40  1  0.44085600  0.43633600  0.73301700  1
  Cl  Cl41  1  0.73301700  0.44085600  0.43633600  1
  Cl  Cl42  1  0.56366400  0.26698300  0.55914400  1
  Cl  Cl43  1  0.55914400  0.56366400  0.26698300  1
  Cl  Cl44  1  0.26698300  0.55914400  0.56366400  1
