# generated using pymatgen
data_SrMnV2(AgO4)2
_symmetry_space_group_name_H-M   'P 1'
_cell_length_a   5.69078600
_cell_length_b   5.75936615
_cell_length_c   13.93252017
_cell_angle_alpha   90.69661775
_cell_angle_beta   90.00000000
_cell_angle_gamma   60.39312421
_symmetry_Int_Tables_number   1
_chemical_formula_structural   SrMnV2(AgO4)2
_chemical_formula_sum   'Sr2 Mn2 V4 Ag4 O16'
_cell_volume   396.98271793
_cell_formula_units_Z   2
loop_
 _symmetry_equiv_pos_site_id
 _symmetry_equiv_pos_as_xyz
  1  'x, y, z'
loop_
 _atom_site_type_symbol
 _atom_site_label
 _atom_site_symmetry_multiplicity
 _atom_site_fract_x
 _atom_site_fract_y
 _atom_site_fract_z
 _atom_site_occupancy
  Sr  Sr0  1  0.91716900  0.00000000  0.25000000  1
  Sr  Sr1  1  0.08283100  0.00000000  0.75000000  1
  Mn  Mn2  1  0.00000000  0.00000000  0.50000000  1
  Mn  Mn3  1  0.00000000  0.00000000  0.00000000  1
  V  V4  1  0.36545200  0.34700900  0.86991400  1
  V  V5  1  0.71246000  0.65299100  0.63008600  1
  V  V6  1  0.63454800  0.65299100  0.13008600  1
  V  V7  1  0.28754000  0.34700900  0.36991400  1
  Ag  Ag8  1  0.61179500  0.67826000  0.40407900  1
  Ag  Ag9  1  0.29005500  0.32174000  0.09592100  1
  Ag  Ag10  1  0.38820500  0.32174000  0.59592100  1
  Ag  Ag11  1  0.70994500  0.67826000  0.90407900  1
  O  O12  1  0.57977400  0.22336800  0.44163400  1
  O  O13  1  0.80314200  0.77663200  0.05836600  1
  O  O14  1  0.42022600  0.77663200  0.55836600  1
  O  O15  1  0.19685800  0.22336800  0.94163400  1
  O  O16  1  0.72465100  0.67301800  0.24683000  1
  O  O17  1  0.39766800  0.32698200  0.25317000  1
  O  O18  1  0.27534900  0.32698200  0.75317000  1
  O  O19  1  0.60233200  0.67301800  0.74683000  1
  O  O20  1  0.74945700  0.31650300  0.09920700  1
  O  O21  1  0.06596000  0.68349700  0.40079300  1
  O  O22  1  0.25054300  0.68349700  0.90079300  1
  O  O23  1  0.93404000  0.31650300  0.59920700  1
  O  O24  1  0.28072600  0.85071700  0.11887200  1
  O  O25  1  0.13144300  0.14928300  0.38112800  1
  O  O26  1  0.71927400  0.14928300  0.88112800  1
  O  O27  1  0.86855700  0.85071700  0.61887200  1
