# generated using pymatgen
data_Te3MoCl16
_symmetry_space_group_name_H-M   'P 1'
_cell_length_a   10.47926033
_cell_length_b   10.47926033
_cell_length_c   12.59573000
_cell_angle_alpha   90.00000000
_cell_angle_beta   90.00000000
_cell_angle_gamma   102.48674930
_symmetry_Int_Tables_number   1
_chemical_formula_structural   Te3MoCl16
_chemical_formula_sum   'Te6 Mo2 Cl32'
_cell_volume   1350.48065932
_cell_formula_units_Z   2
loop_
 _symmetry_equiv_pos_site_id
 _symmetry_equiv_pos_as_xyz
  1  'x, y, z'
loop_
 _atom_site_type_symbol
 _atom_site_label
 _atom_site_symmetry_multiplicity
 _atom_site_fract_x
 _atom_site_fract_y
 _atom_site_fract_z
 _atom_site_occupancy
  Te  Te0  1  0.53941700  0.26288600  0.99708000  1
  Te  Te1  1  0.46058300  0.73711400  0.49708000  1
  Te  Te2  1  0.73711400  0.46058300  0.49708000  1
  Te  Te3  1  0.26288600  0.53941700  0.99708000  1
  Te  Te4  1  0.13571500  0.13571500  0.73321500  1
  Te  Te5  1  0.86428500  0.86428500  0.23321500  1
  Mo  Mo6  1  0.67019900  0.67019900  0.97738100  1
  Mo  Mo7  1  0.32980100  0.32980100  0.47738100  1
  Cl  Cl8  1  0.73300900  0.24824500  0.08842700  1
  Cl  Cl9  1  0.26699100  0.75175500  0.58842700  1
  Cl  Cl10  1  0.75175500  0.26699100  0.58842700  1
  Cl  Cl11  1  0.24824500  0.73300900  0.08842700  1
  Cl  Cl12  1  0.56467400  0.11476400  0.86268700  1
  Cl  Cl13  1  0.43532600  0.88523600  0.36268700  1
  Cl  Cl14  1  0.88523600  0.43532600  0.36268700  1
  Cl  Cl15  1  0.11476400  0.56467400  0.86268700  1
  Cl  Cl16  1  0.40411100  0.10837300  0.11020000  1
  Cl  Cl17  1  0.59588900  0.89162700  0.61020000  1
  Cl  Cl18  1  0.89162700  0.59588900  0.61020000  1
  Cl  Cl19  1  0.10837300  0.40411100  0.11020000  1
  Cl  Cl20  1  0.00049300  0.00049300  0.61036700  1
  Cl  Cl21  1  0.99950700  0.99950700  0.11036700  1
  Cl  Cl22  1  0.17466000  0.95586700  0.83306300  1
  Cl  Cl23  1  0.82534000  0.04413300  0.33306300  1
  Cl  Cl24  1  0.04413300  0.82534000  0.33306300  1
  Cl  Cl25  1  0.95586700  0.17466000  0.83306300  1
  Cl  Cl26  1  0.64786900  0.85254800  0.08581900  1
  Cl  Cl27  1  0.35213100  0.14745200  0.58581900  1
  Cl  Cl28  1  0.14745200  0.35213100  0.58581900  1
  Cl  Cl29  1  0.85254800  0.64786900  0.08581900  1
  Cl  Cl30  1  0.79576900  0.79576900  0.85279500  1
  Cl  Cl31  1  0.20423100  0.20423100  0.35279500  1
  Cl  Cl32  1  0.68686800  0.47366000  0.87877100  1
  Cl  Cl33  1  0.31313200  0.52634000  0.37877100  1
  Cl  Cl34  1  0.52634000  0.31313200  0.37877100  1
  Cl  Cl35  1  0.47366000  0.68686800  0.87877100  1
  Cl  Cl36  1  0.52325000  0.52325000  0.10220800  1
  Cl  Cl37  1  0.47675000  0.47675000  0.60220800  1
  Cl  Cl38  1  0.30769500  0.30769500  0.88879000  1
  Cl  Cl39  1  0.69230500  0.69230500  0.38879000  1
