# generated using pymatgen
data_BeSiTc2
_symmetry_space_group_name_H-M   'P 1'
_cell_length_a   9.83901886
_cell_length_b   9.83901886
_cell_length_c   9.83901886
_cell_angle_alpha   124.46908503
_cell_angle_beta   118.53245851
_cell_angle_gamma   87.50007825
_symmetry_Int_Tables_number   1
_chemical_formula_structural   BeSiTc2
_chemical_formula_sum   'Be1 Si1 Tc2'
_cell_volume   655.21431699
_cell_formula_units_Z   1
loop_
 _symmetry_equiv_pos_site_id
 _symmetry_equiv_pos_as_xyz
  1  'x, y, z'
loop_
 _atom_site_type_symbol
 _atom_site_label
 _atom_site_symmetry_multiplicity
 _atom_site_fract_x
 _atom_site_fract_y
 _atom_site_fract_z
 _atom_site_occupancy
  Be  Be0  1  0.00000000  0.00000000  0.00000000  1
  Si  Si1  1  0.00000000  0.50000000  0.50000000  1
  Tc  Tc2  1  0.00000000  0.25204700  0.25204700  1
  Tc  Tc3  1  0.00000000  0.74795300  0.74795300  1
