# generated using pymatgen
data_Al2(WO4)3
_symmetry_space_group_name_H-M   'P 1'
_cell_length_a   9.31193000
_cell_length_b   9.22166900
_cell_length_c   15.86112068
_cell_angle_alpha   54.41887329
_cell_angle_beta   90.00000000
_cell_angle_gamma   90.00000000
_symmetry_Int_Tables_number   1
_chemical_formula_structural   Al2(WO4)3
_chemical_formula_sum   'Al8 W12 O48'
_cell_volume   1107.71963181
_cell_formula_units_Z   4
loop_
 _symmetry_equiv_pos_site_id
 _symmetry_equiv_pos_as_xyz
  1  'x, y, z'
loop_
 _atom_site_type_symbol
 _atom_site_label
 _atom_site_symmetry_multiplicity
 _atom_site_fract_x
 _atom_site_fract_y
 _atom_site_fract_z
 _atom_site_occupancy
  Al  Al0  1  0.46636200  0.13223300  0.11837500  1
  Al  Al1  1  0.96636200  0.86776700  0.38162500  1
  Al  Al2  1  0.53363800  0.86776700  0.88162500  1
  Al  Al3  1  0.03363800  0.13223300  0.61837500  1
  Al  Al4  1  0.46830800  0.36804600  0.38188000  1
  Al  Al5  1  0.96830800  0.63195400  0.11812000  1
  Al  Al6  1  0.53169200  0.63195400  0.61812000  1
  Al  Al7  1  0.03169200  0.36804600  0.88188000  1
  W  W8  1  0.25001700  0.52558300  0.49967300  1
  W  W9  1  0.75001700  0.47441700  0.00032700  1
  W  W10  1  0.74998300  0.47441700  0.50032700  1
  W  W11  1  0.24998300  0.52558300  0.99967300  1
  W  W12  1  0.11660000  0.96204900  0.14473400  1
  W  W13  1  0.61660000  0.03795100  0.35526600  1
  W  W14  1  0.88340000  0.03795100  0.85526600  1
  W  W15  1  0.38340000  0.96204900  0.64473400  1
  W  W16  1  0.11731200  0.25029600  0.35571800  1
  W  W17  1  0.61731200  0.74970400  0.14428200  1
  W  W18  1  0.88268800  0.74970400  0.64428200  1
  W  W19  1  0.38268800  0.25029600  0.85571800  1
  O  O20  1  0.11958100  0.70264700  0.43092800  1
  O  O21  1  0.61958100  0.29735300  0.06907200  1
  O  O22  1  0.88041900  0.29735300  0.56907200  1
  O  O23  1  0.38041900  0.70264700  0.93092800  1
  O  O24  1  0.37443700  0.57473500  0.56700200  1
  O  O25  1  0.87443700  0.42526500  0.93299800  1
  O  O26  1  0.62556300  0.42526500  0.43299800  1
  O  O27  1  0.12556300  0.57473500  0.06700200  1
  O  O28  1  0.16225600  0.31605300  0.59454600  1
  O  O29  1  0.66225600  0.68394700  0.90545400  1
  O  O30  1  0.83774400  0.68394700  0.40545400  1
  O  O31  1  0.33774400  0.31605300  0.09454600  1
  O  O32  1  0.34457700  0.50551400  0.40707200  1
  O  O33  1  0.84457700  0.49448600  0.09292800  1
  O  O34  1  0.65542300  0.49448600  0.59292800  1
  O  O35  1  0.15542300  0.50551400  0.90707200  1
  O  O36  1  0.30643000  0.97416600  0.16551500  1
  O  O37  1  0.80643000  0.02583400  0.33448500  1
  O  O38  1  0.69357000  0.02583400  0.83448500  1
  O  O39  1  0.19357000  0.97416600  0.66551500  1
  O  O40  1  0.08881700  0.77316100  0.13971200  1
  O  O41  1  0.58881700  0.22683900  0.36028800  1
  O  O42  1  0.91118300  0.22683900  0.86028800  1
  O  O43  1  0.41118300  0.77316100  0.63971200  1
  O  O44  1  0.06682700  0.16341200  0.02166800  1
  O  O45  1  0.56682700  0.83658800  0.47833200  1
  O  O46  1  0.93317300  0.83658800  0.97833200  1
  O  O47  1  0.43317300  0.16341200  0.52166800  1
  O  O48  1  0.00750900  0.94082500  0.24588400  1
  O  O49  1  0.50750900  0.05917500  0.25411600  1
  O  O50  1  0.99249100  0.05917500  0.75411600  1
  O  O51  1  0.49249100  0.94082500  0.74588400  1
  O  O52  1  0.08950800  0.04895300  0.36295200  1
  O  O53  1  0.58950800  0.95104700  0.13704800  1
  O  O54  1  0.91049200  0.95104700  0.63704800  1
  O  O55  1  0.41049200  0.04895300  0.86295200  1
  O  O56  1  0.00941800  0.43080500  0.25316400  1
  O  O57  1  0.50941800  0.56919500  0.24683600  1
  O  O58  1  0.99058200  0.56919500  0.74683600  1
  O  O59  1  0.49058200  0.43080500  0.75316400  1
  O  O60  1  0.06724900  0.21020000  0.47762700  1
  O  O61  1  0.56724900  0.78980000  0.02237300  1
  O  O62  1  0.93275100  0.78980000  0.52237300  1
  O  O63  1  0.43275100  0.21020000  0.97762700  1
  O  O64  1  0.30673300  0.30596900  0.33483700  1
  O  O65  1  0.80673300  0.69403100  0.16516300  1
  O  O66  1  0.69326700  0.69403100  0.66516300  1
  O  O67  1  0.19326700  0.30596900  0.83483700  1
