# generated using pymatgen
data_V2ReRh
_symmetry_space_group_name_H-M   'P 1'
_cell_length_a   9.83793002
_cell_length_b   9.83793002
_cell_length_c   9.83793002
_cell_angle_alpha   125.30597289
_cell_angle_beta   118.26988179
_cell_angle_gamma   87.04405953
_symmetry_Int_Tables_number   1
_chemical_formula_structural   V2ReRh
_chemical_formula_sum   'V2 Re1 Rh1'
_cell_volume   650.84575251
_cell_formula_units_Z   1
loop_
 _symmetry_equiv_pos_site_id
 _symmetry_equiv_pos_as_xyz
  1  'x, y, z'
loop_
 _atom_site_type_symbol
 _atom_site_label
 _atom_site_symmetry_multiplicity
 _atom_site_fract_x
 _atom_site_fract_y
 _atom_site_fract_z
 _atom_site_occupancy
  V  V0  1  0.00000000  0.25000400  0.25000400  1
  V  V1  1  0.00000000  0.74999600  0.74999600  1
  Re  Re2  1  0.00000000  0.50000000  0.50000000  1
  Rh  Rh3  1  0.00000000  0.00000000  0.00000000  1
