# generated using pymatgen
data_SrV3O7
_symmetry_space_group_name_H-M   'P 1'
_cell_length_a   5.37594600
_cell_length_b   10.58123700
_cell_length_c   11.38875700
_cell_angle_alpha   90.00000000
_cell_angle_beta   90.00000000
_cell_angle_gamma   90.00000000
_symmetry_Int_Tables_number   1
_chemical_formula_structural   SrV3O7
_chemical_formula_sum   'Sr4 V12 O28'
_cell_volume   647.83986087
_cell_formula_units_Z   4
loop_
 _symmetry_equiv_pos_site_id
 _symmetry_equiv_pos_as_xyz
  1  'x, y, z'
loop_
 _atom_site_type_symbol
 _atom_site_label
 _atom_site_symmetry_multiplicity
 _atom_site_fract_x
 _atom_site_fract_y
 _atom_site_fract_z
 _atom_site_occupancy
  Sr  Sr0  1  0.75616800  0.75000000  0.57285500  1
  Sr  Sr1  1  0.25616800  0.25000000  0.92714500  1
  Sr  Sr2  1  0.24383200  0.25000000  0.42714500  1
  Sr  Sr3  1  0.74383200  0.75000000  0.07285500  1
  V  V4  1  0.75488100  0.97974300  0.80850300  1
  V  V5  1  0.25488100  0.02025700  0.69149700  1
  V  V6  1  0.24511900  0.47974300  0.19149700  1
  V  V7  1  0.74511900  0.52025700  0.30850300  1
  V  V8  1  0.24511900  0.02025700  0.19149700  1
  V  V9  1  0.74511900  0.97974300  0.30850300  1
  V  V10  1  0.75488100  0.52025700  0.80850300  1
  V  V11  1  0.25488100  0.47974300  0.69149700  1
  V  V12  1  0.25491700  0.75000000  0.78830000  1
  V  V13  1  0.75491700  0.25000000  0.71170000  1
  V  V14  1  0.74508300  0.25000000  0.21170000  1
  V  V15  1  0.24508300  0.75000000  0.28830000  1
  O  O16  1  0.49148600  0.88068500  0.72580400  1
  O  O17  1  0.99148600  0.11931500  0.77419600  1
  O  O18  1  0.50851400  0.38068500  0.27419600  1
  O  O19  1  0.00851400  0.61931500  0.22580400  1
  O  O20  1  0.50851400  0.11931500  0.27419600  1
  O  O21  1  0.00851400  0.88068500  0.22580400  1
  O  O22  1  0.49148600  0.61931500  0.72580400  1
  O  O23  1  0.99148600  0.38068500  0.77419600  1
  O  O24  1  0.01829200  0.88072700  0.72571200  1
  O  O25  1  0.51829200  0.11927300  0.77428800  1
  O  O26  1  0.98170800  0.38072700  0.27428800  1
  O  O27  1  0.48170800  0.61927300  0.22571200  1
  O  O28  1  0.98170800  0.11927300  0.27428800  1
  O  O29  1  0.48170800  0.88072700  0.22571200  1
  O  O30  1  0.01829200  0.61927300  0.72571200  1
  O  O31  1  0.51829200  0.38072700  0.77428800  1
  O  O32  1  0.75422000  0.93927900  0.94916300  1
  O  O33  1  0.25422000  0.06072100  0.55083700  1
  O  O34  1  0.24578000  0.43927900  0.05083700  1
  O  O35  1  0.74578000  0.56072100  0.44916300  1
  O  O36  1  0.24578000  0.06072100  0.05083700  1
  O  O37  1  0.74578000  0.93927900  0.44916300  1
  O  O38  1  0.75422000  0.56072100  0.94916300  1
  O  O39  1  0.25422000  0.43927900  0.55083700  1
  O  O40  1  0.25563200  0.75000000  0.93398600  1
  O  O41  1  0.75563200  0.25000000  0.56601400  1
  O  O42  1  0.74436800  0.25000000  0.06601400  1
  O  O43  1  0.24436800  0.75000000  0.43398600  1
