# generated using pymatgen
data_Fe2Mo4O7
_symmetry_space_group_name_H-M   'P 1'
_cell_length_a   9.97447020
_cell_length_b   9.97447020
_cell_length_c   6.23892533
_cell_angle_alpha   72.08920901
_cell_angle_beta   72.08920901
_cell_angle_gamma   36.92218710
_symmetry_Int_Tables_number   1
_chemical_formula_structural   Fe2Mo4O7
_chemical_formula_sum   'Fe4 Mo8 O14'
_cell_volume   352.73724694
_cell_formula_units_Z   2
loop_
 _symmetry_equiv_pos_site_id
 _symmetry_equiv_pos_as_xyz
  1  'x, y, z'
loop_
 _atom_site_type_symbol
 _atom_site_label
 _atom_site_symmetry_multiplicity
 _atom_site_fract_x
 _atom_site_fract_y
 _atom_site_fract_z
 _atom_site_occupancy
  Fe  Fe0  1  0.30708400  0.30708400  0.94083600  1
  Fe  Fe1  1  0.69291600  0.69291600  0.05916400  1
  Fe  Fe2  1  0.00000000  0.50000000  0.50000000  1
  Fe  Fe3  1  0.50000000  0.00000000  0.50000000  1
  Mo  Mo4  1  0.87479100  0.87479100  0.63619800  1
  Mo  Mo5  1  0.87424500  0.87424500  0.11792600  1
  Mo  Mo6  1  0.12520900  0.12520900  0.36380200  1
  Mo  Mo7  1  0.12575500  0.12575500  0.88207400  1
  Mo  Mo8  1  0.25650300  0.74223900  0.25135400  1
  Mo  Mo9  1  0.74349700  0.25776100  0.74864600  1
  Mo  Mo10  1  0.25776100  0.74349700  0.74864600  1
  Mo  Mo11  1  0.74223900  0.25650300  0.25135400  1
  O  O12  1  0.24226100  0.24226100  0.73183700  1
  O  O13  1  0.75873100  0.75873100  0.72884800  1
  O  O14  1  0.75773900  0.75773900  0.26816300  1
  O  O15  1  0.24126900  0.24126900  0.27115200  1
  O  O16  1  0.66814700  0.09288100  0.37883700  1
  O  O17  1  0.33185300  0.90711900  0.62116300  1
  O  O18  1  0.90711900  0.33185300  0.62116300  1
  O  O19  1  0.09288100  0.66814700  0.37883700  1
  O  O20  1  0.87969500  0.36231400  0.13928400  1
  O  O21  1  0.12030500  0.63768600  0.86071600  1
  O  O22  1  0.63768600  0.12030500  0.86071600  1
  O  O23  1  0.36231400  0.87969500  0.13928400  1
  O  O24  1  0.50000000  0.50000000  0.50000000  1
  O  O25  1  0.50000000  0.50000000  0.00000000  1
