# generated using pymatgen
data_CaFeF5
_symmetry_space_group_name_H-M   'P 1'
_cell_length_a   10.24249500
_cell_length_b   5.58659100
_cell_length_c   7.72865040
_cell_angle_alpha   70.05269989
_cell_angle_beta   90.00000000
_cell_angle_gamma   90.00000000
_symmetry_Int_Tables_number   1
_chemical_formula_structural   CaFeF5
_chemical_formula_sum   'Ca4 Fe4 F20'
_cell_volume   415.70696421
_cell_formula_units_Z   4
loop_
 _symmetry_equiv_pos_site_id
 _symmetry_equiv_pos_as_xyz
  1  'x, y, z'
loop_
 _atom_site_type_symbol
 _atom_site_label
 _atom_site_symmetry_multiplicity
 _atom_site_fract_x
 _atom_site_fract_y
 _atom_site_fract_z
 _atom_site_occupancy
  Ca  Ca0  1  0.01935200  0.52921200  0.74540200  1
  Ca  Ca1  1  0.51935200  0.47078800  0.75459800  1
  Ca  Ca2  1  0.98064800  0.47078800  0.25459800  1
  Ca  Ca3  1  0.48064800  0.52921200  0.24540200  1
  Fe  Fe4  1  0.75354300  0.10560900  0.59989800  1
  Fe  Fe5  1  0.25354300  0.89439100  0.90010200  1
  Fe  Fe6  1  0.24645700  0.89439100  0.40010200  1
  Fe  Fe7  1  0.74645700  0.10560900  0.09989800  1
  F  F8  1  0.88245900  0.38746700  0.55653600  1
  F  F9  1  0.38245900  0.61253300  0.94346400  1
  F  F10  1  0.11754100  0.61253300  0.44346400  1
  F  F11  1  0.61754100  0.38746700  0.05653600  1
  F  F12  1  0.61216600  0.35650000  0.50513800  1
  F  F13  1  0.11216600  0.64350000  0.99486200  1
  F  F14  1  0.38783400  0.64350000  0.49486200  1
  F  F15  1  0.88783400  0.35650000  0.00513800  1
  F  F16  1  0.39566700  0.12139600  0.81103900  1
  F  F17  1  0.89566700  0.87860400  0.68896100  1
  F  F18  1  0.60433300  0.87860400  0.18896100  1
  F  F19  1  0.10433300  0.12139600  0.31103900  1
  F  F20  1  0.13669400  0.17103400  0.85936100  1
  F  F21  1  0.63669400  0.82896600  0.64063900  1
  F  F22  1  0.86330600  0.82896600  0.14063900  1
  F  F23  1  0.36330600  0.17103400  0.35936100  1
  F  F24  1  0.70286000  0.15462000  0.83667000  1
  F  F25  1  0.20286000  0.84538000  0.66333000  1
  F  F26  1  0.29714000  0.84538000  0.16333000  1
  F  F27  1  0.79714000  0.15462000  0.33667000  1
