# generated using pymatgen
data_Ce5Co19
_symmetry_space_group_name_H-M   'P 1'
_cell_length_a   4.86798344
_cell_length_b   4.86798344
_cell_length_c   16.64901417
_cell_angle_alpha   81.59355341
_cell_angle_beta   81.59355341
_cell_angle_gamma   60.00000659
_symmetry_Int_Tables_number   1
_chemical_formula_structural   Ce5Co19
_chemical_formula_sum   'Ce5 Co19'
_cell_volume   336.77467797
_cell_formula_units_Z   1
loop_
 _symmetry_equiv_pos_site_id
 _symmetry_equiv_pos_as_xyz
  1  'x, y, z'
loop_
 _atom_site_type_symbol
 _atom_site_label
 _atom_site_symmetry_multiplicity
 _atom_site_fract_x
 _atom_site_fract_y
 _atom_site_fract_z
 _atom_site_occupancy
  Ce  Ce0  1  0.00000000  -0.00000000  -0.00000000  1
  Ce  Ce1  1  0.07895839  0.07895839  0.76312482  1
  Ce  Ce2  1  0.92104161  0.92104161  0.23687518  1
  Ce  Ce3  1  0.15234586  0.15234586  0.54296242  1
  Ce  Ce4  1  0.84765414  0.84765414  0.45703758  1
  Co  Co5  1  0.50000000  0.50000000  0.50000000  1
  Co  Co6  1  0.25043951  0.25043951  0.24868148  1
  Co  Co7  1  0.74956049  0.74956049  0.75131852  1
  Co  Co8  1  0.33356594  0.33356594  0.99930218  1
  Co  Co9  1  0.66643406  0.66643406  0.00069782  1
  Co  Co10  1  0.41553978  0.41553978  0.75338066  1
  Co  Co11  1  0.58446022  0.58446022  0.24661934  1
  Co  Co12  1  0.12468112  0.62191020  0.63149849  1
  Co  Co13  1  0.62191020  0.62191020  0.63149849  1
  Co  Co14  1  0.62191020  0.12468112  0.63149849  1
  Co  Co15  1  0.87531888  0.37808980  0.36850151  1
  Co  Co16  1  0.37808980  0.37808980  0.36850151  1
  Co  Co17  1  0.37808980  0.87531888  0.36850151  1
  Co  Co18  1  0.03999731  0.54140122  0.87720024  1
  Co  Co19  1  0.54140122  0.54140122  0.87720024  1
  Co  Co20  1  0.54140122  0.03999731  0.87720024  1
  Co  Co21  1  0.96000269  0.45859878  0.12279976  1
  Co  Co22  1  0.45859878  0.45859878  0.12279976  1
  Co  Co23  1  0.45859878  0.96000269  0.12279976  1
