# generated using pymatgen
data_Lu7Te
_symmetry_space_group_name_H-M   'P 1'
_cell_length_a   6.41519584
_cell_length_b   6.41519584
_cell_length_c   19.97480300
_cell_angle_alpha   90.00000000
_cell_angle_beta   90.00000000
_cell_angle_gamma   146.08329292
_symmetry_Int_Tables_number   1
_chemical_formula_structural   Lu7Te
_chemical_formula_sum   'Lu14 Te2'
_cell_volume   458.69764462
_cell_formula_units_Z   2
loop_
 _symmetry_equiv_pos_site_id
 _symmetry_equiv_pos_as_xyz
  1  'x, y, z'
loop_
 _atom_site_type_symbol
 _atom_site_label
 _atom_site_symmetry_multiplicity
 _atom_site_fract_x
 _atom_site_fract_y
 _atom_site_fract_z
 _atom_site_occupancy
  Lu  Lu0  1  0.98005800  0.01994200  0.89084500  1
  Lu  Lu1  1  0.01994200  0.98005800  0.10915500  1
  Lu  Lu2  1  0.01994200  0.98005800  0.39084500  1
  Lu  Lu3  1  0.98005800  0.01994200  0.60915500  1
  Lu  Lu4  1  0.75503600  0.24496400  0.35545700  1
  Lu  Lu5  1  0.24496400  0.75503600  0.64454300  1
  Lu  Lu6  1  0.24496400  0.75503600  0.85545700  1
  Lu  Lu7  1  0.75503600  0.24496400  0.14454300  1
  Lu  Lu8  1  0.64240300  0.35759700  0.98754600  1
  Lu  Lu9  1  0.35759700  0.64240300  0.01245400  1
  Lu  Lu10  1  0.35759700  0.64240300  0.48754600  1
  Lu  Lu11  1  0.64240300  0.35759700  0.51245400  1
  Lu  Lu12  1  0.56266300  0.43733700  0.75000000  1
  Lu  Lu13  1  0.43733700  0.56266300  0.25000000  1
  Te  Te14  1  0.85135200  0.14864800  0.75000000  1
  Te  Te15  1  0.14864800  0.85135200  0.25000000  1
