# generated using pymatgen
data_Pr5Si4
_symmetry_space_group_name_H-M   'P 1'
_cell_length_a   7.96140500
_cell_length_b   7.96140500
_cell_length_c   15.23463100
_cell_angle_alpha   90.00000000
_cell_angle_beta   90.00000000
_cell_angle_gamma   90.00000000
_symmetry_Int_Tables_number   1
_chemical_formula_structural   Pr5Si4
_chemical_formula_sum   'Pr20 Si16'
_cell_volume   965.63138778
_cell_formula_units_Z   4
loop_
 _symmetry_equiv_pos_site_id
 _symmetry_equiv_pos_as_xyz
  1  'x, y, z'
loop_
 _atom_site_type_symbol
 _atom_site_label
 _atom_site_symmetry_multiplicity
 _atom_site_fract_x
 _atom_site_fract_y
 _atom_site_fract_z
 _atom_site_occupancy
  Pr  Pr0  1  0.30976600  0.30976600  0.00000000  1
  Pr  Pr1  1  0.19023400  0.80976600  0.25000000  1
  Pr  Pr2  1  0.80976600  0.19023400  0.75000000  1
  Pr  Pr3  1  0.69023400  0.69023400  0.50000000  1
  Pr  Pr4  1  0.37582000  0.01074000  0.44903200  1
  Pr  Pr5  1  0.48926000  0.87582000  0.69903200  1
  Pr  Pr6  1  0.51074000  0.12418000  0.19903200  1
  Pr  Pr7  1  0.87582000  0.48926000  0.30096800  1
  Pr  Pr8  1  0.12418000  0.51074000  0.80096800  1
  Pr  Pr9  1  0.62418000  0.98926000  0.94903200  1
  Pr  Pr10  1  0.01074000  0.37582000  0.55096800  1
  Pr  Pr11  1  0.98926000  0.62418000  0.05096800  1
  Pr  Pr12  1  0.12764200  0.98216500  0.87574600  1
  Pr  Pr13  1  0.51783500  0.62764200  0.12574600  1
  Pr  Pr14  1  0.48216500  0.37235800  0.62574600  1
  Pr  Pr15  1  0.62764200  0.51783500  0.87425400  1
  Pr  Pr16  1  0.37235800  0.48216500  0.37425400  1
  Pr  Pr17  1  0.87235800  0.01783500  0.37574600  1
  Pr  Pr18  1  0.98216500  0.12764200  0.12425400  1
  Pr  Pr19  1  0.01783500  0.87235800  0.62425400  1
  Si  Si20  1  0.19717800  0.16776600  0.70042600  1
  Si  Si21  1  0.33223400  0.69717800  0.95042600  1
  Si  Si22  1  0.66776600  0.30282200  0.45042600  1
  Si  Si23  1  0.69717800  0.33223400  0.04957400  1
  Si  Si24  1  0.30282200  0.66776600  0.54957400  1
  Si  Si25  1  0.80282200  0.83223400  0.20042600  1
  Si  Si26  1  0.16776600  0.19717800  0.29957400  1
  Si  Si27  1  0.83223400  0.80282200  0.79957400  1
  Si  Si28  1  0.28924100  0.92299400  0.05907300  1
  Si  Si29  1  0.57700600  0.78924100  0.30907300  1
  Si  Si30  1  0.42299400  0.21075900  0.80907300  1
  Si  Si31  1  0.78924100  0.57700600  0.69092700  1
  Si  Si32  1  0.21075900  0.42299400  0.19092700  1
  Si  Si33  1  0.71075900  0.07700600  0.55907300  1
  Si  Si34  1  0.92299400  0.28924100  0.94092700  1
  Si  Si35  1  0.07700600  0.71075900  0.44092700  1
