# generated using pymatgen
data_CsEr2Cu3Se5
_symmetry_space_group_name_H-M   'P 1'
_cell_length_a   7.63361152
_cell_length_b   7.63361152
_cell_length_c   17.27301300
_cell_angle_alpha   90.00000000
_cell_angle_beta   90.00000000
_cell_angle_gamma   148.70124473
_symmetry_Int_Tables_number   1
_chemical_formula_structural   CsEr2Cu3Se5
_chemical_formula_sum   'Cs2 Er4 Cu6 Se10'
_cell_volume   522.89467568
_cell_formula_units_Z   2
loop_
 _symmetry_equiv_pos_site_id
 _symmetry_equiv_pos_as_xyz
  1  'x, y, z'
loop_
 _atom_site_type_symbol
 _atom_site_label
 _atom_site_symmetry_multiplicity
 _atom_site_fract_x
 _atom_site_fract_y
 _atom_site_fract_z
 _atom_site_occupancy
  Cs  Cs0  1  0.06116500  0.93883500  0.75000000  1
  Cs  Cs1  1  0.93883500  0.06116500  0.25000000  1
  Er  Er2  1  0.80795400  0.19204600  0.59148800  1
  Er  Er3  1  0.19204600  0.80795400  0.40851200  1
  Er  Er4  1  0.19204600  0.80795400  0.09148800  1
  Er  Er5  1  0.80795400  0.19204600  0.90851200  1
  Cu  Cu6  1  0.34443200  0.65556800  0.75000000  1
  Cu  Cu7  1  0.65556800  0.34443200  0.25000000  1
  Cu  Cu8  1  0.58324500  0.41675500  0.96678300  1
  Cu  Cu9  1  0.41675500  0.58324500  0.03321700  1
  Cu  Cu10  1  0.41675500  0.58324500  0.46678300  1
  Cu  Cu11  1  0.58324500  0.41675500  0.53321700  1
  Se  Se12  1  0.76190400  0.23809600  0.75000000  1
  Se  Se13  1  0.23809600  0.76190400  0.25000000  1
  Se  Se14  1  0.56200800  0.43799200  0.38786400  1
  Se  Se15  1  0.43799200  0.56200800  0.61213600  1
  Se  Se16  1  0.43799200  0.56200800  0.88786400  1
  Se  Se17  1  0.56200800  0.43799200  0.11213600  1
  Se  Se18  1  0.83065100  0.16934900  0.42977600  1
  Se  Se19  1  0.16934900  0.83065100  0.57022400  1
  Se  Se20  1  0.16934900  0.83065100  0.92977600  1
  Se  Se21  1  0.83065100  0.16934900  0.07022400  1
