# generated using pymatgen
data_Tl2Mo9S11
_symmetry_space_group_name_H-M   'P 1'
_cell_length_a   13.05151890
_cell_length_b   13.05151890
_cell_length_c   13.05151837
_cell_angle_alpha   42.25283464
_cell_angle_beta   42.25283464
_cell_angle_gamma   42.25283617
_symmetry_Int_Tables_number   1
_chemical_formula_structural   Tl2Mo9S11
_chemical_formula_sum   'Tl4 Mo18 S22'
_cell_volume   909.71598012
_cell_formula_units_Z   2
loop_
 _symmetry_equiv_pos_site_id
 _symmetry_equiv_pos_as_xyz
  1  'x, y, z'
loop_
 _atom_site_type_symbol
 _atom_site_label
 _atom_site_symmetry_multiplicity
 _atom_site_fract_x
 _atom_site_fract_y
 _atom_site_fract_z
 _atom_site_occupancy
  Tl  Tl0  1  0.33219100  0.33219100  0.33219100  1
  Tl  Tl1  1  0.77012200  0.77012200  0.77012200  1
  Tl  Tl2  1  0.22987800  0.22987800  0.22987800  1
  Tl  Tl3  1  0.66780900  0.66780900  0.66780900  1
  Mo  Mo4  1  0.54673300  0.69411300  0.35775400  1
  Mo  Mo5  1  0.25251000  0.92378100  0.11094800  1
  Mo  Mo6  1  0.87039300  0.20164300  0.01998200  1
  Mo  Mo7  1  0.88905200  0.74749000  0.07621900  1
  Mo  Mo8  1  0.64224600  0.45326700  0.30588700  1
  Mo  Mo9  1  0.12960700  0.79835700  0.98001800  1
  Mo  Mo10  1  0.20164300  0.01998200  0.87039300  1
  Mo  Mo11  1  0.01998200  0.87039300  0.20164300  1
  Mo  Mo12  1  0.07621900  0.88905200  0.74749000  1
  Mo  Mo13  1  0.79835700  0.98001800  0.12960700  1
  Mo  Mo14  1  0.92378100  0.11094800  0.25251000  1
  Mo  Mo15  1  0.98001800  0.12960700  0.79835700  1
  Mo  Mo16  1  0.35775400  0.54673300  0.69411300  1
  Mo  Mo17  1  0.69411300  0.35775400  0.54673300  1
  Mo  Mo18  1  0.30588700  0.64224600  0.45326700  1
  Mo  Mo19  1  0.74749000  0.07621900  0.88905200  1
  Mo  Mo20  1  0.11094800  0.25251000  0.92378100  1
  Mo  Mo21  1  0.45326700  0.30588700  0.64224600  1
  S  S22  1  0.58436300  0.58436300  0.58436300  1
  S  S23  1  0.40271800  0.06313600  0.80079100  1
  S  S24  1  0.93686400  0.19920900  0.59728200  1
  S  S25  1  0.94891600  0.67261300  0.28176200  1
  S  S26  1  0.84035700  0.49724900  0.24217500  1
  S  S27  1  0.80079100  0.40271800  0.06313600  1
  S  S28  1  0.32738700  0.71823800  0.05108400  1
  S  S29  1  0.41563700  0.41563700  0.41563700  1
  S  S30  1  0.85275400  0.85275400  0.85275400  1
  S  S31  1  0.24217500  0.84035700  0.49724900  1
  S  S32  1  0.06313600  0.80079100  0.40271800  1
  S  S33  1  0.28176200  0.94891600  0.67261300  1
  S  S34  1  0.59728200  0.93686400  0.19920900  1
  S  S35  1  0.14724600  0.14724600  0.14724600  1
  S  S36  1  0.75782500  0.15964300  0.50275100  1
  S  S37  1  0.15964300  0.50275100  0.75782500  1
  S  S38  1  0.49724900  0.24217500  0.84035700  1
  S  S39  1  0.67261300  0.28176200  0.94891600  1
  S  S40  1  0.05108400  0.32738700  0.71823800  1
  S  S41  1  0.71823800  0.05108400  0.32738700  1
  S  S42  1  0.19920900  0.59728200  0.93686400  1
  S  S43  1  0.50275100  0.75782500  0.15964300  1
