# generated using pymatgen
data_K2Mo4O13
_symmetry_space_group_name_H-M   'P 1'
_cell_length_a   8.24881038
_cell_length_b   8.53380586
_cell_length_c   10.33278049
_cell_angle_alpha   107.36828292
_cell_angle_beta   103.10107179
_cell_angle_gamma   109.50356116
_symmetry_Int_Tables_number   1
_chemical_formula_structural   K2Mo4O13
_chemical_formula_sum   'K4 Mo8 O26'
_cell_volume   609.79928621
_cell_formula_units_Z   2
loop_
 _symmetry_equiv_pos_site_id
 _symmetry_equiv_pos_as_xyz
  1  'x, y, z'
loop_
 _atom_site_type_symbol
 _atom_site_label
 _atom_site_symmetry_multiplicity
 _atom_site_fract_x
 _atom_site_fract_y
 _atom_site_fract_z
 _atom_site_occupancy
  K  K0  1  0.74122300  0.78172700  0.43033300  1
  K  K1  1  0.25877700  0.21827300  0.56966700  1
  K  K2  1  0.68495700  0.23533000  0.30943200  1
  K  K3  1  0.31504300  0.76467000  0.69056800  1
  Mo  Mo4  1  0.81597300  0.50685000  0.05094100  1
  Mo  Mo5  1  0.18402700  0.49315000  0.94905900  1
  Mo  Mo6  1  0.83129700  0.90811700  0.06204300  1
  Mo  Mo7  1  0.16870300  0.09188300  0.93795700  1
  Mo  Mo8  1  0.77903000  0.60620900  0.73104400  1
  Mo  Mo9  1  0.22097000  0.39379100  0.26895600  1
  Mo  Mo10  1  0.77504700  0.20338900  0.70985800  1
  Mo  Mo11  1  0.22495300  0.79661100  0.29014200  1
  O  O12  1  0.65666900  0.94014300  0.96202200  1
  O  O13  1  0.34333100  0.05985700  0.03797800  1
  O  O14  1  0.95101300  0.86279200  0.88293800  1
  O  O15  1  0.04898700  0.13720800  0.11706200  1
  O  O16  1  0.89749700  0.61829200  0.61123000  1
  O  O17  1  0.10250300  0.38170800  0.38877000  1
  O  O18  1  0.71480700  0.63583000  0.94587500  1
  O  O19  1  0.28519300  0.36417000  0.05412500  1
  O  O20  1  0.71784600  0.51008100  0.18326000  1
  O  O21  1  0.28215400  0.48991900  0.81674000  1
  O  O22  1  0.86649800  0.18599200  0.57082000  1
  O  O23  1  0.13350200  0.81400800  0.42918000  1
  O  O24  1  0.64245700  0.34675300  0.66432200  1
  O  O25  1  0.35754300  0.65324700  0.33567800  1
  O  O26  1  0.02325400  0.78467500  0.14526200  1
  O  O27  1  0.97674600  0.21532500  0.85473800  1
  O  O28  1  0.68449500  0.28563300  0.90948300  1
  O  O29  1  0.31550500  0.71436800  0.09051700  1
  O  O30  1  0.59962900  0.98626000  0.64721000  1
  O  O31  1  0.40037100  0.01374000  0.35279000  1
  O  O32  1  0.59130900  0.64379500  0.65880000  1
  O  O33  1  0.40869100  0.35620500  0.34120000  1
  O  O34  1  0.96268100  0.51410400  0.86425300  1
  O  O35  1  0.03731900  0.48589600  0.13574700  1
  O  O36  1  0.79830200  0.94406000  0.22779000  1
  O  O37  1  0.20169800  0.05594000  0.77221000  1
