# generated using pymatgen
data_Ce2SiTeO4
_symmetry_space_group_name_H-M   'P 1'
_cell_length_a   6.41112900
_cell_length_b   7.29058400
_cell_length_c   11.31500400
_cell_angle_alpha   90.00000000
_cell_angle_beta   90.00000000
_cell_angle_gamma   90.00000000
_symmetry_Int_Tables_number   1
_chemical_formula_structural   Ce2SiTeO4
_chemical_formula_sum   'Ce8 Si4 Te4 O16'
_cell_volume   528.87318204
_cell_formula_units_Z   4
loop_
 _symmetry_equiv_pos_site_id
 _symmetry_equiv_pos_as_xyz
  1  'x, y, z'
loop_
 _atom_site_type_symbol
 _atom_site_label
 _atom_site_symmetry_multiplicity
 _atom_site_fract_x
 _atom_site_fract_y
 _atom_site_fract_z
 _atom_site_occupancy
  Ce  Ce0  1  0.11216000  0.03924700  0.25000000  1
  Ce  Ce1  1  0.11216000  0.46075300  0.75000000  1
  Ce  Ce2  1  0.88784000  0.53924700  0.25000000  1
  Ce  Ce3  1  0.88784000  0.96075300  0.75000000  1
  Ce  Ce4  1  0.61008900  0.25000000  0.00000000  1
  Ce  Ce5  1  0.38991100  0.75000000  0.50000000  1
  Ce  Ce6  1  0.38991100  0.75000000  0.00000000  1
  Ce  Ce7  1  0.61008900  0.25000000  0.50000000  1
  Si  Si8  1  0.11365900  0.25000000  0.00000000  1
  Si  Si9  1  0.88634100  0.75000000  0.50000000  1
  Si  Si10  1  0.88634100  0.75000000  0.00000000  1
  Si  Si11  1  0.11365900  0.25000000  0.50000000  1
  Te  Te12  1  0.40200100  0.42887300  0.25000000  1
  Te  Te13  1  0.40200100  0.07112700  0.75000000  1
  Te  Te14  1  0.59799900  0.92887300  0.25000000  1
  Te  Te15  1  0.59799900  0.57112700  0.75000000  1
  O  O16  1  0.04665400  0.77040800  0.11497600  1
  O  O17  1  0.04665400  0.72959200  0.88502400  1
  O  O18  1  0.95334600  0.27040800  0.38502400  1
  O  O19  1  0.95334600  0.22959200  0.61497600  1
  O  O20  1  0.95334600  0.22959200  0.88502400  1
  O  O21  1  0.95334600  0.27040800  0.11497600  1
  O  O22  1  0.04665400  0.72959200  0.61497600  1
  O  O23  1  0.04665400  0.77040800  0.38502400  1
  O  O24  1  0.26761800  0.07810300  0.03589600  1
  O  O25  1  0.26761800  0.42189700  0.96410400  1
  O  O26  1  0.73238200  0.57810300  0.46410400  1
  O  O27  1  0.73238200  0.92189700  0.53589600  1
  O  O28  1  0.73238200  0.92189700  0.96410400  1
  O  O29  1  0.73238200  0.57810300  0.03589600  1
  O  O30  1  0.26761800  0.42189700  0.53589600  1
  O  O31  1  0.26761800  0.07810300  0.46410400  1
