# generated using pymatgen
data_C2Se3N2
_symmetry_space_group_name_H-M   'P 1'
_cell_length_a   4.85220700
_cell_length_b   10.24817100
_cell_length_c   14.01218900
_cell_angle_alpha   90.00000000
_cell_angle_beta   90.00000000
_cell_angle_gamma   90.00000000
_symmetry_Int_Tables_number   1
_chemical_formula_structural   C2Se3N2
_chemical_formula_sum   'C8 Se12 N8'
_cell_volume   696.77357211
_cell_formula_units_Z   4
loop_
 _symmetry_equiv_pos_site_id
 _symmetry_equiv_pos_as_xyz
  1  'x, y, z'
loop_
 _atom_site_type_symbol
 _atom_site_label
 _atom_site_symmetry_multiplicity
 _atom_site_fract_x
 _atom_site_fract_y
 _atom_site_fract_z
 _atom_site_occupancy
  C  C0  1  0.98356800  0.20784400  0.60669000  1
  C  C1  1  0.48356800  0.29215600  0.39331000  1
  C  C2  1  0.51643200  0.70784400  0.89331000  1
  C  C3  1  0.01643200  0.79215600  0.10669000  1
  C  C4  1  0.01643200  0.79215600  0.39331000  1
  C  C5  1  0.51643200  0.70784400  0.60669000  1
  C  C6  1  0.48356800  0.29215600  0.10669000  1
  C  C7  1  0.98356800  0.20784400  0.89331000  1
  Se  Se8  1  0.77014300  0.05841700  0.61635100  1
  Se  Se9  1  0.27014300  0.44158300  0.38364900  1
  Se  Se10  1  0.72985700  0.55841700  0.88364900  1
  Se  Se11  1  0.22985700  0.94158300  0.11635100  1
  Se  Se12  1  0.22985700  0.94158300  0.38364900  1
  Se  Se13  1  0.72985700  0.55841700  0.61635100  1
  Se  Se14  1  0.27014300  0.44158300  0.11635100  1
  Se  Se15  1  0.77014300  0.05841700  0.88364900  1
  Se  Se16  1  0.99860600  0.96614500  0.75000000  1
  Se  Se17  1  0.49860600  0.53385500  0.25000000  1
  Se  Se18  1  0.50139400  0.46614500  0.75000000  1
  Se  Se19  1  0.00139400  0.03385500  0.25000000  1
  N  N20  1  0.11109100  0.30471900  0.59938700  1
  N  N21  1  0.61109100  0.19528100  0.40061300  1
  N  N22  1  0.38890900  0.80471900  0.90061300  1
  N  N23  1  0.88890900  0.69528100  0.09938700  1
  N  N24  1  0.88890900  0.69528100  0.40061300  1
  N  N25  1  0.38890900  0.80471900  0.59938700  1
  N  N26  1  0.61109100  0.19528100  0.09938700  1
  N  N27  1  0.11109100  0.30471900  0.90061300  1
