# generated using pymatgen
data_LaNbO4
_symmetry_space_group_name_H-M   'P 1'
_cell_length_a   6.96834198
_cell_length_b   6.96834198
_cell_length_c   5.36072059
_cell_angle_alpha   68.14141813
_cell_angle_beta   68.14141813
_cell_angle_gamma   114.18727508
_symmetry_Int_Tables_number   1
_chemical_formula_structural   LaNbO4
_chemical_formula_sum   'La2 Nb2 O8'
_cell_volume   172.92122075
_cell_formula_units_Z   2
loop_
 _symmetry_equiv_pos_site_id
 _symmetry_equiv_pos_as_xyz
  1  'x, y, z'
loop_
 _atom_site_type_symbol
 _atom_site_label
 _atom_site_symmetry_multiplicity
 _atom_site_fract_x
 _atom_site_fract_y
 _atom_site_fract_z
 _atom_site_occupancy
  La  La0  1  0.12671500  0.87328500  0.25000000  1
  La  La1  1  0.87328500  0.12671500  0.75000000  1
  Nb  Nb2  1  0.61511300  0.38488700  0.25000000  1
  Nb  Nb3  1  0.38488700  0.61511300  0.75000000  1
  O  O4  1  0.13707700  0.55312100  0.66218200  1
  O  O5  1  0.44687900  0.86292300  0.83781800  1
  O  O6  1  0.86292300  0.44687900  0.33781800  1
  O  O7  1  0.55312100  0.13707700  0.16218200  1
  O  O8  1  0.77997200  0.70841300  0.82760500  1
  O  O9  1  0.29158700  0.22002800  0.67239500  1
  O  O10  1  0.22002800  0.29158700  0.17239500  1
  O  O11  1  0.70841300  0.77997200  0.32760500  1
