# generated using pymatgen
data_V6Zn3(FeO6)4
_symmetry_space_group_name_H-M   'P 1'
_cell_length_a   6.76784000
_cell_length_b   8.14257566
_cell_length_c   9.94658239
_cell_angle_alpha   105.47728112
_cell_angle_beta   104.98154387
_cell_angle_gamma   102.29178970
_symmetry_Int_Tables_number   1
_chemical_formula_structural   V6Zn3(FeO6)4
_chemical_formula_sum   'V6 Zn3 Fe4 O24'
_cell_volume   486.34757161
_cell_formula_units_Z   1
loop_
 _symmetry_equiv_pos_site_id
 _symmetry_equiv_pos_as_xyz
  1  'x, y, z'
loop_
 _atom_site_type_symbol
 _atom_site_label
 _atom_site_symmetry_multiplicity
 _atom_site_fract_x
 _atom_site_fract_y
 _atom_site_fract_z
 _atom_site_occupancy
  V  V0  1  0.89528900  0.90203100  0.66615100  1
  V  V1  1  0.10471100  0.09796900  0.33384900  1
  V  V2  1  0.22247400  0.65932300  0.27087400  1
  V  V3  1  0.77752700  0.34067700  0.72912600  1
  V  V4  1  0.59528900  0.27293100  0.12789200  1
  V  V5  1  0.40471100  0.72706900  0.87210800  1
  Zn  Zn6  1  0.00000000  0.50000000  0.50000000  1
  Zn  Zn7  1  0.71502700  0.70832300  0.20365900  1
  Zn  Zn8  1  0.28497300  0.29167700  0.79634100  1
  Fe  Fe9  1  0.38003100  0.95141600  0.60756000  1
  Fe  Fe10  1  0.61996900  0.04858400  0.39244000  1
  Fe  Fe11  1  0.04252500  0.20914900  0.01513800  1
  Fe  Fe12  1  0.95747500  0.79085100  0.98486200  1
  O  O13  1  0.07410900  0.05622700  0.14388000  1
  O  O14  1  0.92589100  0.94377300  0.85612000  1
  O  O15  1  0.55742400  0.13648500  0.23144900  1
  O  O16  1  0.44257600  0.86351500  0.76855100  1
  O  O17  1  0.18018000  0.44029100  0.18326000  1
  O  O18  1  0.81982000  0.55970900  0.81674000  1
  O  O19  1  0.98292100  0.27725300  0.83311200  1
  O  O20  1  0.01707900  0.72274700  0.16688800  1
  O  O21  1  0.23585000  0.78350500  0.96635100  1
  O  O22  1  0.76415000  0.21649500  0.03364900  1
  O  O23  1  0.86982100  0.97316000  0.34817400  1
  O  O24  1  0.13017900  0.02684000  0.65182600  1
  O  O25  1  0.52699400  0.22371500  0.72917800  1
  O  O26  1  0.47300600  0.77628500  0.27082200  1
  O  O27  1  0.34628100  0.25380000  0.99552200  1
  O  O28  1  0.65371900  0.74620000  0.00447800  1
  O  O29  1  0.33249400  0.04039400  0.42586400  1
  O  O30  1  0.66750600  0.95960600  0.57413600  1
  O  O31  1  0.21377300  0.69850800  0.45496400  1
  O  O32  1  0.78622700  0.30149200  0.54503600  1
  O  O33  1  0.72049500  0.48999500  0.25283800  1
  O  O34  1  0.27950500  0.51000500  0.74716200  1
  O  O35  1  0.12441200  0.31247800  0.41593700  1
  O  O36  1  0.87558800  0.68752200  0.58406300  1
