# generated using pymatgen
data_Fe23B6
_symmetry_space_group_name_H-M   'P 1'
_cell_length_a   7.50075680
_cell_length_b   7.50075680
_cell_length_c   7.50075680
_cell_angle_alpha   60.00000000
_cell_angle_beta   60.00000000
_cell_angle_gamma   60.00000000
_symmetry_Int_Tables_number   1
_chemical_formula_structural   Fe23B6
_chemical_formula_sum   'Fe23 B6'
_cell_volume   298.40098749
_cell_formula_units_Z   1
loop_
 _symmetry_equiv_pos_site_id
 _symmetry_equiv_pos_as_xyz
  1  'x, y, z'
loop_
 _atom_site_type_symbol
 _atom_site_label
 _atom_site_symmetry_multiplicity
 _atom_site_fract_x
 _atom_site_fract_y
 _atom_site_fract_z
 _atom_site_occupancy
  Fe  Fe0  1  0.00000000  0.00000000  0.00000000  1
  Fe  Fe1  1  0.75000000  0.75000000  0.75000000  1
  Fe  Fe2  1  0.25000000  0.25000000  0.25000000  1
  Fe  Fe3  1  0.65789600  0.34210400  0.00000000  1
  Fe  Fe4  1  0.00000000  0.34210400  0.65789600  1
  Fe  Fe5  1  0.65789600  0.00000000  0.00000000  1
  Fe  Fe6  1  0.00000000  0.00000000  0.34210400  1
  Fe  Fe7  1  0.00000000  0.00000000  0.65789600  1
  Fe  Fe8  1  0.00000000  0.34210400  0.00000000  1
  Fe  Fe9  1  0.65789600  0.00000000  0.34210400  1
  Fe  Fe10  1  0.34210400  0.00000000  0.00000000  1
  Fe  Fe11  1  0.00000000  0.65789600  0.00000000  1
  Fe  Fe12  1  0.34210400  0.00000000  0.65789600  1
  Fe  Fe13  1  0.00000000  0.65789600  0.34210400  1
  Fe  Fe14  1  0.34210400  0.65789600  0.00000000  1
  Fe  Fe15  1  0.61875400  0.14373900  0.61875400  1
  Fe  Fe16  1  0.38124600  0.38124600  0.85626100  1
  Fe  Fe17  1  0.85626100  0.38124600  0.38124600  1
  Fe  Fe18  1  0.38124600  0.38124600  0.38124600  1
  Fe  Fe19  1  0.14373900  0.61875400  0.61875400  1
  Fe  Fe20  1  0.61875400  0.61875400  0.61875400  1
  Fe  Fe21  1  0.61875400  0.61875400  0.14373900  1
  Fe  Fe22  1  0.38124600  0.85626100  0.38124600  1
  B  B23  1  0.27644800  0.27644800  0.72355200  1
  B  B24  1  0.27644800  0.72355200  0.72355200  1
  B  B25  1  0.72355200  0.27644800  0.27644800  1
  B  B26  1  0.27644800  0.72355200  0.27644800  1
  B  B27  1  0.72355200  0.27644800  0.72355200  1
  B  B28  1  0.72355200  0.72355200  0.27644800  1
