# generated using pymatgen
data_BaWO4
_symmetry_space_group_name_H-M   'P 1'
_cell_length_a   7.29019800
_cell_length_b   7.63204800
_cell_length_c   15.00109912
_cell_angle_alpha   63.82200151
_cell_angle_beta   90.00000000
_cell_angle_gamma   90.00000000
_symmetry_Int_Tables_number   1
_chemical_formula_structural   BaWO4
_chemical_formula_sum   'Ba8 W8 O32'
_cell_volume   749.03659524
_cell_formula_units_Z   8
loop_
 _symmetry_equiv_pos_site_id
 _symmetry_equiv_pos_as_xyz
  1  'x, y, z'
loop_
 _atom_site_type_symbol
 _atom_site_label
 _atom_site_symmetry_multiplicity
 _atom_site_fract_x
 _atom_site_fract_y
 _atom_site_fract_z
 _atom_site_occupancy
  Ba  Ba0  1  0.84076700  0.99721700  0.66000900  1
  Ba  Ba1  1  0.34076700  0.00278300  0.83999100  1
  Ba  Ba2  1  0.15923300  0.00278300  0.33999100  1
  Ba  Ba3  1  0.65923300  0.99721700  0.16000900  1
  Ba  Ba4  1  0.56419300  0.49107000  0.64862600  1
  Ba  Ba5  1  0.06419300  0.50893000  0.85137400  1
  Ba  Ba6  1  0.43580700  0.50893000  0.35137400  1
  Ba  Ba7  1  0.93580700  0.49107000  0.14862600  1
  W  W8  1  0.34039200  0.01300900  0.57782300  1
  W  W9  1  0.84039200  0.98699100  0.92217700  1
  W  W10  1  0.65960800  0.98699100  0.42217700  1
  W  W11  1  0.15960800  0.01300900  0.07782300  1
  W  W12  1  0.05060200  0.58371100  0.57903000  1
  W  W13  1  0.55060200  0.41628900  0.92097000  1
  W  W14  1  0.94939800  0.41628900  0.42097000  1
  W  W15  1  0.44939800  0.58371100  0.07903000  1
  O  O16  1  0.47730900  0.18113900  0.60863200  1
  O  O17  1  0.97730900  0.81886100  0.89136800  1
  O  O18  1  0.52269100  0.81886100  0.39136800  1
  O  O19  1  0.02269100  0.18113900  0.10863200  1
  O  O20  1  0.91295000  0.62129200  0.67221100  1
  O  O21  1  0.41295000  0.37870800  0.82778900  1
  O  O22  1  0.08705000  0.37870800  0.32778900  1
  O  O23  1  0.58705000  0.62129200  0.17221100  1
  O  O24  1  0.86528400  0.41798100  0.55508000  1
  O  O25  1  0.36528400  0.58201900  0.94492000  1
  O  O26  1  0.13471600  0.58201900  0.44492000  1
  O  O27  1  0.63471600  0.41798100  0.05508000  1
  O  O28  1  0.24913500  0.86450700  0.70449400  1
  O  O29  1  0.74913500  0.13549300  0.79550600  1
  O  O30  1  0.75086500  0.13549300  0.29550600  1
  O  O31  1  0.25086500  0.86450700  0.20449400  1
  O  O32  1  0.22381300  0.79002800  0.54450800  1
  O  O33  1  0.72381300  0.20997200  0.95549200  1
  O  O34  1  0.77618700  0.20997200  0.45549200  1
  O  O35  1  0.27618700  0.79002800  0.04450800  1
  O  O36  1  0.19183900  0.38755100  0.66472000  1
  O  O37  1  0.69183900  0.61244900  0.83528000  1
  O  O38  1  0.80816100  0.61244900  0.33528000  1
  O  O39  1  0.30816100  0.38755100  0.16472000  1
  O  O40  1  0.13027300  0.16832200  0.52537300  1
  O  O41  1  0.63027300  0.83167800  0.97462700  1
  O  O42  1  0.86972700  0.83167800  0.47462700  1
  O  O43  1  0.36972700  0.16832200  0.02537300  1
  O  O44  1  0.57299000  0.87309800  0.57545900  1
  O  O45  1  0.07299000  0.12690200  0.92454100  1
  O  O46  1  0.42701000  0.12690200  0.42454100  1
  O  O47  1  0.92701000  0.87309800  0.07545900  1
