# generated using pymatgen
data_Cr(AgO2)2
_symmetry_space_group_name_H-M   'P 1'
_cell_length_a   5.69394900
_cell_length_b   7.03021000
_cell_length_c   10.24827600
_cell_angle_alpha   90.00000000
_cell_angle_beta   90.00000000
_cell_angle_gamma   90.00000000
_symmetry_Int_Tables_number   1
_chemical_formula_structural   Cr(AgO2)2
_chemical_formula_sum   'Cr4 Ag8 O16'
_cell_volume   410.23497516
_cell_formula_units_Z   4
loop_
 _symmetry_equiv_pos_site_id
 _symmetry_equiv_pos_as_xyz
  1  'x, y, z'
loop_
 _atom_site_type_symbol
 _atom_site_label
 _atom_site_symmetry_multiplicity
 _atom_site_fract_x
 _atom_site_fract_y
 _atom_site_fract_z
 _atom_site_occupancy
  Cr  Cr0  1  0.04056000  0.75000000  0.31751500  1
  Cr  Cr1  1  0.54056000  0.25000000  0.18248500  1
  Cr  Cr2  1  0.95944000  0.25000000  0.68248500  1
  Cr  Cr3  1  0.45944000  0.75000000  0.81751500  1
  Ag  Ag4  1  0.50000000  0.50000000  0.50000000  1
  Ag  Ag5  1  0.00000000  0.50000000  0.00000000  1
  Ag  Ag6  1  0.50000000  0.00000000  0.50000000  1
  Ag  Ag7  1  0.00000000  0.00000000  0.00000000  1
  Ag  Ag8  1  0.51959600  0.75000000  0.14439100  1
  Ag  Ag9  1  0.01959600  0.25000000  0.35560900  1
  Ag  Ag10  1  0.48040400  0.25000000  0.85560900  1
  Ag  Ag11  1  0.98040400  0.75000000  0.64439100  1
  O  O12  1  0.10131400  0.75000000  0.15461700  1
  O  O13  1  0.60131400  0.25000000  0.34538300  1
  O  O14  1  0.89868600  0.25000000  0.84538300  1
  O  O15  1  0.39868600  0.75000000  0.65461700  1
  O  O16  1  0.75152300  0.75000000  0.34486000  1
  O  O17  1  0.25152300  0.25000000  0.15514000  1
  O  O18  1  0.24847700  0.25000000  0.65514000  1
  O  O19  1  0.74847700  0.75000000  0.84486000  1
  O  O20  1  0.16055100  0.55524700  0.38609600  1
  O  O21  1  0.66055100  0.44475300  0.11390400  1
  O  O22  1  0.83944900  0.05524700  0.61390400  1
  O  O23  1  0.33944900  0.94475300  0.88609600  1
  O  O24  1  0.83944900  0.44475300  0.61390400  1
  O  O25  1  0.33944900  0.55524700  0.88609600  1
  O  O26  1  0.16055100  0.94475300  0.38609600  1
  O  O27  1  0.66055100  0.05524700  0.11390400  1
