# generated using pymatgen
data_BaIrO3
_symmetry_space_group_name_H-M   'P 1'
_cell_length_a   5.87314355
_cell_length_b   5.87314355
_cell_length_c   15.21714991
_cell_angle_alpha   78.69447211
_cell_angle_beta   78.69447211
_cell_angle_gamma   59.43675370
_symmetry_Int_Tables_number   1
_chemical_formula_structural   BaIrO3
_chemical_formula_sum   'Ba6 Ir6 O18'
_cell_volume   440.30717886
_cell_formula_units_Z   6
loop_
 _symmetry_equiv_pos_site_id
 _symmetry_equiv_pos_as_xyz
  1  'x, y, z'
loop_
 _atom_site_type_symbol
 _atom_site_label
 _atom_site_symmetry_multiplicity
 _atom_site_fract_x
 _atom_site_fract_y
 _atom_site_fract_z
 _atom_site_occupancy
  Ba  Ba0  1  0.22001200  0.22001200  0.25048600  1
  Ba  Ba1  1  0.77998800  0.77998800  0.74951400  1
  Ba  Ba2  1  0.62877700  0.62877700  0.07435100  1
  Ba  Ba3  1  0.37122300  0.37122300  0.92564900  1
  Ba  Ba4  1  0.84945500  0.84945500  0.42235200  1
  Ba  Ba5  1  0.15054500  0.15054500  0.57764800  1
  Ir  Ir6  1  0.91285100  0.91285100  0.17629800  1
  Ir  Ir7  1  0.08714900  0.08714900  0.82370200  1
  Ir  Ir8  1  0.00000000  0.00000000  0.00000000  1
  Ir  Ir9  1  0.52965400  0.52965400  0.32492400  1
  Ir  Ir10  1  0.47034600  0.47034600  0.67507600  1
  Ir  Ir11  1  0.50000000  0.50000000  0.50000000  1
  O  O12  1  0.70445500  0.70445500  0.22799700  1
  O  O13  1  0.29554500  0.29554500  0.77200300  1
  O  O14  1  0.68893300  0.18905800  0.26363100  1
  O  O15  1  0.81094200  0.31106700  0.73636900  1
  O  O16  1  0.31106700  0.81094200  0.73636900  1
  O  O17  1  0.18905800  0.68893300  0.26363100  1
  O  O18  1  0.10417400  0.10417400  0.10075600  1
  O  O19  1  0.89582600  0.89582600  0.89924400  1
  O  O20  1  0.64629000  0.11831800  0.08253500  1
  O  O21  1  0.88168200  0.35371000  0.91746500  1
  O  O22  1  0.35371000  0.88168200  0.91746500  1
  O  O23  1  0.11831800  0.64629000  0.08253500  1
  O  O24  1  0.36591400  0.82767500  0.40506400  1
  O  O25  1  0.17232500  0.63408600  0.59493600  1
  O  O26  1  0.63408600  0.17232500  0.59493600  1
  O  O27  1  0.82767500  0.36591400  0.40506400  1
  O  O28  1  0.35563700  0.35563700  0.42570000  1
  O  O29  1  0.64436300  0.64436300  0.57430000  1
