# generated using pymatgen
data_Hf2FeCu
_symmetry_space_group_name_H-M   'P 1'
_cell_length_a   11.20764454
_cell_length_b   11.20764454
_cell_length_c   11.20764454
_cell_angle_alpha   129.36187410
_cell_angle_beta   116.90168227
_cell_angle_gamma   85.02753001
_symmetry_Int_Tables_number   1
_chemical_formula_structural   Hf2FeCu
_chemical_formula_sum   'Hf2 Fe1 Cu1'
_cell_volume   928.81263144
_cell_formula_units_Z   1
loop_
 _symmetry_equiv_pos_site_id
 _symmetry_equiv_pos_as_xyz
  1  'x, y, z'
loop_
 _atom_site_type_symbol
 _atom_site_label
 _atom_site_symmetry_multiplicity
 _atom_site_fract_x
 _atom_site_fract_y
 _atom_site_fract_z
 _atom_site_occupancy
  Hf  Hf0  1  0.00000000  0.22234200  0.22234200  1
  Hf  Hf1  1  0.00000000  0.77765800  0.77765800  1
  Fe  Fe2  1  0.00000000  0.00000000  0.00000000  1
  Cu  Cu3  1  0.00000000  0.50000000  0.50000000  1
