# generated using pymatgen
data_Na2NiH12(SO7)2
_symmetry_space_group_name_H-M   'P 1'
_cell_length_a   11.99864600
_cell_length_b   6.01157900
_cell_length_c   8.88197320
_cell_angle_alpha   76.01844686
_cell_angle_beta   90.00000000
_cell_angle_gamma   90.00000000
_symmetry_Int_Tables_number   1
_chemical_formula_structural   Na2NiH12(SO7)2
_chemical_formula_sum   'Na4 Ni2 H24 S4 O28'
_cell_volume   621.68331895
_cell_formula_units_Z   2
loop_
 _symmetry_equiv_pos_site_id
 _symmetry_equiv_pos_as_xyz
  1  'x, y, z'
loop_
 _atom_site_type_symbol
 _atom_site_label
 _atom_site_symmetry_multiplicity
 _atom_site_fract_x
 _atom_site_fract_y
 _atom_site_fract_z
 _atom_site_occupancy
  Na  Na0  1  0.35502200  0.83965500  0.86512100  1
  Na  Na1  1  0.14497800  0.83965500  0.36512100  1
  Na  Na2  1  0.85502200  0.16034500  0.63487900  1
  Na  Na3  1  0.64497800  0.16034500  0.13487900  1
  Ni  Ni4  1  0.00000000  0.50000000  0.00000000  1
  Ni  Ni5  1  0.50000000  0.50000000  0.50000000  1
  H  H6  1  0.12609000  0.59376000  0.74703500  1
  H  H7  1  0.62609000  0.40624000  0.75296500  1
  H  H8  1  0.68953500  0.48819500  0.36003300  1
  H  H9  1  0.41345800  0.82557900  0.28523500  1
  H  H10  1  0.05599200  0.15678500  0.90282800  1
  H  H11  1  0.59886500  0.56521700  0.22835600  1
  H  H12  1  0.55599200  0.84321500  0.59717200  1
  H  H13  1  0.09886500  0.43478300  0.27164400  1
  H  H14  1  0.40113500  0.43478300  0.77164400  1
  H  H15  1  0.81046500  0.48819500  0.86003300  1
  H  H16  1  0.31046500  0.51180500  0.63996700  1
  H  H17  1  0.44400800  0.15678500  0.40282800  1
  H  H18  1  0.18953500  0.51180500  0.13996700  1
  H  H19  1  0.64671000  0.83510800  0.46812300  1
  H  H20  1  0.08654200  0.82557900  0.78523500  1
  H  H21  1  0.91345800  0.17442100  0.21476500  1
  H  H22  1  0.14671000  0.16489200  0.03187700  1
  H  H23  1  0.37391000  0.59376000  0.24703500  1
  H  H24  1  0.35329000  0.16489200  0.53187700  1
  H  H25  1  0.94400800  0.84321500  0.09717200  1
  H  H26  1  0.58654200  0.17442100  0.71476500  1
  H  H27  1  0.85329000  0.83510800  0.96812300  1
  H  H28  1  0.87391000  0.40624000  0.25296500  1
  H  H29  1  0.90113500  0.56521700  0.72835600  1
  S  S30  1  0.86793800  0.77148000  0.41376600  1
  S  S31  1  0.13206200  0.22852000  0.58623400  1
  S  S32  1  0.63206200  0.77148000  0.91376600  1
  S  S33  1  0.36793800  0.22852000  0.08623400  1
  O  O34  1  0.27085600  0.07049300  0.09563100  1
  O  O35  1  0.38567400  0.55097800  0.67246800  1
  O  O36  1  0.07294700  0.25057300  0.43654500  1
  O  O37  1  0.67106700  0.54054900  0.89884800  1
  O  O38  1  0.17106700  0.45945100  0.60115200  1
  O  O39  1  0.43338200  0.19309300  0.50459200  1
  O  O40  1  0.61432600  0.44902200  0.32753200  1
  O  O41  1  0.88389000  0.32920400  0.16703800  1
  O  O42  1  0.44740900  0.12718200  0.21464800  1
  O  O43  1  0.82893300  0.54054900  0.39884800  1
  O  O44  1  0.56661800  0.80690700  0.49540800  1
  O  O45  1  0.22914400  0.07049300  0.59563100  1
  O  O46  1  0.05259100  0.12718200  0.71464800  1
  O  O47  1  0.88567400  0.44902200  0.82753200  1
  O  O48  1  0.55259100  0.87281800  0.78535200  1
  O  O49  1  0.57294700  0.74942700  0.06345500  1
  O  O50  1  0.11611000  0.67079600  0.83296200  1
  O  O51  1  0.61611000  0.32920400  0.66703800  1
  O  O52  1  0.06661800  0.19309300  0.00459200  1
  O  O53  1  0.38389000  0.67079600  0.33296200  1
  O  O54  1  0.72914400  0.92950700  0.90436900  1
  O  O55  1  0.94740900  0.87281800  0.28535200  1
  O  O56  1  0.93338200  0.80690700  0.99540800  1
  O  O57  1  0.42705300  0.25057300  0.93654500  1
  O  O58  1  0.32893300  0.45945100  0.10115200  1
  O  O59  1  0.77085600  0.92950700  0.40436900  1
  O  O60  1  0.92705300  0.74942700  0.56345500  1
  O  O61  1  0.11432600  0.55097800  0.17246800  1
