# generated using pymatgen
data_NdH18C3S3(O2F)9
_symmetry_space_group_name_H-M   'P 1'
_cell_length_a   14.08254276
_cell_length_b   14.08254276
_cell_length_c   7.37334700
_cell_angle_alpha   90.00000000
_cell_angle_beta   90.00000000
_cell_angle_gamma   120.00000357
_symmetry_Int_Tables_number   1
_chemical_formula_structural   NdH18C3S3(O2F)9
_chemical_formula_sum   'Nd2 H36 C6 S6 O36 F18'
_cell_volume   1266.36076391
_cell_formula_units_Z   2
loop_
 _symmetry_equiv_pos_site_id
 _symmetry_equiv_pos_as_xyz
  1  'x, y, z'
loop_
 _atom_site_type_symbol
 _atom_site_label
 _atom_site_symmetry_multiplicity
 _atom_site_fract_x
 _atom_site_fract_y
 _atom_site_fract_z
 _atom_site_occupancy
  Nd  Nd0  1  0.33333300  0.66666700  0.75000000  1
  Nd  Nd1  1  0.66666700  0.33333300  0.25000000  1
  H  H2  1  0.36450600  0.87074200  0.53612300  1
  H  H3  1  0.49376400  0.36450600  0.03612300  1
  H  H4  1  0.87074200  0.50623600  0.03612300  1
  H  H5  1  0.12925800  0.49376400  0.53612300  1
  H  H6  1  0.50623600  0.63549400  0.53612300  1
  H  H7  1  0.63549400  0.12925800  0.03612300  1
  H  H8  1  0.63549400  0.12925800  0.46387700  1
  H  H9  1  0.50623600  0.63549400  0.96387700  1
  H  H10  1  0.12925800  0.49376400  0.96387700  1
  H  H11  1  0.87074200  0.50623600  0.46387700  1
  H  H12  1  0.49376400  0.36450600  0.46387700  1
  H  H13  1  0.36450600  0.87074200  0.96387700  1
  H  H14  1  0.27685600  0.77025200  0.42257300  1
  H  H15  1  0.50660400  0.27685600  0.92257300  1
  H  H16  1  0.77025200  0.49339600  0.92257300  1
  H  H17  1  0.22974800  0.50660400  0.42257300  1
  H  H18  1  0.49339600  0.72314400  0.42257300  1
  H  H19  1  0.72314400  0.22974800  0.92257300  1
  H  H20  1  0.72314400  0.22974800  0.57742700  1
  H  H21  1  0.49339600  0.72314400  0.07742700  1
  H  H22  1  0.22974800  0.50660400  0.07742700  1
  H  H23  1  0.77025200  0.49339600  0.57742700  1
  H  H24  1  0.50660400  0.27685600  0.57742700  1
  H  H25  1  0.27685600  0.77025200  0.07742700  1
  H  H26  1  0.09948400  0.64607300  0.64251600  1
  H  H27  1  0.45341200  0.09948400  0.14251600  1
  H  H28  1  0.64607300  0.54658800  0.14251600  1
  H  H29  1  0.35392700  0.45341200  0.64251600  1
  H  H30  1  0.54658800  0.90051600  0.64251600  1
  H  H31  1  0.90051600  0.35392700  0.14251600  1
  H  H32  1  0.90051600  0.35392700  0.35748400  1
  H  H33  1  0.54658800  0.90051600  0.85748400  1
  H  H34  1  0.35392700  0.45341200  0.85748400  1
  H  H35  1  0.64607300  0.54658800  0.35748400  1
  H  H36  1  0.45341200  0.09948400  0.35748400  1
  H  H37  1  0.09948400  0.64607300  0.85748400  1
  C  C38  1  0.77695300  0.77144200  0.75000000  1
  C  C39  1  0.00551100  0.77695300  0.25000000  1
  C  C40  1  0.77144200  0.99448900  0.25000000  1
  C  C41  1  0.22855800  0.00551100  0.75000000  1
  C  C42  1  0.99448900  0.22304700  0.75000000  1
  C  C43  1  0.22304700  0.22855800  0.25000000  1
  S  S44  1  0.67931300  0.62013700  0.75000000  1
  S  S45  1  0.05917600  0.67931300  0.25000000  1
  S  S46  1  0.62013700  0.94082400  0.25000000  1
  S  S47  1  0.37986300  0.05917600  0.75000000  1
  S  S48  1  0.94082400  0.32068700  0.75000000  1
  S  S49  1  0.32068700  0.37986300  0.25000000  1
  O  O50  1  0.33794900  0.79301000  0.50882900  1
  O  O51  1  0.54493900  0.33794900  0.00882900  1
  O  O52  1  0.79301000  0.45506100  0.00882900  1
  O  O53  1  0.20699000  0.54493900  0.50882900  1
  O  O54  1  0.45506100  0.66205100  0.50882900  1
  O  O55  1  0.66205100  0.20699000  0.00882900  1
  O  O56  1  0.66205100  0.20699000  0.49117100  1
  O  O57  1  0.45506100  0.66205100  0.99117100  1
  O  O58  1  0.20699000  0.54493900  0.99117100  1
  O  O59  1  0.79301000  0.45506100  0.49117100  1
  O  O60  1  0.54493900  0.33794900  0.49117100  1
  O  O61  1  0.33794900  0.79301000  0.99117100  1
  O  O62  1  0.14384500  0.65370300  0.75000000  1
  O  O63  1  0.49014200  0.14384500  0.25000000  1
  O  O64  1  0.65370300  0.50985800  0.25000000  1
  O  O65  1  0.34629700  0.49014200  0.75000000  1
  O  O66  1  0.50985800  0.85615500  0.75000000  1
  O  O67  1  0.85615500  0.34629700  0.25000000  1
  O  O68  1  0.61641800  0.60077200  0.58229600  1
  O  O69  1  0.01564700  0.61641800  0.08229600  1
  O  O70  1  0.60077200  0.98435300  0.08229600  1
  O  O71  1  0.39922800  0.01564700  0.58229600  1
  O  O72  1  0.98435300  0.38358200  0.58229600  1
  O  O73  1  0.38358200  0.39922800  0.08229600  1
  O  O74  1  0.38358200  0.39922800  0.41770400  1
  O  O75  1  0.98435300  0.38358200  0.91770400  1
  O  O76  1  0.39922800  0.01564700  0.91770400  1
  O  O77  1  0.60077200  0.98435300  0.41770400  1
  O  O78  1  0.01564700  0.61641800  0.41770400  1
  O  O79  1  0.61641800  0.60077200  0.91770400  1
  O  O80  1  0.75063800  0.57189400  0.75000000  1
  O  O81  1  0.17874400  0.75063800  0.25000000  1
  O  O82  1  0.57189400  0.82125600  0.25000000  1
  O  O83  1  0.42810600  0.17874400  0.75000000  1
  O  O84  1  0.82125600  0.24936200  0.75000000  1
  O  O85  1  0.24936200  0.42810600  0.25000000  1
  F  F86  1  0.71951600  0.82501800  0.75000000  1
  F  F87  1  0.89449800  0.71951600  0.25000000  1
  F  F88  1  0.82501800  0.10550200  0.25000000  1
  F  F89  1  0.17498200  0.89449800  0.75000000  1
  F  F90  1  0.10550200  0.28048400  0.75000000  1
  F  F91  1  0.28048400  0.17498200  0.25000000  1
  F  F92  1  0.84120800  0.80079700  0.60102800  1
  F  F93  1  0.04041000  0.84120800  0.10102800  1
  F  F94  1  0.80079700  0.95959000  0.10102800  1
  F  F95  1  0.19920300  0.04041000  0.60102800  1
  F  F96  1  0.95959000  0.15879200  0.60102800  1
  F  F97  1  0.15879200  0.19920300  0.10102800  1
  F  F98  1  0.15879200  0.19920300  0.39897200  1
  F  F99  1  0.95959000  0.15879200  0.89897200  1
  F  F100  1  0.19920300  0.04041000  0.89897200  1
  F  F101  1  0.80079700  0.95959000  0.39897200  1
  F  F102  1  0.04041000  0.84120800  0.39897200  1
  F  F103  1  0.84120800  0.80079700  0.89897200  1
