# generated using pymatgen
data_K4CO4
_symmetry_space_group_name_H-M   'P 1'
_cell_length_a   5.40425947
_cell_length_b   5.40425947
_cell_length_c   5.40425950
_cell_angle_alpha   88.92703289
_cell_angle_beta   88.92703289
_cell_angle_gamma   88.92702339
_symmetry_Int_Tables_number   1
_chemical_formula_structural   K4CO4
_chemical_formula_sum   'K4 C1 O4'
_cell_volume   157.75490919
_cell_formula_units_Z   1
loop_
 _symmetry_equiv_pos_site_id
 _symmetry_equiv_pos_as_xyz
  1  'x, y, z'
loop_
 _atom_site_type_symbol
 _atom_site_label
 _atom_site_symmetry_multiplicity
 _atom_site_fract_x
 _atom_site_fract_y
 _atom_site_fract_z
 _atom_site_occupancy
  K  K0  1  0.54588900  0.57676700  0.12242500  1
  K  K1  1  0.12630900  0.12630900  0.12630900  1
  K  K2  1  0.12242500  0.54588900  0.57676700  1
  K  K3  1  0.57676700  0.12242500  0.54588900  1
  C  C4  1  0.84888900  0.84888900  0.84888900  1
  O  O5  1  0.99825600  0.69059300  0.00932000  1
  O  O6  1  0.00932000  0.99825600  0.69059300  1
  O  O7  1  0.69671200  0.69671200  0.69671200  1
  O  O8  1  0.69059300  0.00932000  0.99825600  1
