# generated using pymatgen
data_TiGeRh2
_symmetry_space_group_name_H-M   'P 1'
_cell_length_a   9.98209687
_cell_length_b   9.98209687
_cell_length_c   9.98209687
_cell_angle_alpha   127.08132171
_cell_angle_beta   117.33379517
_cell_angle_gamma   86.43840358
_symmetry_Int_Tables_number   1
_chemical_formula_structural   TiGeRh2
_chemical_formula_sum   'Ti1 Ge1 Rh2'
_cell_volume   671.76923458
_cell_formula_units_Z   1
loop_
 _symmetry_equiv_pos_site_id
 _symmetry_equiv_pos_as_xyz
  1  'x, y, z'
loop_
 _atom_site_type_symbol
 _atom_site_label
 _atom_site_symmetry_multiplicity
 _atom_site_fract_x
 _atom_site_fract_y
 _atom_site_fract_z
 _atom_site_occupancy
  Ti  Ti0  1  0.00000000  0.00000000  0.00000000  1
  Ge  Ge1  1  0.00000000  0.50000000  0.50000000  1
  Rh  Rh2  1  0.00000000  0.23204400  0.23204400  1
  Rh  Rh3  1  0.00000000  0.76795600  0.76795600  1
