# generated using pymatgen
data_WO3
_symmetry_space_group_name_H-M   'P 1'
_cell_length_a   7.50815615
_cell_length_b   7.50815615
_cell_length_c   3.86255300
_cell_angle_alpha   90.00000000
_cell_angle_beta   90.00000000
_cell_angle_gamma   120.00000129
_symmetry_Int_Tables_number   1
_chemical_formula_structural   WO3
_chemical_formula_sum   'W3 O9'
_cell_volume   188.56959560
_cell_formula_units_Z   3
loop_
 _symmetry_equiv_pos_site_id
 _symmetry_equiv_pos_as_xyz
  1  'x, y, z'
loop_
 _atom_site_type_symbol
 _atom_site_label
 _atom_site_symmetry_multiplicity
 _atom_site_fract_x
 _atom_site_fract_y
 _atom_site_fract_z
 _atom_site_occupancy
  W  W0  1  0.00000000  0.50000000  0.00000000  1
  W  W1  1  0.50000000  0.00000000  0.00000000  1
  W  W2  1  0.50000000  0.50000000  0.00000000  1
  O  O3  1  0.78607200  0.21392800  0.00000000  1
  O  O4  1  0.78607200  0.57214400  0.00000000  1
  O  O5  1  0.21392800  0.78607200  0.00000000  1
  O  O6  1  0.57214400  0.78607200  0.00000000  1
  O  O7  1  0.50000000  0.00000000  0.50000000  1
  O  O8  1  0.50000000  0.50000000  0.50000000  1
  O  O9  1  0.00000000  0.50000000  0.50000000  1
  O  O10  1  0.42785600  0.21392800  0.00000000  1
  O  O11  1  0.21392800  0.42785600  0.00000000  1
