# generated using pymatgen
data_Cr3O8
_symmetry_space_group_name_H-M   'P 1'
_cell_length_a   5.64671871
_cell_length_b   5.64671871
_cell_length_c   7.12450694
_cell_angle_alpha   54.22523501
_cell_angle_beta   54.22523501
_cell_angle_gamma   60.53496097
_symmetry_Int_Tables_number   1
_chemical_formula_structural   Cr3O8
_chemical_formula_sum   'Cr3 O8'
_cell_volume   145.59014655
_cell_formula_units_Z   1
loop_
 _symmetry_equiv_pos_site_id
 _symmetry_equiv_pos_as_xyz
  1  'x, y, z'
loop_
 _atom_site_type_symbol
 _atom_site_label
 _atom_site_symmetry_multiplicity
 _atom_site_fract_x
 _atom_site_fract_y
 _atom_site_fract_z
 _atom_site_occupancy
  Cr  Cr0  1  0.77183700  0.77183700  0.12452400  1
  Cr  Cr1  1  0.22816300  0.22816300  0.87547600  1
  Cr  Cr2  1  0.50000000  0.50000000  0.00000000  1
  O  O3  1  0.55951100  0.06131600  0.21226100  1
  O  O4  1  0.06131600  0.55951100  0.21226100  1
  O  O5  1  0.44048900  0.93868400  0.78773900  1
  O  O6  1  0.93868400  0.44048900  0.78773900  1
  O  O7  1  0.92211900  0.92211900  0.82333500  1
  O  O8  1  0.07788100  0.07788100  0.17666500  1
  O  O9  1  0.44436900  0.44436900  0.78651000  1
  O  O10  1  0.55563100  0.55563100  0.21349000  1
