# generated using pymatgen
data_Ca2CuO3
_symmetry_space_group_name_H-M   'P 1'
_cell_length_a   9.35112298
_cell_length_b   9.35112298
_cell_length_c   9.35112298
_cell_angle_alpha   159.59616736
_cell_angle_beta   159.11939418
_cell_angle_gamma   29.35678266
_symmetry_Int_Tables_number   1
_chemical_formula_structural   Ca2CuO3
_chemical_formula_sum   'Ca2 Cu1 O3'
_cell_volume   101.55171730
_cell_formula_units_Z   1
loop_
 _symmetry_equiv_pos_site_id
 _symmetry_equiv_pos_as_xyz
  1  'x, y, z'
loop_
 _atom_site_type_symbol
 _atom_site_label
 _atom_site_symmetry_multiplicity
 _atom_site_fract_x
 _atom_site_fract_y
 _atom_site_fract_z
 _atom_site_occupancy
  Ca  Ca0  1  0.68219400  0.18219400  0.50000000  1
  Ca  Ca1  1  0.31780600  0.81780600  0.50000000  1
  Cu  Cu2  1  0.50000000  0.00000000  0.50000000  1
  O  O3  1  0.00000000  0.00000000  0.00000000  1
  O  O4  1  0.81102100  0.31102100  0.50000000  1
  O  O5  1  0.18897900  0.68897900  0.50000000  1
