# generated using pymatgen
data_KNO2
_symmetry_space_group_name_H-M   'P 1'
_cell_length_a   4.27756245
_cell_length_b   4.27756245
_cell_length_c   4.19042131
_cell_angle_alpha   76.67814978
_cell_angle_beta   76.67814978
_cell_angle_gamma   85.54657413
_symmetry_Int_Tables_number   1
_chemical_formula_structural   KNO2
_chemical_formula_sum   'K1 N1 O2'
_cell_volume   72.57905519
_cell_formula_units_Z   1
loop_
 _symmetry_equiv_pos_site_id
 _symmetry_equiv_pos_as_xyz
  1  'x, y, z'
loop_
 _atom_site_type_symbol
 _atom_site_label
 _atom_site_symmetry_multiplicity
 _atom_site_fract_x
 _atom_site_fract_y
 _atom_site_fract_z
 _atom_site_occupancy
  K  K0  1  0.00266400  0.00266400  0.94522500  1
  N  N1  1  0.50432300  0.50432300  0.55836000  1
  O  O2  1  0.39502700  0.76628300  0.40130900  1
  O  O3  1  0.76628300  0.39502700  0.40130900  1
