# generated using pymatgen
data_Rb4CO4
_symmetry_space_group_name_H-M   'P 1'
_cell_length_a   6.91220458
_cell_length_b   6.91220458
_cell_length_c   6.91220458
_cell_angle_alpha   99.45507647
_cell_angle_beta   99.45507647
_cell_angle_gamma   132.17919216
_symmetry_Int_Tables_number   1
_chemical_formula_structural   Rb4CO4
_chemical_formula_sum   'Rb4 C1 O4'
_cell_volume   223.73208634
_cell_formula_units_Z   1
loop_
 _symmetry_equiv_pos_site_id
 _symmetry_equiv_pos_as_xyz
  1  'x, y, z'
loop_
 _atom_site_type_symbol
 _atom_site_label
 _atom_site_symmetry_multiplicity
 _atom_site_fract_x
 _atom_site_fract_y
 _atom_site_fract_z
 _atom_site_occupancy
  Rb  Rb0  1  0.17061200  0.51767000  0.00000000  1
  Rb  Rb1  1  0.48233000  0.48233000  0.65294100  1
  Rb  Rb2  1  0.51767000  0.17061200  0.00000000  1
  Rb  Rb3  1  0.82938800  0.82938800  0.34705900  1
  C  C4  1  0.00000000  0.00000000  0.00000000  1
  O  O5  1  0.23995400  0.23995400  0.18892300  1
  O  O6  1  0.94897000  0.76004600  0.00000000  1
  O  O7  1  0.05103000  0.05103000  0.81107700  1
  O  O8  1  0.76004600  0.94897000  0.00000000  1
