# generated using pymatgen
data_Na3SO4F
_symmetry_space_group_name_H-M   'P 1'
_cell_length_a   5.76033500
_cell_length_b   5.76033500
_cell_length_c   5.76033500
_cell_angle_alpha   90.00000000
_cell_angle_beta   90.00000000
_cell_angle_gamma   90.00000000
_symmetry_Int_Tables_number   1
_chemical_formula_structural   Na3SO4F
_chemical_formula_sum   'Na3 S1 O4 F1'
_cell_volume   191.13632143
_cell_formula_units_Z   1
loop_
 _symmetry_equiv_pos_site_id
 _symmetry_equiv_pos_as_xyz
  1  'x, y, z'
loop_
 _atom_site_type_symbol
 _atom_site_label
 _atom_site_symmetry_multiplicity
 _atom_site_fract_x
 _atom_site_fract_y
 _atom_site_fract_z
 _atom_site_occupancy
  Na  Na0  1  0.00000000  0.50000000  0.00000000  1
  Na  Na1  1  0.00000000  0.00000000  0.50000000  1
  Na  Na2  1  0.50000000  0.00000000  0.00000000  1
  S  S3  1  0.00000000  0.00000000  0.00000000  1
  O  O4  1  0.14881800  0.85118200  0.14881800  1
  O  O5  1  0.85118200  0.14881800  0.14881800  1
  O  O6  1  0.14881800  0.14881800  0.85118200  1
  O  O7  1  0.85118200  0.85118200  0.85118200  1
  F  F8  1  0.50000000  0.50000000  0.50000000  1
