# generated using pymatgen
data_NaW2(Br3O)2
_symmetry_space_group_name_H-M   'P 1'
_cell_length_a   3.81746721
_cell_length_b   9.03725928
_cell_length_c   9.03724348
_cell_angle_alpha   71.26382066
_cell_angle_beta   77.80687555
_cell_angle_gamma   77.80689971
_symmetry_Int_Tables_number   1
_chemical_formula_structural   NaW2(Br3O)2
_chemical_formula_sum   'Na1 W2 Br6 O2'
_cell_volume   285.11477320
_cell_formula_units_Z   1
loop_
 _symmetry_equiv_pos_site_id
 _symmetry_equiv_pos_as_xyz
  1  'x, y, z'
loop_
 _atom_site_type_symbol
 _atom_site_label
 _atom_site_symmetry_multiplicity
 _atom_site_fract_x
 _atom_site_fract_y
 _atom_site_fract_z
 _atom_site_occupancy
  Na  Na0  1  0.50000000  0.50006600  0.49993300  1
  W  W1  1  0.00000000  0.13862900  0.86137100  1
  W  W2  1  0.00000000  0.86132400  0.13867600  1
  Br  Br3  1  0.12128800  0.20043300  0.55699100  1
  Br  Br4  1  0.85220700  0.14778500  0.14780200  1
  Br  Br5  1  0.87871200  0.44300800  0.79956800  1
  Br  Br6  1  0.87868100  0.79961300  0.44302500  1
  Br  Br7  1  0.12131800  0.55697600  0.20038700  1
  Br  Br8  1  0.14779300  0.85219900  0.85221500  1
  O  O9  1  0.50000000  0.86184200  0.13815800  1
  O  O10  1  0.50000000  0.13812500  0.86187500  1
