# generated using pymatgen
data_ErTaO4
_symmetry_space_group_name_H-M   'P 1'
_cell_length_a   6.51893182
_cell_length_b   6.51893182
_cell_length_c   5.08240187
_cell_angle_alpha   69.43926800
_cell_angle_beta   69.43926800
_cell_angle_gamma   115.02731211
_symmetry_Int_Tables_number   1
_chemical_formula_structural   ErTaO4
_chemical_formula_sum   'Er2 Ta2 O8'
_cell_volume   148.06911465
_cell_formula_units_Z   2
loop_
 _symmetry_equiv_pos_site_id
 _symmetry_equiv_pos_as_xyz
  1  'x, y, z'
loop_
 _atom_site_type_symbol
 _atom_site_label
 _atom_site_symmetry_multiplicity
 _atom_site_fract_x
 _atom_site_fract_y
 _atom_site_fract_z
 _atom_site_occupancy
  Er  Er0  1  0.63142100  0.36857900  0.75000000  1
  Er  Er1  1  0.36857900  0.63142100  0.25000000  1
  Ta  Ta2  1  0.10219300  0.89780700  0.75000000  1
  Ta  Ta3  1  0.89780700  0.10219300  0.25000000  1
  O  O4  1  0.78574100  0.72256200  0.21539600  1
  O  O5  1  0.27743800  0.21425900  0.28460400  1
  O  O6  1  0.21425900  0.27743800  0.78460400  1
  O  O7  1  0.72256200  0.78574100  0.71539600  1
  O  O8  1  0.36905500  0.94876200  0.84081900  1
  O  O9  1  0.05123800  0.63094500  0.65918100  1
  O  O10  1  0.63094500  0.05123800  0.15918100  1
  O  O11  1  0.94876200  0.36905500  0.34081900  1
