# generated using pymatgen
data_GdTe2ClO5
_symmetry_space_group_name_H-M   'P 1'
_cell_length_a   3.94193500
_cell_length_b   3.94193500
_cell_length_c   8.54454400
_cell_angle_alpha   90.00000000
_cell_angle_beta   90.00000000
_cell_angle_gamma   90.00000000
_symmetry_Int_Tables_number   1
_chemical_formula_structural   GdTe2ClO5
_chemical_formula_sum   'Gd1 Te2 Cl1 O5'
_cell_volume   132.77240073
_cell_formula_units_Z   1
loop_
 _symmetry_equiv_pos_site_id
 _symmetry_equiv_pos_as_xyz
  1  'x, y, z'
loop_
 _atom_site_type_symbol
 _atom_site_label
 _atom_site_symmetry_multiplicity
 _atom_site_fract_x
 _atom_site_fract_y
 _atom_site_fract_z
 _atom_site_occupancy
  Gd  Gd0  1  0.00000000  0.00000000  0.00000000  1
  Te  Te1  1  0.50000000  0.50000000  0.74159200  1
  Te  Te2  1  0.50000000  0.50000000  0.25840800  1
  Cl  Cl3  1  0.00000000  0.00000000  0.50000000  1
  O  O4  1  0.50000000  0.00000000  0.18067300  1
  O  O5  1  0.00000000  0.50000000  0.18067300  1
  O  O6  1  0.00000000  0.50000000  0.81932700  1
  O  O7  1  0.50000000  0.50000000  0.00000000  1
  O  O8  1  0.50000000  0.00000000  0.81932700  1
