# generated using pymatgen
data_ScSi2Tc
_symmetry_space_group_name_H-M   'P 1'
_cell_length_a   10.46736582
_cell_length_b   10.46736582
_cell_length_c   10.46736582
_cell_angle_alpha   125.16921391
_cell_angle_beta   118.21051452
_cell_angle_gamma   87.20826711
_symmetry_Int_Tables_number   1
_chemical_formula_structural   ScSi2Tc
_chemical_formula_sum   'Sc1 Si2 Tc1'
_cell_volume   785.35168791
_cell_formula_units_Z   1
loop_
 _symmetry_equiv_pos_site_id
 _symmetry_equiv_pos_as_xyz
  1  'x, y, z'
loop_
 _atom_site_type_symbol
 _atom_site_label
 _atom_site_symmetry_multiplicity
 _atom_site_fract_x
 _atom_site_fract_y
 _atom_site_fract_z
 _atom_site_occupancy
  Sc  Sc0  1  0.00000000  0.00000000  0.00000000  1
  Si  Si1  1  0.00000000  0.25975200  0.25975200  1
  Si  Si2  1  0.00000000  0.74024800  0.74024800  1
  Tc  Tc3  1  0.00000000  0.50000000  0.50000000  1
