# generated using pymatgen
data_BaCo2(PO4)2
_symmetry_space_group_name_H-M   'P 1'
_cell_length_a   4.76793200
_cell_length_b   4.87179358
_cell_length_c   8.51757218
_cell_angle_alpha   90.40854108
_cell_angle_beta   106.11460837
_cell_angle_gamma   119.22424643
_symmetry_Int_Tables_number   1
_chemical_formula_structural   BaCo2(PO4)2
_chemical_formula_sum   'Ba1 Co2 P2 O8'
_cell_volume   163.46357684
_cell_formula_units_Z   1
loop_
 _symmetry_equiv_pos_site_id
 _symmetry_equiv_pos_as_xyz
  1  'x, y, z'
loop_
 _atom_site_type_symbol
 _atom_site_label
 _atom_site_symmetry_multiplicity
 _atom_site_fract_x
 _atom_site_fract_y
 _atom_site_fract_z
 _atom_site_occupancy
  Ba  Ba0  1  0.00000000  0.00000000  0.00000000  1
  Co  Co1  1  0.32754900  0.14922700  0.50506900  1
  Co  Co2  1  0.67245100  0.85077300  0.49493100  1
  P  P3  1  0.14317800  0.57103200  0.71881600  1
  P  P4  1  0.85682200  0.42896800  0.28118400  1
  O  O5  1  0.91179700  0.14917400  0.34133100  1
  O  O6  1  0.27478800  0.63547100  0.90866900  1
  O  O7  1  0.72521200  0.36452900  0.09133100  1
  O  O8  1  0.59536900  0.44485800  0.35136100  1
  O  O9  1  0.08820300  0.85082600  0.65866900  1
  O  O10  1  0.79762400  0.24354100  0.65967800  1
  O  O11  1  0.20237600  0.75645900  0.34032200  1
  O  O12  1  0.40463100  0.55514200  0.64863900  1
