# generated using pymatgen
data_BeHPt2
_symmetry_space_group_name_H-M   'P 1'
_cell_length_a   7.53081516
_cell_length_b   8.82909623
_cell_length_c   8.82909674
_cell_angle_alpha   62.01615354
_cell_angle_beta   64.75580213
_cell_angle_gamma   64.75580943
_symmetry_Int_Tables_number   1
_chemical_formula_structural   BeHPt2
_chemical_formula_sum   'Be1 H1 Pt2'
_cell_volume   449.67804694
_cell_formula_units_Z   1
loop_
 _symmetry_equiv_pos_site_id
 _symmetry_equiv_pos_as_xyz
  1  'x, y, z'
loop_
 _atom_site_type_symbol
 _atom_site_label
 _atom_site_symmetry_multiplicity
 _atom_site_fract_x
 _atom_site_fract_y
 _atom_site_fract_z
 _atom_site_occupancy
  Be  Be0  1  0.50000000  0.00000000  0.00000000  1
  H  H1  1  0.00000000  0.00000000  0.00000000  1
  Pt  Pt2  1  0.77565800  0.00000000  0.00000000  1
  Pt  Pt3  1  0.22434200  0.00000000  0.00000000  1
