# generated using pymatgen
data_Sr2MnCu2(SO)2
_symmetry_space_group_name_H-M   'P 1'
_cell_length_a   5.81867550
_cell_length_b   5.81866287
_cell_length_c   9.25203861
_cell_angle_alpha   90.00200348
_cell_angle_beta   71.67606279
_cell_angle_gamma   90.00111477
_symmetry_Int_Tables_number   1
_chemical_formula_structural   Sr2MnCu2(SO)2
_chemical_formula_sum   'Sr4 Mn2 Cu4 S4 O4'
_cell_volume   297.36209212
_cell_formula_units_Z   2
loop_
 _symmetry_equiv_pos_site_id
 _symmetry_equiv_pos_as_xyz
  1  'x, y, z'
loop_
 _atom_site_type_symbol
 _atom_site_label
 _atom_site_symmetry_multiplicity
 _atom_site_fract_x
 _atom_site_fract_y
 _atom_site_fract_z
 _atom_site_occupancy
  Sr  Sr0  1  0.40705100  0.00001900  0.18590100  1
  Sr  Sr1  1  0.90704800  0.50001700  0.18590800  1
  Sr  Sr2  1  0.09295500  0.49999900  0.81408500  1
  Sr  Sr3  1  0.59295300  0.99999900  0.81409200  1
  Mn  Mn4  1  0.49993700  0.50005900  0.00009500  1
  Mn  Mn5  1  0.99996400  0.00005800  0.00007500  1
  Cu  Cu6  1  0.49996700  0.25001000  0.50001500  1
  Cu  Cu7  1  0.99996700  0.75000800  0.50001500  1
  Cu  Cu8  1  0.00002800  0.24999500  0.49997700  1
  Cu  Cu9  1  0.50002800  0.74999400  0.49997700  1
  S  S10  1  0.17462800  0.99998000  0.65081300  1
  S  S11  1  0.67462700  0.49998500  0.65081200  1
  S  S12  1  0.32539900  0.50000000  0.34913300  1
  S  S13  1  0.82539900  0.99999500  0.34913200  1
  O  O14  1  0.25007300  0.74997200  0.99999300  1
  O  O15  1  0.75010300  0.24994400  0.99999200  1
  O  O16  1  0.74995000  0.74999600  0.99999300  1
  O  O17  1  0.24992100  0.24997000  0.99999300  1
