# generated using pymatgen
data_Nb2ReTc
_symmetry_space_group_name_H-M   'P 1'
_cell_length_a   10.40454911
_cell_length_b   10.40454911
_cell_length_c   10.40454911
_cell_angle_alpha   128.89255741
_cell_angle_beta   115.64900164
_cell_angle_gamma   86.51892583
_symmetry_Int_Tables_number   1
_chemical_formula_structural   Nb2ReTc
_chemical_formula_sum   'Nb2 Re1 Tc1'
_cell_volume   753.67359545
_cell_formula_units_Z   1
loop_
 _symmetry_equiv_pos_site_id
 _symmetry_equiv_pos_as_xyz
  1  'x, y, z'
loop_
 _atom_site_type_symbol
 _atom_site_label
 _atom_site_symmetry_multiplicity
 _atom_site_fract_x
 _atom_site_fract_y
 _atom_site_fract_z
 _atom_site_occupancy
  Nb  Nb0  1  0.00000000  0.24693400  0.24693400  1
  Nb  Nb1  1  0.00000000  0.75306600  0.75306600  1
  Re  Re2  1  0.00000000  0.50000000  0.50000000  1
  Tc  Tc3  1  0.00000000  0.00000000  0.00000000  1
