# generated using pymatgen
data_Ce4Se3O4
_symmetry_space_group_name_H-M   'P 1'
_cell_length_a   6.63030874
_cell_length_b   6.63030874
_cell_length_c   8.60951800
_cell_angle_alpha   90.00000000
_cell_angle_beta   90.00000000
_cell_angle_gamma   145.33102936
_symmetry_Int_Tables_number   1
_chemical_formula_structural   Ce4Se3O4
_chemical_formula_sum   'Ce4 Se3 O4'
_cell_volume   215.29405518
_cell_formula_units_Z   1
loop_
 _symmetry_equiv_pos_site_id
 _symmetry_equiv_pos_as_xyz
  1  'x, y, z'
loop_
 _atom_site_type_symbol
 _atom_site_label
 _atom_site_symmetry_multiplicity
 _atom_site_fract_x
 _atom_site_fract_y
 _atom_site_fract_z
 _atom_site_occupancy
  Ce  Ce0  1  0.31236200  0.68763800  0.23923800  1
  Ce  Ce1  1  0.98894800  0.01105200  0.50000000  1
  Ce  Ce2  1  0.00247800  0.99752200  0.00000000  1
  Ce  Ce3  1  0.31236200  0.68763800  0.76076100  1
  Se  Se4  1  0.63622800  0.36377200  0.66767900  1
  Se  Se5  1  0.63622800  0.36377200  0.33232100  1
  Se  Se6  1  0.69325000  0.30675000  0.00000000  1
  O  O7  1  0.41232200  0.58767800  0.00000000  1
  O  O8  1  0.91040100  0.08959900  0.75319700  1
  O  O9  1  0.91040100  0.08959900  0.24680300  1
  O  O10  1  0.38291200  0.61708800  0.50000000  1
