# generated using pymatgen
data_CsClO2
_symmetry_space_group_name_H-M   'P 1'
_cell_length_a   4.81287766
_cell_length_b   4.81287766
_cell_length_c   8.57359500
_cell_angle_alpha   90.00000000
_cell_angle_beta   90.00000000
_cell_angle_gamma   90.63910572
_symmetry_Int_Tables_number   1
_chemical_formula_structural   CsClO2
_chemical_formula_sum   'Cs2 Cl2 O4'
_cell_volume   198.58461091
_cell_formula_units_Z   2
loop_
 _symmetry_equiv_pos_site_id
 _symmetry_equiv_pos_as_xyz
  1  'x, y, z'
loop_
 _atom_site_type_symbol
 _atom_site_label
 _atom_site_symmetry_multiplicity
 _atom_site_fract_x
 _atom_site_fract_y
 _atom_site_fract_z
 _atom_site_occupancy
  Cs  Cs0  1  0.50000000  0.50000000  0.00000000  1
  Cs  Cs1  1  0.50000000  0.50000000  0.50000000  1
  Cl  Cl2  1  0.97582400  0.02417600  0.75000000  1
  Cl  Cl3  1  0.02417600  0.97582400  0.25000000  1
  O  O4  1  0.65123900  0.96500800  0.75000000  1
  O  O5  1  0.03499200  0.34876100  0.75000000  1
  O  O6  1  0.96500800  0.65123900  0.25000000  1
  O  O7  1  0.34876100  0.03499200  0.25000000  1
