# generated using pymatgen
data_Mn2AlTc
_symmetry_space_group_name_H-M   'P 1'
_cell_length_a   10.25625968
_cell_length_b   10.25625968
_cell_length_c   10.25625968
_cell_angle_alpha   123.01254983
_cell_angle_beta   119.71103072
_cell_angle_gamma   87.68183288
_symmetry_Int_Tables_number   1
_chemical_formula_structural   Mn2AlTc
_chemical_formula_sum   'Mn2 Al1 Tc1'
_cell_volume   745.69120536
_cell_formula_units_Z   1
loop_
 _symmetry_equiv_pos_site_id
 _symmetry_equiv_pos_as_xyz
  1  'x, y, z'
loop_
 _atom_site_type_symbol
 _atom_site_label
 _atom_site_symmetry_multiplicity
 _atom_site_fract_x
 _atom_site_fract_y
 _atom_site_fract_z
 _atom_site_occupancy
  Mn  Mn0  1  0.00000000  0.25894000  0.25894000  1
  Mn  Mn1  1  0.00000000  0.74106000  0.74106000  1
  Al  Al2  1  0.00000000  0.00000000  0.00000000  1
  Tc  Tc3  1  0.00000000  0.50000000  0.50000000  1
