# generated using pymatgen
data_ThV4O12
_symmetry_space_group_name_H-M   'P 1'
_cell_length_a   8.72269600
_cell_length_b   8.72269600
_cell_length_c   15.97635807
_cell_angle_alpha   105.84212541
_cell_angle_beta   105.84212541
_cell_angle_gamma   90.00000000
_symmetry_Int_Tables_number   1
_chemical_formula_structural   ThV4O12
_chemical_formula_sum   'Th4 V16 O48'
_cell_volume   1121.32805587
_cell_formula_units_Z   4
loop_
 _symmetry_equiv_pos_site_id
 _symmetry_equiv_pos_as_xyz
  1  'x, y, z'
loop_
 _atom_site_type_symbol
 _atom_site_label
 _atom_site_symmetry_multiplicity
 _atom_site_fract_x
 _atom_site_fract_y
 _atom_site_fract_z
 _atom_site_occupancy
  Th  Th0  1  0.00044200  0.50044200  0.00088300  1
  Th  Th1  1  0.75044200  0.75044200  0.50088300  1
  Th  Th2  1  0.24955800  0.24955800  0.49911700  1
  Th  Th3  1  0.49955800  0.99955800  0.99911700  1
  V  V4  1  0.03110000  0.53535400  0.35031500  1
  V  V5  1  0.56848300  0.56732200  0.85077900  1
  V  V6  1  0.93078500  0.93504000  0.14968500  1
  V  V7  1  0.43267800  0.71770400  0.14922100  1
  V  V8  1  0.68151700  0.18267800  0.64922100  1
  V  V9  1  0.28229600  0.28345700  0.85077900  1
  V  V10  1  0.71654300  0.43151700  0.14922100  1
  V  V11  1  0.96770400  0.46654300  0.64922100  1
  V  V12  1  0.06496000  0.78110000  0.85031500  1
  V  V13  1  0.31921500  0.81496000  0.35031500  1
  V  V14  1  0.53345700  0.31848300  0.35077900  1
  V  V15  1  0.81732200  0.03229600  0.35077900  1
  V  V16  1  0.21890000  0.21464600  0.14968500  1
  V  V17  1  0.78535400  0.06921500  0.85031500  1
  V  V18  1  0.18504000  0.96890000  0.64968500  1
  V  V19  1  0.46464600  0.68078500  0.64968500  1
  O  O20  1  0.77577900  0.96915000  0.07080500  1
  O  O21  1  0.05834300  0.62092300  0.75118100  1
  O  O22  1  0.87092300  0.44283800  0.25118100  1
  O  O23  1  0.24792700  0.87973500  0.89067400  1
  O  O24  1  0.61515700  0.24991300  0.10906500  1
  O  O25  1  0.29502600  0.10165500  0.07080500  1
  O  O26  1  0.63484300  0.50008700  0.39093500  1
  O  O27  1  0.45104000  0.28886400  0.42843500  1
  O  O28  1  0.08782800  0.08782800  0.17565600  1
  O  O29  1  0.58540400  0.58540400  0.17080900  1
  O  O30  1  0.49991300  0.24390800  0.60906500  1
  O  O31  1  0.37907700  0.30716200  0.24881900  1
  O  O32  1  0.95497400  0.64834500  0.42919500  1
  O  O33  1  0.71113600  0.02260500  0.57156500  1
  O  O34  1  0.97739500  0.13957100  0.42843500  1
  O  O35  1  0.33782800  0.83782800  0.67565600  1
  O  O36  1  0.55716200  0.61974200  0.74881900  1
  O  O37  1  0.03085000  0.70497400  0.92919500  1
  O  O38  1  0.49390800  0.85915200  0.10906500  1
  O  O39  1  0.21915000  0.04502600  0.57080500  1
  O  O40  1  0.47422100  0.78085000  0.42919500  1
  O  O41  1  0.60725300  0.73906100  0.60932600  1
  O  O42  1  0.16217200  0.66217200  0.32434400  1
  O  O43  1  0.89834500  0.22422100  0.92919500  1
  O  O44  1  0.98906100  0.75207300  0.10932600  1
  O  O45  1  0.53886400  0.72739500  0.92843500  1
  O  O46  1  0.00207300  0.87026500  0.60932600  1
  O  O47  1  0.26093900  0.99792700  0.39067400  1
  O  O48  1  0.10915200  0.36515700  0.60906500  1
  O  O49  1  0.83540400  0.33540400  0.67080900  1
  O  O50  1  0.35165500  0.52577900  0.57080500  1
  O  O51  1  0.86974200  0.94165700  0.24881900  1
  O  O52  1  0.79896000  0.46113600  0.07156500  1
  O  O53  1  0.66459600  0.16459600  0.32919100  1
  O  O54  1  0.12026500  0.35725300  0.10932600  1
  O  O55  1  0.41459600  0.41459600  0.82919100  1
  O  O56  1  0.19165700  0.12907700  0.74881900  1
  O  O57  1  0.75008700  0.50609200  0.89093500  1
  O  O58  1  0.75609200  0.89084800  0.39093500  1
  O  O59  1  0.69283800  0.13025800  0.75118100  1
  O  O60  1  0.27260500  0.61042900  0.07156500  1
  O  O61  1  0.64274700  0.01093900  0.89067400  1
  O  O62  1  0.14084800  0.38484300  0.89093500  1
  O  O63  1  0.38025800  0.80834300  0.25118100  1
  O  O64  1  0.91217200  0.91217200  0.82434400  1
  O  O65  1  0.38957100  0.20104000  0.92843500  1
  O  O66  1  0.12973500  0.39274700  0.39067400  1
  O  O67  1  0.86042900  0.54896000  0.57156500  1
