# generated using pymatgen
data_Ti2BeTc
_symmetry_space_group_name_H-M   'P 1'
_cell_length_a   11.77242790
_cell_length_b   11.77242790
_cell_length_c   11.77242790
_cell_angle_alpha   132.37509284
_cell_angle_beta   117.86174424
_cell_angle_gamma   81.87570956
_symmetry_Int_Tables_number   1
_chemical_formula_structural   Ti2BeTc
_chemical_formula_sum   'Ti2 Be1 Tc1'
_cell_volume   1027.21996517
_cell_formula_units_Z   1
loop_
 _symmetry_equiv_pos_site_id
 _symmetry_equiv_pos_as_xyz
  1  'x, y, z'
loop_
 _atom_site_type_symbol
 _atom_site_label
 _atom_site_symmetry_multiplicity
 _atom_site_fract_x
 _atom_site_fract_y
 _atom_site_fract_z
 _atom_site_occupancy
  Ti  Ti0  1  0.00000000  0.27744000  0.27744000  1
  Ti  Ti1  1  0.00000000  0.72256000  0.72256000  1
  Be  Be2  1  0.00000000  0.00000000  0.00000000  1
  Tc  Tc3  1  0.00000000  0.50000000  0.50000000  1
