# generated using pymatgen
data_CaInPd2
_symmetry_space_group_name_H-M   'P 1'
_cell_length_a   11.87147496
_cell_length_b   11.87147496
_cell_length_c   11.87147496
_cell_angle_alpha   129.22771361
_cell_angle_beta   116.77448256
_cell_angle_gamma   85.24564039
_symmetry_Int_Tables_number   1
_chemical_formula_structural   CaInPd2
_chemical_formula_sum   'Ca1 In1 Pd2'
_cell_volume   1106.61646967
_cell_formula_units_Z   1
loop_
 _symmetry_equiv_pos_site_id
 _symmetry_equiv_pos_as_xyz
  1  'x, y, z'
loop_
 _atom_site_type_symbol
 _atom_site_label
 _atom_site_symmetry_multiplicity
 _atom_site_fract_x
 _atom_site_fract_y
 _atom_site_fract_z
 _atom_site_occupancy
  Ca  Ca0  1  0.00000000  0.00000000  0.00000000  1
  In  In1  1  0.00000000  0.50000000  0.50000000  1
  Pd  Pd2  1  0.00000000  0.24611100  0.24611100  1
  Pd  Pd3  1  0.00000000  0.75388900  0.75388900  1
