# generated using pymatgen
data_RbLaNb2O7
_symmetry_space_group_name_H-M   'P 1'
_cell_length_a   11.92921406
_cell_length_b   11.92921406
_cell_length_c   11.92921406
_cell_angle_alpha   153.09975397
_cell_angle_beta   152.92488190
_cell_angle_gamma   38.53698656
_symmetry_Int_Tables_number   1
_chemical_formula_structural   RbLaNb2O7
_chemical_formula_sum   'Rb2 La2 Nb4 O14'
_cell_volume   349.00875404
_cell_formula_units_Z   2
loop_
 _symmetry_equiv_pos_site_id
 _symmetry_equiv_pos_as_xyz
  1  'x, y, z'
loop_
 _atom_site_type_symbol
 _atom_site_label
 _atom_site_symmetry_multiplicity
 _atom_site_fract_x
 _atom_site_fract_y
 _atom_site_fract_z
 _atom_site_occupancy
  Rb  Rb0  1  0.50000000  0.50000000  0.00000000  1
  Rb  Rb1  1  0.00000000  0.00000000  0.00000000  1
  La  La2  1  0.76450300  0.75000000  0.01450300  1
  La  La3  1  0.23549700  0.25000000  0.98549700  1
  Nb  Nb4  1  0.15170900  0.64718600  0.50452300  1
  Nb  Nb5  1  0.64266300  0.14718600  0.49547700  1
  Nb  Nb6  1  0.84829100  0.35281400  0.49547700  1
  Nb  Nb7  1  0.35733700  0.85281400  0.50452300  1
  O  O8  1  0.57417800  0.07417800  0.00000000  1
  O  O9  1  0.18237300  0.75000000  0.43237300  1
  O  O10  1  0.48171100  0.93200100  0.54971000  1
  O  O11  1  0.42582200  0.92582200  0.00000000  1
  O  O12  1  0.11770900  0.56799900  0.54971000  1
  O  O13  1  0.90567500  0.90567500  0.50000000  1
  O  O14  1  0.81762700  0.25000000  0.56762700  1
  O  O15  1  0.90567500  0.40567500  0.00000000  1
  O  O16  1  0.88229100  0.43200100  0.45029000  1
  O  O17  1  0.09432500  0.59432500  0.00000000  1
  O  O18  1  0.57417800  0.57417800  0.50000000  1
  O  O19  1  0.51828900  0.06799900  0.45029000  1
  O  O20  1  0.09432500  0.09432500  0.50000000  1
  O  O21  1  0.42582200  0.42582200  0.50000000  1
