# generated using pymatgen
data_V2O3
_symmetry_space_group_name_H-M   'P 1'
_cell_length_a   6.16616158
_cell_length_b   6.16616158
_cell_length_c   7.19664885
_cell_angle_alpha   64.19874090
_cell_angle_beta   64.19874090
_cell_angle_gamma   60.63967637
_symmetry_Int_Tables_number   1
_chemical_formula_structural   V2O3
_chemical_formula_sum   'V4 O6'
_cell_volume   205.94685116
_cell_formula_units_Z   2
loop_
 _symmetry_equiv_pos_site_id
 _symmetry_equiv_pos_as_xyz
  1  'x, y, z'
loop_
 _atom_site_type_symbol
 _atom_site_label
 _atom_site_symmetry_multiplicity
 _atom_site_fract_x
 _atom_site_fract_y
 _atom_site_fract_z
 _atom_site_occupancy
  V  V0  1  0.06512800  0.57394600  0.77214800  1
  V  V1  1  0.57394600  0.06512800  0.27214800  1
  V  V2  1  0.42124900  0.91888600  0.72811100  1
  V  V3  1  0.91888600  0.42124900  0.22811100  1
  O  O4  1  0.29946700  0.70019500  0.74812100  1
  O  O5  1  0.70019500  0.29946700  0.24812100  1
  O  O6  1  0.20935000  0.25049300  0.74947300  1
  O  O7  1  0.25049300  0.20935000  0.24947300  1
  O  O8  1  0.81135800  0.74888500  0.25205700  1
  O  O9  1  0.74888500  0.81135800  0.75205700  1
