# generated using pymatgen
data_Ba7Fe6CuF34
_symmetry_space_group_name_H-M   'P 1'
_cell_length_a   10.37828031
_cell_length_b   10.37828031
_cell_length_c   7.81951088
_cell_angle_alpha   80.36750044
_cell_angle_beta   80.36750044
_cell_angle_gamma   67.96042627
_symmetry_Int_Tables_number   1
_chemical_formula_structural   Ba7Fe6CuF34
_chemical_formula_sum   'Ba7 Fe6 Cu1 F34'
_cell_volume   764.62425872
_cell_formula_units_Z   1
loop_
 _symmetry_equiv_pos_site_id
 _symmetry_equiv_pos_as_xyz
  1  'x, y, z'
loop_
 _atom_site_type_symbol
 _atom_site_label
 _atom_site_symmetry_multiplicity
 _atom_site_fract_x
 _atom_site_fract_y
 _atom_site_fract_z
 _atom_site_occupancy
  Ba  Ba0  1  0.44043100  0.84119400  0.69898100  1
  Ba  Ba1  1  0.15880600  0.55956900  0.30101900  1
  Ba  Ba2  1  0.55956900  0.15880600  0.30101900  1
  Ba  Ba3  1  0.84119400  0.44043100  0.69898100  1
  Ba  Ba4  1  0.73563800  0.73563800  0.12572300  1
  Ba  Ba5  1  0.26436200  0.26436200  0.87427700  1
  Ba  Ba6  1  0.00000000  0.00000000  0.00000000  1
  Fe  Fe7  1  0.35287600  0.86671500  0.19952400  1
  Fe  Fe8  1  0.13328500  0.64712400  0.80047600  1
  Fe  Fe9  1  0.64712400  0.13328500  0.80047600  1
  Fe  Fe10  1  0.86671500  0.35287600  0.19952400  1
  Fe  Fe11  1  0.82643900  0.82643900  0.54105000  1
  Fe  Fe12  1  0.17356100  0.17356100  0.45895000  1
  Cu  Cu13  1  0.50000000  0.50000000  0.50000000  1
  F  F14  1  0.56051200  0.56051200  0.67414300  1
  F  F15  1  0.43948800  0.43948800  0.32585700  1
  F  F16  1  0.88887400  0.88887400  0.30581600  1
  F  F17  1  0.11112600  0.11112600  0.69418400  1
  F  F18  1  0.74627200  0.74627200  0.75936700  1
  F  F19  1  0.25372800  0.25372800  0.24063300  1
  F  F20  1  0.35574300  0.11999700  0.54445000  1
  F  F21  1  0.88000300  0.64425700  0.45555000  1
  F  F22  1  0.64425700  0.88000300  0.45555000  1
  F  F23  1  0.11999700  0.35574300  0.54445000  1
  F  F24  1  0.23118500  0.98551000  0.38600200  1
  F  F25  1  0.01449000  0.76881500  0.61399800  1
  F  F26  1  0.76881500  0.01449000  0.61399800  1
  F  F27  1  0.98551000  0.23118500  0.38600200  1
  F  F28  1  0.24653800  0.51358000  0.97148900  1
  F  F29  1  0.48642000  0.75346200  0.02851100  1
  F  F30  1  0.75346200  0.48642000  0.02851100  1
  F  F31  1  0.51358000  0.24653800  0.97148900  1
  F  F32  1  0.00456800  0.26362800  0.00711400  1
  F  F33  1  0.73637200  0.99543200  0.99288600  1
  F  F34  1  0.99543200  0.73637200  0.99288600  1
  F  F35  1  0.26362800  0.00456800  0.00711400  1
  F  F36  1  0.04089400  0.51594400  0.80327500  1
  F  F37  1  0.48405600  0.95910600  0.19672500  1
  F  F38  1  0.95910600  0.48405600  0.19672500  1
  F  F39  1  0.51594400  0.04089400  0.80327500  1
  F  F40  1  0.79354200  0.20683000  0.20094600  1
  F  F41  1  0.79317000  0.20645800  0.79905400  1
  F  F42  1  0.20645800  0.79317000  0.79905400  1
  F  F43  1  0.20683000  0.79354200  0.20094600  1
  F  F44  1  0.27613200  0.55427200  0.61438000  1
  F  F45  1  0.44572800  0.72386800  0.38562000  1
  F  F46  1  0.72386800  0.44572800  0.38562000  1
  F  F47  1  0.55427200  0.27613200  0.61438000  1
