# generated using pymatgen
data_Cs2Ni(PS3)2
_symmetry_space_group_name_H-M   'P 1'
_cell_length_a   12.93796600
_cell_length_b   5.94557800
_cell_length_c   9.56936279
_cell_angle_alpha   55.20133565
_cell_angle_beta   90.00000000
_cell_angle_gamma   90.00000000
_symmetry_Int_Tables_number   1
_chemical_formula_structural   Cs2Ni(PS3)2
_chemical_formula_sum   'Cs4 Ni2 P4 S12'
_cell_volume   604.46647855
_cell_formula_units_Z   2
loop_
 _symmetry_equiv_pos_site_id
 _symmetry_equiv_pos_as_xyz
  1  'x, y, z'
loop_
 _atom_site_type_symbol
 _atom_site_label
 _atom_site_symmetry_multiplicity
 _atom_site_fract_x
 _atom_site_fract_y
 _atom_site_fract_z
 _atom_site_occupancy
  Cs  Cs0  1  0.67193000  0.29587300  0.96905300  1
  Cs  Cs1  1  0.32807000  0.70412700  0.03094700  1
  Cs  Cs2  1  0.82807000  0.29587300  0.46905300  1
  Cs  Cs3  1  0.17193000  0.70412700  0.53094700  1
  Ni  Ni4  1  0.00000000  0.00000000  0.00000000  1
  Ni  Ni5  1  0.50000000  0.00000000  0.50000000  1
  P  P6  1  0.96199100  0.66657700  0.88128600  1
  P  P7  1  0.03800900  0.33342300  0.11871400  1
  P  P8  1  0.53800900  0.66657700  0.38128600  1
  P  P9  1  0.46199100  0.33342300  0.61871400  1
  S  S10  1  0.42672400  0.52835300  0.72988100  1
  S  S11  1  0.92672400  0.47164700  0.77011900  1
  S  S12  1  0.06719100  0.97539100  0.76817900  1
  S  S13  1  0.43280900  0.97539100  0.26817900  1
  S  S14  1  0.56719100  0.02460900  0.73182100  1
  S  S15  1  0.65442500  0.79614200  0.46182300  1
  S  S16  1  0.15442500  0.20385800  0.03817700  1
  S  S17  1  0.84557500  0.79614200  0.96182300  1
  S  S18  1  0.57327600  0.47164700  0.27011900  1
  S  S19  1  0.07327600  0.52835300  0.22988100  1
  S  S20  1  0.93280900  0.02460900  0.23182100  1
  S  S21  1  0.34557500  0.20385800  0.53817700  1
