# generated using pymatgen
data_Ni3(BiS)2
_symmetry_space_group_name_H-M   'P 1'
_cell_length_a   6.85483593
_cell_length_b   6.85483593
_cell_length_c   7.85439396
_cell_angle_alpha   56.83572056
_cell_angle_beta   56.83572056
_cell_angle_gamma   73.21118854
_symmetry_Int_Tables_number   1
_chemical_formula_structural   Ni3(BiS)2
_chemical_formula_sum   'Ni6 Bi4 S4'
_cell_volume   258.59451192
_cell_formula_units_Z   2
loop_
 _symmetry_equiv_pos_site_id
 _symmetry_equiv_pos_as_xyz
  1  'x, y, z'
loop_
 _atom_site_type_symbol
 _atom_site_label
 _atom_site_symmetry_multiplicity
 _atom_site_fract_x
 _atom_site_fract_y
 _atom_site_fract_z
 _atom_site_occupancy
  Ni  Ni0  1  0.74521300  0.74521300  0.26964400  1
  Ni  Ni1  1  0.50000000  0.00000000  0.00000000  1
  Ni  Ni2  1  0.74518700  0.25481300  0.00000000  1
  Ni  Ni3  1  0.25481300  0.74518700  0.00000000  1
  Ni  Ni4  1  0.25478700  0.25478700  0.73035600  1
  Ni  Ni5  1  0.00000000  0.50000000  0.00000000  1
  Bi  Bi6  1  0.01202300  0.01202300  0.24003500  1
  Bi  Bi7  1  0.98797700  0.98797700  0.75996500  1
  Bi  Bi8  1  0.50157900  0.50157900  0.24791500  1
  Bi  Bi9  1  0.49842100  0.49842100  0.75208500  1
  S  S10  1  0.46670200  0.99850000  0.29247700  1
  S  S11  1  0.99850000  0.46670200  0.29247700  1
  S  S12  1  0.53329800  0.00150000  0.70752300  1
  S  S13  1  0.00150000  0.53329800  0.70752300  1
