# generated using pymatgen
data_Na3Pr14(RuO6)6
_symmetry_space_group_name_H-M   'P 1'
_cell_length_a   19.64442226
_cell_length_b   19.64442226
_cell_length_c   19.64442218
_cell_angle_alpha   29.03141132
_cell_angle_beta   29.03141132
_cell_angle_gamma   29.03141336
_symmetry_Int_Tables_number   1
_chemical_formula_structural   Na3Pr14(RuO6)6
_chemical_formula_sum   'Na6 Pr28 Ru12 O72'
_cell_volume   1579.17939660
_cell_formula_units_Z   2
loop_
 _symmetry_equiv_pos_site_id
 _symmetry_equiv_pos_as_xyz
  1  'x, y, z'
loop_
 _atom_site_type_symbol
 _atom_site_label
 _atom_site_symmetry_multiplicity
 _atom_site_fract_x
 _atom_site_fract_y
 _atom_site_fract_z
 _atom_site_occupancy
  Na  Na0  1  0.94699300  0.94699300  0.94699300  1
  Na  Na1  1  0.75000000  0.75000000  0.75000000  1
  Na  Na2  1  0.05300700  0.05300700  0.05300700  1
  Na  Na3  1  0.55300700  0.55300700  0.55300700  1
  Na  Na4  1  0.25000000  0.25000000  0.25000000  1
  Na  Na5  1  0.44699300  0.44699300  0.44699300  1
  Pr  Pr6  1  0.69717600  0.04100600  0.31946700  1
  Pr  Pr7  1  0.42953400  0.00071800  0.72018400  1
  Pr  Pr8  1  0.18053300  0.45899400  0.80282400  1
  Pr  Pr9  1  0.30282400  0.95899400  0.68053300  1
  Pr  Pr10  1  0.72018400  0.42953400  0.00071800  1
  Pr  Pr11  1  0.19717600  0.81946700  0.54100600  1
  Pr  Pr12  1  0.31946700  0.69717600  0.04100600  1
  Pr  Pr13  1  0.57046600  0.99928200  0.27981600  1
  Pr  Pr14  1  0.27981600  0.57046600  0.99928200  1
  Pr  Pr15  1  0.95899400  0.68053300  0.30282400  1
  Pr  Pr16  1  0.39230600  0.39230600  0.39230600  1
  Pr  Pr17  1  0.92953400  0.22018400  0.50071800  1
  Pr  Pr18  1  0.10769400  0.10769400  0.10769400  1
  Pr  Pr19  1  0.45899400  0.80282400  0.18053300  1
  Pr  Pr20  1  0.54100600  0.19717600  0.81946700  1
  Pr  Pr21  1  0.07046600  0.77981600  0.49928200  1
  Pr  Pr22  1  0.50071800  0.92953400  0.22018400  1
  Pr  Pr23  1  0.81946700  0.54100600  0.19717600  1
  Pr  Pr24  1  0.04100600  0.31946700  0.69717600  1
  Pr  Pr25  1  0.49928200  0.07046600  0.77981600  1
  Pr  Pr26  1  0.22018400  0.50071800  0.92953400  1
  Pr  Pr27  1  0.60769400  0.60769400  0.60769400  1
  Pr  Pr28  1  0.89230600  0.89230600  0.89230600  1
  Pr  Pr29  1  0.80282400  0.18053300  0.45899400  1
  Pr  Pr30  1  0.68053300  0.30282400  0.95899400  1
  Pr  Pr31  1  0.77981600  0.49928200  0.07046600  1
  Pr  Pr32  1  0.00071800  0.72018400  0.42953400  1
  Pr  Pr33  1  0.99928200  0.27981600  0.57046600  1
  Ru  Ru34  1  0.08278500  0.41721500  0.75000000  1
  Ru  Ru35  1  0.83766200  0.83766200  0.83766200  1
  Ru  Ru36  1  0.00000000  0.00000000  0.00000000  1
  Ru  Ru37  1  0.66233800  0.66233800  0.66233800  1
  Ru  Ru38  1  0.25000000  0.91721500  0.58278500  1
  Ru  Ru39  1  0.33766200  0.33766200  0.33766200  1
  Ru  Ru40  1  0.75000000  0.08278500  0.41721500  1
  Ru  Ru41  1  0.58278500  0.25000000  0.91721500  1
  Ru  Ru42  1  0.91721500  0.58278500  0.25000000  1
  Ru  Ru43  1  0.41721500  0.75000000  0.08278500  1
  Ru  Ru44  1  0.16233800  0.16233800  0.16233800  1
  Ru  Ru45  1  0.50000000  0.50000000  0.50000000  1
  O  O46  1  0.83520500  0.51449600  0.57344100  1
  O  O47  1  0.51872600  0.19000600  0.25306700  1
  O  O48  1  0.92655900  0.98550400  0.66479500  1
  O  O49  1  0.42018200  0.21854600  0.03254400  1
  O  O50  1  0.29696800  0.79776500  0.23224700  1
  O  O51  1  0.69000600  0.01872600  0.75306700  1
  O  O52  1  0.51449600  0.57344100  0.83520500  1
  O  O53  1  0.30999400  0.98127400  0.24693300  1
  O  O54  1  0.94593800  0.31555800  0.98425800  1
  O  O55  1  0.66479500  0.92655900  0.98550400  1
  O  O56  1  0.28145400  0.07981800  0.46745600  1
  O  O57  1  0.23224700  0.29696800  0.79776500  1
  O  O58  1  0.76775300  0.70303200  0.20223500  1
  O  O59  1  0.92018200  0.53254400  0.71854600  1
  O  O60  1  0.64947900  0.47639300  0.31212400  1
  O  O61  1  0.81555800  0.44593800  0.48425800  1
  O  O62  1  0.35052100  0.52360700  0.68787600  1
  O  O63  1  0.19000600  0.25306700  0.51872600  1
  O  O64  1  0.18444200  0.55406200  0.51574200  1
  O  O65  1  0.98550400  0.66479500  0.92655900  1
  O  O66  1  0.20223500  0.76775300  0.70303200  1
  O  O67  1  0.48127400  0.80999400  0.74693300  1
  O  O68  1  0.70223500  0.20303200  0.26775300  1
  O  O69  1  0.57344100  0.83520500  0.51449600  1
  O  O70  1  0.44593800  0.48425800  0.81555800  1
  O  O71  1  0.74693300  0.48127400  0.80999400  1
  O  O72  1  0.57981800  0.78145400  0.96745600  1
  O  O73  1  0.96745600  0.57981800  0.78145400  1
  O  O74  1  0.01574200  0.05406200  0.68444200  1
  O  O75  1  0.01449600  0.33520500  0.07344100  1
  O  O76  1  0.97639300  0.14947900  0.81212400  1
  O  O77  1  0.46745600  0.28145400  0.07981800  1
  O  O78  1  0.80999400  0.74693300  0.48127400  1
  O  O79  1  0.31555800  0.98425800  0.94593800  1
  O  O80  1  0.31212400  0.64947900  0.47639300  1
  O  O81  1  0.68444200  0.01574200  0.05406200  1
  O  O82  1  0.03254400  0.42018200  0.21854600  1
  O  O83  1  0.24693300  0.30999400  0.98127400  1
  O  O84  1  0.85052100  0.18787600  0.02360700  1
  O  O85  1  0.55406200  0.51574200  0.18444200  1
  O  O86  1  0.14947900  0.81212400  0.97639300  1
  O  O87  1  0.75306700  0.69000600  0.01872600  1
  O  O88  1  0.73224700  0.29776500  0.79696800  1
  O  O89  1  0.98425800  0.94593800  0.31555800  1
  O  O90  1  0.21854600  0.03254400  0.42018200  1
  O  O91  1  0.81212400  0.97639300  0.14947900  1
  O  O92  1  0.16479500  0.48550400  0.42655900  1
  O  O93  1  0.07344100  0.01449600  0.33520500  1
  O  O94  1  0.25306700  0.51872600  0.19000600  1
  O  O95  1  0.71854600  0.92018200  0.53254400  1
  O  O96  1  0.02360700  0.85052100  0.18787600  1
  O  O97  1  0.18787600  0.02360700  0.85052100  1
  O  O98  1  0.26775300  0.70223500  0.20303200  1
  O  O99  1  0.29776500  0.79696800  0.73224700  1
  O  O100  1  0.52360700  0.68787600  0.35052100  1
  O  O101  1  0.42655900  0.16479500  0.48550400  1
  O  O102  1  0.53254400  0.71854600  0.92018200  1
  O  O103  1  0.01872600  0.75306700  0.69000600  1
  O  O104  1  0.98127400  0.24693300  0.30999400  1
  O  O105  1  0.33520500  0.07344100  0.01449600  1
  O  O106  1  0.47639300  0.31212400  0.64947900  1
  O  O107  1  0.79696800  0.73224700  0.29776500  1
  O  O108  1  0.20303200  0.26775300  0.70223500  1
  O  O109  1  0.78145400  0.96745600  0.57981800  1
  O  O110  1  0.79776500  0.23224700  0.29696800  1
  O  O111  1  0.48550400  0.42655900  0.16479500  1
  O  O112  1  0.48425800  0.81555800  0.44593800  1
  O  O113  1  0.51574200  0.18444200  0.55406200  1
  O  O114  1  0.07981800  0.46745600  0.28145400  1
  O  O115  1  0.05406200  0.68444200  0.01574200  1
  O  O116  1  0.68787600  0.35052100  0.52360700  1
  O  O117  1  0.70303200  0.20223500  0.76775300  1
