# generated using pymatgen
data_Ca9Fe(PO4)7
_symmetry_space_group_name_H-M   'P 1'
_cell_length_a   13.87140323
_cell_length_b   13.87140323
_cell_length_c   13.87140226
_cell_angle_alpha   44.23604407
_cell_angle_beta   44.23604407
_cell_angle_gamma   44.23604586
_symmetry_Int_Tables_number   1
_chemical_formula_structural   Ca9Fe(PO4)7
_chemical_formula_sum   'Ca18 Fe2 P14 O56'
_cell_volume   1180.38404828
_cell_formula_units_Z   2
loop_
 _symmetry_equiv_pos_site_id
 _symmetry_equiv_pos_as_xyz
  1  'x, y, z'
loop_
 _atom_site_type_symbol
 _atom_site_label
 _atom_site_symmetry_multiplicity
 _atom_site_fract_x
 _atom_site_fract_y
 _atom_site_fract_z
 _atom_site_occupancy
  Ca  Ca0  1  0.91841800  0.93326900  0.34376300  1
  Ca  Ca1  1  0.54406200  0.52548500  0.94722900  1
  Ca  Ca2  1  0.09106700  0.06552600  0.64253800  1
  Ca  Ca3  1  0.84376300  0.43326900  0.41841800  1
  Ca  Ca4  1  0.14253800  0.56552600  0.59106700  1
  Ca  Ca5  1  0.56552600  0.59106700  0.14253800  1
  Ca  Ca6  1  0.02548500  0.04406200  0.44722900  1
  Ca  Ca7  1  0.04406200  0.44722900  0.02548500  1
  Ca  Ca8  1  0.94722900  0.54406200  0.52548500  1
  Ca  Ca9  1  0.41841800  0.84376300  0.43326900  1
  Ca  Ca10  1  0.93326900  0.34376300  0.91841800  1
  Ca  Ca11  1  0.64253800  0.09106700  0.06552600  1
  Ca  Ca12  1  0.44722900  0.02548500  0.04406200  1
  Ca  Ca13  1  0.06552600  0.64253800  0.09106700  1
  Ca  Ca14  1  0.34376300  0.91841800  0.93326900  1
  Ca  Ca15  1  0.59106700  0.14253800  0.56552600  1
  Ca  Ca16  1  0.52548500  0.94722900  0.54406200  1
  Ca  Ca17  1  0.43326900  0.41841800  0.84376300  1
  Fe  Fe18  1  0.99763600  0.99763600  0.99763600  1
  Fe  Fe19  1  0.49763600  0.49763600  0.49763600  1
  P  P20  1  0.31014800  0.77798100  0.81231800  1
  P  P21  1  0.67718500  0.22134100  0.18691000  1
  P  P22  1  0.81231800  0.31014800  0.77798100  1
  P  P23  1  0.77798100  0.81231800  0.31014800  1
  P  P24  1  0.27798100  0.81014800  0.31231800  1
  P  P25  1  0.22134100  0.18691000  0.67718500  1
  P  P26  1  0.22839100  0.22839100  0.22839100  1
  P  P27  1  0.31231800  0.27798100  0.81014800  1
  P  P28  1  0.72134100  0.17718500  0.68691000  1
  P  P29  1  0.18691000  0.67718500  0.22134100  1
  P  P30  1  0.68691000  0.72134100  0.17718500  1
  P  P31  1  0.72839100  0.72839100  0.72839100  1
  P  P32  1  0.81014800  0.31231800  0.27798100  1
  P  P33  1  0.17718500  0.68691000  0.72134100  1
  O  O34  1  0.59496100  0.23436900  0.14057200  1
  O  O35  1  0.83372200  0.64377500  0.36234900  1
  O  O36  1  0.14377500  0.33372200  0.86234900  1
  O  O37  1  0.63121000  0.38413100  0.36685200  1
  O  O38  1  0.38400300  0.81307200  0.82348700  1
  O  O39  1  0.62286400  0.35746900  0.61547700  1
  O  O40  1  0.23436900  0.14057200  0.59496100  1
  O  O41  1  0.68691400  0.68691400  0.68691400  1
  O  O42  1  0.73436900  0.09496100  0.64057200  1
  O  O43  1  0.10946700  0.66286900  0.38289600  1
  O  O44  1  0.33372200  0.86234900  0.14377500  1
  O  O45  1  0.64057200  0.73436900  0.09496100  1
  O  O46  1  0.90620500  0.34928400  0.60554700  1
  O  O47  1  0.85971100  0.64211600  0.12814500  1
  O  O48  1  0.40620500  0.10554700  0.84928400  1
  O  O49  1  0.11547700  0.85746900  0.12286400  1
  O  O50  1  0.86685200  0.88413100  0.13121000  1
  O  O51  1  0.84928400  0.40620500  0.10554700  1
  O  O52  1  0.88400300  0.32348700  0.31307200  1
  O  O53  1  0.16286900  0.60946700  0.88289600  1
  O  O54  1  0.60946700  0.88289600  0.16286900  1
  O  O55  1  0.38289600  0.10946700  0.66286900  1
  O  O56  1  0.81307200  0.82348700  0.38400300  1
  O  O57  1  0.36234900  0.83372200  0.64377500  1
  O  O58  1  0.88413100  0.13121000  0.86685200  1
  O  O59  1  0.86234900  0.14377500  0.33372200  1
  O  O60  1  0.85746900  0.12286400  0.11547700  1
  O  O61  1  0.82348700  0.38400300  0.81307200  1
  O  O62  1  0.34928400  0.60554700  0.90620500  1
  O  O63  1  0.13121000  0.86685200  0.88413100  1
  O  O64  1  0.14057200  0.59496100  0.23436900  1
  O  O65  1  0.66286900  0.38289600  0.10946700  1
  O  O66  1  0.60554700  0.90620500  0.34928400  1
  O  O67  1  0.64211600  0.12814500  0.85971100  1
  O  O68  1  0.38804400  0.23060900  0.10501600  1
  O  O69  1  0.10501600  0.38804400  0.23060900  1
  O  O70  1  0.23060900  0.10501600  0.38804400  1
  O  O71  1  0.14211600  0.35971100  0.62814500  1
  O  O72  1  0.61547700  0.62286400  0.35746900  1
  O  O73  1  0.88289600  0.16286900  0.60946700  1
  O  O74  1  0.38413100  0.36685200  0.63121000  1
  O  O75  1  0.12286400  0.11547700  0.85746900  1
  O  O76  1  0.62814500  0.14211600  0.35971100  1
  O  O77  1  0.35971100  0.62814500  0.14211600  1
  O  O78  1  0.18691400  0.18691400  0.18691400  1
  O  O79  1  0.09496100  0.64057200  0.73436900  1
  O  O80  1  0.12814500  0.85971100  0.64211600  1
  O  O81  1  0.32348700  0.31307200  0.88400300  1
  O  O82  1  0.88804400  0.60501600  0.73060900  1
  O  O83  1  0.10554700  0.84928400  0.40620500  1
  O  O84  1  0.60501600  0.73060900  0.88804400  1
  O  O85  1  0.31307200  0.88400300  0.32348700  1
  O  O86  1  0.36685200  0.63121000  0.38413100  1
  O  O87  1  0.73060900  0.88804400  0.60501600  1
  O  O88  1  0.64377500  0.36234900  0.83372200  1
  O  O89  1  0.35746900  0.61547700  0.62286400  1
