# generated using pymatgen
data_Te2MoCl4O
_symmetry_space_group_name_H-M   'P 1'
_cell_length_a   7.19012800
_cell_length_b   10.97079000
_cell_length_c   16.30634544
_cell_angle_alpha   48.55364081
_cell_angle_beta   90.00000000
_cell_angle_gamma   90.00000000
_symmetry_Int_Tables_number   1
_chemical_formula_structural   Te2MoCl4O
_chemical_formula_sum   'Te8 Mo4 Cl16 O4'
_cell_volume   964.15461891
_cell_formula_units_Z   4
loop_
 _symmetry_equiv_pos_site_id
 _symmetry_equiv_pos_as_xyz
  1  'x, y, z'
loop_
 _atom_site_type_symbol
 _atom_site_label
 _atom_site_symmetry_multiplicity
 _atom_site_fract_x
 _atom_site_fract_y
 _atom_site_fract_z
 _atom_site_occupancy
  Te  Te0  1  0.71323000  0.50007400  0.07283900  1
  Te  Te1  1  0.78677000  0.50007400  0.57283900  1
  Te  Te2  1  0.42674400  0.29258600  0.13565900  1
  Te  Te3  1  0.92674400  0.70741400  0.36434100  1
  Te  Te4  1  0.07325600  0.29258600  0.63565900  1
  Te  Te5  1  0.21323000  0.49992600  0.42716100  1
  Te  Te6  1  0.57325600  0.70741400  0.86434100  1
  Te  Te7  1  0.28677000  0.49992600  0.92716100  1
  Mo  Mo8  1  0.18556700  0.81968700  0.04571000  1
  Mo  Mo9  1  0.81443300  0.18031300  0.95429000  1
  Mo  Mo10  1  0.31443300  0.81968700  0.54571000  1
  Mo  Mo11  1  0.68556700  0.18031300  0.45429000  1
  Cl  Cl12  1  0.72180700  0.16878500  0.81676900  1
  Cl  Cl13  1  0.00772200  0.81358400  0.92179400  1
  Cl  Cl14  1  0.09996600  0.54514600  0.18849000  1
  Cl  Cl15  1  0.83167500  0.88209000  0.08680000  1
  Cl  Cl16  1  0.50772200  0.18641600  0.57820600  1
  Cl  Cl17  1  0.77819300  0.16878500  0.31676900  1
  Cl  Cl18  1  0.66832500  0.88209000  0.58680000  1
  Cl  Cl19  1  0.59996600  0.45485400  0.31151000  1
  Cl  Cl20  1  0.22180700  0.83121500  0.68323100  1
  Cl  Cl21  1  0.40003400  0.54514600  0.68849000  1
  Cl  Cl22  1  0.27819300  0.83121500  0.18323100  1
  Cl  Cl23  1  0.16832500  0.11791000  0.91320000  1
  Cl  Cl24  1  0.99227800  0.18641600  0.07820600  1
  Cl  Cl25  1  0.33167500  0.11791000  0.41320000  1
  Cl  Cl26  1  0.49227800  0.81358400  0.42179400  1
  Cl  Cl27  1  0.90003400  0.45485400  0.81151000  1
  O  O28  1  0.40100800  0.80489600  0.01057700  1
  O  O29  1  0.90100800  0.19510400  0.48942300  1
  O  O30  1  0.09899200  0.80489600  0.51057700  1
  O  O31  1  0.59899200  0.19510400  0.98942300  1
