# generated using pymatgen
data_NaMgIn2
_symmetry_space_group_name_H-M   'P 1'
_cell_length_a   12.43847107
_cell_length_b   12.43847107
_cell_length_c   12.43847107
_cell_angle_alpha   120.86690561
_cell_angle_beta   119.25881606
_cell_angle_gamma   89.89680859
_symmetry_Int_Tables_number   1
_chemical_formula_structural   NaMgIn2
_chemical_formula_sum   'Na1 Mg1 In2'
_cell_volume   1359.14327025
_cell_formula_units_Z   1
loop_
 _symmetry_equiv_pos_site_id
 _symmetry_equiv_pos_as_xyz
  1  'x, y, z'
loop_
 _atom_site_type_symbol
 _atom_site_label
 _atom_site_symmetry_multiplicity
 _atom_site_fract_x
 _atom_site_fract_y
 _atom_site_fract_z
 _atom_site_occupancy
  Na  Na0  1  0.00000000  0.00000000  0.00000000  1
  Mg  Mg1  1  0.00000000  0.50000000  0.50000000  1
  In  In2  1  0.00000000  0.25991200  0.25991200  1
  In  In3  1  0.00000000  0.74008800  0.74008800  1
