# generated using pymatgen
data_CaZr4O9
_symmetry_space_group_name_H-M   'P 1'
_cell_length_a   11.63307713
_cell_length_b   11.63307713
_cell_length_c   12.19523875
_cell_angle_alpha   67.83947861
_cell_angle_beta   67.83947861
_cell_angle_gamma   79.06952787
_symmetry_Int_Tables_number   1
_chemical_formula_structural   CaZr4O9
_chemical_formula_sum   'Ca8 Zr32 O72'
_cell_volume   1413.38902278
_cell_formula_units_Z   8
loop_
 _symmetry_equiv_pos_site_id
 _symmetry_equiv_pos_as_xyz
  1  'x, y, z'
loop_
 _atom_site_type_symbol
 _atom_site_label
 _atom_site_symmetry_multiplicity
 _atom_site_fract_x
 _atom_site_fract_y
 _atom_site_fract_z
 _atom_site_occupancy
  Ca  Ca0  1  0.06367000  0.93633000  0.75000000  1
  Ca  Ca1  1  0.43696000  0.56304000  0.25000000  1
  Ca  Ca2  1  0.56304000  0.43696000  0.75000000  1
  Ca  Ca3  1  0.88648200  0.51160100  0.64998400  1
  Ca  Ca4  1  0.93633000  0.06367000  0.25000000  1
  Ca  Ca5  1  0.48839900  0.11351800  0.85001600  1
  Ca  Ca6  1  0.11351800  0.48839900  0.35001600  1
  Ca  Ca7  1  0.51160100  0.88648200  0.14998400  1
  Zr  Zr8  1  0.11598000  0.25541200  0.65107900  1
  Zr  Zr9  1  0.35844000  0.25169600  0.38002100  1
  Zr  Zr10  1  0.00764000  0.62247900  0.82298400  1
  Zr  Zr11  1  0.58114600  0.21093200  0.05089700  1
  Zr  Zr12  1  0.74830400  0.64156000  0.11997900  1
  Zr  Zr13  1  0.18590800  0.81409200  0.25000000  1
  Zr  Zr14  1  0.48584800  0.33386200  0.55012300  1
  Zr  Zr15  1  0.21093200  0.58114600  0.55089700  1
  Zr  Zr16  1  0.33386200  0.48584800  0.05012300  1
  Zr  Zr17  1  0.25541200  0.11598000  0.15107900  1
  Zr  Zr18  1  0.51415200  0.66613800  0.44987700  1
  Zr  Zr19  1  0.68748300  0.31251700  0.25000000  1
  Zr  Zr20  1  0.25169600  0.35844000  0.88002100  1
  Zr  Zr21  1  0.06479200  0.69622700  0.05042100  1
  Zr  Zr22  1  0.62247900  0.00764000  0.32298400  1
  Zr  Zr23  1  0.69622700  0.06479200  0.55042100  1
  Zr  Zr24  1  0.88402000  0.74458800  0.34892100  1
  Zr  Zr25  1  0.64156000  0.74830400  0.61997900  1
  Zr  Zr26  1  0.84838700  0.93539900  0.06558300  1
  Zr  Zr27  1  0.78906800  0.41885400  0.44910300  1
  Zr  Zr28  1  0.15161300  0.06460100  0.93441700  1
  Zr  Zr29  1  0.99236000  0.37752100  0.17701600  1
  Zr  Zr30  1  0.41885400  0.78906800  0.94910300  1
  Zr  Zr31  1  0.81409200  0.18590800  0.75000000  1
  Zr  Zr32  1  0.06460100  0.15161300  0.43441700  1
  Zr  Zr33  1  0.66613800  0.51415200  0.94987700  1
  Zr  Zr34  1  0.93539900  0.84838700  0.56558300  1
  Zr  Zr35  1  0.74458800  0.88402000  0.84892100  1
  Zr  Zr36  1  0.37752100  0.99236000  0.67701600  1
  Zr  Zr37  1  0.93520800  0.30377300  0.94957900  1
  Zr  Zr38  1  0.31251700  0.68748300  0.75000000  1
  Zr  Zr39  1  0.30377300  0.93520800  0.44957900  1
  O  O40  1  0.68208100  0.72710300  0.44145600  1
  O  O41  1  0.26356500  0.13117000  0.32853700  1
  O  O42  1  0.32378600  0.96066400  0.87704900  1
  O  O43  1  0.10526800  0.95465000  0.52265300  1
  O  O44  1  0.54349800  0.19455000  0.24553500  1
  O  O45  1  0.09730900  0.44709100  0.57919300  1
  O  O46  1  0.89473200  0.04534900  0.47734700  1
  O  O47  1  0.11731000  0.50482600  0.14435600  1
  O  O48  1  0.86883000  0.73643500  0.17146300  1
  O  O49  1  0.67317800  0.57732400  0.76232600  1
  O  O50  1  0.87779500  0.27814700  0.15118900  1
  O  O51  1  0.50737300  0.35150900  0.36213400  1
  O  O52  1  0.22105900  0.63811600  0.36758000  1
  O  O53  1  0.92611600  0.28009800  0.78575300  1
  O  O54  1  0.03933600  0.67621400  0.62295100  1
  O  O55  1  0.19455000  0.54349800  0.74553500  1
  O  O56  1  0.07435200  0.18878900  0.24054700  1
  O  O57  1  0.13117000  0.26356500  0.82853700  1
  O  O58  1  0.81121100  0.92564800  0.25945300  1
  O  O59  1  0.27289700  0.31791900  0.05854400  1
  O  O60  1  0.73643500  0.86883000  0.67146300  1
  O  O61  1  0.99394700  0.14752900  0.62848500  1
  O  O62  1  0.16293600  0.27643500  0.45514800  1
  O  O63  1  0.44709100  0.09730900  0.07919300  1
  O  O64  1  0.45650200  0.80545000  0.75446500  1
  O  O65  1  0.14752900  0.99394700  0.12848500  1
  O  O66  1  0.60348300  0.93819100  0.52319900  1
  O  O67  1  0.04535000  0.89473200  0.97734700  1
  O  O68  1  0.88269000  0.49517400  0.85564400  1
  O  O69  1  0.31775300  0.73132200  0.52397300  1
  O  O70  1  0.39435200  0.51584700  0.49026300  1
  O  O71  1  0.42267600  0.32682200  0.73767400  1
  O  O72  1  0.67621400  0.03933600  0.12295100  1
  O  O73  1  0.77894100  0.36188400  0.63242000  1
  O  O74  1  0.73132200  0.31775300  0.02397300  1
  O  O75  1  0.72356500  0.83706400  0.04485200  1
  O  O76  1  0.55290900  0.90269100  0.92080700  1
  O  O77  1  0.07388400  0.71990200  0.21424700  1
  O  O78  1  0.80545000  0.45650200  0.25446500  1
  O  O79  1  0.31791900  0.27289700  0.55854400  1
  O  O80  1  0.60564800  0.48415300  0.50973700  1
  O  O81  1  0.32682200  0.42267600  0.23767400  1
  O  O82  1  0.48415300  0.60564800  0.00973700  1
  O  O83  1  0.12220500  0.72185300  0.84881100  1
  O  O84  1  0.72710300  0.68208100  0.94145600  1
  O  O85  1  0.49262700  0.64849100  0.63786600  1
  O  O86  1  0.00605300  0.85247100  0.37151500  1
  O  O87  1  0.57732400  0.67317800  0.26232600  1
  O  O88  1  0.92564800  0.81121100  0.75945300  1
  O  O89  1  0.27643500  0.16293600  0.95514800  1
  O  O90  1  0.90269100  0.55290900  0.42080700  1
  O  O91  1  0.27814700  0.87779500  0.65118900  1
  O  O92  1  0.83706400  0.72356500  0.54485200  1
  O  O93  1  0.35150900  0.50737300  0.86213400  1
  O  O94  1  0.50482600  0.11731000  0.64435600  1
  O  O95  1  0.51584700  0.39435200  0.99026300  1
  O  O96  1  0.85247100  0.00605300  0.87151500  1
  O  O97  1  0.63811600  0.22105900  0.86758000  1
  O  O98  1  0.36188400  0.77894100  0.13242000  1
  O  O99  1  0.71990200  0.07388400  0.71424700  1
  O  O100  1  0.68224700  0.26867800  0.47602700  1
  O  O101  1  0.39651700  0.06180900  0.47680100  1
  O  O102  1  0.64849100  0.49262700  0.13786600  1
  O  O103  1  0.93819100  0.60348300  0.02319900  1
  O  O104  1  0.96066400  0.32378600  0.37704900  1
  O  O105  1  0.49517400  0.88269000  0.35564400  1
  O  O106  1  0.95465000  0.10526800  0.02265300  1
  O  O107  1  0.28009800  0.92611600  0.28575300  1
  O  O108  1  0.72185300  0.12220500  0.34881100  1
  O  O109  1  0.06180900  0.39651700  0.97680100  1
  O  O110  1  0.26867800  0.68224700  0.97602700  1
  O  O111  1  0.18878900  0.07435200  0.74054700  1
