# generated using pymatgen
data_NaSbCO2F3
_symmetry_space_group_name_H-M   'P 1'
_cell_length_a   9.32751648
_cell_length_b   9.32751648
_cell_length_c   8.49297259
_cell_angle_alpha   83.52052516
_cell_angle_beta   83.52052516
_cell_angle_gamma   40.29826897
_symmetry_Int_Tables_number   1
_chemical_formula_structural   NaSbCO2F3
_chemical_formula_sum   'Na4 Sb4 C4 O8 F12'
_cell_volume   474.43749954
_cell_formula_units_Z   4
loop_
 _symmetry_equiv_pos_site_id
 _symmetry_equiv_pos_as_xyz
  1  'x, y, z'
loop_
 _atom_site_type_symbol
 _atom_site_label
 _atom_site_symmetry_multiplicity
 _atom_site_fract_x
 _atom_site_fract_y
 _atom_site_fract_z
 _atom_site_occupancy
  Na  Na0  1  0.09446900  0.32616000  0.17619100  1
  Na  Na1  1  0.32616000  0.09446900  0.67619100  1
  Na  Na2  1  0.67384000  0.90553100  0.32380900  1
  Na  Na3  1  0.90553100  0.67384000  0.82380900  1
  Sb  Sb4  1  0.26953000  0.51956800  0.39455400  1
  Sb  Sb5  1  0.51956800  0.26953000  0.89455400  1
  Sb  Sb6  1  0.48043200  0.73047000  0.10544600  1
  Sb  Sb7  1  0.73047000  0.48043200  0.60544600  1
  C  C8  1  0.04095500  0.89567400  0.97247600  1
  C  C9  1  0.95904500  0.10432600  0.02752400  1
  C  C10  1  0.10432600  0.95904500  0.52752400  1
  C  C11  1  0.89567400  0.04095500  0.47247600  1
  O  O12  1  0.76403500  0.29174500  0.99628700  1
  O  O13  1  0.90451700  0.92928200  0.89909500  1
  O  O14  1  0.29174500  0.76403500  0.49628700  1
  O  O15  1  0.07071800  0.09548300  0.60090500  1
  O  O16  1  0.23596500  0.70825500  0.00371300  1
  O  O17  1  0.70825500  0.23596500  0.50371300  1
  O  O18  1  0.92928200  0.90451700  0.39909500  1
  O  O19  1  0.09548300  0.07071800  0.10090500  1
  F  F20  1  0.03842500  0.57444800  0.30426900  1
  F  F21  1  0.17223600  0.55999300  0.62093700  1
  F  F22  1  0.42555200  0.96157500  0.19573100  1
  F  F23  1  0.82776400  0.44000700  0.37906300  1
  F  F24  1  0.77803300  0.60773000  0.04767200  1
  F  F25  1  0.22196700  0.39227000  0.95232800  1
  F  F26  1  0.60773000  0.77803300  0.54767200  1
  F  F27  1  0.44000700  0.82776400  0.87906300  1
  F  F28  1  0.57444800  0.03842500  0.80426900  1
  F  F29  1  0.39227000  0.22196700  0.45232800  1
  F  F30  1  0.96157500  0.42555200  0.69573100  1
  F  F31  1  0.55999300  0.17223600  0.12093700  1
