# generated using pymatgen
data_K3P(W3O10)4
_symmetry_space_group_name_H-M   'P 1'
_cell_length_a   11.99618700
_cell_length_b   11.99618700
_cell_length_c   11.99618700
_cell_angle_alpha   90.00000000
_cell_angle_beta   90.00000000
_cell_angle_gamma   90.00000000
_symmetry_Int_Tables_number   1
_chemical_formula_structural   K3P(W3O10)4
_chemical_formula_sum   'K6 P2 W24 O80'
_cell_volume   1726.35330735
_cell_formula_units_Z   2
loop_
 _symmetry_equiv_pos_site_id
 _symmetry_equiv_pos_as_xyz
  1  'x, y, z'
loop_
 _atom_site_type_symbol
 _atom_site_label
 _atom_site_symmetry_multiplicity
 _atom_site_fract_x
 _atom_site_fract_y
 _atom_site_fract_z
 _atom_site_occupancy
  K  K0  1  0.50000000  0.50000000  0.00000000  1
  K  K1  1  0.50000000  0.00000000  0.00000000  1
  K  K2  1  0.50000000  0.00000000  0.50000000  1
  K  K3  1  0.00000000  0.50000000  0.50000000  1
  K  K4  1  0.00000000  0.50000000  0.00000000  1
  K  K5  1  0.00000000  0.00000000  0.50000000  1
  P  P6  1  0.50000000  0.50000000  0.50000000  1
  P  P7  1  0.00000000  0.00000000  0.00000000  1
  W  W8  1  0.21408100  0.21408100  0.00768100  1
  W  W9  1  0.50768100  0.71408100  0.28591900  1
  W  W10  1  0.21408100  0.78591900  0.99231900  1
  W  W11  1  0.21408100  0.99231900  0.78591900  1
  W  W12  1  0.99231900  0.21408100  0.78591900  1
  W  W13  1  0.49231900  0.71408100  0.71408100  1
  W  W14  1  0.78591900  0.99231900  0.21408100  1
  W  W15  1  0.71408100  0.28591900  0.50768100  1
  W  W16  1  0.00768100  0.21408100  0.21408100  1
  W  W17  1  0.71408100  0.49231900  0.71408100  1
  W  W18  1  0.99231900  0.78591900  0.21408100  1
  W  W19  1  0.21408100  0.00768100  0.21408100  1
  W  W20  1  0.00768100  0.78591900  0.78591900  1
  W  W21  1  0.78591900  0.21408100  0.99231900  1
  W  W22  1  0.49231900  0.28591900  0.28591900  1
  W  W23  1  0.28591900  0.50768100  0.71408100  1
  W  W24  1  0.78591900  0.00768100  0.78591900  1
  W  W25  1  0.28591900  0.28591900  0.49231900  1
  W  W26  1  0.50768100  0.28591900  0.71408100  1
  W  W27  1  0.71408100  0.50768100  0.28591900  1
  W  W28  1  0.78591900  0.78591900  0.00768100  1
  W  W29  1  0.28591900  0.71408100  0.50768100  1
  W  W30  1  0.71408100  0.71408100  0.49231900  1
  W  W31  1  0.28591900  0.49231900  0.28591900  1
  O  O32  1  0.31526400  0.01563300  0.68473600  1
  O  O33  1  0.12361900  0.71653800  0.87638100  1
  O  O34  1  0.40212600  0.24567300  0.59787400  1
  O  O35  1  0.74567300  0.90212600  0.90212600  1
  O  O36  1  0.09787400  0.74567300  0.09787400  1
  O  O37  1  0.12361900  0.28346200  0.12361900  1
  O  O38  1  0.25432700  0.90212600  0.09787400  1
  O  O39  1  0.90212600  0.90212600  0.74567300  1
  O  O40  1  0.21653800  0.37638100  0.37638100  1
  O  O41  1  0.81526400  0.48436700  0.18473600  1
  O  O42  1  0.31526400  0.31526400  0.98436700  1
  O  O43  1  0.42553300  0.57446700  0.57446700  1
  O  O44  1  0.87638100  0.71653800  0.12361900  1
  O  O45  1  0.62361900  0.21653800  0.62361900  1
  O  O46  1  0.18473600  0.18473600  0.51563300  1
  O  O47  1  0.98436700  0.68473600  0.68473600  1
  O  O48  1  0.71653800  0.12361900  0.87638100  1
  O  O49  1  0.62361900  0.37638100  0.78346200  1
  O  O50  1  0.09787400  0.25432700  0.90212600  1
  O  O51  1  0.07446700  0.92553300  0.92553300  1
  O  O52  1  0.40212600  0.59787400  0.24567300  1
  O  O53  1  0.68473600  0.98436700  0.68473600  1
  O  O54  1  0.09787400  0.09787400  0.74567300  1
  O  O55  1  0.75432700  0.59787400  0.59787400  1
  O  O56  1  0.12361900  0.12361900  0.28346200  1
  O  O57  1  0.28346200  0.87638100  0.87638100  1
  O  O58  1  0.57446700  0.42553300  0.57446700  1
  O  O59  1  0.40212600  0.40212600  0.75432700  1
  O  O60  1  0.90212600  0.09787400  0.25432700  1
  O  O61  1  0.81526400  0.81526400  0.51563300  1
  O  O62  1  0.51563300  0.18473600  0.18473600  1
  O  O63  1  0.28346200  0.12361900  0.12361900  1
  O  O64  1  0.48436700  0.18473600  0.81526400  1
  O  O65  1  0.81526400  0.51563300  0.81526400  1
  O  O66  1  0.21653800  0.62361900  0.62361900  1
  O  O67  1  0.37638100  0.62361900  0.78346200  1
  O  O68  1  0.18473600  0.51563300  0.18473600  1
  O  O69  1  0.48436700  0.81526400  0.18473600  1
  O  O70  1  0.59787400  0.40212600  0.24567300  1
  O  O71  1  0.57446700  0.57446700  0.42553300  1
  O  O72  1  0.92553300  0.07446700  0.92553300  1
  O  O73  1  0.59787400  0.59787400  0.75432700  1
  O  O74  1  0.40212600  0.75432700  0.40212600  1
  O  O75  1  0.75432700  0.40212600  0.40212600  1
  O  O76  1  0.90212600  0.74567300  0.90212600  1
  O  O77  1  0.87638100  0.28346200  0.87638100  1
  O  O78  1  0.24567300  0.40212600  0.59787400  1
  O  O79  1  0.25432700  0.09787400  0.90212600  1
  O  O80  1  0.59787400  0.75432700  0.59787400  1
  O  O81  1  0.68473600  0.31526400  0.01563300  1
  O  O82  1  0.01563300  0.31526400  0.68473600  1
  O  O83  1  0.07446700  0.07446700  0.07446700  1
  O  O84  1  0.87638100  0.12361900  0.71653800  1
  O  O85  1  0.62361900  0.62361900  0.21653800  1
  O  O86  1  0.18473600  0.81526400  0.48436700  1
  O  O87  1  0.87638100  0.87638100  0.28346200  1
  O  O88  1  0.92553300  0.92553300  0.07446700  1
  O  O89  1  0.37638100  0.37638100  0.21653800  1
  O  O90  1  0.12361900  0.87638100  0.71653800  1
  O  O91  1  0.37638100  0.21653800  0.37638100  1
  O  O92  1  0.71653800  0.87638100  0.12361900  1
  O  O93  1  0.98436700  0.31526400  0.31526400  1
  O  O94  1  0.59787400  0.24567300  0.40212600  1
  O  O95  1  0.78346200  0.62361900  0.37638100  1
  O  O96  1  0.24567300  0.59787400  0.40212600  1
  O  O97  1  0.51563300  0.81526400  0.81526400  1
  O  O98  1  0.18473600  0.48436700  0.81526400  1
  O  O99  1  0.09787400  0.90212600  0.25432700  1
  O  O100  1  0.90212600  0.25432700  0.09787400  1
  O  O101  1  0.42553300  0.42553300  0.42553300  1
  O  O102  1  0.31526400  0.68473600  0.01563300  1
  O  O103  1  0.68473600  0.01563300  0.31526400  1
  O  O104  1  0.31526400  0.98436700  0.31526400  1
  O  O105  1  0.78346200  0.37638100  0.62361900  1
  O  O106  1  0.01563300  0.68473600  0.31526400  1
  O  O107  1  0.81526400  0.18473600  0.48436700  1
  O  O108  1  0.68473600  0.68473600  0.98436700  1
  O  O109  1  0.74567300  0.09787400  0.09787400  1
  O  O110  1  0.62361900  0.78346200  0.37638100  1
  O  O111  1  0.37638100  0.78346200  0.62361900  1
