# generated using pymatgen
data_ZrSCl6O
_symmetry_space_group_name_H-M   'P 1'
_cell_length_a   23.99233900
_cell_length_b   7.20825200
_cell_length_c   7.56793869
_cell_angle_alpha   66.33593789
_cell_angle_beta   90.00000000
_cell_angle_gamma   90.00000000
_symmetry_Int_Tables_number   1
_chemical_formula_structural   ZrSCl6O
_chemical_formula_sum   'Zr4 S4 Cl24 O4'
_cell_volume   1198.76789566
_cell_formula_units_Z   4
loop_
 _symmetry_equiv_pos_site_id
 _symmetry_equiv_pos_as_xyz
  1  'x, y, z'
loop_
 _atom_site_type_symbol
 _atom_site_label
 _atom_site_symmetry_multiplicity
 _atom_site_fract_x
 _atom_site_fract_y
 _atom_site_fract_z
 _atom_site_occupancy
  Zr  Zr0  1  0.92958400  0.99219300  0.15344800  1
  Zr  Zr1  1  0.07041600  0.00780700  0.84655200  1
  Zr  Zr2  1  0.42958400  0.50780700  0.84655200  1
  Zr  Zr3  1  0.57041600  0.49219300  0.15344800  1
  S  S4  1  0.37101500  0.12688200  0.32136000  1
  S  S5  1  0.12898500  0.62688200  0.32136000  1
  S  S6  1  0.62898500  0.87311800  0.67864000  1
  S  S7  1  0.87101500  0.37311800  0.67864000  1
  Cl  Cl8  1  0.29473000  0.25554200  0.33584100  1
  Cl  Cl9  1  0.96742700  0.76328500  0.44849700  1
  Cl  Cl10  1  0.10227700  0.75345000  0.74636400  1
  Cl  Cl11  1  0.97658700  0.80833800  0.95665300  1
  Cl  Cl12  1  0.53257300  0.26328500  0.44849700  1
  Cl  Cl13  1  0.47658700  0.69166200  0.04334700  1
  Cl  Cl14  1  0.84449300  0.82040900  0.15803700  1
  Cl  Cl15  1  0.60227700  0.74655000  0.25363600  1
  Cl  Cl16  1  0.70527000  0.74445800  0.66415900  1
  Cl  Cl17  1  0.84377300  0.58468700  0.77970000  1
  Cl  Cl18  1  0.15622700  0.41531300  0.22030000  1
  Cl  Cl19  1  0.15550700  0.17959100  0.84196300  1
  Cl  Cl20  1  0.52341300  0.30833800  0.95665300  1
  Cl  Cl21  1  0.65622700  0.08468700  0.77970000  1
  Cl  Cl22  1  0.03257300  0.23671500  0.55150300  1
  Cl  Cl23  1  0.02341300  0.19166200  0.04334700  1
  Cl  Cl24  1  0.46742700  0.73671500  0.55150300  1
  Cl  Cl25  1  0.39772300  0.25345000  0.74636400  1
  Cl  Cl26  1  0.89772300  0.24655000  0.25363600  1
  Cl  Cl27  1  0.34449300  0.67959100  0.84196300  1
  Cl  Cl28  1  0.65550700  0.32040900  0.15803700  1
  Cl  Cl29  1  0.34377300  0.91531300  0.22030000  1
  Cl  Cl30  1  0.79473000  0.24445800  0.66415900  1
  Cl  Cl31  1  0.20527000  0.75554200  0.33584100  1
  O  O32  1  0.90277900  0.21939400  0.83549400  1
  O  O33  1  0.59722100  0.71939400  0.83549400  1
  O  O34  1  0.09722100  0.78060600  0.16450600  1
  O  O35  1  0.40277900  0.28060600  0.16450600  1
