# generated using pymatgen
data_SiO2
_symmetry_space_group_name_H-M   'P 1'
_cell_length_a   14.86942628
_cell_length_b   14.86942628
_cell_length_c   14.86942628
_cell_angle_alpha   149.36207010
_cell_angle_beta   149.36207010
_cell_angle_gamma   43.87862835
_symmetry_Int_Tables_number   1
_chemical_formula_structural   SiO2
_chemical_formula_sum   'Si16 O32'
_cell_volume   851.40144004
_cell_formula_units_Z   16
loop_
 _symmetry_equiv_pos_site_id
 _symmetry_equiv_pos_as_xyz
  1  'x, y, z'
loop_
 _atom_site_type_symbol
 _atom_site_label
 _atom_site_symmetry_multiplicity
 _atom_site_fract_x
 _atom_site_fract_y
 _atom_site_fract_z
 _atom_site_occupancy
  Si  Si0  1  0.88534500  0.18187000  0.70347500  1
  Si  Si1  1  0.81813000  0.11465500  0.29652500  1
  Si  Si2  1  0.93187000  0.13534500  0.20347500  1
  Si  Si3  1  0.27160500  0.06813000  0.20347500  1
  Si  Si4  1  0.69241600  0.69241600  0.38483200  1
  Si  Si5  1  0.44241600  0.55758400  0.50000000  1
  Si  Si6  1  0.81813000  0.52160500  0.70347500  1
  Si  Si7  1  0.30758400  0.30758400  0.61516800  1
  Si  Si8  1  0.30758400  0.69241600  0.00000000  1
  Si  Si9  1  0.86465500  0.06813000  0.79652500  1
  Si  Si10  1  0.05758400  0.55758400  0.11516800  1
  Si  Si11  1  0.69241600  0.30758400  0.00000000  1
  Si  Si12  1  0.47839500  0.18187000  0.29652500  1
  Si  Si13  1  0.05758400  0.94241600  0.50000000  1
  Si  Si14  1  0.44241600  0.94241600  0.88483200  1
  Si  Si15  1  0.93187000  0.72839500  0.79652500  1
  O  O16  1  0.96493000  0.01316000  0.39097500  1
  O  O17  1  0.62218500  0.57395500  0.60902500  1
  O  O18  1  0.78507000  0.67604500  0.54823000  1
  O  O19  1  0.27171700  0.98700800  0.71529000  1
  O  O20  1  0.47828300  0.69357300  0.21529000  1
  O  O21  1  0.12781500  0.67604500  0.89097500  1
  O  O22  1  0.81055500  0.31055500  0.50000000  1
  O  O23  1  0.76316000  0.21493000  0.89097500  1
  O  O24  1  0.06055500  0.06055500  0.00000000  1
  O  O25  1  0.68944500  0.18944500  0.50000000  1
  O  O26  1  0.76316000  0.87218500  0.54823000  1
  O  O27  1  0.78507000  0.23684000  0.10902500  1
  O  O28  1  0.96493000  0.57395500  0.95177000  1
  O  O29  1  0.27171700  0.55642700  0.28471000  1
  O  O30  1  0.98684000  0.03507000  0.60902500  1
  O  O31  1  0.44357300  0.72828300  0.71529000  1
  O  O32  1  0.01299200  0.72828300  0.28471000  1
  O  O33  1  0.42604500  0.03507000  0.04823000  1
  O  O34  1  0.32395500  0.87218500  0.10902500  1
  O  O35  1  0.30642700  0.52171700  0.78471000  1
  O  O36  1  0.87500000  0.12500000  0.25000000  1
  O  O37  1  0.47828300  0.26299200  0.78471000  1
  O  O38  1  0.12781500  0.23684000  0.45177000  1
  O  O39  1  0.62218500  0.01316000  0.04823000  1
  O  O40  1  0.73700800  0.52171700  0.21529000  1
  O  O41  1  0.93944500  0.93944500  0.00000000  1
  O  O42  1  0.32395500  0.21493000  0.45177000  1
  O  O43  1  0.87500000  0.12500000  0.75000000  1
  O  O44  1  0.42604500  0.37781500  0.39097500  1
  O  O45  1  0.87500000  0.62500000  0.75000000  1
  O  O46  1  0.37500000  0.12500000  0.25000000  1
  O  O47  1  0.98684000  0.37781500  0.95177000  1
