# generated using pymatgen
data_Cu2As2O7
_symmetry_space_group_name_H-M   'P 1'
_cell_length_a   5.65105780
_cell_length_b   5.65105780
_cell_length_c   9.92946284
_cell_angle_alpha   75.24952235
_cell_angle_beta   75.24952235
_cell_angle_gamma   95.42904730
_symmetry_Int_Tables_number   1
_chemical_formula_structural   Cu2As2O7
_chemical_formula_sum   'Cu4 As4 O14'
_cell_volume   292.19454383
_cell_formula_units_Z   2
loop_
 _symmetry_equiv_pos_site_id
 _symmetry_equiv_pos_as_xyz
  1  'x, y, z'
loop_
 _atom_site_type_symbol
 _atom_site_label
 _atom_site_symmetry_multiplicity
 _atom_site_fract_x
 _atom_site_fract_y
 _atom_site_fract_z
 _atom_site_occupancy
  Cu  Cu0  1  0.72848700  0.85640800  0.99000500  1
  Cu  Cu1  1  0.14359200  0.27151300  0.50999500  1
  Cu  Cu2  1  0.27151300  0.14359200  0.00999500  1
  Cu  Cu3  1  0.85640800  0.72848700  0.49000500  1
  As  As4  1  0.49948400  0.97258000  0.70721700  1
  As  As5  1  0.50051600  0.02742000  0.29278300  1
  As  As6  1  0.02742000  0.50051600  0.79278300  1
  As  As7  1  0.97258000  0.49948400  0.20721700  1
  O  O8  1  0.48850500  0.99000800  0.12433300  1
  O  O9  1  0.79434600  0.61724500  0.88383900  1
  O  O10  1  0.51149500  0.00999200  0.87566700  1
  O  O11  1  0.99000800  0.48850500  0.62433300  1
  O  O12  1  0.21024900  0.04529200  0.39280200  1
  O  O13  1  0.61724500  0.79434600  0.38383900  1
  O  O14  1  0.38275500  0.20565400  0.61616100  1
  O  O15  1  0.66536200  0.33463800  0.25000000  1
  O  O16  1  0.95470800  0.78975100  0.10719800  1
  O  O17  1  0.78975100  0.95470800  0.60719800  1
  O  O18  1  0.00999200  0.51149500  0.37566700  1
  O  O19  1  0.20565400  0.38275500  0.11616100  1
  O  O20  1  0.33463800  0.66536200  0.75000000  1
  O  O21  1  0.04529200  0.21024900  0.89280200  1
