# generated using pymatgen
data_CaBeB2O5
_symmetry_space_group_name_H-M   'P 1'
_cell_length_a   3.79386000
_cell_length_b   5.22266300
_cell_length_c   17.36012384
_cell_angle_alpha   80.31012674
_cell_angle_beta   90.00000000
_cell_angle_gamma   90.00000000
_symmetry_Int_Tables_number   1
_chemical_formula_structural   CaBeB2O5
_chemical_formula_sum   'Ca4 Be4 B8 O20'
_cell_volume   339.06699823
_cell_formula_units_Z   4
loop_
 _symmetry_equiv_pos_site_id
 _symmetry_equiv_pos_as_xyz
  1  'x, y, z'
loop_
 _atom_site_type_symbol
 _atom_site_label
 _atom_site_symmetry_multiplicity
 _atom_site_fract_x
 _atom_site_fract_y
 _atom_site_fract_z
 _atom_site_occupancy
  Ca  Ca0  1  0.88209200  0.72582200  0.57433500  1
  Ca  Ca1  1  0.11790800  0.27417800  0.42566500  1
  Ca  Ca2  1  0.38209200  0.27417800  0.92566500  1
  Ca  Ca3  1  0.61790800  0.72582200  0.07433500  1
  Be  Be4  1  0.76544500  0.60558200  0.78886100  1
  Be  Be5  1  0.26544500  0.39441800  0.71113900  1
  Be  Be6  1  0.73455500  0.60558200  0.28886100  1
  Be  Be7  1  0.23455500  0.39441800  0.21113900  1
  B  B8  1  0.74830800  0.09659200  0.78711400  1
  B  B9  1  0.02740000  0.79542600  0.90452800  1
  B  B10  1  0.24830800  0.90340800  0.71288600  1
  B  B11  1  0.25169200  0.90340800  0.21288600  1
  B  B12  1  0.97260000  0.20457400  0.09547200  1
  B  B13  1  0.52740000  0.20457400  0.59547200  1
  B  B14  1  0.47260000  0.79542600  0.40452800  1
  B  B15  1  0.75169200  0.09659200  0.28711400  1
  O  O16  1  0.40434500  0.95899200  0.63290900  1
  O  O17  1  0.42622900  0.42507600  0.62365700  1
  O  O18  1  0.02172200  0.12775800  0.72420900  1
  O  O19  1  0.74090700  0.20936000  0.53232300  1
  O  O20  1  0.09565500  0.95899200  0.13290900  1
  O  O21  1  0.25909300  0.79064000  0.46767700  1
  O  O22  1  0.05287400  0.65957000  0.71777100  1
  O  O23  1  0.75909300  0.20936000  0.03232300  1
  O  O24  1  0.52172200  0.87224200  0.77579100  1
  O  O25  1  0.94712600  0.34043000  0.28222900  1
  O  O26  1  0.07377100  0.42507600  0.12365700  1
  O  O27  1  0.57377100  0.57492400  0.37634300  1
  O  O28  1  0.24090700  0.79064000  0.96767700  1
  O  O29  1  0.97827800  0.87224200  0.27579100  1
  O  O30  1  0.90434500  0.04100800  0.86709100  1
  O  O31  1  0.44712600  0.65957000  0.21777100  1
  O  O32  1  0.59565500  0.04100800  0.36709100  1
  O  O33  1  0.47827800  0.12775800  0.22420900  1
  O  O34  1  0.55287400  0.34043000  0.78222900  1
  O  O35  1  0.92622900  0.57492400  0.87634300  1
