# generated using pymatgen
data_Cs2HgAu
_symmetry_space_group_name_H-M   'P 1'
_cell_length_a   13.78472243
_cell_length_b   13.78472243
_cell_length_c   13.78472243
_cell_angle_alpha   121.86189947
_cell_angle_beta   114.32895130
_cell_angle_gamma   93.44850861
_symmetry_Int_Tables_number   1
_chemical_formula_structural   Cs2HgAu
_chemical_formula_sum   'Cs2 Hg1 Au1'
_cell_volume   1892.19141949
_cell_formula_units_Z   1
loop_
 _symmetry_equiv_pos_site_id
 _symmetry_equiv_pos_as_xyz
  1  'x, y, z'
loop_
 _atom_site_type_symbol
 _atom_site_label
 _atom_site_symmetry_multiplicity
 _atom_site_fract_x
 _atom_site_fract_y
 _atom_site_fract_z
 _atom_site_occupancy
  Cs  Cs0  1  0.77588100  0.00000000  0.77588100  1
  Cs  Cs1  1  0.22411900  0.00000000  0.22411900  1
  Hg  Hg2  1  0.50000000  0.00000000  0.50000000  1
  Au  Au3  1  0.00000000  0.00000000  0.00000000  1
