# generated using pymatgen
data_Na4VHO5
_symmetry_space_group_name_H-M   'P 1'
_cell_length_a   7.54427500
_cell_length_b   8.40770400
_cell_length_c   9.13524600
_cell_angle_alpha   90.00000000
_cell_angle_beta   90.00000000
_cell_angle_gamma   90.00000000
_symmetry_Int_Tables_number   1
_chemical_formula_structural   Na4VHO5
_chemical_formula_sum   'Na16 V4 H4 O20'
_cell_volume   579.44893784
_cell_formula_units_Z   4
loop_
 _symmetry_equiv_pos_site_id
 _symmetry_equiv_pos_as_xyz
  1  'x, y, z'
loop_
 _atom_site_type_symbol
 _atom_site_label
 _atom_site_symmetry_multiplicity
 _atom_site_fract_x
 _atom_site_fract_y
 _atom_site_fract_z
 _atom_site_occupancy
  Na  Na0  1  0.51265300  0.34643900  0.62911600  1
  Na  Na1  1  0.98734700  0.34643900  0.62911600  1
  Na  Na2  1  0.51265300  0.15356100  0.12911600  1
  Na  Na3  1  0.75000000  0.24066200  0.87311100  1
  Na  Na4  1  0.98734700  0.15356100  0.12911600  1
  Na  Na5  1  0.01265300  0.65356100  0.37088400  1
  Na  Na6  1  0.48734700  0.65356100  0.37088400  1
  Na  Na7  1  0.25000000  0.75933800  0.12688900  1
  Na  Na8  1  0.00000000  0.00000000  0.50000000  1
  Na  Na9  1  0.48734700  0.84643900  0.87088400  1
  Na  Na10  1  0.75000000  0.25933800  0.37311100  1
  Na  Na11  1  0.01265300  0.84643900  0.87088400  1
  Na  Na12  1  0.50000000  0.50000000  0.00000000  1
  Na  Na13  1  0.25000000  0.74066200  0.62688900  1
  Na  Na14  1  0.50000000  0.00000000  0.50000000  1
  Na  Na15  1  0.00000000  0.50000000  0.00000000  1
  V  V16  1  0.25000000  0.34954000  0.36293800  1
  V  V17  1  0.25000000  0.15046000  0.86293800  1
  V  V18  1  0.75000000  0.84954000  0.13706200  1
  V  V19  1  0.75000000  0.65046000  0.63706200  1
  H  H20  1  0.75000000  0.05268600  0.66579300  1
  H  H21  1  0.75000000  0.44731400  0.16579300  1
  H  H22  1  0.25000000  0.55268600  0.83420700  1
  H  H23  1  0.25000000  0.94731400  0.33420700  1
  O  O24  1  0.55969200  0.73180300  0.12898500  1
  O  O25  1  0.75000000  0.34365500  0.11803300  1
  O  O26  1  0.75000000  0.97776700  0.98456700  1
  O  O27  1  0.94030800  0.76819700  0.62898500  1
  O  O28  1  0.75000000  0.52223300  0.48456700  1
  O  O29  1  0.55969200  0.76819700  0.62898500  1
  O  O30  1  0.25000000  0.65634500  0.88196700  1
  O  O31  1  0.25000000  0.03316600  0.70646300  1
  O  O32  1  0.05969200  0.23180300  0.37101500  1
  O  O33  1  0.25000000  0.84365500  0.38196700  1
  O  O34  1  0.44030800  0.26819700  0.87101500  1
  O  O35  1  0.75000000  0.15634500  0.61803300  1
  O  O36  1  0.25000000  0.02223300  0.01543300  1
  O  O37  1  0.94030800  0.73180300  0.12898500  1
  O  O38  1  0.25000000  0.47776700  0.51543300  1
  O  O39  1  0.75000000  0.53316600  0.79353700  1
  O  O40  1  0.05969200  0.26819700  0.87101500  1
  O  O41  1  0.75000000  0.96683400  0.29353700  1
  O  O42  1  0.44030800  0.23180300  0.37101500  1
  O  O43  1  0.25000000  0.46683400  0.20646300  1
