# generated using pymatgen
data_RbVH6SO9
_symmetry_space_group_name_H-M   'P 1'
_cell_length_a   10.12859200
_cell_length_b   6.30048500
_cell_length_c   6.77649260
_cell_angle_alpha   71.94941087
_cell_angle_beta   90.00000000
_cell_angle_gamma   90.00000000
_symmetry_Int_Tables_number   1
_chemical_formula_structural   RbVH6SO9
_chemical_formula_sum   'Rb2 V2 H12 S2 O18'
_cell_volume   411.15878383
_cell_formula_units_Z   2
loop_
 _symmetry_equiv_pos_site_id
 _symmetry_equiv_pos_as_xyz
  1  'x, y, z'
loop_
 _atom_site_type_symbol
 _atom_site_label
 _atom_site_symmetry_multiplicity
 _atom_site_fract_x
 _atom_site_fract_y
 _atom_site_fract_z
 _atom_site_occupancy
  Rb  Rb0  1  0.65149500  0.69646200  0.81463500  1
  Rb  Rb1  1  0.15149500  0.30353800  0.18536500  1
  V  V2  1  0.49870900  0.38330400  0.38311800  1
  V  V3  1  0.99870900  0.61669600  0.61688200  1
  H  H4  1  0.57839900  0.19022200  0.82053100  1
  H  H5  1  0.20938400  0.77216000  0.30846000  1
  H  H6  1  0.85381900  0.97023700  0.30439700  1
  H  H7  1  0.70938400  0.22784000  0.69154000  1
  H  H8  1  0.35381900  0.02976300  0.69560300  1
  H  H9  1  0.07839900  0.80977800  0.17946900  1
  H  H10  1  0.35058500  0.87919300  0.92715500  1
  H  H11  1  0.76129500  0.31067300  0.26291600  1
  H  H12  1  0.26126800  0.47128700  0.65701600  1
  H  H13  1  0.85058500  0.12080700  0.07284500  1
  H  H14  1  0.76126800  0.52871300  0.34298400  1
  H  H15  1  0.26129500  0.68932700  0.73708400  1
  S  S16  1  0.99782300  0.07776900  0.73275500  1
  S  S17  1  0.49782300  0.92223100  0.26724500  1
  O  O18  1  0.04096000  0.93433200  0.60088100  1
  O  O19  1  0.53136700  0.68948500  0.40853600  1
  O  O20  1  0.93946300  0.53856000  0.85473600  1
  O  O21  1  0.43946300  0.46144000  0.14526400  1
  O  O22  1  0.57524400  0.97671700  0.07591800  1
  O  O23  1  0.54096000  0.06566800  0.39911900  1
  O  O24  1  0.86390200  0.67745300  0.46328200  1
  O  O25  1  0.85467100  0.05870700  0.77314100  1
  O  O26  1  0.61829000  0.28490600  0.68976000  1
  O  O27  1  0.35467100  0.94129300  0.22685900  1
  O  O28  1  0.36390200  0.32254700  0.53671800  1
  O  O29  1  0.36048500  0.87270200  0.78540400  1
  O  O30  1  0.03136700  0.31051500  0.59146400  1
  O  O31  1  0.70514100  0.43662900  0.28040000  1
  O  O32  1  0.07524400  0.02328300  0.92408200  1
  O  O33  1  0.11829000  0.71509400  0.31024000  1
  O  O34  1  0.86048500  0.12729800  0.21459600  1
  O  O35  1  0.20514100  0.56337100  0.71960000  1
