# generated using pymatgen
data_Na4Nb9(P2O13)3
_symmetry_space_group_name_H-M   'P 1'
_cell_length_a   5.50569300
_cell_length_b   14.69566300
_cell_length_c   20.20459400
_cell_angle_alpha   90.00000000
_cell_angle_beta   90.00000000
_cell_angle_gamma   90.00000000
_symmetry_Int_Tables_number   1
_chemical_formula_structural   Na4Nb9(P2O13)3
_chemical_formula_sum   'Na8 Nb18 P12 O78'
_cell_volume   1634.74983963
_cell_formula_units_Z   2
loop_
 _symmetry_equiv_pos_site_id
 _symmetry_equiv_pos_as_xyz
  1  'x, y, z'
loop_
 _atom_site_type_symbol
 _atom_site_label
 _atom_site_symmetry_multiplicity
 _atom_site_fract_x
 _atom_site_fract_y
 _atom_site_fract_z
 _atom_site_occupancy
  Na  Na0  1  0.74809700  0.20334500  0.37726400  1
  Na  Na1  1  0.24566300  0.28675600  0.55884700  1
  Na  Na2  1  0.24566300  0.71324400  0.44115300  1
  Na  Na3  1  0.25190300  0.70334500  0.12273600  1
  Na  Na4  1  0.25190300  0.29665500  0.87726400  1
  Na  Na5  1  0.75433700  0.78675600  0.94115300  1
  Na  Na6  1  0.74809700  0.79665500  0.62273600  1
  Na  Na7  1  0.75433700  0.21324400  0.05884700  1
  Nb  Nb8  1  0.76372600  0.40066400  0.61624300  1
  Nb  Nb9  1  0.25627700  0.88844500  0.22286600  1
  Nb  Nb10  1  0.74861000  0.59612800  0.06431100  1
  Nb  Nb11  1  0.24502300  0.52065100  0.83089400  1
  Nb  Nb12  1  0.25139000  0.09612800  0.43568900  1
  Nb  Nb13  1  0.74372300  0.38844500  0.27713400  1
  Nb  Nb14  1  0.73590400  0.00000000  0.00000000  1
  Nb  Nb15  1  0.24502300  0.47934900  0.16910600  1
  Nb  Nb16  1  0.75497700  0.97934900  0.33089400  1
  Nb  Nb17  1  0.26409600  0.50000000  0.50000000  1
  Nb  Nb18  1  0.23627400  0.09933600  0.11624300  1
  Nb  Nb19  1  0.76372600  0.59933600  0.38375700  1
  Nb  Nb20  1  0.74372300  0.61155500  0.72286600  1
  Nb  Nb21  1  0.74861000  0.40387200  0.93568900  1
  Nb  Nb22  1  0.25139000  0.90387200  0.56431100  1
  Nb  Nb23  1  0.23627400  0.90066400  0.88375700  1
  Nb  Nb24  1  0.25627700  0.11155500  0.77713400  1
  Nb  Nb25  1  0.75497700  0.02065100  0.66910600  1
  P  P26  1  0.25590700  0.67846700  0.96242500  1
  P  P27  1  0.23984500  0.67129300  0.61577000  1
  P  P28  1  0.76015500  0.82870700  0.11577000  1
  P  P29  1  0.73318000  0.16481200  0.21589500  1
  P  P30  1  0.26682000  0.33518800  0.71589500  1
  P  P31  1  0.23984500  0.32870700  0.38423000  1
  P  P32  1  0.74409300  0.17846700  0.53757500  1
  P  P33  1  0.74409300  0.82153300  0.46242500  1
  P  P34  1  0.73318000  0.83518800  0.78410500  1
  P  P35  1  0.76015500  0.17129300  0.88423000  1
  P  P36  1  0.25590700  0.32153300  0.03757500  1
  P  P37  1  0.26682000  0.66481200  0.28410500  1
  O  O38  1  0.48464900  0.16720000  0.51029800  1
  O  O39  1  0.96086200  0.83184000  0.82806600  1
  O  O40  1  0.48654200  0.94905800  0.93917200  1
  O  O41  1  0.25948400  0.37426300  0.45405800  1
  O  O42  1  0.73251200  0.75241900  0.73637500  1
  O  O43  1  0.72941000  0.07845100  0.26056400  1
  O  O44  1  0.96086200  0.16816000  0.17193400  1
  O  O45  1  0.51535100  0.33280000  0.01029800  1
  O  O46  1  0.27059000  0.57845100  0.23943600  1
  O  O47  1  0.24009500  0.99307300  0.81765300  1
  O  O48  1  0.26748800  0.25241900  0.76362500  1
  O  O49  1  0.98301200  0.94998700  0.93806200  1
  O  O50  1  0.27059000  0.42154900  0.76056400  1
  O  O51  1  0.97875000  0.90878100  0.27717900  1
  O  O52  1  0.49165900  0.33042300  0.67084900  1
  O  O53  1  0.77211200  0.72296100  0.43624300  1
  O  O54  1  0.47152700  0.44373200  0.89066800  1
  O  O55  1  0.01863900  0.15748800  0.85738900  1
  O  O56  1  0.71391600  0.72488600  0.10706200  1
  O  O57  1  0.94134300  0.16558000  0.48430300  1
  O  O58  1  0.21289900  0.61064500  0.90467000  1
  O  O59  1  0.22788800  0.77703900  0.93624300  1
  O  O60  1  0.78710100  0.88935500  0.40467000  1
  O  O61  1  0.44233400  0.36553100  0.33984900  1
  O  O62  1  0.49165900  0.66957700  0.32915100  1
  O  O63  1  0.78710100  0.11064500  0.59533000  1
  O  O64  1  0.97875000  0.09121900  0.72282100  1
  O  O65  1  0.52704400  0.58282200  0.79289600  1
  O  O66  1  0.94134300  0.83442000  0.51569700  1
  O  O67  1  0.77860600  0.50000000  0.00000000  1
  O  O68  1  0.01698800  0.55001300  0.43806200  1
  O  O69  1  0.22788800  0.22296100  0.06375700  1
  O  O70  1  0.97618500  0.55538200  0.12709300  1
  O  O71  1  0.26748800  0.74758100  0.23637500  1
  O  O72  1  0.75990500  0.49307300  0.68234700  1
  O  O73  1  0.48464900  0.83280000  0.48970200  1
  O  O74  1  0.55766600  0.13446900  0.83984900  1
  O  O75  1  0.74051600  0.12573700  0.95405800  1
  O  O76  1  0.47152700  0.55626800  0.10933200  1
  O  O77  1  0.98136100  0.34251200  0.35738900  1
  O  O78  1  0.52704400  0.41717800  0.20710400  1
  O  O79  1  0.52847300  0.05626800  0.39066800  1
  O  O80  1  0.55766600  0.86553100  0.16015100  1
  O  O81  1  0.71391600  0.27511400  0.89293800  1
  O  O82  1  0.50834100  0.16957700  0.17084900  1
  O  O83  1  0.47295600  0.91717800  0.29289600  1
  O  O84  1  0.44233400  0.63446900  0.66015100  1
  O  O85  1  0.50834100  0.83042300  0.82915100  1
  O  O86  1  0.02125000  0.40878100  0.22282100  1
  O  O87  1  0.03913800  0.33184000  0.67193400  1
  O  O88  1  0.02381500  0.94461800  0.62709300  1
  O  O89  1  0.05865700  0.66558000  0.01569700  1
  O  O90  1  0.51345800  0.55094200  0.43917200  1
  O  O91  1  0.73251200  0.24758100  0.26362500  1
  O  O92  1  0.51535100  0.66720000  0.98970200  1
  O  O93  1  0.98301200  0.05001300  0.06193800  1
  O  O94  1  0.01863900  0.84251200  0.14261100  1
  O  O95  1  0.75990500  0.50692700  0.31765300  1
  O  O96  1  0.02125000  0.59121900  0.77717900  1
  O  O97  1  0.22139400  0.00000000  0.50000000  1
  O  O98  1  0.24009500  0.00692700  0.18234700  1
  O  O99  1  0.97618500  0.44461800  0.87290700  1
  O  O100  1  0.48654200  0.05094200  0.06082800  1
  O  O101  1  0.28608400  0.22488600  0.39293800  1
  O  O102  1  0.74051600  0.87426300  0.04594200  1
  O  O103  1  0.21289900  0.38935500  0.09533000  1
  O  O104  1  0.02381500  0.05538200  0.37290700  1
  O  O105  1  0.98136100  0.65748800  0.64261100  1
  O  O106  1  0.01698800  0.44998700  0.56193800  1
  O  O107  1  0.25948400  0.62573700  0.54594200  1
  O  O108  1  0.28608400  0.77511400  0.60706200  1
  O  O109  1  0.03913800  0.66816000  0.32806600  1
  O  O110  1  0.52847300  0.94373200  0.60933200  1
  O  O111  1  0.77211200  0.27703900  0.56375700  1
  O  O112  1  0.51345800  0.44905800  0.56082800  1
  O  O113  1  0.05865700  0.33442000  0.98430300  1
  O  O114  1  0.47295600  0.08282200  0.70710400  1
  O  O115  1  0.72941000  0.92154900  0.73943600  1
