# generated using pymatgen
data_TiS4(NCl)5
_symmetry_space_group_name_H-M   'P 1'
_cell_length_a   16.96287900
_cell_length_b   6.99321800
_cell_length_c   11.35381703
_cell_angle_alpha   81.41465739
_cell_angle_beta   90.00000000
_cell_angle_gamma   90.00000000
_symmetry_Int_Tables_number   1
_chemical_formula_structural   TiS4(NCl)5
_chemical_formula_sum   'Ti4 S16 N20 Cl20'
_cell_volume   1331.75583802
_cell_formula_units_Z   4
loop_
 _symmetry_equiv_pos_site_id
 _symmetry_equiv_pos_as_xyz
  1  'x, y, z'
loop_
 _atom_site_type_symbol
 _atom_site_label
 _atom_site_symmetry_multiplicity
 _atom_site_fract_x
 _atom_site_fract_y
 _atom_site_fract_z
 _atom_site_occupancy
  Ti  Ti0  1  0.01813500  0.61842400  0.83860500  1
  Ti  Ti1  1  0.51813500  0.38157600  0.66139500  1
  Ti  Ti2  1  0.98186500  0.38157600  0.16139500  1
  Ti  Ti3  1  0.48186500  0.61842400  0.33860500  1
  S  S4  1  0.22881700  0.02425300  0.97681100  1
  S  S5  1  0.65228500  0.16323400  0.12854900  1
  S  S6  1  0.15228500  0.83676600  0.37145100  1
  S  S7  1  0.23529100  0.63126900  0.56640800  1
  S  S8  1  0.11167700  0.12574200  0.51301600  1
  S  S9  1  0.84771500  0.16323400  0.62854900  1
  S  S10  1  0.34771500  0.83676600  0.87145100  1
  S  S11  1  0.76470900  0.36873100  0.43359200  1
  S  S12  1  0.77118300  0.97574700  0.02318900  1
  S  S13  1  0.27118300  0.02425300  0.47681100  1
  S  S14  1  0.26470900  0.63126900  0.06640800  1
  S  S15  1  0.61167700  0.87425800  0.98698400  1
  S  S16  1  0.38832300  0.12574200  0.01301600  1
  S  S17  1  0.88832300  0.87425800  0.48698400  1
  S  S18  1  0.73529100  0.36873100  0.93359200  1
  S  S19  1  0.72881700  0.97574700  0.52318900  1
  N  N20  1  0.29845000  0.15861200  0.03502000  1
  N  N21  1  0.72417300  0.17351500  0.41608900  1
  N  N22  1  0.70155000  0.84138800  0.96498000  1
  N  N23  1  0.23428900  0.95773800  0.35729300  1
  N  N24  1  0.27582700  0.82648500  0.58391100  1
  N  N25  1  0.83208600  0.36510300  0.52839400  1
  N  N26  1  0.33208600  0.63489700  0.97160600  1
  N  N27  1  0.73428900  0.04226200  0.14270700  1
  N  N28  1  0.77582700  0.17351500  0.91608900  1
  N  N29  1  0.41370900  0.95394200  0.94746400  1
  N  N30  1  0.20155000  0.15861200  0.53502000  1
  N  N31  1  0.76571100  0.04226200  0.64270700  1
  N  N32  1  0.22417300  0.82648500  0.08391100  1
  N  N33  1  0.08629100  0.95394200  0.44746400  1
  N  N34  1  0.66791400  0.36510300  0.02839400  1
  N  N35  1  0.16791400  0.63489700  0.47160600  1
  N  N36  1  0.58629100  0.04605800  0.05253600  1
  N  N37  1  0.91370900  0.04605800  0.55253600  1
  N  N38  1  0.26571100  0.95773800  0.85729300  1
  N  N39  1  0.79845000  0.84138800  0.46498000  1
  Cl  Cl40  1  0.14912200  0.50206400  0.85906300  1
  Cl  Cl41  1  0.97557100  0.30540000  0.95441800  1
  Cl  Cl42  1  0.88754500  0.71663200  0.82924900  1
  Cl  Cl43  1  0.50591500  0.50398400  0.83517700  1
  Cl  Cl44  1  0.49408500  0.49601600  0.16482300  1
  Cl  Cl45  1  0.64912200  0.49793600  0.64093700  1
  Cl  Cl46  1  0.38754500  0.28336800  0.67075100  1
  Cl  Cl47  1  0.93712600  0.07650900  0.22649400  1
  Cl  Cl48  1  0.52442900  0.30540000  0.45441800  1
  Cl  Cl49  1  0.06287400  0.92349100  0.77350600  1
  Cl  Cl50  1  0.02442900  0.69460000  0.04558200  1
  Cl  Cl51  1  0.61245500  0.71663200  0.32924900  1
  Cl  Cl52  1  0.35087800  0.50206400  0.35906300  1
  Cl  Cl53  1  0.00591500  0.49601600  0.66482300  1
  Cl  Cl54  1  0.56287400  0.07650900  0.72649400  1
  Cl  Cl55  1  0.43712600  0.92349100  0.27350600  1
  Cl  Cl56  1  0.99408500  0.50398400  0.33517700  1
  Cl  Cl57  1  0.11245500  0.28336800  0.17075100  1
  Cl  Cl58  1  0.85087800  0.49793600  0.14093700  1
  Cl  Cl59  1  0.47557100  0.69460000  0.54558200  1
