# generated using pymatgen
data_BaZnFeF7
_symmetry_space_group_name_H-M   'P 1'
_cell_length_a   10.11361800
_cell_length_b   5.69930600
_cell_length_c   9.72661448
_cell_angle_alpha   86.87566982
_cell_angle_beta   90.00000000
_cell_angle_gamma   90.00000000
_symmetry_Int_Tables_number   1
_chemical_formula_structural   BaZnFeF7
_chemical_formula_sum   'Ba4 Zn4 Fe4 F28'
_cell_volume   559.81459319
_cell_formula_units_Z   4
loop_
 _symmetry_equiv_pos_site_id
 _symmetry_equiv_pos_as_xyz
  1  'x, y, z'
loop_
 _atom_site_type_symbol
 _atom_site_label
 _atom_site_symmetry_multiplicity
 _atom_site_fract_x
 _atom_site_fract_y
 _atom_site_fract_z
 _atom_site_occupancy
  Ba  Ba0  1  0.32144100  0.73801000  0.49875700  1
  Ba  Ba1  1  0.82144100  0.26199000  0.00124300  1
  Ba  Ba2  1  0.67855900  0.26199000  0.50124300  1
  Ba  Ba3  1  0.17855900  0.73801000  0.99875700  1
  Zn  Zn4  1  0.39811500  0.29945700  0.81058000  1
  Zn  Zn5  1  0.89811500  0.70054300  0.68942000  1
  Zn  Zn6  1  0.10188500  0.29945700  0.31058000  1
  Zn  Zn7  1  0.60188500  0.70054300  0.18942000  1
  Fe  Fe8  1  0.60965900  0.80306900  0.81186900  1
  Fe  Fe9  1  0.39034100  0.19693100  0.18813100  1
  Fe  Fe10  1  0.89034100  0.80306900  0.31186900  1
  Fe  Fe11  1  0.10965900  0.19693100  0.68813100  1
  F  F12  1  0.44251700  0.88983500  0.12347800  1
  F  F13  1  0.04953700  0.63452200  0.36937100  1
  F  F14  1  0.70894000  0.52691700  0.75290200  1
  F  F15  1  0.29106000  0.47308300  0.24709800  1
  F  F16  1  0.45873300  0.10992300  0.36695600  1
  F  F17  1  0.81092800  0.74072500  0.49797000  1
  F  F18  1  0.77647800  0.97540400  0.75265100  1
  F  F19  1  0.95873300  0.89007700  0.13304400  1
  F  F20  1  0.45046300  0.63452200  0.86937100  1
  F  F21  1  0.20894000  0.47308300  0.74709800  1
  F  F22  1  0.05748300  0.88983500  0.62347800  1
  F  F23  1  0.55748300  0.11016500  0.87652200  1
  F  F24  1  0.27647800  0.02459600  0.74734900  1
  F  F25  1  0.95831000  0.61068100  0.87500200  1
  F  F26  1  0.54126700  0.89007700  0.63304400  1
  F  F27  1  0.04126700  0.10992300  0.86695600  1
  F  F28  1  0.22352200  0.02459600  0.24734900  1
  F  F29  1  0.94251700  0.11016500  0.37652200  1
  F  F30  1  0.45831000  0.38931900  0.62499800  1
  F  F31  1  0.95046300  0.36547800  0.63062900  1
  F  F32  1  0.04169000  0.38931900  0.12499800  1
  F  F33  1  0.72352200  0.97540400  0.25265100  1
  F  F34  1  0.54169000  0.61068100  0.37500200  1
  F  F35  1  0.31092800  0.25927500  0.00203000  1
  F  F36  1  0.18907200  0.25927500  0.50203000  1
  F  F37  1  0.68907200  0.74072500  0.99797000  1
  F  F38  1  0.54953700  0.36547800  0.13062900  1
  F  F39  1  0.79106000  0.52691700  0.25290200  1
