# generated using pymatgen
data_Ba2LaRuO6
_symmetry_space_group_name_H-M   'P 1'
_cell_length_a   6.09156589
_cell_length_b   6.09156589
_cell_length_c   6.15128768
_cell_angle_alpha   60.01989194
_cell_angle_beta   60.01989194
_cell_angle_gamma   59.89580796
_symmetry_Int_Tables_number   1
_chemical_formula_structural   Ba2LaRuO6
_chemical_formula_sum   'Ba2 La1 Ru1 O6'
_cell_volume   161.32292828
_cell_formula_units_Z   1
loop_
 _symmetry_equiv_pos_site_id
 _symmetry_equiv_pos_as_xyz
  1  'x, y, z'
loop_
 _atom_site_type_symbol
 _atom_site_label
 _atom_site_symmetry_multiplicity
 _atom_site_fract_x
 _atom_site_fract_y
 _atom_site_fract_z
 _atom_site_occupancy
  Ba  Ba0  1  0.75115700  0.75115700  0.24565000  1
  Ba  Ba1  1  0.24884300  0.24884300  0.75435000  1
  La  La2  1  0.00000000  0.00000000  0.50000000  1
  Ru  Ru3  1  0.50000000  0.50000000  0.00000000  1
  O  O4  1  0.27267000  0.27267000  0.27830000  1
  O  O5  1  0.72733000  0.72733000  0.72170000  1
  O  O6  1  0.24765100  0.70182400  0.79470700  1
  O  O7  1  0.75234900  0.29817600  0.20529300  1
  O  O8  1  0.70182400  0.24765100  0.79470700  1
  O  O9  1  0.29817600  0.75234900  0.20529300  1
