# generated using pymatgen
data_KAl(SiO3)2
_symmetry_space_group_name_H-M   'P 1'
_cell_length_a   11.65217462
_cell_length_b   11.65217462
_cell_length_c   11.65217462
_cell_angle_alpha   111.20788025
_cell_angle_beta   111.20788025
_cell_angle_gamma   106.05109105
_symmetry_Int_Tables_number   1
_chemical_formula_structural   KAl(SiO3)2
_chemical_formula_sum   'K8 Al8 Si16 O48'
_cell_volume   1214.63507452
_cell_formula_units_Z   8
loop_
 _symmetry_equiv_pos_site_id
 _symmetry_equiv_pos_as_xyz
  1  'x, y, z'
loop_
 _atom_site_type_symbol
 _atom_site_label
 _atom_site_symmetry_multiplicity
 _atom_site_fract_x
 _atom_site_fract_y
 _atom_site_fract_z
 _atom_site_occupancy
  K  K0  1  0.13197500  0.36969500  0.97837600  1
  K  K1  1  0.63030500  0.60868100  0.76228000  1
  K  K2  1  0.11969500  0.64131900  0.73772000  1
  K  K3  1  0.90359900  0.38197500  0.26228000  1
  K  K4  1  0.39131900  0.15359900  0.02162400  1
  K  K5  1  0.35868100  0.09640100  0.47837600  1
  K  K6  1  0.61802500  0.88030500  0.52162400  1
  K  K7  1  0.84640100  0.86802500  0.23772000  1
  Al  Al8  1  0.57796300  0.88600400  0.97001300  1
  Al  Al9  1  0.11399600  0.08400900  0.69195800  1
  Al  Al10  1  0.35795000  0.82796300  0.19195800  1
  Al  Al11  1  0.39205000  0.42203700  0.30804200  1
  Al  Al12  1  0.91599100  0.60795000  0.02998700  1
  Al  Al13  1  0.83400900  0.64205000  0.47001300  1
  Al  Al14  1  0.17203700  0.36399600  0.52998700  1
  Al  Al15  1  0.63600400  0.16599100  0.80804200  1
  Si  Si16  1  0.32159700  0.60686100  0.50747000  1
  Si  Si17  1  0.56412700  0.57159700  0.21473600  1
  Si  Si18  1  0.65060900  0.43587300  0.00747000  1
  Si  Si19  1  0.09794100  0.18892400  0.20096400  1
  Si  Si20  1  0.42840300  0.64313900  0.99253000  1
  Si  Si21  1  0.09939100  0.81412700  0.49253000  1
  Si  Si22  1  0.98796000  0.89697700  0.79903600  1
  Si  Si23  1  0.76204000  0.35302300  0.70096400  1
  Si  Si24  1  0.10302300  0.90205900  0.09098300  1
  Si  Si25  1  0.81107600  0.01204000  0.90901700  1
  Si  Si26  1  0.18587300  0.67840300  0.28526400  1
  Si  Si27  1  0.93892400  0.23796000  0.59098300  1
  Si  Si28  1  0.65205900  0.06107600  0.29903600  1
  Si  Si29  1  0.35686100  0.34939100  0.78526400  1
  Si  Si30  1  0.64697700  0.34794100  0.40901700  1
  Si  Si31  1  0.39313900  0.90060900  0.71473600  1
  O  O32  1  0.41979400  0.49793100  0.20764100  1
  O  O33  1  0.73545500  0.07920300  0.82802100  1
  O  O34  1  0.89207600  0.32882400  0.69295700  1
  O  O35  1  0.15878600  0.80167700  0.38163600  1
  O  O36  1  0.22285100  0.84121400  0.64289100  1
  O  O37  1  0.82920300  0.50118200  0.84374800  1
  O  O38  1  0.25118200  0.90743400  0.17197900  1
  O  O39  1  0.33020600  0.75206900  0.29235900  1
  O  O40  1  0.19832300  0.57995900  0.35710900  1
  O  O41  1  0.42155500  0.54313300  0.47421800  1
  O  O42  1  0.96215300  0.66979400  0.42186400  1
  O  O43  1  0.92079700  0.74881800  0.65625200  1
  O  O44  1  0.45971000  0.03784700  0.70764100  1
  O  O45  1  0.29029000  0.21215300  0.79235900  1
  O  O46  1  0.09256600  0.26454500  0.34374800  1
  O  O47  1  0.97362600  0.78077800  0.06924500  1
  O  O48  1  0.67117600  0.36413300  0.56325200  1
  O  O49  1  0.21922200  0.28846700  0.19284800  1
  O  O50  1  0.85792400  0.92117600  0.80704300  1
  O  O51  1  0.50206900  0.70971000  0.92186400  1
  O  O52  1  0.01454500  0.17079700  0.67197900  1
  O  O53  1  0.49881800  0.34256600  0.32802100  1
  O  O54  1  0.05266300  0.57844500  0.12157800  1
  O  O55  1  0.52714900  0.40878600  0.85710900  1
  O  O56  1  0.80088200  0.10792400  0.43674800  1
  O  O57  1  0.24793100  0.54029000  0.57813600  1
  O  O58  1  0.65743400  0.98545500  0.15625200  1
  O  O59  1  0.55167700  0.67004100  0.14289100  1
  O  O60  1  0.09561900  0.02637400  0.80715200  1
  O  O61  1  0.59121400  0.44832300  0.11836400  1
  O  O62  1  0.42004100  0.77714900  0.61836400  1
  O  O63  1  0.45686700  0.93108500  0.87842200  1
  O  O64  1  0.77637400  0.46922200  0.43075500  1
  O  O65  1  0.32995900  0.47285100  0.88163600  1
  O  O66  1  0.03846700  0.34561900  0.56924500  1
  O  O67  1  0.11413300  0.05088200  0.19295700  1
  O  O68  1  0.32844500  0.70686700  0.02578200  1
  O  O69  1  0.69733700  0.67155500  0.37842200  1
  O  O70  1  0.78784700  0.58020600  0.07813600  1
  O  O71  1  0.63586700  0.19911800  0.30704300  1
  O  O72  1  0.07882400  0.88586700  0.93674800  1
  O  O73  1  0.94911800  0.14207600  0.06325200  1
  O  O74  1  0.65438100  0.22362600  0.69284800  1
  O  O75  1  0.71153300  0.90438100  0.93075500  1
  O  O76  1  0.29313300  0.31891500  0.62157800  1
  O  O77  1  0.53077800  0.96153300  0.30715200  1
  O  O78  1  0.06891500  0.94733700  0.52578200  1
  O  O79  1  0.68108500  0.30266300  0.97421800  1
