# generated using pymatgen
data_Rb2Mo2H4C4O15
_symmetry_space_group_name_H-M   'P 1'
_cell_length_a   14.53349100
_cell_length_b   7.03023000
_cell_length_c   7.80941382
_cell_angle_alpha   85.52231016
_cell_angle_beta   90.00000000
_cell_angle_gamma   90.00000000
_symmetry_Int_Tables_number   1
_chemical_formula_structural   Rb2Mo2H4C4O15
_chemical_formula_sum   'Rb4 Mo4 H8 C8 O30'
_cell_volume   795.48196826
_cell_formula_units_Z   2
loop_
 _symmetry_equiv_pos_site_id
 _symmetry_equiv_pos_as_xyz
  1  'x, y, z'
loop_
 _atom_site_type_symbol
 _atom_site_label
 _atom_site_symmetry_multiplicity
 _atom_site_fract_x
 _atom_site_fract_y
 _atom_site_fract_z
 _atom_site_occupancy
  Rb  Rb0  1  0.63719600  0.12715800  0.19158700  1
  Rb  Rb1  1  0.13719600  0.37284200  0.80841300  1
  Rb  Rb2  1  0.36280400  0.87284200  0.80841300  1
  Rb  Rb3  1  0.86280400  0.62715800  0.19158700  1
  Mo  Mo4  1  0.39307000  0.38389400  0.10554100  1
  Mo  Mo5  1  0.89307000  0.11610600  0.89445900  1
  Mo  Mo6  1  0.10693000  0.88389400  0.10554100  1
  Mo  Mo7  1  0.60693000  0.61610600  0.89445900  1
  H  H8  1  0.43547500  0.72578000  0.28965900  1
  H  H9  1  0.17506800  0.22640100  0.26031200  1
  H  H10  1  0.82493200  0.77359900  0.73968800  1
  H  H11  1  0.32493200  0.72640100  0.26031200  1
  H  H12  1  0.67506900  0.27359900  0.73968800  1
  H  H13  1  0.06452500  0.22578000  0.28965900  1
  H  H14  1  0.56452500  0.27422000  0.71034100  1
  H  H15  1  0.93547500  0.77422000  0.71034100  1
  C  C16  1  0.07001400  0.76016400  0.47968100  1
  C  C17  1  0.17621200  0.74801300  0.45687600  1
  C  C18  1  0.57001400  0.73983600  0.52031900  1
  C  C19  1  0.32378800  0.24801300  0.45687600  1
  C  C20  1  0.67621200  0.75198700  0.54312400  1
  C  C21  1  0.92998600  0.23983600  0.52031900  1
  C  C22  1  0.82378800  0.25198700  0.54312400  1
  C  C23  1  0.42998600  0.26016400  0.47968100  1
  O  O24  1  0.30474000  0.46909600  0.96982300  1
  O  O25  1  0.08978600  0.65045500  0.05651600  1
  O  O26  1  0.72727900  0.81468100  0.42631800  1
  O  O27  1  0.58978600  0.84954500  0.94348400  1
  O  O28  1  0.46556400  0.20002800  0.61828700  1
  O  O29  1  0.27272100  0.18531900  0.57368200  1
  O  O30  1  0.88417600  0.82054900  0.78179800  1
  O  O31  1  0.91021400  0.34954500  0.94348400  1
  O  O32  1  0.22727900  0.68531900  0.57368200  1
  O  O33  1  0.41021400  0.15045500  0.05651600  1
  O  O34  1  0.97255400  0.16703200  0.65500100  1
  O  O35  1  0.70447400  0.69085800  0.69766300  1
  O  O36  1  0.20447400  0.80914200  0.30233700  1
  O  O37  1  0.80474000  0.03090400  0.03017700  1
  O  O38  1  0.96556400  0.29997200  0.38171300  1
  O  O39  1  0.02744600  0.83296800  0.34499900  1
  O  O40  1  0.03443600  0.70002800  0.61828700  1
  O  O41  1  0.52744600  0.66703200  0.65500100  1
  O  O42  1  0.11582400  0.17945100  0.21820200  1
  O  O43  1  0.79552600  0.19085800  0.69766300  1
  O  O44  1  0.00000000  0.00000000  0.00000000  1
  O  O45  1  0.61582400  0.32054900  0.78179800  1
  O  O46  1  0.77272100  0.31468100  0.42631800  1
  O  O47  1  0.47255400  0.33296800  0.34499900  1
  O  O48  1  0.53443600  0.79997200  0.38171300  1
  O  O49  1  0.19526000  0.96909600  0.96982300  1
  O  O50  1  0.29552600  0.30914200  0.30233700  1
  O  O51  1  0.38417600  0.67945100  0.21820200  1
  O  O52  1  0.69526000  0.53090400  0.03017700  1
  O  O53  1  0.50000000  0.50000000  0.00000000  1
