# generated using pymatgen
data_Sr7Mn4O13
_symmetry_space_group_name_H-M   'P 1'
_cell_length_a   9.98434000
_cell_length_b   6.94116400
_cell_length_c   10.29548345
_cell_angle_alpha   85.43507620
_cell_angle_beta   90.00000000
_cell_angle_gamma   90.00000000
_symmetry_Int_Tables_number   1
_chemical_formula_structural   Sr7Mn4O13
_chemical_formula_sum   'Sr14 Mn8 O26'
_cell_volume   711.24388998
_cell_formula_units_Z   2
loop_
 _symmetry_equiv_pos_site_id
 _symmetry_equiv_pos_as_xyz
  1  'x, y, z'
loop_
 _atom_site_type_symbol
 _atom_site_label
 _atom_site_symmetry_multiplicity
 _atom_site_fract_x
 _atom_site_fract_y
 _atom_site_fract_z
 _atom_site_occupancy
  Sr  Sr0  1  0.67737500  0.99288700  0.96141300  1
  Sr  Sr1  1  0.85915100  0.66318400  0.19726900  1
  Sr  Sr2  1  0.49127200  0.16218100  0.65754600  1
  Sr  Sr3  1  0.50872800  0.83781900  0.34245400  1
  Sr  Sr4  1  0.99127200  0.83781900  0.84245400  1
  Sr  Sr5  1  0.50000000  0.50000000  0.00000000  1
  Sr  Sr6  1  0.32262500  0.00711300  0.03858700  1
  Sr  Sr7  1  0.17737500  0.00711300  0.53858700  1
  Sr  Sr8  1  0.82262500  0.99288700  0.46141300  1
  Sr  Sr9  1  0.35915100  0.33681600  0.30273100  1
  Sr  Sr10  1  0.14084900  0.33681600  0.80273100  1
  Sr  Sr11  1  0.64084900  0.66318400  0.69726900  1
  Sr  Sr12  1  0.00872800  0.16218100  0.15754600  1
  Sr  Sr13  1  0.00000000  0.50000000  0.50000000  1
  Mn  Mn14  1  0.16467100  0.57327000  0.07873200  1
  Mn  Mn15  1  0.66467100  0.42673000  0.42126800  1
  Mn  Mn16  1  0.83532900  0.42673000  0.92126800  1
  Mn  Mn17  1  0.17556700  0.77276600  0.28103200  1
  Mn  Mn18  1  0.67556700  0.22723400  0.21896800  1
  Mn  Mn19  1  0.33532900  0.57327000  0.57873200  1
  Mn  Mn20  1  0.32443300  0.77276600  0.78103200  1
  Mn  Mn21  1  0.82443300  0.22723400  0.71896800  1
  O  O22  1  0.52849300  0.15194600  0.11867500  1
  O  O23  1  0.59041500  0.15956600  0.41709400  1
  O  O24  1  0.50000000  0.50000000  0.50000000  1
  O  O25  1  0.67537100  0.32648900  0.82983200  1
  O  O26  1  0.77396300  0.99602100  0.19756500  1
  O  O27  1  0.75278000  0.66068900  0.95689900  1
  O  O28  1  0.72603700  0.99602100  0.69756500  1
  O  O29  1  0.25278000  0.33931100  0.54310100  1
  O  O30  1  0.02849300  0.84805400  0.38132500  1
  O  O31  1  0.97150700  0.15194600  0.61867500  1
  O  O32  1  0.74722000  0.66068900  0.45689900  1
  O  O33  1  0.40958500  0.84043400  0.58290600  1
  O  O34  1  0.17537100  0.67351100  0.67016800  1
  O  O35  1  0.10338500  0.50728800  0.27527300  1
  O  O36  1  0.24722000  0.33931100  0.04310100  1
  O  O37  1  0.09041500  0.84043400  0.08290600  1
  O  O38  1  0.82462900  0.32648900  0.32983200  1
  O  O39  1  0.22603700  0.00397900  0.80243500  1
  O  O40  1  0.27396300  0.00397900  0.30243500  1
  O  O41  1  0.47150700  0.84805400  0.88132500  1
  O  O42  1  0.32462900  0.67351100  0.17016800  1
  O  O43  1  0.39661500  0.50728800  0.77527300  1
  O  O44  1  0.60338500  0.49271200  0.22472700  1
  O  O45  1  0.90958500  0.15956600  0.91709400  1
  O  O46  1  0.89661500  0.49271200  0.72472700  1
  O  O47  1  0.00000000  0.50000000  0.00000000  1
