# generated using pymatgen
data_Bi5IO7
_symmetry_space_group_name_H-M   'P 1'
_cell_length_a   14.73707702
_cell_length_b   14.73707702
_cell_length_c   14.73707702
_cell_angle_alpha   158.52668822
_cell_angle_beta   111.24777432
_cell_angle_gamma   72.96295100
_symmetry_Int_Tables_number   1
_chemical_formula_structural   Bi5IO7
_chemical_formula_sum   'Bi20 I4 O28'
_cell_volume   1082.77166426
_cell_formula_units_Z   4
loop_
 _symmetry_equiv_pos_site_id
 _symmetry_equiv_pos_as_xyz
  1  'x, y, z'
loop_
 _atom_site_type_symbol
 _atom_site_label
 _atom_site_symmetry_multiplicity
 _atom_site_fract_x
 _atom_site_fract_y
 _atom_site_fract_z
 _atom_site_occupancy
  Bi  Bi0  1  0.88279500  0.35005900  0.61310200  1
  Bi  Bi1  1  0.98266500  0.10206900  0.96357700  1
  Bi  Bi2  1  0.38279500  0.76969300  0.53273600  1
  Bi  Bi3  1  0.23695700  0.26969300  0.88689800  1
  Bi  Bi4  1  0.26304300  0.14994100  0.03273600  1
  Bi  Bi5  1  0.36150800  0.98091200  0.46357700  1
  Bi  Bi6  1  0.61720500  0.23030700  0.46726400  1
  Bi  Bi7  1  0.13849200  0.60206900  0.61940400  1
  Bi  Bi8  1  0.04745400  0.79745400  0.25000000  1
  Bi  Bi9  1  0.76304300  0.73030700  0.11310200  1
  Bi  Bi10  1  0.11720500  0.64994100  0.38689800  1
  Bi  Bi11  1  0.45254600  0.70254600  0.75000000  1
  Bi  Bi12  1  0.48266500  0.51908800  0.88059600  1
  Bi  Bi13  1  0.51733500  0.48091200  0.11940400  1
  Bi  Bi14  1  0.01733500  0.89793100  0.03642300  1
  Bi  Bi15  1  0.73695700  0.85005900  0.96726400  1
  Bi  Bi16  1  0.54745400  0.29745400  0.25000000  1
  Bi  Bi17  1  0.86150800  0.39793100  0.38059600  1
  Bi  Bi18  1  0.63849200  0.01908800  0.53642300  1
  Bi  Bi19  1  0.95254600  0.20254600  0.75000000  1
  I  I20  1  0.34321600  0.09321600  0.25000000  1
  I  I21  1  0.15678400  0.40678400  0.75000000  1
  I  I22  1  0.84321600  0.59321600  0.25000000  1
  I  I23  1  0.65678400  0.90678400  0.75000000  1
  O  O24  1  0.92342700  0.48399900  0.89962200  1
  O  O25  1  0.58437700  0.98399900  0.06057200  1
  O  O26  1  0.29049300  0.92478200  0.51545400  1
  O  O27  1  0.40609000  0.36736000  0.87293600  1
  O  O28  1  0.20950700  0.72496200  0.63428900  1
  O  O29  1  0.70950700  0.07521800  0.48454600  1
  O  O30  1  0.42342700  0.52380500  0.43942800  1
  O  O31  1  0.49442400  0.86736000  0.46127000  1
  O  O32  1  0.59067200  0.57521800  0.86571100  1
  O  O33  1  0.00557600  0.46684600  0.37293600  1
  O  O34  1  0.75000000  0.50135200  0.75135200  1
  O  O35  1  0.07657300  0.51600100  0.10037800  1
  O  O36  1  0.79049300  0.27503800  0.36571100  1
  O  O37  1  0.99442400  0.53315400  0.62706400  1
  O  O38  1  0.09391000  0.96684600  0.96127000  1
  O  O39  1  0.90932800  0.77503800  0.98454600  1
  O  O40  1  0.75000000  0.00135200  0.25135200  1
  O  O41  1  0.09067200  0.22496200  0.01545400  1
  O  O42  1  0.57657300  0.47619500  0.56057200  1
  O  O43  1  0.08437700  0.02380500  0.60037800  1
  O  O44  1  0.59391000  0.63264000  0.12706400  1
  O  O45  1  0.50557600  0.13264000  0.53873000  1
  O  O46  1  0.25000000  0.99864800  0.74864800  1
  O  O47  1  0.90609000  0.03315400  0.03873000  1
  O  O48  1  0.25000000  0.49864800  0.24864800  1
  O  O49  1  0.91562300  0.97619500  0.39962200  1
  O  O50  1  0.40932800  0.42478200  0.13428900  1
  O  O51  1  0.41562300  0.01600100  0.93942800  1
