# generated using pymatgen
data_KScH4(C2O5)2
_symmetry_space_group_name_H-M   'P 1'
_cell_length_a   8.96324400
_cell_length_b   8.96324400
_cell_length_c   11.59719000
_cell_angle_alpha   90.00000000
_cell_angle_beta   90.00000000
_cell_angle_gamma   119.99999997
_symmetry_Int_Tables_number   1
_chemical_formula_structural   KScH4(C2O5)2
_chemical_formula_sum   'K3 Sc3 H12 C12 O30'
_cell_volume   806.88908741
_cell_formula_units_Z   3
loop_
 _symmetry_equiv_pos_site_id
 _symmetry_equiv_pos_as_xyz
  1  'x, y, z'
loop_
 _atom_site_type_symbol
 _atom_site_label
 _atom_site_symmetry_multiplicity
 _atom_site_fract_x
 _atom_site_fract_y
 _atom_site_fract_z
 _atom_site_occupancy
  K  K0  1  0.00000000  0.00000000  0.66666700  1
  K  K1  1  0.00000000  0.00000000  0.33333300  1
  K  K2  1  0.00000000  0.00000000  0.00000000  1
  Sc  Sc3  1  0.00000000  0.50000000  0.66666700  1
  Sc  Sc4  1  0.50000000  0.50000000  0.33333300  1
  Sc  Sc5  1  0.50000000  0.00000000  0.00000000  1
  H  H6  1  0.34679800  0.09862900  0.48414200  1
  H  H7  1  0.75183200  0.09862900  0.51585800  1
  H  H8  1  0.65320200  0.75183200  0.84919100  1
  H  H9  1  0.90137100  0.24816800  0.15080900  1
  H  H10  1  0.90137100  0.65320200  0.18252400  1
  H  H11  1  0.09862900  0.34679800  0.18252400  1
  H  H12  1  0.09862900  0.75183200  0.15080900  1
  H  H13  1  0.75183200  0.65320200  0.81747600  1
  H  H14  1  0.24816800  0.90137100  0.51585800  1
  H  H15  1  0.24816800  0.34679800  0.81747600  1
  H  H16  1  0.34679800  0.24816800  0.84919100  1
  H  H17  1  0.65320200  0.90137100  0.48414200  1
  C  C18  1  0.21054000  0.42108000  0.50000000  1
  C  C19  1  0.61848800  0.30924400  0.16666700  1
  C  C20  1  0.30924400  0.69075600  0.83333300  1
  C  C21  1  0.69075600  0.38151200  0.50000000  1
  C  C22  1  0.69075600  0.30924400  0.83333300  1
  C  C23  1  0.78946000  0.21054000  0.83333300  1
  C  C24  1  0.78946000  0.57892000  0.50000000  1
  C  C25  1  0.38151200  0.69075600  0.16666700  1
  C  C26  1  0.57892000  0.78946000  0.16666700  1
  C  C27  1  0.21054000  0.78946000  0.83333300  1
  C  C28  1  0.42108000  0.21054000  0.16666700  1
  C  C29  1  0.30924400  0.61848800  0.50000000  1
  O  O30  1  0.31062400  0.75941600  0.10996000  1
  O  O31  1  0.00000000  0.76811900  0.16666700  1
  O  O32  1  0.68937600  0.44879100  0.22337300  1
  O  O33  1  0.24058400  0.68937600  0.55670600  1
  O  O34  1  0.00000000  0.23188100  0.16666700  1
  O  O35  1  0.73342400  0.65307900  0.43492000  1
  O  O36  1  0.23188100  0.23188100  0.83333300  1
  O  O37  1  0.55120900  0.24058400  0.89004000  1
  O  O38  1  0.65307900  0.91965600  0.10158700  1
  O  O39  1  0.76811900  0.00000000  0.50000000  1
  O  O40  1  0.65307900  0.73342400  0.23174600  1
  O  O41  1  0.44879100  0.68937600  0.44329400  1
  O  O42  1  0.08034400  0.34692100  0.56508000  1
  O  O43  1  0.34692100  0.08034400  0.10158700  1
  O  O44  1  0.73342400  0.08034400  0.89841300  1
  O  O45  1  0.08034400  0.73342400  0.76825400  1
  O  O46  1  0.91965600  0.26657600  0.76825400  1
  O  O47  1  0.26657600  0.34692100  0.43492000  1
  O  O48  1  0.91965600  0.65307900  0.56508000  1
  O  O49  1  0.23188100  0.00000000  0.50000000  1
  O  O50  1  0.24058400  0.55120900  0.77662700  1
  O  O51  1  0.55120900  0.31062400  0.44329400  1
  O  O52  1  0.31062400  0.55120900  0.22337300  1
  O  O53  1  0.26657600  0.91965600  0.89841300  1
  O  O54  1  0.44879100  0.75941600  0.89004000  1
  O  O55  1  0.76811900  0.76811900  0.83333300  1
  O  O56  1  0.75941600  0.31062400  0.55670600  1
  O  O57  1  0.68937600  0.24058400  0.10996000  1
  O  O58  1  0.34692100  0.26657600  0.23174600  1
  O  O59  1  0.75941600  0.44879100  0.77662700  1
