# generated using pymatgen
data_CeH16C4Cl3O4
_symmetry_space_group_name_H-M   'P 1'
_cell_length_a   18.82356500
_cell_length_b   8.62373000
_cell_length_c   9.04076947
_cell_angle_alpha   70.81108271
_cell_angle_beta   90.00000000
_cell_angle_gamma   90.00000000
_symmetry_Int_Tables_number   1
_chemical_formula_structural   CeH16C4Cl3O4
_chemical_formula_sum   'Ce4 H64 C16 Cl12 O16'
_cell_volume   1386.04324450
_cell_formula_units_Z   4
loop_
 _symmetry_equiv_pos_site_id
 _symmetry_equiv_pos_as_xyz
  1  'x, y, z'
loop_
 _atom_site_type_symbol
 _atom_site_label
 _atom_site_symmetry_multiplicity
 _atom_site_fract_x
 _atom_site_fract_y
 _atom_site_fract_z
 _atom_site_occupancy
  Ce  Ce0  1  0.58845900  0.62822100  0.82481200  1
  Ce  Ce1  1  0.08845900  0.87177900  0.17518800  1
  Ce  Ce2  1  0.41154100  0.37177900  0.17518800  1
  Ce  Ce3  1  0.91154100  0.12822100  0.82481200  1
  H  H4  1  0.40874400  0.53628300  0.54770300  1
  H  H5  1  0.67892000  0.91867400  0.38180700  1
  H  H6  1  0.93568800  0.38385900  0.49392400  1
  H  H7  1  0.62523400  0.26496100  0.55935500  1
  H  H8  1  0.43464800  0.06957500  0.95594300  1
  H  H9  1  0.68794900  0.70098700  0.46564600  1
  H  H10  1  0.09561100  0.18337100  0.89691500  1
  H  H11  1  0.56535200  0.93042500  0.04405700  1
  H  H12  1  0.40438900  0.68337100  0.89691500  1
  H  H13  1  0.95954500  0.82766200  0.60925800  1
  H  H14  1  0.69169300  0.24528700  0.23436300  1
  H  H15  1  0.94085800  0.57343200  0.84984500  1
  H  H16  1  0.55914200  0.07343200  0.84984500  1
  H  H17  1  0.63549800  0.07602200  0.96772200  1
  H  H18  1  0.19169300  0.25471300  0.76563700  1
  H  H19  1  0.56431200  0.88385900  0.49392400  1
  H  H20  1  0.20256600  0.03682300  0.82220100  1
  H  H21  1  0.82396800  0.42385900  0.83486900  1
  H  H22  1  0.67269300  0.37786500  0.71467300  1
  H  H23  1  0.90438900  0.81662900  0.10308500  1
  H  H24  1  0.82730700  0.87786500  0.71467300  1
  H  H25  1  0.09125600  0.03628300  0.54770300  1
  H  H26  1  0.32730700  0.62213500  0.28532700  1
  H  H27  1  0.81205100  0.20098700  0.46564600  1
  H  H28  1  0.36450200  0.92397800  0.03227800  1
  H  H29  1  0.86450200  0.57602200  0.96772200  1
  H  H30  1  0.93464800  0.43042500  0.04405700  1
  H  H31  1  0.62480700  0.78643800  0.31066500  1
  H  H32  1  0.31205100  0.29901300  0.53435400  1
  H  H33  1  0.87519300  0.28643800  0.31066500  1
  H  H34  1  0.32108000  0.08132600  0.61819300  1
  H  H35  1  0.37476600  0.73503900  0.44064500  1
  H  H36  1  0.44085800  0.92656800  0.15015500  1
  H  H37  1  0.80830700  0.74528700  0.23436300  1
  H  H38  1  0.05914200  0.42656800  0.15015500  1
  H  H39  1  0.30830700  0.75471300  0.76563700  1
  H  H40  1  0.17269300  0.12213500  0.28532700  1
  H  H41  1  0.59561100  0.31662900  0.10308500  1
  H  H42  1  0.70256600  0.46317700  0.17779900  1
  H  H43  1  0.12480700  0.71356200  0.68933500  1
  H  H44  1  0.79743400  0.96317700  0.17779900  1
  H  H45  1  0.54045500  0.32766200  0.60925800  1
  H  H46  1  0.43568800  0.11614100  0.50607600  1
  H  H47  1  0.06431200  0.61614100  0.50607600  1
  H  H48  1  0.37519300  0.21356200  0.68933500  1
  H  H49  1  0.25642600  0.64886400  0.93543200  1
  H  H50  1  0.90874400  0.96371700  0.45229700  1
  H  H51  1  0.74357400  0.35113600  0.06456800  1
  H  H52  1  0.17603200  0.57614100  0.16513100  1
  H  H53  1  0.18794900  0.79901300  0.53435400  1
  H  H54  1  0.82108000  0.41867400  0.38180700  1
  H  H55  1  0.45954500  0.67233800  0.39074200  1
  H  H56  1  0.04045500  0.17233800  0.39074200  1
  H  H57  1  0.29743400  0.53682300  0.82220100  1
  H  H58  1  0.75642600  0.85113600  0.06456800  1
  H  H59  1  0.12523400  0.23503900  0.44064500  1
  H  H60  1  0.67603200  0.92385900  0.83486900  1
  H  H61  1  0.17892000  0.58132600  0.61819300  1
  H  H62  1  0.24357400  0.14886400  0.93543200  1
  H  H63  1  0.32396800  0.07614100  0.16513100  1
  H  H64  1  0.13549800  0.42397800  0.03227800  1
  H  H65  1  0.06535200  0.56957500  0.95594300  1
  H  H66  1  0.59125600  0.46371700  0.45229700  1
  H  H67  1  0.87476600  0.76496100  0.55935500  1
  C  C68  1  0.59552200  0.99788000  0.93937500  1
  C  C69  1  0.30304200  0.64124500  0.86577600  1
  C  C70  1  0.19695800  0.14124500  0.86577600  1
  C  C71  1  0.15038800  0.69895200  0.58544900  1
  C  C72  1  0.09552200  0.50212000  0.06062500  1
  C  C73  1  0.84961200  0.30104800  0.41455100  1
  C  C74  1  0.90569400  0.86910300  0.56829900  1
  C  C75  1  0.59430600  0.36910300  0.56829900  1
  C  C76  1  0.40569400  0.63089700  0.43170100  1
  C  C77  1  0.40447800  0.00212000  0.06062500  1
  C  C78  1  0.34961200  0.19895200  0.58544900  1
  C  C79  1  0.80304200  0.85875500  0.13422400  1
  C  C80  1  0.09430600  0.13089700  0.43170100  1
  C  C81  1  0.90447800  0.49788000  0.93937500  1
  C  C82  1  0.69695800  0.35875500  0.13422400  1
  C  C83  1  0.65038800  0.80104800  0.41455100  1
  Cl  Cl84  1  0.97726500  0.11127300  0.12345800  1
  Cl  Cl85  1  0.76080000  0.16446800  0.78207800  1
  Cl  Cl86  1  0.52273500  0.61127300  0.12345800  1
  Cl  Cl87  1  0.47726500  0.38872700  0.87654200  1
  Cl  Cl88  1  0.26080000  0.33553200  0.21792200  1
  Cl  Cl89  1  0.02273500  0.88872700  0.87654200  1
  Cl  Cl90  1  0.53074700  0.16067600  0.28461300  1
  Cl  Cl91  1  0.03074700  0.33932400  0.71538700  1
  Cl  Cl92  1  0.23920000  0.83553200  0.21792200  1
  Cl  Cl93  1  0.96925300  0.66067600  0.28461300  1
  Cl  Cl94  1  0.46925300  0.83932400  0.71538700  1
  Cl  Cl95  1  0.73920000  0.66446800  0.78207800  1
  O  O96  1  0.09810300  0.70672900  0.46677000  1
  O  O97  1  0.40189700  0.20672900  0.46677000  1
  O  O98  1  0.13073800  0.62177100  0.11661700  1
  O  O99  1  0.13519700  0.12197800  0.96401500  1
  O  O100  1  0.12766300  0.06401100  0.32189100  1
  O  O101  1  0.36480300  0.62197800  0.96401500  1
  O  O102  1  0.63073800  0.87822900  0.88338300  1
  O  O103  1  0.86926200  0.37822900  0.88338300  1
  O  O104  1  0.37233700  0.56401100  0.32189100  1
  O  O105  1  0.90189700  0.29327100  0.53323000  1
  O  O106  1  0.86480300  0.87802200  0.03598500  1
  O  O107  1  0.59810300  0.79327100  0.53323000  1
  O  O108  1  0.87233700  0.93598900  0.67810900  1
  O  O109  1  0.36926200  0.12177100  0.11661700  1
  O  O110  1  0.63519700  0.37802200  0.03598500  1
  O  O111  1  0.62766300  0.43598900  0.67810900  1
