# generated using pymatgen
data_CaMgCd2
_symmetry_space_group_name_H-M   'P 1'
_cell_length_a   13.04125633
_cell_length_b   13.04125633
_cell_length_c   13.04125633
_cell_angle_alpha   120.63943231
_cell_angle_beta   118.11494666
_cell_angle_gamma   91.09581064
_symmetry_Int_Tables_number   1
_chemical_formula_structural   CaMgCd2
_chemical_formula_sum   'Ca1 Mg1 Cd2'
_cell_volume   1581.86373915
_cell_formula_units_Z   1
loop_
 _symmetry_equiv_pos_site_id
 _symmetry_equiv_pos_as_xyz
  1  'x, y, z'
loop_
 _atom_site_type_symbol
 _atom_site_label
 _atom_site_symmetry_multiplicity
 _atom_site_fract_x
 _atom_site_fract_y
 _atom_site_fract_z
 _atom_site_occupancy
  Ca  Ca0  1  0.50000000  0.00000000  0.50000000  1
  Mg  Mg1  1  0.00000000  0.00000000  0.00000000  1
  Cd  Cd2  1  0.23893500  0.00000000  0.23893500  1
  Cd  Cd3  1  0.76106500  0.00000000  0.76106500  1
