# generated using pymatgen
data_Bi2WO6
_symmetry_space_group_name_H-M   'P 1'
_cell_length_a   8.46341033
_cell_length_b   8.46341033
_cell_length_c   8.34198053
_cell_angle_alpha   78.60600226
_cell_angle_beta   78.60600226
_cell_angle_gamma   26.33075995
_symmetry_Int_Tables_number   1
_chemical_formula_structural   Bi2WO6
_chemical_formula_sum   'Bi4 W2 O12'
_cell_volume   259.52384120
_cell_formula_units_Z   2
loop_
 _symmetry_equiv_pos_site_id
 _symmetry_equiv_pos_as_xyz
  1  'x, y, z'
loop_
 _atom_site_type_symbol
 _atom_site_label
 _atom_site_symmetry_multiplicity
 _atom_site_fract_x
 _atom_site_fract_y
 _atom_site_fract_z
 _atom_site_occupancy
  Bi  Bi0  1  0.31900900  0.31900900  0.60540400  1
  Bi  Bi1  1  0.68099100  0.68099100  0.39459600  1
  Bi  Bi2  1  0.66748800  0.66748800  0.92860100  1
  Bi  Bi3  1  0.33251200  0.33251200  0.07139900  1
  W  W4  1  0.99603000  0.99603000  0.70279200  1
  W  W5  1  0.00397000  0.00397000  0.29720800  1
  O  O6  1  0.24888500  0.24888500  0.88035900  1
  O  O7  1  0.26756700  0.26756700  0.36554000  1
  O  O8  1  0.07851600  0.07851600  0.48517300  1
  O  O9  1  0.73243300  0.73243300  0.63446000  1
  O  O10  1  0.92646600  0.92646600  0.17211100  1
  O  O11  1  0.10750900  0.10750900  0.15337000  1
  O  O12  1  0.92148400  0.92148400  0.51482700  1
  O  O13  1  0.89249100  0.89249100  0.84663000  1
  O  O14  1  0.75111500  0.75111500  0.11964100  1
  O  O15  1  0.07353400  0.07353400  0.82788900  1
  O  O16  1  0.49396300  0.49396300  0.68612100  1
  O  O17  1  0.50603700  0.50603700  0.31387900  1
