# generated using pymatgen
data_Ba2AgPd
_symmetry_space_group_name_H-M   'P 1'
_cell_length_a   13.28546999
_cell_length_b   13.28546999
_cell_length_c   13.28546999
_cell_angle_alpha   124.60791066
_cell_angle_beta   118.48951119
_cell_angle_gamma   87.42338497
_symmetry_Int_Tables_number   1
_chemical_formula_structural   Ba2AgPd
_chemical_formula_sum   'Ba2 Ag1 Pd1'
_cell_volume   1611.42327954
_cell_formula_units_Z   1
loop_
 _symmetry_equiv_pos_site_id
 _symmetry_equiv_pos_as_xyz
  1  'x, y, z'
loop_
 _atom_site_type_symbol
 _atom_site_label
 _atom_site_symmetry_multiplicity
 _atom_site_fract_x
 _atom_site_fract_y
 _atom_site_fract_z
 _atom_site_occupancy
  Ba  Ba0  1  0.00000000  0.23074200  0.23074200  1
  Ba  Ba1  1  0.00000000  0.76925800  0.76925800  1
  Ag  Ag2  1  0.00000000  0.50000000  0.50000000  1
  Pd  Pd3  1  0.00000000  0.00000000  0.00000000  1
