# generated using pymatgen
data_H10C3NClO4
_symmetry_space_group_name_H-M   'P 1'
_cell_length_a   8.93371800
_cell_length_b   5.75333900
_cell_length_c   7.67144212
_cell_angle_alpha   76.18703013
_cell_angle_beta   90.00000000
_cell_angle_gamma   90.00000000
_symmetry_Int_Tables_number   1
_chemical_formula_structural   H10C3NClO4
_chemical_formula_sum   'H20 C6 N2 Cl2 O8'
_cell_volume   382.89909691
_cell_formula_units_Z   2
loop_
 _symmetry_equiv_pos_site_id
 _symmetry_equiv_pos_as_xyz
  1  'x, y, z'
loop_
 _atom_site_type_symbol
 _atom_site_label
 _atom_site_symmetry_multiplicity
 _atom_site_fract_x
 _atom_site_fract_y
 _atom_site_fract_z
 _atom_site_occupancy
  H  H0  1  0.48707100  0.04578600  0.72596700  1
  H  H1  1  0.39391600  0.78628600  0.85780700  1
  H  H2  1  0.75073900  0.93662800  0.98910400  1
  H  H3  1  0.25073900  0.06337200  0.01089600  1
  H  H4  1  0.24968000  0.20168900  0.61402300  1
  H  H5  1  0.34537600  0.31445300  0.87002100  1
  H  H6  1  0.88663000  0.15170300  0.38285600  1
  H  H7  1  0.74968000  0.79831100  0.38597700  1
  H  H8  1  0.12132200  0.82718900  0.62792100  1
  H  H9  1  0.01496100  0.03768500  0.71822600  1
  H  H10  1  0.64400400  0.69889800  0.12847900  1
  H  H11  1  0.14400400  0.30110200  0.87152100  1
  H  H12  1  0.10747100  0.79179300  0.86662200  1
  H  H13  1  0.60747100  0.20820700  0.13337800  1
  H  H14  1  0.98707100  0.95421400  0.27403300  1
  H  H15  1  0.89391600  0.21371400  0.14219300  1
  H  H16  1  0.84537600  0.68554700  0.12997900  1
  H  H17  1  0.51496100  0.96231500  0.28177400  1
  H  H18  1  0.62132200  0.17281100  0.37207900  1
  H  H19  1  0.38663000  0.84829700  0.61714400  1
  C  C20  1  0.74763000  0.80299900  0.11732400  1
  C  C21  1  0.61320900  0.07921400  0.26389400  1
  C  C22  1  0.11320900  0.92078600  0.73610600  1
  C  C23  1  0.24763000  0.19700100  0.88267600  1
  C  C24  1  0.89018900  0.07275000  0.26647700  1
  C  C25  1  0.39018900  0.92725000  0.73352300  1
  N  N26  1  0.75046000  0.92911000  0.26673000  1
  N  N27  1  0.25046000  0.07089000  0.73327000  1
  Cl  Cl28  1  0.75301900  0.49816700  0.70903100  1
  Cl  Cl29  1  0.25301900  0.50183300  0.29096900  1
  O  O30  1  0.76627000  0.75905400  0.67847500  1
  O  O31  1  0.11414200  0.58278400  0.19519900  1
  O  O32  1  0.38024300  0.61805100  0.18565200  1
  O  O33  1  0.26627000  0.24094600  0.32152500  1
  O  O34  1  0.75166700  0.43842000  0.53272500  1
  O  O35  1  0.88024300  0.38194900  0.81434800  1
  O  O36  1  0.61414200  0.41721600  0.80480100  1
  O  O37  1  0.25166700  0.56158000  0.46727500  1
