# generated using pymatgen
data_NiH32C8S4(NO5)2
_symmetry_space_group_name_H-M   'P 1'
_cell_length_a   10.68413900
_cell_length_b   10.20624300
_cell_length_c   11.85799386
_cell_angle_alpha   55.32727170
_cell_angle_beta   90.00000000
_cell_angle_gamma   90.00000000
_symmetry_Int_Tables_number   1
_chemical_formula_structural   NiH32C8S4(NO5)2
_chemical_formula_sum   'Ni2 H64 C16 S8 N4 O20'
_cell_volume   1063.42687650
_cell_formula_units_Z   2
loop_
 _symmetry_equiv_pos_site_id
 _symmetry_equiv_pos_as_xyz
  1  'x, y, z'
loop_
 _atom_site_type_symbol
 _atom_site_label
 _atom_site_symmetry_multiplicity
 _atom_site_fract_x
 _atom_site_fract_y
 _atom_site_fract_z
 _atom_site_occupancy
  Ni  Ni0  1  0.00000000  0.00000000  0.00000000  1
  Ni  Ni1  1  0.50000000  0.00000000  0.50000000  1
  H  H2  1  0.46977100  0.81822300  0.76225300  1
  H  H3  1  0.58392300  0.39806500  0.62388400  1
  H  H4  1  0.48742900  0.17471700  0.82879300  1
  H  H5  1  0.40287300  0.87923000  0.37609200  1
  H  H6  1  0.49546000  0.58403000  0.73167400  1
  H  H7  1  0.50454000  0.41597000  0.26832600  1
  H  H8  1  0.01257100  0.17471700  0.32879300  1
  H  H9  1  0.76653800  0.34351700  0.20871600  1
  H  H10  1  0.12380600  0.65615300  0.49864500  1
  H  H11  1  0.91607700  0.39806500  0.12388400  1
  H  H12  1  0.86353900  0.11757000  0.41688200  1
  H  H13  1  0.69528000  0.51051200  0.85017200  1
  H  H14  1  0.24322000  0.68831100  0.07303200  1
  H  H15  1  0.45822600  0.19057400  0.58328600  1
  H  H16  1  0.90287300  0.12077000  0.12390800  1
  H  H17  1  0.25678000  0.68831100  0.57303200  1
  H  H18  1  0.13646100  0.88243000  0.58311800  1
  H  H19  1  0.09316200  0.43521300  0.22940100  1
  H  H20  1  0.74322000  0.31168900  0.42696800  1
  H  H21  1  0.33987300  0.91219100  0.70823400  1
  H  H22  1  0.00313900  0.84546900  0.51159100  1
  H  H23  1  0.66012700  0.08780900  0.29176600  1
  H  H24  1  0.50313900  0.15453100  0.98840900  1
  H  H25  1  0.96977100  0.18177700  0.73774700  1
  H  H26  1  0.26653800  0.65648300  0.29128400  1
  H  H27  1  0.53022900  0.18177700  0.23774700  1
  H  H28  1  0.07388100  0.41757100  0.38791500  1
  H  H29  1  0.92611900  0.58242900  0.61208500  1
  H  H30  1  0.83987300  0.08780900  0.79176600  1
  H  H31  1  0.49686100  0.84546900  0.01159100  1
  H  H32  1  0.08392300  0.60193500  0.87611600  1
  H  H33  1  0.90683800  0.56478700  0.77059900  1
  H  H34  1  0.16012700  0.91219100  0.20823400  1
  H  H35  1  0.04177400  0.19057400  0.08328600  1
  H  H36  1  0.80472000  0.51051200  0.35017200  1
  H  H37  1  0.57388100  0.58242900  0.11208500  1
  H  H38  1  0.32787000  0.45785800  0.36796800  1
  H  H39  1  0.17213000  0.45785800  0.86796800  1
  H  H40  1  0.99686100  0.15453100  0.48840900  1
  H  H41  1  0.62380600  0.34384700  0.00135500  1
  H  H42  1  0.36353900  0.88243000  0.08311800  1
  H  H43  1  0.09712700  0.87923000  0.87609200  1
  H  H44  1  0.87619400  0.34384700  0.50135500  1
  H  H45  1  0.30472000  0.48948800  0.14982800  1
  H  H46  1  0.67213000  0.54214200  0.63203200  1
  H  H47  1  0.51257100  0.82528300  0.17120700  1
  H  H48  1  0.95822600  0.80942600  0.91671400  1
  H  H49  1  0.73346200  0.34351700  0.70871600  1
  H  H50  1  0.59316200  0.56478700  0.27059900  1
  H  H51  1  0.75678000  0.31168900  0.92696800  1
  H  H52  1  0.63646100  0.11757000  0.91688200  1
  H  H53  1  0.37619400  0.65615300  0.99864500  1
  H  H54  1  0.03022900  0.81822300  0.26225300  1
  H  H55  1  0.54177400  0.80942600  0.41671400  1
  H  H56  1  0.00454000  0.58403000  0.23167400  1
  H  H57  1  0.99546000  0.41597000  0.76832600  1
  H  H58  1  0.42611900  0.41757100  0.88791500  1
  H  H59  1  0.41607700  0.60193500  0.37611600  1
  H  H60  1  0.23346200  0.65648300  0.79128400  1
  H  H61  1  0.19528000  0.48948800  0.64982800  1
  H  H62  1  0.98742900  0.82528300  0.67120700  1
  H  H63  1  0.59712700  0.12077000  0.62390800  1
  H  H64  1  0.82787000  0.54214200  0.13203200  1
  H  H65  1  0.40683800  0.43521300  0.72940100  1
  C  C66  1  0.46955900  0.45788500  0.78949300  1
  C  C67  1  0.64894200  0.41548500  0.68570200  1
  C  C68  1  0.85105800  0.41548500  0.18570200  1
  C  C69  1  0.32742500  0.61647600  0.09422500  1
  C  C70  1  0.03044100  0.45788500  0.28949300  1
  C  C71  1  0.67257500  0.38352400  0.90577500  1
  C  C72  1  0.14894200  0.58451500  0.81429800  1
  C  C73  1  0.17257500  0.61647600  0.59422500  1
  C  C74  1  0.94882900  0.18829800  0.39383300  1
  C  C75  1  0.05117100  0.81170200  0.60616700  1
  C  C76  1  0.96955900  0.54211500  0.71050700  1
  C  C77  1  0.44882900  0.81170200  0.10616700  1
  C  C78  1  0.53044100  0.54211500  0.21050700  1
  C  C79  1  0.55117100  0.18829800  0.89383300  1
  C  C80  1  0.82742500  0.38352400  0.40577500  1
  C  C81  1  0.35105800  0.58451500  0.31429800  1
  S  S82  1  0.28895500  0.15350400  0.21591400  1
  S  S83  1  0.30142600  0.14417700  0.39178800  1
  S  S84  1  0.21104500  0.15350400  0.71591400  1
  S  S85  1  0.80142600  0.85582300  0.10821200  1
  S  S86  1  0.69857400  0.85582300  0.60821200  1
  S  S87  1  0.71104500  0.84649600  0.78408600  1
  S  S88  1  0.19857400  0.14417700  0.89178800  1
  S  S89  1  0.78895500  0.84649600  0.28408600  1
  N  N90  1  0.41416000  0.63891000  0.18139900  1
  N  N91  1  0.91416000  0.36109000  0.31860100  1
  N  N92  1  0.58584000  0.36109000  0.81860100  1
  N  N93  1  0.08584000  0.63891000  0.68139900  1
  O  O94  1  0.28452800  0.98601600  0.25352200  1
  O  O95  1  0.17264900  0.24084600  0.14469600  1
  O  O96  1  0.09637200  0.85456500  0.19076900  1
  O  O97  1  0.03468600  0.83005700  0.95197600  1
  O  O98  1  0.71547200  0.01398400  0.74647800  1
  O  O99  1  0.21547200  0.98601600  0.75352200  1
  O  O100  1  0.46531400  0.83005700  0.45197600  1
  O  O101  1  0.53468600  0.16994300  0.54802400  1
  O  O102  1  0.59637200  0.14543500  0.30923100  1
  O  O103  1  0.90362800  0.14543500  0.80923100  1
  O  O104  1  0.09812600  0.23690200  0.63122800  1
  O  O105  1  0.82735100  0.75915400  0.85530400  1
  O  O106  1  0.32735100  0.24084600  0.64469600  1
  O  O107  1  0.40187400  0.23690200  0.13122800  1
  O  O108  1  0.59812600  0.76309800  0.86877200  1
  O  O109  1  0.78452800  0.01398400  0.24647800  1
  O  O110  1  0.96531400  0.16994300  0.04802400  1
  O  O111  1  0.40362800  0.85456500  0.69076900  1
  O  O112  1  0.90187400  0.76309800  0.36877200  1
  O  O113  1  0.67264900  0.75915400  0.35530400  1
