# generated using pymatgen
data_Ti2Cu9(B3O11)2
_symmetry_space_group_name_H-M   'P 1'
_cell_length_a   7.46506772
_cell_length_b   10.71041154
_cell_length_c   11.81833024
_cell_angle_alpha   103.86401482
_cell_angle_beta   98.63688788
_cell_angle_gamma   91.02969457
_symmetry_Int_Tables_number   1
_chemical_formula_structural   Ti2Cu9(B3O11)2
_chemical_formula_sum   'Ti4 Cu18 B12 O44'
_cell_volume   905.55653041
_cell_formula_units_Z   2
loop_
 _symmetry_equiv_pos_site_id
 _symmetry_equiv_pos_as_xyz
  1  'x, y, z'
loop_
 _atom_site_type_symbol
 _atom_site_label
 _atom_site_symmetry_multiplicity
 _atom_site_fract_x
 _atom_site_fract_y
 _atom_site_fract_z
 _atom_site_occupancy
  Ti  Ti0  1  0.88454600  0.91475700  0.06761400  1
  Ti  Ti1  1  0.61052300  0.09952700  0.95171800  1
  Ti  Ti2  1  0.38947700  0.90047300  0.04828200  1
  Ti  Ti3  1  0.11545400  0.08524300  0.93238500  1
  Cu  Cu4  1  0.94644700  0.21330300  0.69707000  1
  Cu  Cu5  1  0.43306100  0.21780200  0.71155100  1
  Cu  Cu6  1  0.07742300  0.76502200  0.87270400  1
  Cu  Cu7  1  0.86879900  0.50399900  0.61133900  1
  Cu  Cu8  1  0.18396100  0.35767900  0.98122500  1
  Cu  Cu9  1  0.38155500  0.50086600  0.61205900  1
  Cu  Cu10  1  0.05355300  0.78669700  0.30293000  1
  Cu  Cu11  1  0.24297800  0.00222100  0.51046100  1
  Cu  Cu12  1  0.13120100  0.49600100  0.38866100  1
  Cu  Cu13  1  0.56693900  0.78219800  0.28844900  1
  Cu  Cu14  1  0.32911100  0.63201800  0.01030300  1
  Cu  Cu15  1  0.92257700  0.23497800  0.12729600  1
  Cu  Cu16  1  0.67088900  0.36798200  0.98969700  1
  Cu  Cu17  1  0.75702200  0.99777900  0.48953900  1
  Cu  Cu18  1  0.36953300  0.23250500  0.20371500  1
  Cu  Cu19  1  0.63046700  0.76749500  0.79628500  1
  Cu  Cu20  1  0.81603900  0.64232100  0.01877500  1
  Cu  Cu21  1  0.61844500  0.49913400  0.38794100  1
  B  B22  1  0.18150900  0.25951500  0.48054300  1
  B  B23  1  0.48787800  0.93476200  0.69644000  1
  B  B24  1  0.03625700  0.07283000  0.31365000  1
  B  B25  1  0.32853800  0.74441300  0.53239600  1
  B  B26  1  0.56868100  0.49618200  0.79447900  1
  B  B27  1  0.43131900  0.50381800  0.20552100  1
  B  B28  1  0.94259600  0.50391300  0.20616100  1
  B  B29  1  0.96374300  0.92717000  0.68635000  1
  B  B30  1  0.67146200  0.25558700  0.46760400  1
  B  B31  1  0.51212200  0.06523800  0.30356000  1
  B  B32  1  0.81849100  0.74048500  0.51945700  1
  B  B33  1  0.05740400  0.49608700  0.79383900  1
  O  O34  1  0.93372200  0.05336100  0.20518700  1
  O  O35  1  0.90659300  0.80122500  0.63131900  1
  O  O36  1  0.07805700  0.97330100  0.36590000  1
  O  O37  1  0.44671000  0.39815100  0.72592100  1
  O  O38  1  0.80931400  0.60850200  0.49494100  1
  O  O39  1  0.65974800  0.24452000  0.08501600  1
  O  O40  1  0.19068600  0.39149800  0.50505900  1
  O  O41  1  0.95752000  0.39526000  0.25153200  1
  O  O42  1  0.25173100  0.18909800  0.55837000  1
  O  O43  1  0.83200300  0.76038700  0.91838700  1
  O  O44  1  0.36653900  0.05468800  0.96123100  1
  O  O45  1  0.92194300  0.02669900  0.63410000  1
  O  O46  1  0.44824600  0.80509800  0.63657800  1
  O  O47  1  0.23665300  0.81657600  0.46416100  1
  O  O48  1  0.74826900  0.81090200  0.44163000  1
  O  O49  1  0.42645300  0.77841800  0.13941300  1
  O  O50  1  0.55329000  0.60184900  0.27407900  1
  O  O51  1  0.04248000  0.60474000  0.74846800  1
  O  O52  1  0.87823100  0.07921200  0.98173800  1
  O  O53  1  0.12176900  0.92078800  0.01826200  1
  O  O54  1  0.84049100  0.50527000  0.10091800  1
  O  O55  1  0.05308000  0.60507200  0.28150400  1
  O  O56  1  0.94692000  0.39492800  0.71849600  1
  O  O57  1  0.58692600  0.96825400  0.34677800  1
  O  O58  1  0.91306200  0.78608000  0.14974800  1
  O  O59  1  0.58183400  0.58987700  0.73161800  1
  O  O60  1  0.76334700  0.18342400  0.53583900  1
  O  O61  1  0.60788400  0.95116100  0.79920200  1
  O  O62  1  0.68451300  0.38719800  0.49479200  1
  O  O63  1  0.09340700  0.19877500  0.36868100  1
  O  O64  1  0.16799700  0.23961300  0.08161300  1
  O  O65  1  0.41816600  0.41012300  0.26838200  1
  O  O66  1  0.65312900  0.50490000  0.90605400  1
  O  O67  1  0.34687100  0.49510000  0.09394600  1
  O  O68  1  0.55175400  0.19490200  0.36342200  1
  O  O69  1  0.31548700  0.61280200  0.50520800  1
  O  O70  1  0.39211600  0.04883900  0.20079800  1
  O  O71  1  0.06627800  0.94663900  0.79481300  1
  O  O72  1  0.57354700  0.22158200  0.86058700  1
  O  O73  1  0.34025200  0.75548000  0.91498400  1
  O  O74  1  0.63346100  0.94531200  0.03876900  1
  O  O75  1  0.08693800  0.21392000  0.85025200  1
  O  O76  1  0.15950900  0.49473000  0.89908200  1
  O  O77  1  0.41307400  0.03174600  0.65322200  1
