# generated using pymatgen
data_Hf2FeRh
_symmetry_space_group_name_H-M   'P 1'
_cell_length_a   9.99202004
_cell_length_b   9.99202004
_cell_length_c   9.99202004
_cell_angle_alpha   127.28006757
_cell_angle_beta   116.96442216
_cell_angle_gamma   86.60904587
_symmetry_Int_Tables_number   1
_chemical_formula_structural   Hf2FeRh
_chemical_formula_sum   'Hf2 Fe1 Rh1'
_cell_volume   674.03183942
_cell_formula_units_Z   1
loop_
 _symmetry_equiv_pos_site_id
 _symmetry_equiv_pos_as_xyz
  1  'x, y, z'
loop_
 _atom_site_type_symbol
 _atom_site_label
 _atom_site_symmetry_multiplicity
 _atom_site_fract_x
 _atom_site_fract_y
 _atom_site_fract_z
 _atom_site_occupancy
  Hf  Hf0  1  0.00000000  0.23824600  0.23824600  1
  Hf  Hf1  1  0.00000000  0.76175400  0.76175400  1
  Fe  Fe2  1  0.00000000  0.00000000  0.00000000  1
  Rh  Rh3  1  0.00000000  0.50000000  0.50000000  1
