# generated using pymatgen
data_TbTaO4
_symmetry_space_group_name_H-M   'P 1'
_cell_length_a   6.58872418
_cell_length_b   6.58872418
_cell_length_c   5.12329714
_cell_angle_alpha   69.35413650
_cell_angle_beta   69.35413650
_cell_angle_gamma   114.86363799
_symmetry_Int_Tables_number   1
_chemical_formula_structural   TbTaO4
_chemical_formula_sum   'Tb2 Ta2 O8'
_cell_volume   152.48062609
_cell_formula_units_Z   2
loop_
 _symmetry_equiv_pos_site_id
 _symmetry_equiv_pos_as_xyz
  1  'x, y, z'
loop_
 _atom_site_type_symbol
 _atom_site_label
 _atom_site_symmetry_multiplicity
 _atom_site_fract_x
 _atom_site_fract_y
 _atom_site_fract_z
 _atom_site_occupancy
  Tb  Tb0  1  0.63038600  0.36961400  0.25000000  1
  Tb  Tb1  1  0.36961400  0.63038600  0.75000000  1
  Ta  Ta2  1  0.89639800  0.10360200  0.75000000  1
  Ta  Ta3  1  0.10360200  0.89639800  0.25000000  1
  O  O4  1  0.27629800  0.21264900  0.79347500  1
  O  O5  1  0.63199500  0.05144800  0.66111900  1
  O  O6  1  0.72370200  0.78735100  0.20652500  1
  O  O7  1  0.05144800  0.63199500  0.16111900  1
  O  O8  1  0.78735100  0.72370200  0.70652500  1
  O  O9  1  0.94855200  0.36800500  0.83888100  1
  O  O10  1  0.36800500  0.94855200  0.33888100  1
  O  O11  1  0.21264900  0.27629800  0.29347500  1
