# generated using pymatgen
data_B2H10C2NClO3
_symmetry_space_group_name_H-M   'P 1'
_cell_length_a   5.56382667
_cell_length_b   8.64227182
_cell_length_c   9.37807334
_cell_angle_alpha   116.98464910
_cell_angle_beta   95.82982066
_cell_angle_gamma   93.93469474
_symmetry_Int_Tables_number   1
_chemical_formula_structural   B2H10C2NClO3
_chemical_formula_sum   'B4 H20 C4 N2 Cl2 O6'
_cell_volume   396.40300568
_cell_formula_units_Z   2
loop_
 _symmetry_equiv_pos_site_id
 _symmetry_equiv_pos_as_xyz
  1  'x, y, z'
loop_
 _atom_site_type_symbol
 _atom_site_label
 _atom_site_symmetry_multiplicity
 _atom_site_fract_x
 _atom_site_fract_y
 _atom_site_fract_z
 _atom_site_occupancy
  B  B0  1  0.89117100  0.66211000  0.59288700  1
  B  B1  1  0.82560300  0.46521100  0.59589800  1
  B  B2  1  0.10882900  0.33789000  0.40711300  1
  B  B3  1  0.17439700  0.53478900  0.40410200  1
  H  H4  1  0.20949900  0.08187400  0.57811700  1
  H  H5  1  0.57461600  0.53089900  0.74197000  1
  H  H6  1  0.04264000  0.73562700  0.22293900  1
  H  H7  1  0.00837600  0.72400500  0.02547800  1
  H  H8  1  0.22703500  0.38141200  0.91854500  1
  H  H9  1  0.41205100  0.95703200  0.63117100  1
  H  H10  1  0.77296500  0.61858800  0.08145500  1
  H  H11  1  0.99162400  0.27599500  0.97452200  1
  H  H12  1  0.68232100  0.80536100  0.75254300  1
  H  H13  1  0.48312900  0.19150000  0.71547200  1
  H  H14  1  0.79050100  0.91812600  0.42188300  1
  H  H15  1  0.51687100  0.80850000  0.28452800  1
  H  H16  1  0.31767900  0.19463900  0.24745700  1
  H  H17  1  0.95736000  0.26437300  0.77706100  1
  H  H18  1  0.58794900  0.04296800  0.36882900  1
  H  H19  1  0.07605600  0.99804100  0.77685600  1
  H  H20  1  0.42538400  0.46910100  0.25803000  1
  H  H21  1  0.33239000  0.11466300  0.90852300  1
  H  H22  1  0.66761000  0.88533700  0.09147700  1
  H  H23  1  0.92394400  0.00195900  0.22314400  1
  C  C24  1  0.33797700  0.08188700  0.67468600  1
  C  C25  1  0.91329900  0.73169600  0.12487600  1
  C  C26  1  0.08670100  0.26830400  0.87512400  1
  C  C27  1  0.66202300  0.91811300  0.32531400  1
  N  N28  1  0.79306200  0.89395500  0.18726700  1
  N  N29  1  0.20693800  0.10604500  0.81273300  1
  Cl  Cl30  1  0.41058100  0.75294400  0.86922100  1
  Cl  Cl31  1  0.58941900  0.24705600  0.13077900  1
  O  O32  1  0.94988200  0.32518800  0.50741100  1
  O  O33  1  0.80590200  0.81734000  0.68677100  1
  O  O34  1  0.19409800  0.18266000  0.31322900  1
  O  O35  1  0.05011800  0.67481200  0.49258900  1
  O  O36  1  0.33633800  0.56955400  0.31929200  1
  O  O37  1  0.66366200  0.43044600  0.68070800  1
