# generated using pymatgen
data_ZnS
_symmetry_space_group_name_H-M   'P 1'
_cell_length_a   3.85097509
_cell_length_b   3.85097509
_cell_length_c   81.82868100
_cell_angle_alpha   90.00000000
_cell_angle_beta   90.00000000
_cell_angle_gamma   119.99998445
_symmetry_Int_Tables_number   1
_chemical_formula_structural   ZnS
_chemical_formula_sum   'Zn26 S26'
_cell_volume   1050.93939101
_cell_formula_units_Z   26
loop_
 _symmetry_equiv_pos_site_id
 _symmetry_equiv_pos_as_xyz
  1  'x, y, z'
loop_
 _atom_site_type_symbol
 _atom_site_label
 _atom_site_symmetry_multiplicity
 _atom_site_fract_x
 _atom_site_fract_y
 _atom_site_fract_z
 _atom_site_occupancy
  Zn  Zn0  1  0.33333300  0.66666700  0.80769700  1
  Zn  Zn1  1  0.00000000  0.00000000  0.57692900  1
  Zn  Zn2  1  0.66666700  0.33333300  0.92309700  1
  Zn  Zn3  1  0.00000000  0.00000000  0.23077700  1
  Zn  Zn4  1  0.33333300  0.66666700  0.38462300  1
  Zn  Zn5  1  0.33333300  0.66666700  0.96153400  1
  Zn  Zn6  1  0.66666700  0.33333300  0.65385100  1
  Zn  Zn7  1  0.66666700  0.33333300  0.42308400  1
  Zn  Zn8  1  0.00000000  0.00000000  0.73077700  1
  Zn  Zn9  1  0.66666700  0.33333300  0.07692900  1
  Zn  Zn10  1  0.66666700  0.33333300  0.84616700  1
  Zn  Zn11  1  0.00000000  0.00000000  0.11539000  1
  Zn  Zn12  1  0.33333300  0.66666700  0.26924000  1
  Zn  Zn13  1  0.00000000  0.00000000  0.00000500  1
  Zn  Zn14  1  0.33333300  0.66666700  0.61538200  1
  Zn  Zn15  1  0.33333300  0.66666700  0.15385300  1
  Zn  Zn16  1  0.66666700  0.33333300  0.53847000  1
  Zn  Zn17  1  0.00000000  0.00000000  0.46154200  1
  Zn  Zn18  1  0.33333300  0.66666700  0.03848300  1
  Zn  Zn19  1  0.00000000  0.00000000  0.88462000  1
  Zn  Zn20  1  0.66666700  0.33333300  0.30770000  1
  Zn  Zn21  1  0.33333300  0.66666700  0.69232800  1
  Zn  Zn22  1  0.66666700  0.33333300  0.19231500  1
  Zn  Zn23  1  0.00000000  0.00000000  0.34616200  1
  Zn  Zn24  1  0.33333300  0.66666700  0.50000700  1
  Zn  Zn25  1  0.66666700  0.33333300  0.76923200  1
  S  S26  1  0.00000000  0.00000000  0.49037500  1
  S  S27  1  0.00000000  0.00000000  0.02886800  1
  S  S28  1  0.33333300  0.66666700  0.06729800  1
  S  S29  1  0.66666700  0.33333300  0.56729900  1
  S  S30  1  0.00000000  0.00000000  0.91348100  1
  S  S31  1  0.33333300  0.66666700  0.64419300  1
  S  S32  1  0.33333300  0.66666700  0.52884300  1
  S  S33  1  0.66666700  0.33333300  0.22114700  1
  S  S34  1  0.33333300  0.66666700  0.83655700  1
  S  S35  1  0.00000000  0.00000000  0.60576100  1
  S  S36  1  0.66666700  0.33333300  0.95191300  1
  S  S37  1  0.66666700  0.33333300  0.79804300  1
  S  S38  1  0.66666700  0.33333300  0.10576100  1
  S  S39  1  0.66666700  0.33333300  0.87497000  1
  S  S40  1  0.66666700  0.33333300  0.45191500  1
  S  S41  1  0.33333300  0.66666700  0.29806800  1
  S  S42  1  0.33333300  0.66666700  0.99034700  1
  S  S43  1  0.33333300  0.66666700  0.18268700  1
  S  S44  1  0.00000000  0.00000000  0.75960800  1
  S  S45  1  0.33333300  0.66666700  0.72114600  1
  S  S46  1  0.33333300  0.66666700  0.41345500  1
  S  S47  1  0.00000000  0.00000000  0.25961000  1
  S  S48  1  0.00000000  0.00000000  0.14422100  1
  S  S49  1  0.66666700  0.33333300  0.33653200  1
  S  S50  1  0.00000000  0.00000000  0.37499500  1
  S  S51  1  0.66666700  0.33333300  0.68271200  1
