# generated using pymatgen
data_La2WO6
_symmetry_space_group_name_H-M   'P 1'
_cell_length_a   7.56026500
_cell_length_b   10.53587400
_cell_length_c   12.89918400
_cell_angle_alpha   90.00000000
_cell_angle_beta   90.00000000
_cell_angle_gamma   90.00000000
_symmetry_Int_Tables_number   1
_chemical_formula_structural   La2WO6
_chemical_formula_sum   'La16 W8 O48'
_cell_volume   1027.47159520
_cell_formula_units_Z   8
loop_
 _symmetry_equiv_pos_site_id
 _symmetry_equiv_pos_as_xyz
  1  'x, y, z'
loop_
 _atom_site_type_symbol
 _atom_site_label
 _atom_site_symmetry_multiplicity
 _atom_site_fract_x
 _atom_site_fract_y
 _atom_site_fract_z
 _atom_site_occupancy
  La  La0  1  0.26242100  0.55314600  0.63443500  1
  La  La1  1  0.26229900  0.04411500  0.82547100  1
  La  La2  1  0.56822800  0.58415200  0.41632300  1
  La  La3  1  0.06822800  0.91584800  0.58367700  1
  La  La4  1  0.51959000  0.72473700  0.91535300  1
  La  La5  1  0.23770100  0.95588500  0.32547100  1
  La  La6  1  0.98041000  0.27526300  0.41535300  1
  La  La7  1  0.48041000  0.22473700  0.58464700  1
  La  La8  1  0.76229900  0.45588500  0.17452900  1
  La  La9  1  0.23757900  0.44685400  0.13443500  1
  La  La10  1  0.43177200  0.08415200  0.08367700  1
  La  La11  1  0.73757900  0.05314600  0.86556500  1
  La  La12  1  0.76242100  0.94685400  0.36556500  1
  La  La13  1  0.01959000  0.77526300  0.08464700  1
  La  La14  1  0.73770100  0.54411500  0.67452900  1
  La  La15  1  0.93177200  0.41584800  0.91632300  1
  W  W16  1  0.94313700  0.77190100  0.81679100  1
  W  W17  1  0.03540600  0.62161600  0.37031500  1
  W  W18  1  0.53540600  0.87838400  0.62968500  1
  W  W19  1  0.96459400  0.12161600  0.12968500  1
  W  W20  1  0.05686300  0.27190100  0.68320900  1
  W  W21  1  0.55686300  0.22809900  0.31679100  1
  W  W22  1  0.46459400  0.37838400  0.87031500  1
  W  W23  1  0.44313700  0.72809900  0.18320900  1
  O  O24  1  0.74828000  0.09088900  0.05310900  1
  O  O25  1  0.47743700  0.55542700  0.23106500  1
  O  O26  1  0.44897700  0.54581400  0.79499600  1
  O  O27  1  0.31927400  0.85316600  0.70565400  1
  O  O28  1  0.00320400  0.70654200  0.68151800  1
  O  O29  1  0.85066600  0.25338700  0.61030600  1
  O  O30  1  0.99679600  0.20654200  0.81848200  1
  O  O31  1  0.32138100  0.88417800  0.14889300  1
  O  O32  1  0.97213100  0.29869600  0.08235900  1
  O  O33  1  0.97126800  0.55680600  0.07165200  1
  O  O34  1  0.97743700  0.94457300  0.76893500  1
  O  O35  1  0.50320400  0.79345800  0.31848200  1
  O  O36  1  0.35066600  0.24661300  0.38969400  1
  O  O37  1  0.47126800  0.94319400  0.92834800  1
  O  O38  1  0.25172000  0.59088900  0.44689100  1
  O  O39  1  0.39828600  0.94539600  0.51646400  1
  O  O40  1  0.68072600  0.35316600  0.79434600  1
  O  O41  1  0.55102300  0.04581400  0.70500400  1
  O  O42  1  0.32391900  0.65615900  0.06277100  1
  O  O43  1  0.67608100  0.15615900  0.43722900  1
  O  O44  1  0.89828600  0.55460400  0.48353600  1
  O  O45  1  0.32343000  0.30514600  0.74922600  1
  O  O46  1  0.05102300  0.45418600  0.29499600  1
  O  O47  1  0.02873200  0.05680600  0.42834800  1
  O  O48  1  0.17861900  0.11582200  0.64889300  1
  O  O49  1  0.17608100  0.34384100  0.56277100  1
  O  O50  1  0.17657000  0.69485400  0.24922600  1
  O  O51  1  0.75172000  0.90911100  0.55310900  1
  O  O52  1  0.60171400  0.44539600  0.98353600  1
  O  O53  1  0.14933400  0.75338700  0.88969400  1
  O  O54  1  0.94897700  0.95418600  0.20500400  1
  O  O55  1  0.49679600  0.29345800  0.18151800  1
  O  O56  1  0.82138100  0.61582200  0.85110700  1
  O  O57  1  0.52786900  0.70130400  0.58235900  1
  O  O58  1  0.47213100  0.20130400  0.91764100  1
  O  O59  1  0.81927400  0.64683400  0.29434600  1
  O  O60  1  0.18072600  0.14683400  0.20565400  1
  O  O61  1  0.10171400  0.05460400  0.01646400  1
  O  O62  1  0.64933400  0.74661300  0.11030600  1
  O  O63  1  0.24828000  0.40911100  0.94689100  1
  O  O64  1  0.02256300  0.44457300  0.73106500  1
  O  O65  1  0.67657000  0.80514600  0.75077400  1
  O  O66  1  0.82343000  0.19485400  0.25077400  1
  O  O67  1  0.52873200  0.44319400  0.57165200  1
  O  O68  1  0.52256300  0.05542700  0.26893500  1
  O  O69  1  0.02786900  0.79869600  0.41764100  1
  O  O70  1  0.82391900  0.84384100  0.93722900  1
  O  O71  1  0.67861900  0.38417800  0.35110700  1
