# generated using pymatgen
data_CuGeO3
_symmetry_space_group_name_H-M   'P 1'
_cell_length_a   8.74592100
_cell_length_b   9.88444500
_cell_length_c   11.92396900
_cell_angle_alpha   90.00000000
_cell_angle_beta   90.00000000
_cell_angle_gamma   90.00000000
_symmetry_Int_Tables_number   1
_chemical_formula_structural   CuGeO3
_chemical_formula_sum   'Cu16 Ge16 O48'
_cell_volume   1030.81012957
_cell_formula_units_Z   16
loop_
 _symmetry_equiv_pos_site_id
 _symmetry_equiv_pos_as_xyz
  1  'x, y, z'
loop_
 _atom_site_type_symbol
 _atom_site_label
 _atom_site_symmetry_multiplicity
 _atom_site_fract_x
 _atom_site_fract_y
 _atom_site_fract_z
 _atom_site_occupancy
  Cu  Cu0  1  0.50000000  0.50000000  0.75090500  1
  Cu  Cu1  1  0.00000000  0.50000000  0.49828200  1
  Cu  Cu2  1  0.00000000  0.50000000  0.24987900  1
  Cu  Cu3  1  0.00000000  0.00000000  0.24909500  1
  Cu  Cu4  1  0.00000000  0.00000000  0.00168200  1
  Cu  Cu5  1  0.50000000  0.50000000  0.99831800  1
  Cu  Cu6  1  0.50000000  0.00000000  0.50171800  1
  Cu  Cu7  1  0.50000000  0.50000000  0.50166800  1
  Cu  Cu8  1  0.50000000  0.50000000  0.24895100  1
  Cu  Cu9  1  0.00000000  0.00000000  0.75104900  1
  Cu  Cu10  1  0.50000000  0.00000000  0.75012100  1
  Cu  Cu11  1  0.00000000  0.00000000  0.49833200  1
  Cu  Cu12  1  0.00000000  0.50000000  0.75017900  1
  Cu  Cu13  1  0.00000000  0.50000000  0.00183100  1
  Cu  Cu14  1  0.50000000  0.00000000  0.99816900  1
  Cu  Cu15  1  0.50000000  0.00000000  0.24982100  1
  Ge  Ge16  1  0.25432400  0.29614400  0.62509900  1
  Ge  Ge17  1  0.24828100  0.79513400  0.12511900  1
  Ge  Ge18  1  0.24567600  0.79614400  0.37490100  1
  Ge  Ge19  1  0.25146400  0.29583500  0.37520600  1
  Ge  Ge20  1  0.25171900  0.29513400  0.87488100  1
  Ge  Ge21  1  0.25176300  0.79572000  0.87499500  1
  Ge  Ge22  1  0.75146400  0.20416500  0.62479400  1
  Ge  Ge23  1  0.24823700  0.29572000  0.12500500  1
  Ge  Ge24  1  0.74567600  0.70385600  0.62509900  1
  Ge  Ge25  1  0.75432400  0.20385600  0.37490100  1
  Ge  Ge26  1  0.74828100  0.70486600  0.87488100  1
  Ge  Ge27  1  0.75171900  0.20486600  0.12511900  1
  Ge  Ge28  1  0.74853600  0.70416500  0.37520600  1
  Ge  Ge29  1  0.74823700  0.20428000  0.87499500  1
  Ge  Ge30  1  0.75176300  0.70428000  0.12500500  1
  Ge  Ge31  1  0.24853600  0.79583500  0.62479400  1
  O  O32  1  0.57153500  0.61117300  0.62615500  1
  O  O33  1  0.91221400  0.10002500  0.87595400  1
  O  O34  1  0.42193900  0.89250400  0.87469500  1
  O  O35  1  0.92078200  0.10499200  0.62401100  1
  O  O36  1  0.74819200  0.30686700  0.25011900  1
  O  O37  1  0.91425500  0.60187300  0.37470100  1
  O  O38  1  0.41221400  0.39997500  0.12404600  1
  O  O39  1  0.42342000  0.39064700  0.87373200  1
  O  O40  1  0.08574500  0.39812700  0.37470100  1
  O  O41  1  0.74990400  0.80603400  0.50018100  1
  O  O42  1  0.57658000  0.60935300  0.87373200  1
  O  O43  1  0.42078200  0.39500800  0.37598900  1
  O  O44  1  0.08864400  0.40149200  0.87562000  1
  O  O45  1  0.42846500  0.38882700  0.62615500  1
  O  O46  1  0.08778600  0.89997500  0.87595400  1
  O  O47  1  0.92342000  0.10935300  0.12626800  1
  O  O48  1  0.75207400  0.30587000  0.75011100  1
  O  O49  1  0.07658000  0.89064700  0.12626800  1
  O  O50  1  0.75024100  0.80666800  0.00019800  1
  O  O51  1  0.59537200  0.09279600  0.37538200  1
  O  O52  1  0.57806100  0.10749600  0.87469500  1
  O  O53  1  0.91135600  0.59850800  0.87562000  1
  O  O54  1  0.41425500  0.89812700  0.62529900  1
  O  O55  1  0.07153500  0.88882700  0.37384500  1
  O  O56  1  0.24792600  0.69413000  0.75011100  1
  O  O57  1  0.74975900  0.30666800  0.99980200  1
  O  O58  1  0.75180800  0.80686700  0.74988100  1
  O  O59  1  0.92193900  0.60749600  0.12530500  1
  O  O60  1  0.75009600  0.30603400  0.49981900  1
  O  O61  1  0.58574500  0.10187300  0.62529900  1
  O  O62  1  0.40462800  0.90720400  0.37538200  1
  O  O63  1  0.25024100  0.69333200  0.99980200  1
  O  O64  1  0.24975900  0.19333200  0.00019800  1
  O  O65  1  0.25180800  0.69313300  0.25011900  1
  O  O66  1  0.57921800  0.60499200  0.37598900  1
  O  O67  1  0.25207400  0.19413000  0.24988900  1
  O  O68  1  0.09537200  0.40720400  0.62461800  1
  O  O69  1  0.24990400  0.69396600  0.49981900  1
  O  O70  1  0.58864400  0.09850800  0.12438000  1
  O  O71  1  0.58778600  0.60002500  0.12404600  1
  O  O72  1  0.24819200  0.19313300  0.74988100  1
  O  O73  1  0.92846500  0.11117300  0.37384500  1
  O  O74  1  0.41135600  0.90149200  0.12438000  1
  O  O75  1  0.07921800  0.89500800  0.62401100  1
  O  O76  1  0.90462800  0.59279600  0.62461800  1
  O  O77  1  0.07806100  0.39250400  0.12530500  1
  O  O78  1  0.74792600  0.80587000  0.24988900  1
  O  O79  1  0.25009600  0.19396600  0.50018100  1
