# generated using pymatgen
data_Rb3P(W3O10)4
_symmetry_space_group_name_H-M   'P 1'
_cell_length_a   12.10129500
_cell_length_b   12.10129500
_cell_length_c   12.10129500
_cell_angle_alpha   90.00000000
_cell_angle_beta   90.00000000
_cell_angle_gamma   90.00000000
_symmetry_Int_Tables_number   1
_chemical_formula_structural   Rb3P(W3O10)4
_chemical_formula_sum   'Rb6 P2 W24 O80'
_cell_volume   1772.12986373
_cell_formula_units_Z   2
loop_
 _symmetry_equiv_pos_site_id
 _symmetry_equiv_pos_as_xyz
  1  'x, y, z'
loop_
 _atom_site_type_symbol
 _atom_site_label
 _atom_site_symmetry_multiplicity
 _atom_site_fract_x
 _atom_site_fract_y
 _atom_site_fract_z
 _atom_site_occupancy
  Rb  Rb0  1  0.50000000  0.50000000  0.00000000  1
  Rb  Rb1  1  0.50000000  0.00000000  0.00000000  1
  Rb  Rb2  1  0.50000000  0.00000000  0.50000000  1
  Rb  Rb3  1  0.00000000  0.50000000  0.50000000  1
  Rb  Rb4  1  0.00000000  0.50000000  0.00000000  1
  Rb  Rb5  1  0.00000000  0.00000000  0.50000000  1
  P  P6  1  0.50000000  0.50000000  0.50000000  1
  P  P7  1  0.00000000  0.00000000  0.00000000  1
  W  W8  1  0.99232100  0.21221500  0.78778500  1
  W  W9  1  0.28778500  0.49232100  0.28778500  1
  W  W10  1  0.50767900  0.28778500  0.71221500  1
  W  W11  1  0.21221500  0.78778500  0.99232100  1
  W  W12  1  0.78778500  0.78778500  0.00767900  1
  W  W13  1  0.28778500  0.71221500  0.50767900  1
  W  W14  1  0.49232100  0.28778500  0.28778500  1
  W  W15  1  0.21221500  0.00767900  0.21221500  1
  W  W16  1  0.21221500  0.99232100  0.78778500  1
  W  W17  1  0.00767900  0.21221500  0.21221500  1
  W  W18  1  0.28778500  0.50767900  0.71221500  1
  W  W19  1  0.21221500  0.21221500  0.00767900  1
  W  W20  1  0.78778500  0.00767900  0.78778500  1
  W  W21  1  0.28778500  0.28778500  0.49232100  1
  W  W22  1  0.49232100  0.71221500  0.71221500  1
  W  W23  1  0.71221500  0.50767900  0.28778500  1
  W  W24  1  0.99232100  0.78778500  0.21221500  1
  W  W25  1  0.71221500  0.28778500  0.50767900  1
  W  W26  1  0.78778500  0.99232100  0.21221500  1
  W  W27  1  0.00767900  0.78778500  0.78778500  1
  W  W28  1  0.50767900  0.71221500  0.28778500  1
  W  W29  1  0.78778500  0.21221500  0.99232100  1
  W  W30  1  0.71221500  0.71221500  0.49232100  1
  W  W31  1  0.71221500  0.49232100  0.71221500  1
  O  O32  1  0.71883100  0.12276600  0.87723400  1
  O  O33  1  0.12276600  0.12276600  0.28116900  1
  O  O34  1  0.78116900  0.37723400  0.62276600  1
  O  O35  1  0.59704100  0.24786700  0.40295900  1
  O  O36  1  0.42616900  0.42616900  0.42616900  1
  O  O37  1  0.18751700  0.18751700  0.51553900  1
  O  O38  1  0.31248300  0.98446100  0.31248300  1
  O  O39  1  0.59704100  0.59704100  0.75213300  1
  O  O40  1  0.62276600  0.78116900  0.37723400  1
  O  O41  1  0.09704100  0.25213300  0.90295900  1
  O  O42  1  0.18751700  0.48446100  0.81248300  1
  O  O43  1  0.37723400  0.21883100  0.37723400  1
  O  O44  1  0.31248300  0.01553900  0.68751700  1
  O  O45  1  0.62276600  0.62276600  0.21883100  1
  O  O46  1  0.07383100  0.92616900  0.92616900  1
  O  O47  1  0.74786700  0.90295900  0.90295900  1
  O  O48  1  0.68751700  0.31248300  0.01553900  1
  O  O49  1  0.12276600  0.87723400  0.71883100  1
  O  O50  1  0.74786700  0.09704100  0.09704100  1
  O  O51  1  0.40295900  0.59704100  0.24786700  1
  O  O52  1  0.01553900  0.68751700  0.31248300  1
  O  O53  1  0.87723400  0.12276600  0.71883100  1
  O  O54  1  0.25213300  0.90295900  0.09704100  1
  O  O55  1  0.90295900  0.09704100  0.25213300  1
  O  O56  1  0.09704100  0.90295900  0.25213300  1
  O  O57  1  0.37723400  0.37723400  0.21883100  1
  O  O58  1  0.21883100  0.37723400  0.37723400  1
  O  O59  1  0.25213300  0.09704100  0.90295900  1
  O  O60  1  0.24786700  0.40295900  0.59704100  1
  O  O61  1  0.68751700  0.68751700  0.98446100  1
  O  O62  1  0.24786700  0.59704100  0.40295900  1
  O  O63  1  0.37723400  0.62276600  0.78116900  1
  O  O64  1  0.31248300  0.31248300  0.98446100  1
  O  O65  1  0.51553900  0.81248300  0.81248300  1
  O  O66  1  0.68751700  0.01553900  0.31248300  1
  O  O67  1  0.59704100  0.75213300  0.59704100  1
  O  O68  1  0.09704100  0.09704100  0.74786700  1
  O  O69  1  0.75213300  0.40295900  0.40295900  1
  O  O70  1  0.48446100  0.18751700  0.81248300  1
  O  O71  1  0.81248300  0.18751700  0.48446100  1
  O  O72  1  0.87723400  0.87723400  0.28116900  1
  O  O73  1  0.71883100  0.87723400  0.12276600  1
  O  O74  1  0.09704100  0.74786700  0.09704100  1
  O  O75  1  0.81248300  0.81248300  0.51553900  1
  O  O76  1  0.42616900  0.57383100  0.57383100  1
  O  O77  1  0.81248300  0.48446100  0.18751700  1
  O  O78  1  0.48446100  0.81248300  0.18751700  1
  O  O79  1  0.92616900  0.07383100  0.92616900  1
  O  O80  1  0.98446100  0.68751700  0.68751700  1
  O  O81  1  0.18751700  0.81248300  0.48446100  1
  O  O82  1  0.62276600  0.21883100  0.62276600  1
  O  O83  1  0.87723400  0.28116900  0.87723400  1
  O  O84  1  0.40295900  0.40295900  0.75213300  1
  O  O85  1  0.12276600  0.71883100  0.87723400  1
  O  O86  1  0.40295900  0.24786700  0.59704100  1
  O  O87  1  0.98446100  0.31248300  0.31248300  1
  O  O88  1  0.90295900  0.74786700  0.90295900  1
  O  O89  1  0.62276600  0.37723400  0.78116900  1
  O  O90  1  0.90295900  0.25213300  0.09704100  1
  O  O91  1  0.01553900  0.31248300  0.68751700  1
  O  O92  1  0.87723400  0.71883100  0.12276600  1
  O  O93  1  0.12276600  0.28116900  0.12276600  1
  O  O94  1  0.51553900  0.18751700  0.18751700  1
  O  O95  1  0.59704100  0.40295900  0.24786700  1
  O  O96  1  0.68751700  0.98446100  0.68751700  1
  O  O97  1  0.28116900  0.12276600  0.12276600  1
  O  O98  1  0.31248300  0.68751700  0.01553900  1
  O  O99  1  0.18751700  0.51553900  0.18751700  1
  O  O100  1  0.92616900  0.92616900  0.07383100  1
  O  O101  1  0.81248300  0.51553900  0.81248300  1
  O  O102  1  0.37723400  0.78116900  0.62276600  1
  O  O103  1  0.07383100  0.07383100  0.07383100  1
  O  O104  1  0.40295900  0.75213300  0.40295900  1
  O  O105  1  0.75213300  0.59704100  0.59704100  1
  O  O106  1  0.57383100  0.42616900  0.57383100  1
  O  O107  1  0.21883100  0.62276600  0.62276600  1
  O  O108  1  0.28116900  0.87723400  0.87723400  1
  O  O109  1  0.57383100  0.57383100  0.42616900  1
  O  O110  1  0.90295900  0.90295900  0.74786700  1
  O  O111  1  0.78116900  0.62276600  0.37723400  1
