# generated using pymatgen
data_P3IrO9
_symmetry_space_group_name_H-M   'P 1'
_cell_length_a   11.78159385
_cell_length_b   11.78159385
_cell_length_c   9.52493617
_cell_angle_alpha   70.01381227
_cell_angle_beta   70.01381227
_cell_angle_gamma   111.24425489
_symmetry_Int_Tables_number   1
_chemical_formula_structural   P3IrO9
_chemical_formula_sum   'P18 Ir6 O54'
_cell_volume   980.86568283
_cell_formula_units_Z   6
loop_
 _symmetry_equiv_pos_site_id
 _symmetry_equiv_pos_as_xyz
  1  'x, y, z'
loop_
 _atom_site_type_symbol
 _atom_site_label
 _atom_site_symmetry_multiplicity
 _atom_site_fract_x
 _atom_site_fract_y
 _atom_site_fract_z
 _atom_site_occupancy
  P  P0  1  0.78396200  0.39095200  0.39269700  1
  P  P1  1  0.16317000  0.55685200  0.74625800  1
  P  P2  1  0.72114000  0.44652200  0.89318500  1
  P  P3  1  0.49829600  0.22742300  0.74101000  1
  P  P4  1  0.79815900  0.17139700  0.29616700  1
  P  P5  1  0.22742300  0.49829600  0.24101000  1
  P  P6  1  0.85371300  0.90554000  0.71137700  1
  P  P7  1  0.10568900  0.81515800  0.33565200  1
  P  P8  1  0.06945200  0.13379400  0.86638700  1
  P  P9  1  0.17139700  0.79815900  0.79616700  1
  P  P10  1  0.44652200  0.72114000  0.39318500  1
  P  P11  1  0.55685200  0.16317000  0.24625800  1
  P  P12  1  0.48040800  0.51834000  0.27834400  1
  P  P13  1  0.81515800  0.10568900  0.83565200  1
  P  P14  1  0.51834000  0.48040800  0.77834400  1
  P  P15  1  0.39095200  0.78396200  0.89269700  1
  P  P16  1  0.90554000  0.85371300  0.21137700  1
  P  P17  1  0.13379400  0.06945200  0.36638700  1
  Ir  Ir18  1  0.46027900  0.97124500  0.07904700  1
  Ir  Ir19  1  0.82531900  0.64983300  0.04577000  1
  Ir  Ir20  1  0.15442800  0.31536500  0.04968500  1
  Ir  Ir21  1  0.97124500  0.46027900  0.57904700  1
  Ir  Ir22  1  0.64983300  0.82531900  0.54577000  1
  Ir  Ir23  1  0.31536500  0.15442800  0.54968500  1
  O  O24  1  0.41446700  0.37387300  0.43498500  1
  O  O25  1  0.58663100  0.62044600  0.61080600  1
  O  O26  1  0.99327000  0.03757900  0.52216200  1
  O  O27  1  0.14012400  0.12987800  0.19447800  1
  O  O28  1  0.03519000  0.45362100  0.75528800  1
  O  O29  1  0.74452100  0.80857900  0.69088900  1
  O  O30  1  0.37387300  0.41446700  0.93498500  1
  O  O31  1  0.12987800  0.14012400  0.69447800  1
  O  O32  1  0.62044600  0.58663100  0.11080600  1
  O  O33  1  0.70911500  0.18123100  0.20014600  1
  O  O34  1  0.36860100  0.14351900  0.73783500  1
  O  O35  1  0.03757900  0.99327000  0.02216200  1
  O  O36  1  0.98671400  0.79188300  0.28503500  1
  O  O37  1  0.74304500  0.46475600  0.27481100  1
  O  O38  1  0.93646300  0.20552700  0.15861500  1
  O  O39  1  0.16214800  0.26499700  0.86161500  1
  O  O40  1  0.16044700  0.49472900  0.40917000  1
  O  O41  1  0.59991300  0.30638800  0.08502900  1
  O  O42  1  0.20552700  0.93646300  0.65861500  1
  O  O43  1  0.30638800  0.59991300  0.58502900  1
  O  O44  1  0.70699800  0.03354500  0.47489500  1
  O  O45  1  0.80857900  0.74452100  0.19088900  1
  O  O46  1  0.50003700  0.16517300  0.41286600  1
  O  O47  1  0.77732400  0.40448300  0.76554400  1
  O  O48  1  0.05395300  0.67471800  0.48901800  1
  O  O49  1  0.14351900  0.36860100  0.23783500  1
  O  O50  1  0.26692100  0.64164000  0.08165900  1
  O  O51  1  0.50012500  0.62438800  0.34986000  1
  O  O52  1  0.55507600  0.83260100  0.40023800  1
  O  O53  1  0.38155000  0.52654300  0.19927100  1
  O  O54  1  0.52654300  0.38155000  0.69927100  1
  O  O55  1  0.83260100  0.55507600  0.90023800  1
  O  O56  1  0.16517300  0.50003700  0.91286600  1
  O  O57  1  0.91125700  0.10117600  0.92163600  1
  O  O58  1  0.03354500  0.70699800  0.97489500  1
  O  O59  1  0.62438800  0.50012500  0.84986000  1
  O  O60  1  0.26499700  0.16214800  0.36161500  1
  O  O61  1  0.46475600  0.74304500  0.77481100  1
  O  O62  1  0.79188300  0.98671400  0.78503500  1
  O  O63  1  0.67471800  0.05395300  0.98901800  1
  O  O64  1  0.83387400  0.29907100  0.32998400  1
  O  O65  1  0.40448300  0.77732400  0.26554400  1
  O  O66  1  0.24668200  0.89338100  0.16509400  1
  O  O67  1  0.29907100  0.83387400  0.82998400  1
  O  O68  1  0.48450600  0.90218500  0.90544600  1
  O  O69  1  0.90186200  0.83625500  0.82216900  1
  O  O70  1  0.90218500  0.48450600  0.40544600  1
  O  O71  1  0.10117600  0.91125700  0.42163600  1
  O  O72  1  0.45362100  0.03519000  0.25528800  1
  O  O73  1  0.49472900  0.16044700  0.90917000  1
  O  O74  1  0.83625500  0.90186200  0.32216900  1
  O  O75  1  0.89338100  0.24668200  0.66509400  1
  O  O76  1  0.18123100  0.70911500  0.70014600  1
  O  O77  1  0.64164000  0.26692100  0.58165900  1
