# generated using pymatgen
data_Mg3B(HO2)3
_symmetry_space_group_name_H-M   'P 1'
_cell_length_a   9.11638971
_cell_length_b   9.11638971
_cell_length_c   3.20620900
_cell_angle_alpha   90.00000000
_cell_angle_beta   90.00000000
_cell_angle_gamma   119.99999792
_symmetry_Int_Tables_number   1
_chemical_formula_structural   Mg3B(HO2)3
_chemical_formula_sum   'Mg6 B2 H6 O12'
_cell_volume   230.76409363
_cell_formula_units_Z   2
loop_
 _symmetry_equiv_pos_site_id
 _symmetry_equiv_pos_as_xyz
  1  'x, y, z'
loop_
 _atom_site_type_symbol
 _atom_site_label
 _atom_site_symmetry_multiplicity
 _atom_site_fract_x
 _atom_site_fract_y
 _atom_site_fract_z
 _atom_site_occupancy
  Mg  Mg0  1  0.96732000  0.62397700  0.25000000  1
  Mg  Mg1  1  0.62397700  0.65665700  0.75000000  1
  Mg  Mg2  1  0.37602300  0.34334300  0.25000000  1
  Mg  Mg3  1  0.03268000  0.37602300  0.75000000  1
  Mg  Mg4  1  0.34334300  0.96732000  0.75000000  1
  Mg  Mg5  1  0.65665700  0.03268000  0.25000000  1
  B  B6  1  0.66666700  0.33333300  0.75000000  1
  B  B7  1  0.33333300  0.66666700  0.25000000  1
  H  H8  1  0.99527000  0.16632300  0.25000000  1
  H  H9  1  0.83367700  0.82894700  0.25000000  1
  H  H10  1  0.16632300  0.17105300  0.75000000  1
  H  H11  1  0.82894700  0.99527000  0.75000000  1
  H  H12  1  0.17105300  0.00473000  0.25000000  1
  H  H13  1  0.00473000  0.83367700  0.75000000  1
  O  O14  1  0.55606100  0.39839400  0.75000000  1
  O  O15  1  0.39839400  0.84233300  0.25000000  1
  O  O16  1  0.70794000  0.91397700  0.75000000  1
  O  O17  1  0.91397700  0.20603700  0.25000000  1
  O  O18  1  0.60160600  0.15766700  0.75000000  1
  O  O19  1  0.84233300  0.44393900  0.75000000  1
  O  O20  1  0.20603700  0.29206000  0.75000000  1
  O  O21  1  0.15766700  0.55606100  0.25000000  1
  O  O22  1  0.08602300  0.79396300  0.75000000  1
  O  O23  1  0.29206000  0.08602300  0.25000000  1
  O  O24  1  0.44393900  0.60160600  0.25000000  1
  O  O25  1  0.79396300  0.70794000  0.25000000  1
