# generated using pymatgen
data_NaSbCO2F3
_symmetry_space_group_name_H-M   'P 1'
_cell_length_a   9.33602665
_cell_length_b   9.33602665
_cell_length_c   8.52205207
_cell_angle_alpha   83.66704115
_cell_angle_beta   83.66704115
_cell_angle_gamma   40.27946280
_symmetry_Int_Tables_number   1
_chemical_formula_structural   NaSbCO2F3
_chemical_formula_sum   'Na4 Sb4 C4 O8 F12'
_cell_volume   476.90241041
_cell_formula_units_Z   4
loop_
 _symmetry_equiv_pos_site_id
 _symmetry_equiv_pos_as_xyz
  1  'x, y, z'
loop_
 _atom_site_type_symbol
 _atom_site_label
 _atom_site_symmetry_multiplicity
 _atom_site_fract_x
 _atom_site_fract_y
 _atom_site_fract_z
 _atom_site_occupancy
  Na  Na0  1  0.72123500  0.49072800  0.56862600  1
  Na  Na1  1  0.06680500  0.30336100  0.21788700  1
  Na  Na2  1  0.49072800  0.72123500  0.06862600  1
  Na  Na3  1  0.30336100  0.06680500  0.71788700  1
  Sb  Sb4  1  0.12467100  0.87753400  0.49630700  1
  Sb  Sb5  1  0.66087200  0.91765200  0.28981700  1
  Sb  Sb6  1  0.91765200  0.66087200  0.78981700  1
  Sb  Sb7  1  0.87753400  0.12467100  0.99630700  1
  C  C8  1  0.49756700  0.35477100  0.42425900  1
  C  C9  1  0.43742400  0.28836900  0.86990000  1
  C  C10  1  0.35477100  0.49756700  0.92425900  1
  C  C11  1  0.28836900  0.43742400  0.36990000  1
  O  O12  1  0.15786600  0.68402200  0.89628200  1
  O  O13  1  0.32106300  0.30165100  0.29655500  1
  O  O14  1  0.30165100  0.32106300  0.79655500  1
  O  O15  1  0.68402200  0.15786600  0.39628200  1
  O  O16  1  0.63234200  0.10132700  0.90140300  1
  O  O17  1  0.10132700  0.63234200  0.40140300  1
  O  O18  1  0.46527500  0.49256200  0.49367600  1
  O  O19  1  0.49256200  0.46527500  0.99367600  1
  F  F20  1  0.97346000  0.43123200  0.69504800  1
  F  F21  1  0.22219100  0.83395100  0.27058000  1
  F  F22  1  0.35522500  0.82516400  0.58359800  1
  F  F23  1  0.62033400  0.78240800  0.84434300  1
  F  F24  1  0.43123200  0.97346000  0.19504800  1
  F  F25  1  0.82516400  0.35522500  0.08359800  1
  F  F26  1  0.99810700  0.17626200  0.43560300  1
  F  F27  1  0.56271800  0.95605000  0.51461700  1
  F  F28  1  0.78240800  0.62033400  0.34434300  1
  F  F29  1  0.95605000  0.56271800  0.01461700  1
  F  F30  1  0.17626200  0.99810700  0.93560300  1
  F  F31  1  0.83395100  0.22219100  0.77058000  1
