# generated using pymatgen
data_Mg2V2O7
_symmetry_space_group_name_H-M   'P 1'
_cell_length_a   8.53170600
_cell_length_b   6.71965200
_cell_length_c   9.61705362
_cell_angle_alpha   79.16688332
_cell_angle_beta   90.00000000
_cell_angle_gamma   90.00000000
_symmetry_Int_Tables_number   1
_chemical_formula_structural   Mg2V2O7
_chemical_formula_sum   'Mg8 V8 O28'
_cell_volume   541.52093182
_cell_formula_units_Z   4
loop_
 _symmetry_equiv_pos_site_id
 _symmetry_equiv_pos_as_xyz
  1  'x, y, z'
loop_
 _atom_site_type_symbol
 _atom_site_label
 _atom_site_symmetry_multiplicity
 _atom_site_fract_x
 _atom_site_fract_y
 _atom_site_fract_z
 _atom_site_occupancy
  Mg  Mg0  1  0.88918400  0.69209900  0.18136300  1
  Mg  Mg1  1  0.38918400  0.30790100  0.31863700  1
  Mg  Mg2  1  0.87893700  0.85305500  0.46382600  1
  Mg  Mg3  1  0.11081600  0.30790100  0.81863700  1
  Mg  Mg4  1  0.61081600  0.69209900  0.68136300  1
  Mg  Mg5  1  0.12106300  0.14694500  0.53617400  1
  Mg  Mg6  1  0.62106300  0.85305500  0.96382600  1
  Mg  Mg7  1  0.37893700  0.14694500  0.03617400  1
  V  V8  1  0.24206400  0.64053300  0.53098700  1
  V  V9  1  0.74206400  0.35946700  0.96901300  1
  V  V10  1  0.47934700  0.19227900  0.68563100  1
  V  V11  1  0.25793600  0.64053300  0.03098700  1
  V  V12  1  0.97934700  0.80772100  0.81436900  1
  V  V13  1  0.52065300  0.80772100  0.31436900  1
  V  V14  1  0.75793600  0.35946700  0.46901300  1
  V  V15  1  0.02065300  0.19227900  0.18563100  1
  O  O16  1  0.62085100  0.14868300  0.00258300  1
  O  O17  1  0.14190500  0.25054600  0.31604700  1
  O  O18  1  0.62582900  0.32369000  0.34777000  1
  O  O19  1  0.92319100  0.96885700  0.24742900  1
  O  O20  1  0.85809500  0.74945400  0.68395300  1
  O  O21  1  0.13224200  0.17277700  0.03937100  1
  O  O22  1  0.87914900  0.14868300  0.50258300  1
  O  O23  1  0.57680900  0.96885700  0.74742900  1
  O  O24  1  0.63121900  0.57174900  0.89852800  1
  O  O25  1  0.12997600  0.60968000  0.87646700  1
  O  O26  1  0.12085100  0.85131700  0.49741700  1
  O  O27  1  0.64190500  0.74945400  0.18395300  1
  O  O28  1  0.36775800  0.17277700  0.53937100  1
  O  O29  1  0.87002400  0.39032000  0.12353300  1
  O  O30  1  0.63224200  0.82722300  0.46062900  1
  O  O31  1  0.37914900  0.85131700  0.99741700  1
  O  O32  1  0.07680900  0.03114300  0.75257100  1
  O  O33  1  0.37002400  0.60968000  0.37646700  1
  O  O34  1  0.86878100  0.57174900  0.39852800  1
  O  O35  1  0.12582900  0.67631000  0.15223000  1
  O  O36  1  0.42319100  0.03114300  0.25257100  1
  O  O37  1  0.37417100  0.67631000  0.65223000  1
  O  O38  1  0.62997600  0.39032000  0.62353300  1
  O  O39  1  0.13121900  0.42825100  0.60147200  1
  O  O40  1  0.35809500  0.25054600  0.81604700  1
  O  O41  1  0.86775800  0.82722300  0.96062900  1
  O  O42  1  0.36878100  0.42825100  0.10147200  1
  O  O43  1  0.87417100  0.32369000  0.84777000  1
