# generated using pymatgen
data_Sr2UMnO6
_symmetry_space_group_name_H-M   'P 1'
_cell_length_a   5.97477100
_cell_length_b   5.88595400
_cell_length_c   10.20748589
_cell_angle_alpha   54.92643698
_cell_angle_beta   90.00000000
_cell_angle_gamma   90.00000000
_symmetry_Int_Tables_number   1
_chemical_formula_structural   Sr2UMnO6
_chemical_formula_sum   'Sr4 U2 Mn2 O12'
_cell_volume   293.78557473
_cell_formula_units_Z   2
loop_
 _symmetry_equiv_pos_site_id
 _symmetry_equiv_pos_as_xyz
  1  'x, y, z'
loop_
 _atom_site_type_symbol
 _atom_site_label
 _atom_site_symmetry_multiplicity
 _atom_site_fract_x
 _atom_site_fract_y
 _atom_site_fract_z
 _atom_site_occupancy
  Sr  Sr0  1  0.45962800  0.25922600  0.24881100  1
  Sr  Sr1  1  0.04037200  0.25922600  0.74881100  1
  Sr  Sr2  1  0.54037200  0.74077400  0.75118900  1
  Sr  Sr3  1  0.95962800  0.74077400  0.25118900  1
  U  U4  1  0.00000000  0.00000000  0.50000000  1
  U  U5  1  0.50000000  0.00000000  0.00000000  1
  Mn  Mn6  1  0.00000000  0.50000000  0.00000000  1
  Mn  Mn7  1  0.50000000  0.50000000  0.50000000  1
  O  O8  1  0.80071200  0.67155300  0.54149100  1
  O  O9  1  0.69928800  0.67155300  0.04149100  1
  O  O10  1  0.97277900  0.84042500  0.74346500  1
  O  O11  1  0.47277900  0.15957500  0.75653500  1
  O  O12  1  0.71449300  0.24417800  0.45406000  1
  O  O13  1  0.28550700  0.75582200  0.54594000  1
  O  O14  1  0.78550700  0.24417800  0.95406000  1
  O  O15  1  0.19928800  0.32844700  0.45850900  1
  O  O16  1  0.30071200  0.32844700  0.95850900  1
  O  O17  1  0.02722100  0.15957500  0.25653500  1
  O  O18  1  0.21449300  0.75582200  0.04594000  1
  O  O19  1  0.52722100  0.84042500  0.24346500  1
