# generated using pymatgen
data_La2GaIr
_symmetry_space_group_name_H-M   'P 1'
_cell_length_a   13.23298696
_cell_length_b   13.23298696
_cell_length_c   13.23298696
_cell_angle_alpha   131.84098436
_cell_angle_beta   113.22161989
_cell_angle_gamma   86.48245094
_symmetry_Int_Tables_number   1
_chemical_formula_structural   La2GaIr
_chemical_formula_sum   'La2 Ga1 Ir1'
_cell_volume   1516.11114174
_cell_formula_units_Z   1
loop_
 _symmetry_equiv_pos_site_id
 _symmetry_equiv_pos_as_xyz
  1  'x, y, z'
loop_
 _atom_site_type_symbol
 _atom_site_label
 _atom_site_symmetry_multiplicity
 _atom_site_fract_x
 _atom_site_fract_y
 _atom_site_fract_z
 _atom_site_occupancy
  La  La0  1  0.00000000  0.27182000  0.27182000  1
  La  La1  1  0.00000000  0.72818000  0.72818000  1
  Ga  Ga2  1  0.00000000  0.00000000  0.00000000  1
  Ir  Ir3  1  0.00000000  0.50000000  0.50000000  1
