# generated using pymatgen
data_Cr3Ag8(IO6)2
_symmetry_space_group_name_H-M   'P 1'
_cell_length_a   9.54828083
_cell_length_b   9.54828083
_cell_length_c   10.43147500
_cell_angle_alpha   90.00000000
_cell_angle_beta   90.00000000
_cell_angle_gamma   120.00000575
_symmetry_Int_Tables_number   1
_chemical_formula_structural   Cr3Ag8(IO6)2
_chemical_formula_sum   'Cr6 Ag16 I4 O24'
_cell_volume   823.61964271
_cell_formula_units_Z   2
loop_
 _symmetry_equiv_pos_site_id
 _symmetry_equiv_pos_as_xyz
  1  'x, y, z'
loop_
 _atom_site_type_symbol
 _atom_site_label
 _atom_site_symmetry_multiplicity
 _atom_site_fract_x
 _atom_site_fract_y
 _atom_site_fract_z
 _atom_site_occupancy
  Cr  Cr0  1  0.71624300  0.72022700  0.25000000  1
  Cr  Cr1  1  0.28375700  0.27977300  0.75000000  1
  Cr  Cr2  1  0.27977300  0.99601600  0.25000000  1
  Cr  Cr3  1  0.72022700  0.00398400  0.75000000  1
  Cr  Cr4  1  0.99601600  0.71624300  0.75000000  1
  Cr  Cr5  1  0.00398400  0.28375700  0.25000000  1
  Ag  Ag6  1  0.00007400  0.37176900  0.57452800  1
  Ag  Ag7  1  0.37176900  0.37169500  0.42547200  1
  Ag  Ag8  1  0.37169500  0.99992600  0.92547200  1
  Ag  Ag9  1  0.99992600  0.62823100  0.42547200  1
  Ag  Ag10  1  0.62823100  0.62830500  0.92547200  1
  Ag  Ag11  1  0.99992600  0.62823100  0.07452800  1
  Ag  Ag12  1  0.62830500  0.00007400  0.42547200  1
  Ag  Ag13  1  0.66666700  0.33333300  0.75000000  1
  Ag  Ag14  1  0.37176900  0.37169500  0.07452800  1
  Ag  Ag15  1  0.62823100  0.62830500  0.57452800  1
  Ag  Ag16  1  0.62830500  0.00007400  0.07452800  1
  Ag  Ag17  1  0.00000000  0.00000000  0.50000000  1
  Ag  Ag18  1  0.37169500  0.99992600  0.57452800  1
  Ag  Ag19  1  0.00000000  0.00000000  0.00000000  1
  Ag  Ag20  1  0.00007400  0.37176900  0.92547200  1
  Ag  Ag21  1  0.33333300  0.66666700  0.25000000  1
  I  I22  1  0.33333300  0.66666700  0.52083000  1
  I  I23  1  0.66666700  0.33333300  0.47917000  1
  I  I24  1  0.66666700  0.33333300  0.02083000  1
  I  I25  1  0.33333300  0.66666700  0.97917000  1
  O  O26  1  0.35104400  0.19382000  0.25000000  1
  O  O27  1  0.17005800  0.91570200  0.38475400  1
  O  O28  1  0.43450700  0.95740400  0.25000000  1
  O  O29  1  0.04259600  0.47710300  0.25000000  1
  O  O30  1  0.08429800  0.25435600  0.11524600  1
  O  O31  1  0.74564400  0.82994200  0.38475400  1
  O  O32  1  0.64895600  0.80618000  0.75000000  1
  O  O33  1  0.08429800  0.25435600  0.38475400  1
  O  O34  1  0.91570200  0.74564400  0.61524600  1
  O  O35  1  0.82994200  0.08429800  0.88475400  1
  O  O36  1  0.25435600  0.17005800  0.88475400  1
  O  O37  1  0.19382000  0.84277600  0.75000000  1
  O  O38  1  0.84277600  0.64895600  0.25000000  1
  O  O39  1  0.56549300  0.04259600  0.75000000  1
  O  O40  1  0.91570200  0.74564400  0.88475400  1
  O  O41  1  0.25435600  0.17005800  0.61524600  1
  O  O42  1  0.17005800  0.91570200  0.11524600  1
  O  O43  1  0.82994200  0.08429800  0.61524600  1
  O  O44  1  0.52289700  0.56549300  0.25000000  1
  O  O45  1  0.15722400  0.35104400  0.75000000  1
  O  O46  1  0.80618000  0.15722400  0.25000000  1
  O  O47  1  0.47710300  0.43450700  0.75000000  1
  O  O48  1  0.95740400  0.52289700  0.75000000  1
  O  O49  1  0.74564400  0.82994200  0.11524600  1
