# generated using pymatgen
data_H12C3NF3
_symmetry_space_group_name_H-M   'P 1'
_cell_length_a   6.44154900
_cell_length_b   9.90013500
_cell_length_c   10.60756800
_cell_angle_alpha   90.00000000
_cell_angle_beta   90.00000000
_cell_angle_gamma   90.00000000
_symmetry_Int_Tables_number   1
_chemical_formula_structural   H12C3NF3
_chemical_formula_sum   'H48 C12 N4 F12'
_cell_volume   676.46799796
_cell_formula_units_Z   4
loop_
 _symmetry_equiv_pos_site_id
 _symmetry_equiv_pos_as_xyz
  1  'x, y, z'
loop_
 _atom_site_type_symbol
 _atom_site_label
 _atom_site_symmetry_multiplicity
 _atom_site_fract_x
 _atom_site_fract_y
 _atom_site_fract_z
 _atom_site_occupancy
  H  H0  1  0.44759100  0.37408700  0.09862300  1
  H  H1  1  0.84080500  0.14072600  0.24450000  1
  H  H2  1  0.67577000  0.62506300  0.36510000  1
  H  H3  1  0.62483300  0.75000000  0.08955700  1
  H  H4  1  0.84080500  0.35927400  0.24450000  1
  H  H5  1  0.26850600  0.46254600  0.99786600  1
  H  H6  1  0.05240900  0.37408700  0.59862300  1
  H  H7  1  0.15919500  0.64072600  0.75550000  1
  H  H8  1  0.76850600  0.53745400  0.50213400  1
  H  H9  1  0.15919500  0.85927400  0.75550000  1
  H  H10  1  0.73149400  0.96254600  0.00213400  1
  H  H11  1  0.67577000  0.87493700  0.36510000  1
  H  H12  1  0.03920600  0.15891100  0.86081800  1
  H  H13  1  0.34080500  0.64072600  0.25550000  1
  H  H14  1  0.03920600  0.34108900  0.86081800  1
  H  H15  1  0.56711900  0.25000000  0.49212400  1
  H  H16  1  0.34080500  0.85927400  0.25550000  1
  H  H17  1  0.17577000  0.37493700  0.13490000  1
  H  H18  1  0.32423000  0.37493700  0.63490000  1
  H  H19  1  0.87516700  0.75000000  0.58955700  1
  H  H20  1  0.26850600  0.03745400  0.99786600  1
  H  H21  1  0.43288100  0.75000000  0.50787600  1
  H  H22  1  0.96079400  0.65891100  0.13918200  1
  H  H23  1  0.37516700  0.25000000  0.91044300  1
  H  H24  1  0.23149400  0.03745400  0.49786600  1
  H  H25  1  0.93288100  0.25000000  0.99212400  1
  H  H26  1  0.17577000  0.12506300  0.13490000  1
  H  H27  1  0.44759100  0.12591300  0.09862300  1
  H  H28  1  0.53920600  0.65891100  0.63918200  1
  H  H29  1  0.73149400  0.53745400  0.00213400  1
  H  H30  1  0.65919500  0.35927400  0.74450000  1
  H  H31  1  0.55240900  0.87408700  0.90137700  1
  H  H32  1  0.05240900  0.12591300  0.59862300  1
  H  H33  1  0.06711900  0.75000000  0.00787600  1
  H  H34  1  0.32423000  0.12506300  0.63490000  1
  H  H35  1  0.65919500  0.14072600  0.74450000  1
  H  H36  1  0.23149400  0.46254600  0.49786600  1
  H  H37  1  0.94759100  0.87408700  0.40137700  1
  H  H38  1  0.76850600  0.96254600  0.50213400  1
  H  H39  1  0.82423000  0.62506300  0.86510000  1
  H  H40  1  0.12483300  0.25000000  0.41044300  1
  H  H41  1  0.82423000  0.87493700  0.86510000  1
  H  H42  1  0.96079400  0.84108900  0.13918200  1
  H  H43  1  0.46079400  0.34108900  0.36081800  1
  H  H44  1  0.46079400  0.15891100  0.36081800  1
  H  H45  1  0.55240900  0.62591300  0.90137700  1
  H  H46  1  0.53920600  0.84108900  0.63918200  1
  H  H47  1  0.94759100  0.62591300  0.40137700  1
  C  C48  1  0.29061900  0.12551600  0.05883700  1
  C  C49  1  0.20938100  0.37448400  0.55883700  1
  C  C50  1  0.05282800  0.25000000  0.91882400  1
  C  C51  1  0.70938100  0.62551600  0.94116300  1
  C  C52  1  0.20938100  0.12551600  0.55883700  1
  C  C53  1  0.29061900  0.37448400  0.05883700  1
  C  C54  1  0.70938100  0.87448400  0.94116300  1
  C  C55  1  0.55282800  0.75000000  0.58117600  1
  C  C56  1  0.94717200  0.75000000  0.08117600  1
  C  C57  1  0.79061900  0.62551600  0.44116300  1
  C  C58  1  0.44717200  0.25000000  0.41882400  1
  C  C59  1  0.79061900  0.87448400  0.44116300  1
  N  N60  1  0.23932700  0.25000000  0.48129100  1
  N  N61  1  0.76067300  0.75000000  0.51870900  1
  N  N62  1  0.26067300  0.25000000  0.98129100  1
  N  N63  1  0.73932700  0.75000000  0.01870900  1
  F  F64  1  0.77143900  0.06531500  0.19634400  1
  F  F65  1  0.77143900  0.43468500  0.19634400  1
  F  F66  1  0.06835800  0.75000000  0.69518500  1
  F  F67  1  0.22856100  0.93468500  0.80365600  1
  F  F68  1  0.27143900  0.93468500  0.30365600  1
  F  F69  1  0.56835800  0.25000000  0.80481500  1
  F  F70  1  0.72856100  0.06531500  0.69634400  1
  F  F71  1  0.93164200  0.25000000  0.30481500  1
  F  F72  1  0.27143900  0.56531500  0.30365600  1
  F  F73  1  0.43164200  0.75000000  0.19518500  1
  F  F74  1  0.22856100  0.56531500  0.80365600  1
  F  F75  1  0.72856100  0.43468500  0.69634400  1
