# generated using pymatgen
data_Rb2Te(WO4)3
_symmetry_space_group_name_H-M   'P 1'
_cell_length_a   7.40718000
_cell_length_b   7.40717996
_cell_length_c   12.49513700
_cell_angle_alpha   90.00000000
_cell_angle_beta   90.00000000
_cell_angle_gamma   120.00000019
_symmetry_Int_Tables_number   1
_chemical_formula_structural   Rb2Te(WO4)3
_chemical_formula_sum   'Rb4 Te2 W6 O24'
_cell_volume   593.71421537
_cell_formula_units_Z   2
loop_
 _symmetry_equiv_pos_site_id
 _symmetry_equiv_pos_as_xyz
  1  'x, y, z'
loop_
 _atom_site_type_symbol
 _atom_site_label
 _atom_site_symmetry_multiplicity
 _atom_site_fract_x
 _atom_site_fract_y
 _atom_site_fract_z
 _atom_site_occupancy
  Rb  Rb0  1  0.33333300  0.66666700  0.87465600  1
  Rb  Rb1  1  0.66666700  0.33333300  0.37465600  1
  Rb  Rb2  1  0.66666700  0.33333300  0.99622400  1
  Rb  Rb3  1  0.33333300  0.66666700  0.49622400  1
  Te  Te4  1  0.00000000  0.00000000  0.43285400  1
  Te  Te5  1  0.00000000  0.00000000  0.93285400  1
  W  W6  1  0.66168300  0.80750500  0.17081300  1
  W  W7  1  0.33831700  0.14582200  0.67081300  1
  W  W8  1  0.19249500  0.85417800  0.17081300  1
  W  W9  1  0.14582200  0.33831700  0.17081300  1
  W  W10  1  0.85417800  0.19249500  0.67081300  1
  W  W11  1  0.80750500  0.66168300  0.67081300  1
  O  O12  1  0.19634600  0.80787800  0.30967600  1
  O  O13  1  0.12990500  0.86622000  0.00462700  1
  O  O14  1  0.91170100  0.46014400  0.63380300  1
  O  O15  1  0.24711300  0.12670300  0.18025900  1
  O  O16  1  0.13378000  0.26368600  0.00462700  1
  O  O17  1  0.12670300  0.24711300  0.68025900  1
  O  O18  1  0.80787800  0.19634600  0.80967600  1
  O  O19  1  0.80365400  0.61153200  0.80967600  1
  O  O20  1  0.87329700  0.12041000  0.18025900  1
  O  O21  1  0.12041000  0.87329700  0.68025900  1
  O  O22  1  0.38846800  0.19212200  0.80967600  1
  O  O23  1  0.45155700  0.53985600  0.13380300  1
  O  O24  1  0.19212200  0.38846800  0.30967600  1
  O  O25  1  0.08829900  0.54844300  0.13380300  1
  O  O26  1  0.54844300  0.08829900  0.63380300  1
  O  O27  1  0.53985600  0.45155700  0.63380300  1
  O  O28  1  0.61153200  0.80365400  0.30967600  1
  O  O29  1  0.86622000  0.12990500  0.50462700  1
  O  O30  1  0.87009500  0.73631400  0.50462700  1
  O  O31  1  0.26368600  0.13378000  0.50462700  1
  O  O32  1  0.73631400  0.87009500  0.00462700  1
  O  O33  1  0.87959000  0.75288700  0.18025900  1
  O  O34  1  0.75288700  0.87959000  0.68025900  1
  O  O35  1  0.46014400  0.91170100  0.13380300  1
