# generated using pymatgen
data_BaNb2O6
_symmetry_space_group_name_H-M   'P 1'
_cell_length_a   7.38814571
_cell_length_b   7.38814571
_cell_length_c   10.49011800
_cell_angle_alpha   90.00000000
_cell_angle_beta   90.00000000
_cell_angle_gamma   114.44323142
_symmetry_Int_Tables_number   1
_chemical_formula_structural   BaNb2O6
_chemical_formula_sum   'Ba4 Nb8 O24'
_cell_volume   521.27875670
_cell_formula_units_Z   4
loop_
 _symmetry_equiv_pos_site_id
 _symmetry_equiv_pos_as_xyz
  1  'x, y, z'
loop_
 _atom_site_type_symbol
 _atom_site_label
 _atom_site_symmetry_multiplicity
 _atom_site_fract_x
 _atom_site_fract_y
 _atom_site_fract_z
 _atom_site_occupancy
  Ba  Ba0  1  0.42436900  0.57563100  0.75000000  1
  Ba  Ba1  1  0.13102900  0.86897100  0.25000000  1
  Ba  Ba2  1  0.57563100  0.42436900  0.25000000  1
  Ba  Ba3  1  0.86897100  0.13102900  0.75000000  1
  Nb  Nb4  1  0.41379500  0.12723000  0.92180200  1
  Nb  Nb5  1  0.87277000  0.58620500  0.57819800  1
  Nb  Nb6  1  0.58620500  0.87277000  0.42180200  1
  Nb  Nb7  1  0.63555600  0.91195400  0.07167200  1
  Nb  Nb8  1  0.12723000  0.41379500  0.07819800  1
  Nb  Nb9  1  0.08804600  0.36444400  0.42832800  1
  Nb  Nb10  1  0.36444400  0.08804600  0.57167200  1
  Nb  Nb11  1  0.91195400  0.63555600  0.92832800  1
  O  O12  1  0.88009500  0.12159800  0.46359100  1
  O  O13  1  0.92095500  0.52038600  0.10965700  1
  O  O14  1  0.12159800  0.88009500  0.53640900  1
  O  O15  1  0.34404600  0.66140600  0.38566900  1
  O  O16  1  0.87840200  0.11990500  0.03640900  1
  O  O17  1  0.66140600  0.34404600  0.61433100  1
  O  O18  1  0.65595400  0.33859400  0.88566900  1
  O  O19  1  0.29947400  0.29947400  0.00000000  1
  O  O20  1  0.70341300  0.86535700  0.24975400  1
  O  O21  1  0.33859400  0.65595400  0.11433100  1
  O  O22  1  0.07904500  0.47961400  0.60965700  1
  O  O23  1  0.30871500  0.30871500  0.50000000  1
  O  O24  1  0.47961400  0.07904500  0.39034300  1
  O  O25  1  0.86535700  0.70341300  0.75024600  1
  O  O26  1  0.52038600  0.92095500  0.89034300  1
  O  O27  1  0.70052600  0.70052600  0.50000000  1
  O  O28  1  0.07598700  0.48194000  0.89223900  1
  O  O29  1  0.92401300  0.51806000  0.39223900  1
  O  O30  1  0.48194000  0.07598700  0.10776100  1
  O  O31  1  0.11990500  0.87840200  0.96359100  1
  O  O32  1  0.13464300  0.29658700  0.25024600  1
  O  O33  1  0.69128500  0.69128500  0.00000000  1
  O  O34  1  0.51806000  0.92401300  0.60776100  1
  O  O35  1  0.29658700  0.13464300  0.74975400  1
