# generated using pymatgen
data_K3WS3ClO
_symmetry_space_group_name_H-M   'P 1'
_cell_length_a   6.43546600
_cell_length_b   12.58444600
_cell_length_c   12.73337000
_cell_angle_alpha   90.00000000
_cell_angle_beta   90.00000000
_cell_angle_gamma   90.00000000
_symmetry_Int_Tables_number   1
_chemical_formula_structural   K3WS3ClO
_chemical_formula_sum   'K12 W4 S12 Cl4 O4'
_cell_volume   1031.23456306
_cell_formula_units_Z   4
loop_
 _symmetry_equiv_pos_site_id
 _symmetry_equiv_pos_as_xyz
  1  'x, y, z'
loop_
 _atom_site_type_symbol
 _atom_site_label
 _atom_site_symmetry_multiplicity
 _atom_site_fract_x
 _atom_site_fract_y
 _atom_site_fract_z
 _atom_site_occupancy
  K  K0  1  0.60268100  0.75991500  0.73547400  1
  K  K1  1  0.03857100  0.00173300  0.70362400  1
  K  K2  1  0.03857100  0.50173300  0.79637600  1
  K  K3  1  0.39731900  0.25991500  0.26452600  1
  K  K4  1  0.96142900  0.50173300  0.29637600  1
  K  K5  1  0.96142900  0.00173300  0.20362400  1
  K  K6  1  0.58468300  0.99901800  0.48041800  1
  K  K7  1  0.58468300  0.49901800  0.01958200  1
  K  K8  1  0.39731900  0.75991500  0.23547400  1
  K  K9  1  0.41531700  0.49901800  0.51958200  1
  K  K10  1  0.41531700  0.99901800  0.98041800  1
  K  K11  1  0.60268100  0.25991500  0.76452600  1
  W  W12  1  0.99722200  0.75044400  0.49436400  1
  W  W13  1  0.00277800  0.75044400  0.99436400  1
  W  W14  1  0.99722200  0.25044400  0.00563600  1
  W  W15  1  0.00277800  0.25044400  0.50563600  1
  S  S16  1  0.65742700  0.76903500  0.00509100  1
  S  S17  1  0.10097300  0.27023600  0.67335700  1
  S  S18  1  0.91341900  0.08666700  0.95124900  1
  S  S19  1  0.34257300  0.26903500  0.99490900  1
  S  S20  1  0.34257300  0.76903500  0.50509100  1
  S  S21  1  0.89902700  0.77023600  0.32664300  1
  S  S22  1  0.08658100  0.08666700  0.45124900  1
  S  S23  1  0.10097300  0.77023600  0.82664300  1
  S  S24  1  0.89902700  0.27023600  0.17335700  1
  S  S25  1  0.08658100  0.58666700  0.04875100  1
  S  S26  1  0.91341900  0.58666700  0.54875100  1
  S  S27  1  0.65742700  0.26903500  0.49490900  1
  Cl  Cl28  1  0.47465600  0.01207800  0.23203800  1
  Cl  Cl29  1  0.52534400  0.01207800  0.73203800  1
  Cl  Cl30  1  0.47465600  0.51207800  0.26796200  1
  Cl  Cl31  1  0.52534400  0.51207800  0.76796200  1
  O  O32  1  0.86772100  0.34677400  0.92519300  1
  O  O33  1  0.86772100  0.84677400  0.57480700  1
  O  O34  1  0.13227900  0.84677400  0.07480700  1
  O  O35  1  0.13227900  0.34677400  0.42519300  1
