# generated using pymatgen
data_Nb2ReW
_symmetry_space_group_name_H-M   'P 1'
_cell_length_a   10.55572668
_cell_length_b   10.55572668
_cell_length_c   10.55572668
_cell_angle_alpha   128.52027657
_cell_angle_beta   117.33965130
_cell_angle_gamma   85.29324748
_symmetry_Int_Tables_number   1
_chemical_formula_structural   Nb2ReW
_chemical_formula_sum   'Nb2 Re1 W1'
_cell_volume   781.42526654
_cell_formula_units_Z   1
loop_
 _symmetry_equiv_pos_site_id
 _symmetry_equiv_pos_as_xyz
  1  'x, y, z'
loop_
 _atom_site_type_symbol
 _atom_site_label
 _atom_site_symmetry_multiplicity
 _atom_site_fract_x
 _atom_site_fract_y
 _atom_site_fract_z
 _atom_site_occupancy
  Nb  Nb0  1  0.00000000  0.25240500  0.25240500  1
  Nb  Nb1  1  0.00000000  0.74759500  0.74759500  1
  Re  Re2  1  0.00000000  0.50000000  0.50000000  1
  W  W3  1  0.00000000  0.00000000  0.00000000  1
