# generated using pymatgen
data_NaScIn2
_symmetry_space_group_name_H-M   'P 1'
_cell_length_a   12.57416017
_cell_length_b   12.57416017
_cell_length_c   12.57416017
_cell_angle_alpha   122.70179581
_cell_angle_beta   119.91093457
_cell_angle_gamma   87.76949245
_symmetry_Int_Tables_number   1
_chemical_formula_structural   NaScIn2
_chemical_formula_sum   'Na1 Sc1 In2'
_cell_volume   1375.83105042
_cell_formula_units_Z   1
loop_
 _symmetry_equiv_pos_site_id
 _symmetry_equiv_pos_as_xyz
  1  'x, y, z'
loop_
 _atom_site_type_symbol
 _atom_site_label
 _atom_site_symmetry_multiplicity
 _atom_site_fract_x
 _atom_site_fract_y
 _atom_site_fract_z
 _atom_site_occupancy
  Na  Na0  1  0.00000000  0.00000000  0.00000000  1
  Sc  Sc1  1  0.00000000  0.50000000  0.50000000  1
  In  In2  1  0.00000000  0.25763700  0.25763700  1
  In  In3  1  0.00000000  0.74236300  0.74236300  1
