# generated using pymatgen
data_K3VCO8
_symmetry_space_group_name_H-M   'P 1'
_cell_length_a   6.57163935
_cell_length_b   6.57163935
_cell_length_c   5.71178516
_cell_angle_alpha   67.36849994
_cell_angle_beta   67.36849994
_cell_angle_gamma   91.34429933
_symmetry_Int_Tables_number   1
_chemical_formula_structural   K3VCO8
_chemical_formula_sum   'K3 V1 C1 O8'
_cell_volume   205.84238820
_cell_formula_units_Z   1
loop_
 _symmetry_equiv_pos_site_id
 _symmetry_equiv_pos_as_xyz
  1  'x, y, z'
loop_
 _atom_site_type_symbol
 _atom_site_label
 _atom_site_symmetry_multiplicity
 _atom_site_fract_x
 _atom_site_fract_y
 _atom_site_fract_z
 _atom_site_occupancy
  K  K0  1  0.40566900  0.40566900  0.09170000  1
  K  K1  1  0.08183900  0.64822400  0.63761400  1
  K  K2  1  0.64822400  0.08183900  0.63761400  1
  V  V3  1  0.99836600  0.99836600  0.00212800  1
  C  C4  1  0.66167200  0.66167200  0.35084400  1
  O  O5  1  0.75368800  0.75368800  0.07130700  1
  O  O6  1  0.10581100  0.10581100  0.65299700  1
  O  O7  1  0.24967400  0.97000900  0.09129100  1
  O  O8  1  0.76781800  0.18200500  0.06556600  1
  O  O9  1  0.18200500  0.76781800  0.06556600  1
  O  O10  1  0.49623600  0.49623600  0.49473300  1
  O  O11  1  0.75539800  0.75539800  0.45782800  1
  O  O12  1  0.97000900  0.24967400  0.09129100  1
