# generated using pymatgen
data_Ni5Te4(ClO6)2
_symmetry_space_group_name_H-M   'P 1'
_cell_length_a   10.27646531
_cell_length_b   10.27646531
_cell_length_c   16.41661004
_cell_angle_alpha   56.26763948
_cell_angle_beta   56.26763948
_cell_angle_gamma   29.94865504
_symmetry_Int_Tables_number   1
_chemical_formula_structural   Ni5Te4(ClO6)2
_chemical_formula_sum   'Ni10 Te8 Cl4 O24'
_cell_volume   708.21094588
_cell_formula_units_Z   2
loop_
 _symmetry_equiv_pos_site_id
 _symmetry_equiv_pos_as_xyz
  1  'x, y, z'
loop_
 _atom_site_type_symbol
 _atom_site_label
 _atom_site_symmetry_multiplicity
 _atom_site_fract_x
 _atom_site_fract_y
 _atom_site_fract_z
 _atom_site_occupancy
  Ni  Ni0  1  0.87691000  0.30424100  0.02682800  1
  Ni  Ni1  1  0.69575900  0.12309000  0.47317200  1
  Ni  Ni2  1  0.75969900  0.24030100  0.25000000  1
  Ni  Ni3  1  0.12309000  0.69575900  0.97317200  1
  Ni  Ni4  1  0.20918800  0.77321300  0.12099000  1
  Ni  Ni5  1  0.79081200  0.22678700  0.87901000  1
  Ni  Ni6  1  0.22678700  0.79081200  0.37901000  1
  Ni  Ni7  1  0.77321300  0.20918800  0.62099000  1
  Ni  Ni8  1  0.30424100  0.87691000  0.52682800  1
  Ni  Ni9  1  0.24030100  0.75969900  0.75000000  1
  Te  Te10  1  0.14217900  0.56224400  0.37992200  1
  Te  Te11  1  0.56224400  0.14217900  0.87992200  1
  Te  Te12  1  0.43775600  0.85782100  0.12007800  1
  Te  Te13  1  0.55296700  0.19583900  0.13803500  1
  Te  Te14  1  0.80416100  0.44703300  0.36196500  1
  Te  Te15  1  0.19583900  0.55296700  0.63803500  1
  Te  Te16  1  0.85782100  0.43775600  0.62007800  1
  Te  Te17  1  0.44703300  0.80416100  0.86196500  1
  Cl  Cl18  1  0.54984600  0.92250400  0.40704000  1
  Cl  Cl19  1  0.07749700  0.45015400  0.09296000  1
  Cl  Cl20  1  0.92250300  0.54984600  0.90704000  1
  Cl  Cl21  1  0.45015400  0.07749600  0.59296000  1
  O  O22  1  0.75408700  0.05132500  0.02009200  1
  O  O23  1  0.45252100  0.77998900  0.25007400  1
  O  O24  1  0.30743400  0.55169700  0.06920100  1
  O  O25  1  0.91103700  0.93524400  0.85524600  1
  O  O26  1  0.20617400  0.87465800  0.85666000  1
  O  O27  1  0.44830300  0.69256600  0.43079900  1
  O  O28  1  0.69256600  0.44830300  0.93079900  1
  O  O29  1  0.44444200  0.42652000  0.36872900  1
  O  O30  1  0.57348000  0.55555800  0.13127100  1
  O  O31  1  0.94867500  0.24591300  0.47990800  1
  O  O32  1  0.06475600  0.08896300  0.64475400  1
  O  O33  1  0.93524400  0.91103700  0.35524600  1
  O  O34  1  0.77998900  0.45252100  0.75007400  1
  O  O35  1  0.54747900  0.22001100  0.74992600  1
  O  O36  1  0.79382600  0.12534200  0.14334000  1
  O  O37  1  0.24591300  0.94867500  0.97990800  1
  O  O38  1  0.55169700  0.30743400  0.56920100  1
  O  O39  1  0.08896300  0.06475600  0.14475400  1
  O  O40  1  0.55555800  0.57348000  0.63127100  1
  O  O41  1  0.42652000  0.44444200  0.86872900  1
  O  O42  1  0.05132500  0.75408700  0.52009200  1
  O  O43  1  0.12534200  0.79382600  0.64334000  1
  O  O44  1  0.87465800  0.20617400  0.35666000  1
  O  O45  1  0.22001100  0.54747900  0.24992600  1
