# generated using pymatgen
data_SiO2
_symmetry_space_group_name_H-M   'P 1'
_cell_length_a   10.34443389
_cell_length_b   10.34443389
_cell_length_c   10.34443389
_cell_angle_alpha   128.05542312
_cell_angle_beta   128.05542312
_cell_angle_gamma   76.53526207
_symmetry_Int_Tables_number   1
_chemical_formula_structural   SiO2
_chemical_formula_sum   'Si16 O32'
_cell_volume   666.71743378
_cell_formula_units_Z   16
loop_
 _symmetry_equiv_pos_site_id
 _symmetry_equiv_pos_as_xyz
  1  'x, y, z'
loop_
 _atom_site_type_symbol
 _atom_site_label
 _atom_site_symmetry_multiplicity
 _atom_site_fract_x
 _atom_site_fract_y
 _atom_site_fract_z
 _atom_site_occupancy
  Si  Si0  1  0.50096800  0.83443900  0.77330500  1
  Si  Si1  1  0.16556100  0.93886600  0.66652800  1
  Si  Si2  1  0.24903200  0.41556100  0.72669500  1
  Si  Si3  1  0.66556100  0.99903200  0.22669500  1
  Si  Si4  1  0.74903200  0.02233800  0.83347200  1
  Si  Si5  1  0.06113400  0.72766200  0.22669500  1
  Si  Si6  1  0.47766200  0.75096800  0.16652800  1
  Si  Si7  1  0.18886600  0.91556100  0.16652800  1
  Si  Si8  1  0.27233800  0.49903200  0.33347200  1
  Si  Si9  1  0.08443900  0.25096800  0.27330500  1
  Si  Si10  1  0.68886600  0.52233800  0.27330500  1
  Si  Si11  1  0.77233800  0.43886600  0.77330500  1
  Si  Si12  1  0.56113400  0.33443900  0.33347200  1
  Si  Si13  1  0.58443900  0.31113400  0.83347200  1
  Si  Si14  1  0.97766200  0.81113400  0.72669500  1
  Si  Si15  1  0.00096800  0.22766200  0.66652800  1
  O  O16  1  0.69131700  0.45320900  0.58977900  1
  O  O17  1  0.38657000  0.29679100  0.73810800  1
  O  O18  1  0.62757900  0.12757900  0.75515900  1
  O  O19  1  0.62242100  0.87757900  0.00000000  1
  O  O20  1  0.54679100  0.13657000  0.23810800  1
  O  O21  1  0.86343000  0.10153800  0.41022100  1
  O  O22  1  0.05868300  0.79679100  0.91022100  1
  O  O23  1  0.37757900  0.37757900  0.25515900  1
  O  O24  1  0.37242100  0.87242100  0.24484100  1
  O  O25  1  0.62500000  0.37128200  0.24628200  1
  O  O26  1  0.12757900  0.37242100  0.50000000  1
  O  O27  1  0.36343000  0.95320900  0.76189200  1
  O  O28  1  0.12128200  0.37500000  0.24628200  1
  O  O29  1  0.04679100  0.80868300  0.41022100  1
  O  O30  1  0.35153800  0.61343000  0.91022100  1
  O  O31  1  0.12871800  0.87500000  0.75371800  1
  O  O32  1  0.62871800  0.87500000  0.25371800  1
  O  O33  1  0.62128200  0.37500000  0.74628200  1
  O  O34  1  0.19131700  0.60153800  0.23810800  1
  O  O35  1  0.85153800  0.94131700  0.73810800  1
  O  O36  1  0.70320900  0.44131700  0.08977900  1
  O  O37  1  0.39846200  0.63657000  0.58977900  1
  O  O38  1  0.87757900  0.62242100  0.00000000  1
  O  O39  1  0.55868300  0.64846200  0.26189200  1
  O  O40  1  0.88657000  0.14846200  0.08977900  1
  O  O41  1  0.87242100  0.62757900  0.50000000  1
  O  O42  1  0.20320900  0.11343000  0.26189200  1
  O  O43  1  0.89846200  0.30868300  0.76189200  1
  O  O44  1  0.12500000  0.87871800  0.25371800  1
  O  O45  1  0.12500000  0.37871800  0.75371800  1
  O  O46  1  0.62500000  0.87128200  0.74628200  1
  O  O47  1  0.12242100  0.12242100  0.74484100  1
