# generated using pymatgen
data_La3Si2Cl3O7
_symmetry_space_group_name_H-M   'P 1'
_cell_length_a   12.23751200
_cell_length_b   5.40827900
_cell_length_c   7.96672963
_cell_angle_alpha   71.07855792
_cell_angle_beta   90.00000000
_cell_angle_gamma   90.00000000
_symmetry_Int_Tables_number   1
_chemical_formula_structural   La3Si2Cl3O7
_chemical_formula_sum   'La6 Si4 Cl6 O14'
_cell_volume   498.77759749
_cell_formula_units_Z   2
loop_
 _symmetry_equiv_pos_site_id
 _symmetry_equiv_pos_as_xyz
  1  'x, y, z'
loop_
 _atom_site_type_symbol
 _atom_site_label
 _atom_site_symmetry_multiplicity
 _atom_site_fract_x
 _atom_site_fract_y
 _atom_site_fract_z
 _atom_site_occupancy
  La  La0  1  0.50556000  0.97676700  0.42133300  1
  La  La1  1  0.00556000  0.02323300  0.57866700  1
  La  La2  1  0.25221100  0.56132300  0.29994500  1
  La  La3  1  0.53077300  0.71279700  0.97045000  1
  La  La4  1  0.75221100  0.43867700  0.70005500  1
  La  La5  1  0.03077300  0.28720300  0.02955000  1
  Si  Si6  1  0.84333500  0.78400200  0.93524200  1
  Si  Si7  1  0.45549100  0.39155200  0.68334200  1
  Si  Si8  1  0.34333500  0.21599800  0.06475800  1
  Si  Si9  1  0.95549100  0.60844800  0.31665800  1
  Cl  Cl10  1  0.12967700  0.83944000  0.94041200  1
  Cl  Cl11  1  0.25331300  0.01374500  0.50590200  1
  Cl  Cl12  1  0.62967700  0.16056000  0.05958800  1
  Cl  Cl13  1  0.75331300  0.98625500  0.49409800  1
  Cl  Cl14  1  0.12390500  0.45658200  0.66460000  1
  Cl  Cl15  1  0.62390500  0.54341800  0.33540000  1
  O  O16  1  0.49624000  0.10007900  0.69099300  1
  O  O17  1  0.89309200  0.44203800  0.49810600  1
  O  O18  1  0.39309200  0.55796200  0.50189400  1
  O  O19  1  0.99624000  0.89992100  0.30900700  1
  O  O20  1  0.21609300  0.26887800  0.09662400  1
  O  O21  1  0.05705400  0.41155400  0.30393800  1
  O  O22  1  0.38166000  0.90921800  0.12741600  1
  O  O23  1  0.88273700  0.62026900  0.13888000  1
  O  O24  1  0.41075800  0.35820000  0.18997400  1
  O  O25  1  0.88166000  0.09078200  0.87258400  1
  O  O26  1  0.91075800  0.64180000  0.81002600  1
  O  O27  1  0.55705400  0.58844600  0.69606200  1
  O  O28  1  0.38273700  0.37973100  0.86112000  1
  O  O29  1  0.71609300  0.73112200  0.90337600  1
