# generated using pymatgen
data_K4W2Cl10O
_symmetry_space_group_name_H-M   'P 1'
_cell_length_a   10.40973712
_cell_length_b   10.40973712
_cell_length_c   10.40973712
_cell_angle_alpha   138.65388232
_cell_angle_beta   138.65388232
_cell_angle_gamma   59.90300891
_symmetry_Int_Tables_number   1
_chemical_formula_structural   K4W2Cl10O
_chemical_formula_sum   'K4 W2 Cl10 O1'
_cell_volume   487.25614990
_cell_formula_units_Z   1
loop_
 _symmetry_equiv_pos_site_id
 _symmetry_equiv_pos_as_xyz
  1  'x, y, z'
loop_
 _atom_site_type_symbol
 _atom_site_label
 _atom_site_symmetry_multiplicity
 _atom_site_fract_x
 _atom_site_fract_y
 _atom_site_fract_z
 _atom_site_occupancy
  K  K0  1  0.25000000  0.75000000  0.50000000  1
  K  K1  1  0.50000000  0.00000000  0.50000000  1
  K  K2  1  0.75000000  0.25000000  0.50000000  1
  K  K3  1  0.00000000  0.50000000  0.50000000  1
  W  W4  1  0.10658800  0.10658800  0.00000000  1
  W  W5  1  0.89341200  0.89341200  0.00000000  1
  Cl  Cl6  1  0.65054500  0.12560100  0.00000000  1
  Cl  Cl7  1  0.34945500  0.34945500  0.47505600  1
  Cl  Cl8  1  0.75793800  0.75793800  0.00000000  1
  Cl  Cl9  1  0.24206200  0.24206200  0.00000000  1
  Cl  Cl10  1  0.12560100  0.65054500  0.00000000  1
  Cl  Cl11  1  0.87439900  0.34945500  0.00000000  1
  Cl  Cl12  1  0.65054500  0.65054500  0.52494400  1
  Cl  Cl13  1  0.87439900  0.87439900  0.52494400  1
  Cl  Cl14  1  0.12560100  0.12560100  0.47505600  1
  Cl  Cl15  1  0.34945500  0.87439900  0.00000000  1
  O  O16  1  0.00000000  0.00000000  0.00000000  1
