# generated using pymatgen
data_Ba4NdMn3O12
_symmetry_space_group_name_H-M   'P 1'
_cell_length_a   10.49148575
_cell_length_b   10.49148575
_cell_length_c   10.49148594
_cell_angle_alpha   32.74319583
_cell_angle_beta   32.74319583
_cell_angle_gamma   32.74319730
_symmetry_Int_Tables_number   1
_chemical_formula_structural   Ba4NdMn3O12
_chemical_formula_sum   'Ba4 Nd1 Mn3 O12'
_cell_volume   300.51913027
_cell_formula_units_Z   1
loop_
 _symmetry_equiv_pos_site_id
 _symmetry_equiv_pos_as_xyz
  1  'x, y, z'
loop_
 _atom_site_type_symbol
 _atom_site_label
 _atom_site_symmetry_multiplicity
 _atom_site_fract_x
 _atom_site_fract_y
 _atom_site_fract_z
 _atom_site_occupancy
  Ba  Ba0  1  0.13070800  0.13070800  0.13070800  1
  Ba  Ba1  1  0.86929200  0.86929200  0.86929200  1
  Ba  Ba2  1  0.27950500  0.27950500  0.27950500  1
  Ba  Ba3  1  0.72049500  0.72049500  0.72049500  1
  Nd  Nd4  1  0.00000000  0.00000000  0.00000000  1
  Mn  Mn5  1  0.58643700  0.58643700  0.58643700  1
  Mn  Mn6  1  0.50000000  0.50000000  0.50000000  1
  Mn  Mn7  1  0.41356300  0.41356300  0.41356300  1
  O  O8  1  0.22585100  0.68933600  0.22585100  1
  O  O9  1  0.16591600  0.60548700  0.60548700  1
  O  O10  1  0.83408400  0.39451300  0.39451300  1
  O  O11  1  0.31066400  0.77414900  0.77414900  1
  O  O12  1  0.77414900  0.77414900  0.31066400  1
  O  O13  1  0.60548700  0.60548700  0.16591600  1
  O  O14  1  0.68933600  0.22585100  0.22585100  1
  O  O15  1  0.60548700  0.16591600  0.60548700  1
  O  O16  1  0.77414900  0.31066400  0.77414900  1
  O  O17  1  0.39451300  0.83408400  0.39451300  1
  O  O18  1  0.39451300  0.39451300  0.83408400  1
  O  O19  1  0.22585100  0.22585100  0.68933600  1
