# generated using pymatgen
data_YPbAu2
_symmetry_space_group_name_H-M   'P 1'
_cell_length_a   11.85836328
_cell_length_b   11.85836328
_cell_length_c   11.85836328
_cell_angle_alpha   124.39537037
_cell_angle_beta   118.61980541
_cell_angle_gamma   87.48415603
_symmetry_Int_Tables_number   1
_chemical_formula_structural   YPbAu2
_chemical_formula_sum   'Y1 Pb1 Au2'
_cell_volume   1147.18373998
_cell_formula_units_Z   1
loop_
 _symmetry_equiv_pos_site_id
 _symmetry_equiv_pos_as_xyz
  1  'x, y, z'
loop_
 _atom_site_type_symbol
 _atom_site_label
 _atom_site_symmetry_multiplicity
 _atom_site_fract_x
 _atom_site_fract_y
 _atom_site_fract_z
 _atom_site_occupancy
  Y  Y0  1  0.00000000  0.00000000  0.00000000  1
  Pb  Pb1  1  0.00000000  0.50000000  0.50000000  1
  Au  Au2  1  0.00000000  0.24567300  0.24567300  1
  Au  Au3  1  0.00000000  0.75432700  0.75432700  1
