# generated using pymatgen
data_KGdPdO3
_symmetry_space_group_name_H-M   'P 1'
_cell_length_a   6.87325824
_cell_length_b   6.87325824
_cell_length_c   7.55011111
_cell_angle_alpha   76.26053228
_cell_angle_beta   76.26053228
_cell_angle_gamma   33.30718272
_symmetry_Int_Tables_number   1
_chemical_formula_structural   KGdPdO3
_chemical_formula_sum   'K2 Gd2 Pd2 O6'
_cell_volume   189.74876545
_cell_formula_units_Z   2
loop_
 _symmetry_equiv_pos_site_id
 _symmetry_equiv_pos_as_xyz
  1  'x, y, z'
loop_
 _atom_site_type_symbol
 _atom_site_label
 _atom_site_symmetry_multiplicity
 _atom_site_fract_x
 _atom_site_fract_y
 _atom_site_fract_z
 _atom_site_occupancy
  K  K0  1  0.64458200  0.64458200  0.43527000  1
  K  K1  1  0.35541800  0.35541800  0.56473000  1
  Gd  Gd2  1  0.65019200  0.65019200  0.92383200  1
  Gd  Gd3  1  0.34980800  0.34980800  0.07616800  1
  Pd  Pd4  1  0.99224400  0.99224400  0.77724200  1
  Pd  Pd5  1  0.00775600  0.00775600  0.22275800  1
  O  O6  1  0.82833000  0.82833000  0.87055900  1
  O  O7  1  0.84713200  0.84713200  0.26882800  1
  O  O8  1  0.49299400  0.49299400  0.81905800  1
  O  O9  1  0.17167000  0.17167000  0.12944100  1
  O  O10  1  0.50700600  0.50700600  0.18094200  1
  O  O11  1  0.15286800  0.15286800  0.73117200  1
