# generated using pymatgen
data_SiO2
_symmetry_space_group_name_H-M   'P 1'
_cell_length_a   12.74689981
_cell_length_b   12.74689981
_cell_length_c   3.77507000
_cell_angle_alpha   90.00000000
_cell_angle_beta   90.00000000
_cell_angle_gamma   119.99999901
_symmetry_Int_Tables_number   1
_chemical_formula_structural   SiO2
_chemical_formula_sum   'Si12 O24'
_cell_volume   531.20822351
_cell_formula_units_Z   12
loop_
 _symmetry_equiv_pos_site_id
 _symmetry_equiv_pos_as_xyz
  1  'x, y, z'
loop_
 _atom_site_type_symbol
 _atom_site_label
 _atom_site_symmetry_multiplicity
 _atom_site_fract_x
 _atom_site_fract_y
 _atom_site_fract_z
 _atom_site_occupancy
  Si  Si0  1  0.14188200  0.45530200  0.34541200  1
  Si  Si1  1  0.68658000  0.14188200  0.34541200  1
  Si  Si2  1  0.45530200  0.14188200  0.65458800  1
  Si  Si3  1  0.68658000  0.54469800  0.65458800  1
  Si  Si4  1  0.85811800  0.54469800  0.34541200  1
  Si  Si5  1  0.54469800  0.85811800  0.65458800  1
  Si  Si6  1  0.45530200  0.31342000  0.34541200  1
  Si  Si7  1  0.14188200  0.68658000  0.65458800  1
  Si  Si8  1  0.54469800  0.68658000  0.34541200  1
  Si  Si9  1  0.31342000  0.85811800  0.34541200  1
  Si  Si10  1  0.85811800  0.31342000  0.65458800  1
  Si  Si11  1  0.31342000  0.45530200  0.65458800  1
  O  O12  1  0.75438300  0.50876600  0.00000000  1
  O  O13  1  0.82103500  0.64207000  0.50000000  1
  O  O14  1  0.59156800  0.40843200  0.50000000  1
  O  O15  1  0.61394000  0.00000000  0.50000000  1
  O  O16  1  0.82103500  0.17896500  0.50000000  1
  O  O17  1  0.40843200  0.81686500  0.50000000  1
  O  O18  1  0.24561700  0.75438300  0.00000000  1
  O  O19  1  0.17896500  0.35793000  0.50000000  1
  O  O20  1  0.49123400  0.24561700  0.00000000  1
  O  O21  1  0.75438300  0.24561700  0.00000000  1
  O  O22  1  0.40843200  0.59156800  0.50000000  1
  O  O23  1  0.00000000  0.61394000  0.50000000  1
  O  O24  1  0.18313500  0.59156800  0.50000000  1
  O  O25  1  0.35793000  0.17896500  0.50000000  1
  O  O26  1  0.38606000  0.38606000  0.50000000  1
  O  O27  1  0.64207000  0.82103500  0.50000000  1
  O  O28  1  0.50876600  0.75438300  0.00000000  1
  O  O29  1  0.00000000  0.38606000  0.50000000  1
  O  O30  1  0.17896500  0.82103500  0.50000000  1
  O  O31  1  0.38606000  0.00000000  0.50000000  1
  O  O32  1  0.81686500  0.40843200  0.50000000  1
  O  O33  1  0.24561700  0.49123400  0.00000000  1
  O  O34  1  0.59156800  0.18313500  0.50000000  1
  O  O35  1  0.61394000  0.61394000  0.50000000  1
