# generated using pymatgen
data_VP2Cl7O4
_symmetry_space_group_name_H-M   'P 1'
_cell_length_a   8.41265000
_cell_length_b   8.56916404
_cell_length_c   10.74807759
_cell_angle_alpha   92.05221549
_cell_angle_beta   103.31110673
_cell_angle_gamma   105.71443575
_symmetry_Int_Tables_number   1
_chemical_formula_structural   VP2Cl7O4
_chemical_formula_sum   'V2 P4 Cl14 O8'
_cell_volume   721.82741459
_cell_formula_units_Z   2
loop_
 _symmetry_equiv_pos_site_id
 _symmetry_equiv_pos_as_xyz
  1  'x, y, z'
loop_
 _atom_site_type_symbol
 _atom_site_label
 _atom_site_symmetry_multiplicity
 _atom_site_fract_x
 _atom_site_fract_y
 _atom_site_fract_z
 _atom_site_occupancy
  V  V0  1  0.39816800  0.34789000  0.19248100  1
  V  V1  1  0.60183200  0.65211000  0.80751900  1
  P  P2  1  0.33467400  0.64617400  0.00210400  1
  P  P3  1  0.20736100  0.25377400  0.68547200  1
  P  P4  1  0.79263900  0.74622600  0.31452800  1
  P  P5  1  0.66532600  0.35382600  0.99789600  1
  Cl  Cl6  1  0.57511800  0.25108500  0.33664500  1
  Cl  Cl7  1  0.99323300  0.68687600  0.41928000  1
  Cl  Cl8  1  0.64072600  0.16888900  0.86878800  1
  Cl  Cl9  1  0.00676700  0.31312400  0.58072000  1
  Cl  Cl10  1  0.35927400  0.83111100  0.13121200  1
  Cl  Cl11  1  0.28295200  0.13348900  0.55848300  1
  Cl  Cl12  1  0.11456800  0.63040800  0.87467900  1
  Cl  Cl13  1  0.88543200  0.36959200  0.12532100  1
  Cl  Cl14  1  0.32374400  0.48117400  0.34095400  1
  Cl  Cl15  1  0.89278600  0.91499900  0.20876700  1
  Cl  Cl16  1  0.67625600  0.51882600  0.65904600  1
  Cl  Cl17  1  0.71704800  0.86651100  0.44151700  1
  Cl  Cl18  1  0.10721400  0.08500100  0.79123300  1
  Cl  Cl19  1  0.42488200  0.74891500  0.66335500  1
  O  O20  1  0.68772100  0.51097400  0.93589600  1
  O  O21  1  0.48108000  0.69700100  0.93912600  1
  O  O22  1  0.65754200  0.60649200  0.23668400  1
  O  O23  1  0.76379700  0.81007500  0.84708800  1
  O  O24  1  0.23620300  0.18992500  0.15291200  1
  O  O25  1  0.34245800  0.39350800  0.76331600  1
  O  O26  1  0.31227900  0.48902600  0.06410400  1
  O  O27  1  0.51892000  0.30299900  0.06087400  1
