# generated using pymatgen
data_SiO2
_symmetry_space_group_name_H-M   'P 1'
_cell_length_a   8.81968585
_cell_length_b   7.79790767
_cell_length_c   5.32182906
_cell_angle_alpha   82.14549966
_cell_angle_beta   61.14611229
_cell_angle_gamma   36.70838805
_symmetry_Int_Tables_number   1
_chemical_formula_structural   SiO2
_chemical_formula_sum   'Si4 O8'
_cell_volume   168.31617553
_cell_formula_units_Z   4
loop_
 _symmetry_equiv_pos_site_id
 _symmetry_equiv_pos_as_xyz
  1  'x, y, z'
loop_
 _atom_site_type_symbol
 _atom_site_label
 _atom_site_symmetry_multiplicity
 _atom_site_fract_x
 _atom_site_fract_y
 _atom_site_fract_z
 _atom_site_occupancy
  Si  Si0  1  0.56317500  0.56317500  0.93682500  1
  Si  Si1  1  0.31317500  0.31317500  0.68682500  1
  Si  Si2  1  0.68682500  0.68682500  0.31317500  1
  Si  Si3  1  0.93682500  0.93682500  0.56317500  1
  O  O4  1  0.62500000  0.12500000  0.62500000  1
  O  O5  1  0.62500000  0.62500000  0.12500000  1
  O  O6  1  0.62500000  0.62500000  0.62500000  1
  O  O7  1  0.12500000  0.62500000  0.62500000  1
  O  O8  1  0.18621700  0.81378300  0.18621700  1
  O  O9  1  0.81378300  0.18621700  0.81378300  1
  O  O10  1  0.43621700  0.06378300  0.43621700  1
  O  O11  1  0.06378300  0.43621700  0.06378300  1
