# generated using pymatgen
data_Ca2CdGe
_symmetry_space_group_name_H-M   'P 1'
_cell_length_a   12.78746233
_cell_length_b   12.78746233
_cell_length_c   12.78746233
_cell_angle_alpha   122.40739299
_cell_angle_beta   119.17669142
_cell_angle_gamma   88.65685016
_symmetry_Int_Tables_number   1
_chemical_formula_structural   Ca2CdGe
_chemical_formula_sum   'Ca2 Cd1 Ge1'
_cell_volume   1458.92657207
_cell_formula_units_Z   1
loop_
 _symmetry_equiv_pos_site_id
 _symmetry_equiv_pos_as_xyz
  1  'x, y, z'
loop_
 _atom_site_type_symbol
 _atom_site_label
 _atom_site_symmetry_multiplicity
 _atom_site_fract_x
 _atom_site_fract_y
 _atom_site_fract_z
 _atom_site_occupancy
  Ca  Ca0  1  0.00000000  0.22726500  0.22726500  1
  Ca  Ca1  1  0.00000000  0.77273500  0.77273500  1
  Cd  Cd2  1  0.00000000  0.50000000  0.50000000  1
  Ge  Ge3  1  0.00000000  0.00000000  0.00000000  1
