# generated using pymatgen
data_RbTh3F13
_symmetry_space_group_name_H-M   'P 1'
_cell_length_a   7.52086400
_cell_length_b   8.25311000
_cell_length_c   8.72959400
_cell_angle_alpha   90.00000000
_cell_angle_beta   90.00000000
_cell_angle_gamma   90.00000000
_symmetry_Int_Tables_number   1
_chemical_formula_structural   RbTh3F13
_chemical_formula_sum   'Rb2 Th6 F26'
_cell_volume   541.85042052
_cell_formula_units_Z   2
loop_
 _symmetry_equiv_pos_site_id
 _symmetry_equiv_pos_as_xyz
  1  'x, y, z'
loop_
 _atom_site_type_symbol
 _atom_site_label
 _atom_site_symmetry_multiplicity
 _atom_site_fract_x
 _atom_site_fract_y
 _atom_site_fract_z
 _atom_site_occupancy
  Rb  Rb0  1  0.89477600  0.50000000  0.69516300  1
  Rb  Rb1  1  0.10522400  0.50000000  0.19516300  1
  Th  Th2  1  0.60331300  0.25253600  0.33490600  1
  Th  Th3  1  0.60331300  0.74746400  0.33490600  1
  Th  Th4  1  0.39668700  0.74746400  0.83490600  1
  Th  Th5  1  0.39668700  0.25253600  0.83490600  1
  Th  Th6  1  0.10829800  0.00000000  0.50019700  1
  Th  Th7  1  0.89170200  0.00000000  0.00019700  1
  F  F8  1  0.69488000  0.82646100  0.86629200  1
  F  F9  1  0.56055200  0.50000000  0.84572000  1
  F  F10  1  0.11448000  0.80655200  0.95652600  1
  F  F11  1  0.82410100  0.74488200  0.14498000  1
  F  F12  1  0.36095300  0.00000000  0.67857600  1
  F  F13  1  0.03378500  0.00000000  0.23491400  1
  F  F14  1  0.88552000  0.19344800  0.45652600  1
  F  F15  1  0.43944800  0.50000000  0.34572000  1
  F  F16  1  0.96621500  0.00000000  0.73491400  1
  F  F17  1  0.45250500  0.69854900  0.09681100  1
  F  F18  1  0.77184200  0.50000000  0.36796000  1
  F  F19  1  0.45250500  0.30145100  0.09681100  1
  F  F20  1  0.54749500  0.69854900  0.59681100  1
  F  F21  1  0.59797700  0.00000000  0.45694000  1
  F  F22  1  0.30512000  0.82646100  0.36629200  1
  F  F23  1  0.22815800  0.50000000  0.86796000  1
  F  F24  1  0.82410100  0.25511800  0.14498000  1
  F  F25  1  0.17589900  0.74488200  0.64498000  1
  F  F26  1  0.17589900  0.25511800  0.64498000  1
  F  F27  1  0.30512000  0.17353900  0.36629200  1
  F  F28  1  0.69488000  0.17353900  0.86629200  1
  F  F29  1  0.63904700  0.00000000  0.17857600  1
  F  F30  1  0.40202300  0.00000000  0.95694000  1
  F  F31  1  0.11448000  0.19344800  0.95652600  1
  F  F32  1  0.54749500  0.30145100  0.59681100  1
  F  F33  1  0.88552000  0.80655200  0.45652600  1
