# generated using pymatgen
data_C3S2ClO2F3
_symmetry_space_group_name_H-M   'P 1'
_cell_length_a   17.02532600
_cell_length_b   5.77263200
_cell_length_c   9.09379711
_cell_angle_alpha   68.63937540
_cell_angle_beta   90.00000000
_cell_angle_gamma   90.00000000
_symmetry_Int_Tables_number   1
_chemical_formula_structural   C3S2ClO2F3
_chemical_formula_sum   'C12 S8 Cl4 O8 F12'
_cell_volume   832.35220426
_cell_formula_units_Z   4
loop_
 _symmetry_equiv_pos_site_id
 _symmetry_equiv_pos_as_xyz
  1  'x, y, z'
loop_
 _atom_site_type_symbol
 _atom_site_label
 _atom_site_symmetry_multiplicity
 _atom_site_fract_x
 _atom_site_fract_y
 _atom_site_fract_z
 _atom_site_occupancy
  C  C0  1  0.59202800  0.75184500  0.79299800  1
  C  C1  1  0.09202800  0.24815500  0.70700200  1
  C  C2  1  0.99660200  0.81958200  0.29627700  1
  C  C3  1  0.23447500  0.55014000  0.99664500  1
  C  C4  1  0.40797200  0.24815500  0.20700200  1
  C  C5  1  0.73447500  0.44986000  0.50335500  1
  C  C6  1  0.76552500  0.44986000  0.00335500  1
  C  C7  1  0.00339800  0.18041800  0.70372300  1
  C  C8  1  0.50339800  0.81958200  0.79627700  1
  C  C9  1  0.90797200  0.75184500  0.29299800  1
  C  C10  1  0.26552500  0.55014000  0.49664500  1
  C  C11  1  0.49660200  0.18041800  0.20372300  1
  S  S12  1  0.25982500  0.23823700  0.63060700  1
  S  S13  1  0.65092900  0.85767900  0.92071200  1
  S  S14  1  0.34907100  0.14232100  0.07928800  1
  S  S15  1  0.74017500  0.76176300  0.36939300  1
  S  S16  1  0.24017500  0.23823700  0.13060700  1
  S  S17  1  0.75982500  0.76176300  0.86939300  1
  S  S18  1  0.84907100  0.85767900  0.42071200  1
  S  S19  1  0.15092900  0.14232100  0.57928800  1
  Cl  Cl20  1  0.98727700  0.86716200  0.82425600  1
  Cl  Cl21  1  0.48727700  0.13283800  0.67574400  1
  Cl  Cl22  1  0.51272300  0.86716200  0.32425600  1
  Cl  Cl23  1  0.01272300  0.13283800  0.17574400  1
  O  O24  1  0.22001000  0.67774600  0.40123700  1
  O  O25  1  0.77999000  0.32225400  0.59876300  1
  O  O26  1  0.11526200  0.35955800  0.78821300  1
  O  O27  1  0.38473800  0.35955800  0.28821300  1
  O  O28  1  0.27999000  0.67774600  0.90123700  1
  O  O29  1  0.88473800  0.64044200  0.21178700  1
  O  O30  1  0.72001000  0.32225400  0.09876300  1
  O  O31  1  0.61526200  0.64044200  0.71178700  1
  F  F32  1  0.83762300  0.36322700  0.97867700  1
  F  F33  1  0.33762300  0.63677300  0.52132300  1
  F  F34  1  0.98123900  0.21740000  0.55153300  1
  F  F35  1  0.48123900  0.78260000  0.94846700  1
  F  F36  1  0.04096300  0.66852700  0.24615100  1
  F  F37  1  0.66237700  0.36322700  0.47867700  1
  F  F38  1  0.51876100  0.21740000  0.05153300  1
  F  F39  1  0.95903700  0.33147300  0.75384900  1
  F  F40  1  0.54096300  0.33147300  0.25384900  1
  F  F41  1  0.16237700  0.63677300  0.02132300  1
  F  F42  1  0.45903700  0.66852700  0.74615100  1
  F  F43  1  0.01876100  0.78260000  0.44846700  1
