# generated using pymatgen
data_Ca11Si4SO18
_symmetry_space_group_name_H-M   'P 1'
_cell_length_a   8.68260299
_cell_length_b   8.68260299
_cell_length_c   8.68260299
_cell_angle_alpha   105.25586470
_cell_angle_beta   105.25586470
_cell_angle_gamma   118.27734750
_symmetry_Int_Tables_number   1
_chemical_formula_structural   Ca11Si4SO18
_chemical_formula_sum   'Ca11 Si4 S1 O18'
_cell_volume   494.82983401
_cell_formula_units_Z   1
loop_
 _symmetry_equiv_pos_site_id
 _symmetry_equiv_pos_as_xyz
  1  'x, y, z'
loop_
 _atom_site_type_symbol
 _atom_site_label
 _atom_site_symmetry_multiplicity
 _atom_site_fract_x
 _atom_site_fract_y
 _atom_site_fract_z
 _atom_site_occupancy
  Ca  Ca0  1  0.99646500  0.49646500  0.50000000  1
  Ca  Ca1  1  0.53990200  0.79440900  0.74549400  1
  Ca  Ca2  1  0.43432600  0.19201200  0.24231400  1
  Ca  Ca3  1  0.80798800  0.56567400  0.75768600  1
  Ca  Ca4  1  0.50000000  0.50000000  0.00000000  1
  Ca  Ca5  1  0.50353500  0.00353500  0.50000000  1
  Ca  Ca6  1  0.04891500  0.79440900  0.25450600  1
  Ca  Ca7  1  0.20559100  0.95108500  0.74549400  1
  Ca  Ca8  1  0.94969800  0.19201200  0.75768600  1
  Ca  Ca9  1  0.80798800  0.05030200  0.24231400  1
  Ca  Ca10  1  0.20559100  0.46009800  0.25450600  1
  Si  Si11  1  0.28909200  0.71090800  0.00000000  1
  Si  Si12  1  0.28909200  0.28909200  0.57818400  1
  Si  Si13  1  0.71090800  0.71090800  0.42181600  1
  Si  Si14  1  0.71090800  0.28909200  0.00000000  1
  S  S15  1  0.00000000  0.00000000  0.00000000  1
  O  O16  1  0.50530400  0.79469600  0.00143700  1
  O  O17  1  0.50530400  0.50386700  0.71060800  1
  O  O18  1  0.20530400  0.20674100  0.71060800  1
  O  O19  1  0.67749600  0.13136800  0.81724300  1
  O  O20  1  0.20530400  0.49469600  0.99856300  1
  O  O21  1  0.67749600  0.86025300  0.54612800  1
  O  O22  1  0.49613300  0.20674100  0.00143700  1
  O  O23  1  0.31412500  0.13136800  0.45387200  1
  O  O24  1  0.13974700  0.68587500  0.81724300  1
  O  O25  1  0.75000000  0.25000000  0.50000000  1
  O  O26  1  0.31412500  0.86025300  0.18275700  1
  O  O27  1  0.79325900  0.79469600  0.28939200  1
  O  O28  1  0.86863200  0.68587500  0.54612800  1
  O  O29  1  0.86863200  0.32250400  0.18275700  1
  O  O30  1  0.79325900  0.50386700  0.99856300  1
  O  O31  1  0.13974700  0.32250400  0.45387200  1
  O  O32  1  0.49613300  0.49469600  0.28939200  1
  O  O33  1  0.25000000  0.75000000  0.50000000  1
