# generated using pymatgen
data_Ca2Th(Si2O5)4
_symmetry_space_group_name_H-M   'P 1'
_cell_length_a   9.26560124
_cell_length_b   9.26560124
_cell_length_c   9.26560124
_cell_angle_alpha   131.94506502
_cell_angle_beta   131.94506502
_cell_angle_gamma   70.31580457
_symmetry_Int_Tables_number   1
_chemical_formula_structural   Ca2Th(Si2O5)4
_chemical_formula_sum   'Ca2 Th1 Si8 O20'
_cell_volume   431.28668459
_cell_formula_units_Z   1
loop_
 _symmetry_equiv_pos_site_id
 _symmetry_equiv_pos_as_xyz
  1  'x, y, z'
loop_
 _atom_site_type_symbol
 _atom_site_label
 _atom_site_symmetry_multiplicity
 _atom_site_fract_x
 _atom_site_fract_y
 _atom_site_fract_z
 _atom_site_occupancy
  Ca  Ca0  1  0.00000000  0.50000000  0.50000000  1
  Ca  Ca1  1  0.50000000  0.00000000  0.50000000  1
  Th  Th2  1  0.00000000  0.00000000  0.00000000  1
  Si  Si3  1  0.81581800  0.40021000  0.92155200  1
  Si  Si4  1  0.47865900  0.89426600  0.07844800  1
  Si  Si5  1  0.40021000  0.47865900  0.58439300  1
  Si  Si6  1  0.18418200  0.10573400  0.58439300  1
  Si  Si7  1  0.59979000  0.18418200  0.07844800  1
  Si  Si8  1  0.10573400  0.52134100  0.92155200  1
  Si  Si9  1  0.52134100  0.59979000  0.41560700  1
  Si  Si10  1  0.89426600  0.81581800  0.41560700  1
  O  O11  1  0.02595800  0.66385200  0.85088600  1
  O  O12  1  0.95596700  0.45596700  0.91193400  1
  O  O13  1  0.97404200  0.82492800  0.63789400  1
  O  O14  1  0.66385200  0.81296600  0.63789400  1
  O  O15  1  0.57886000  0.37964800  0.70614200  1
  O  O16  1  0.33614800  0.97404200  0.14911400  1
  O  O17  1  0.12728100  0.32649300  0.70614200  1
  O  O18  1  0.32649300  0.62035200  0.19921200  1
  O  O19  1  0.81296600  0.17507200  0.14911400  1
  O  O20  1  0.82492800  0.18703400  0.85088600  1
  O  O21  1  0.42114000  0.12728100  0.80078800  1
  O  O22  1  0.54403300  0.04403300  0.08806600  1
  O  O23  1  0.18703400  0.33614800  0.36210600  1
  O  O24  1  0.45596700  0.54403300  0.50000000  1
  O  O25  1  0.17507200  0.02595800  0.36210600  1
  O  O26  1  0.04403300  0.95596700  0.50000000  1
  O  O27  1  0.67350700  0.87271900  0.29385800  1
  O  O28  1  0.62035200  0.42114000  0.29385800  1
  O  O29  1  0.87271900  0.57886000  0.19921200  1
  O  O30  1  0.37964800  0.67350700  0.80078800  1
