# generated using pymatgen
data_Ta2MnRu
_symmetry_space_group_name_H-M   'P 1'
_cell_length_a   10.01471035
_cell_length_b   10.01471035
_cell_length_c   10.01471035
_cell_angle_alpha   127.49184905
_cell_angle_beta   119.21604585
_cell_angle_gamma   84.44779517
_symmetry_Int_Tables_number   1
_chemical_formula_structural   Ta2MnRu
_chemical_formula_sum   'Ta2 Mn1 Ru1'
_cell_volume   665.82303704
_cell_formula_units_Z   1
loop_
 _symmetry_equiv_pos_site_id
 _symmetry_equiv_pos_as_xyz
  1  'x, y, z'
loop_
 _atom_site_type_symbol
 _atom_site_label
 _atom_site_symmetry_multiplicity
 _atom_site_fract_x
 _atom_site_fract_y
 _atom_site_fract_z
 _atom_site_occupancy
  Ta  Ta0  1  0.00000000  0.24679700  0.24679700  1
  Ta  Ta1  1  0.00000000  0.75320300  0.75320300  1
  Mn  Mn2  1  0.00000000  0.00000000  0.00000000  1
  Ru  Ru3  1  0.00000000  0.50000000  0.50000000  1
