# generated using pymatgen
data_S5N2ClO6
_symmetry_space_group_name_H-M   'P 1'
_cell_length_a   6.85133400
_cell_length_b   7.89040521
_cell_length_c   10.96954447
_cell_angle_alpha   91.49684582
_cell_angle_beta   100.57041116
_cell_angle_gamma   113.79502471
_symmetry_Int_Tables_number   1
_chemical_formula_structural   S5N2ClO6
_chemical_formula_sum   'S10 N4 Cl2 O12'
_cell_volume   530.07876160
_cell_formula_units_Z   2
loop_
 _symmetry_equiv_pos_site_id
 _symmetry_equiv_pos_as_xyz
  1  'x, y, z'
loop_
 _atom_site_type_symbol
 _atom_site_label
 _atom_site_symmetry_multiplicity
 _atom_site_fract_x
 _atom_site_fract_y
 _atom_site_fract_z
 _atom_site_occupancy
  S  S0  1  0.57408700  0.83121700  0.21116200  1
  S  S1  1  0.00151200  0.23163100  0.97759800  1
  S  S2  1  0.96759600  0.69667000  0.76918800  1
  S  S3  1  0.79570200  0.64072300  0.38050700  1
  S  S4  1  0.74058500  0.82787700  0.90195000  1
  S  S5  1  0.42591300  0.16878300  0.78883800  1
  S  S6  1  0.20429800  0.35927700  0.61949300  1
  S  S7  1  0.99848800  0.76836900  0.02240200  1
  S  S8  1  0.03240400  0.30333000  0.23081200  1
  S  S9  1  0.25941500  0.17212300  0.09805000  1
  N  N10  1  0.07606000  0.69840700  0.90975500  1
  N  N11  1  0.92394000  0.30159300  0.09024500  1
  N  N12  1  0.21890700  0.23513800  0.22721200  1
  N  N13  1  0.78109300  0.76486200  0.77278800  1
  Cl  Cl14  1  0.88904500  0.16470800  0.59548500  1
  Cl  Cl15  1  0.11095500  0.83529200  0.40451500  1
  O  O16  1  0.75454600  0.51848800  0.27031100  1
  O  O17  1  0.24545400  0.48151200  0.72968900  1
  O  O18  1  0.66299600  0.76400400  0.36002200  1
  O  O19  1  0.77087400  0.56975100  0.49820700  1
  O  O20  1  0.53647100  0.98629900  0.25642000  1
  O  O21  1  0.22912600  0.43024900  0.50179300  1
  O  O22  1  0.33700400  0.23599600  0.63997800  1
  O  O23  1  0.61429700  0.33551200  0.84697400  1
  O  O24  1  0.46352900  0.01370100  0.74358000  1
  O  O25  1  0.76387000  0.88189400  0.15358600  1
  O  O26  1  0.23613000  0.11810600  0.84641400  1
  O  O27  1  0.38570300  0.66448800  0.15302600  1
