# generated using pymatgen
data_La2AlZn
_symmetry_space_group_name_H-M   'P 1'
_cell_length_a   11.72794574
_cell_length_b   11.72794574
_cell_length_c   11.72794574
_cell_angle_alpha   123.50001524
_cell_angle_beta   118.83536958
_cell_angle_gamma   88.03828211
_symmetry_Int_Tables_number   1
_chemical_formula_structural   La2AlZn
_chemical_formula_sum   'La2 Al1 Zn1'
_cell_volume   1117.37921286
_cell_formula_units_Z   1
loop_
 _symmetry_equiv_pos_site_id
 _symmetry_equiv_pos_as_xyz
  1  'x, y, z'
loop_
 _atom_site_type_symbol
 _atom_site_label
 _atom_site_symmetry_multiplicity
 _atom_site_fract_x
 _atom_site_fract_y
 _atom_site_fract_z
 _atom_site_occupancy
  La  La0  1  0.00000000  0.25189200  0.25189200  1
  La  La1  1  0.00000000  0.74810800  0.74810800  1
  Al  Al2  1  0.00000000  0.00000000  0.00000000  1
  Zn  Zn3  1  0.00000000  0.50000000  0.50000000  1
