# generated using pymatgen
data_C12SeF10
_symmetry_space_group_name_H-M   'P 1'
_cell_length_a   7.63052900
_cell_length_b   9.46097300
_cell_length_c   9.63738586
_cell_angle_alpha   73.58305933
_cell_angle_beta   90.00000000
_cell_angle_gamma   90.00000000
_symmetry_Int_Tables_number   1
_chemical_formula_structural   C12SeF10
_chemical_formula_sum   'C24 Se2 F20'
_cell_volume   667.37918256
_cell_formula_units_Z   2
loop_
 _symmetry_equiv_pos_site_id
 _symmetry_equiv_pos_as_xyz
  1  'x, y, z'
loop_
 _atom_site_type_symbol
 _atom_site_label
 _atom_site_symmetry_multiplicity
 _atom_site_fract_x
 _atom_site_fract_y
 _atom_site_fract_z
 _atom_site_occupancy
  C  C0  1  0.33690500  0.45301200  0.70128200  1
  C  C1  1  0.30608800  0.54530200  0.78845500  1
  C  C2  1  0.63505000  0.43426000  0.16964000  1
  C  C3  1  0.45021100  0.92793800  0.88648300  1
  C  C4  1  0.20075500  0.37769600  0.65592300  1
  C  C5  1  0.57051400  0.09502400  0.61742600  1
  C  C6  1  0.68201100  0.99347900  0.70908900  1
  C  C7  1  0.53049900  0.60022200  0.30076500  1
  C  C8  1  0.80608800  0.45469800  0.21154500  1
  C  C9  1  0.12226300  0.08920900  0.15545400  1
  C  C10  1  0.62226300  0.91079100  0.84454600  1
  C  C11  1  0.18201100  0.00652100  0.29091100  1
  C  C12  1  0.70075500  0.62230400  0.34407700  1
  C  C13  1  0.89814800  0.88521600  0.34258400  1
  C  C14  1  0.83979100  0.97257400  0.20803600  1
  C  C15  1  0.39814800  0.11478400  0.65741600  1
  C  C16  1  0.99667100  0.49267900  0.78568500  1
  C  C17  1  0.03049900  0.39977800  0.69923500  1
  C  C18  1  0.33979100  0.02742600  0.79196400  1
  C  C19  1  0.83690500  0.54698800  0.29871800  1
  C  C20  1  0.13505000  0.56574000  0.83036000  1
  C  C21  1  0.49667100  0.50732100  0.21431500  1
  C  C22  1  0.07051400  0.90497600  0.38257400  1
  C  C23  1  0.95021100  0.07206200  0.11351700  1
  Se  Se24  1  0.24494200  0.25542700  0.52981100  1
  Se  Se25  1  0.74494200  0.74457300  0.47018900  1
  F  F26  1  0.67276300  0.96205100  0.16591800  1
  F  F27  1  0.84737200  0.97434000  0.66786900  1
  F  F28  1  0.00388500  0.56141500  0.33980700  1
  F  F29  1  0.60345900  0.34285000  0.08812600  1
  F  F30  1  0.83181900  0.51258900  0.82669200  1
  F  F31  1  0.89078600  0.15316300  0.98371900  1
  F  F32  1  0.94005300  0.38272500  0.16990500  1
  F  F33  1  0.10345900  0.65715000  0.91187400  1
  F  F34  1  0.34737200  0.02566000  0.33213100  1
  F  F35  1  0.89304700  0.33190300  0.65722400  1
  F  F36  1  0.39078600  0.84683700  0.01628100  1
  F  F37  1  0.17276300  0.03794900  0.83408200  1
  F  F38  1  0.22960400  0.18688600  0.06671500  1
  F  F39  1  0.44005300  0.61727500  0.83009500  1
  F  F40  1  0.50388500  0.43858500  0.66019300  1
  F  F41  1  0.39304700  0.66809700  0.34277600  1
  F  F42  1  0.63441400  0.17410800  0.48797800  1
  F  F43  1  0.13441400  0.82589200  0.51202200  1
  F  F44  1  0.72960400  0.81311400  0.93328500  1
  F  F45  1  0.33181900  0.48741100  0.17330800  1
