# generated using pymatgen
data_V4O7
_symmetry_space_group_name_H-M   'P 1'
_cell_length_a   5.67480400
_cell_length_b   6.93168292
_cell_length_c   7.11037046
_cell_angle_alpha   64.44786339
_cell_angle_beta   69.99596037
_cell_angle_gamma   75.06235321
_symmetry_Int_Tables_number   1
_chemical_formula_structural   V4O7
_chemical_formula_sum   'V8 O14'
_cell_volume   235.10098500
_cell_formula_units_Z   2
loop_
 _symmetry_equiv_pos_site_id
 _symmetry_equiv_pos_as_xyz
  1  'x, y, z'
loop_
 _atom_site_type_symbol
 _atom_site_label
 _atom_site_symmetry_multiplicity
 _atom_site_fract_x
 _atom_site_fract_y
 _atom_site_fract_z
 _atom_site_occupancy
  V  V0  1  0.18994100  0.09524100  0.25509700  1
  V  V1  1  0.71476600  0.37311100  0.41632200  1
  V  V2  1  0.28523400  0.62688900  0.58367800  1
  V  V3  1  0.28520900  0.62058700  0.08528500  1
  V  V4  1  0.71479100  0.37941300  0.91471500  1
  V  V5  1  0.18380600  0.09249900  0.75964100  1
  V  V6  1  0.81619400  0.90750100  0.24035900  1
  V  V7  1  0.81005900  0.90475900  0.74490300  1
  O  O8  1  0.80016100  0.05555000  0.43600400  1
  O  O9  1  0.82213800  0.22243400  0.70477900  1
  O  O10  1  0.98169400  0.82857200  0.97591400  1
  O  O11  1  0.08295900  0.38460200  0.26010500  1
  O  O12  1  0.48278700  0.88896100  0.86369600  1
  O  O13  1  0.01830600  0.17142800  0.02408600  1
  O  O14  1  0.40052100  0.53198400  0.83912900  1
  O  O15  1  0.17786200  0.77756600  0.29522100  1
  O  O16  1  0.35844100  0.33371200  0.58962900  1
  O  O17  1  0.91704100  0.61539800  0.73989500  1
  O  O18  1  0.64155900  0.66628800  0.41037100  1
  O  O19  1  0.19983900  0.94445000  0.56399600  1
  O  O20  1  0.51721300  0.11103900  0.13630400  1
  O  O21  1  0.59947900  0.46801600  0.16087100  1
