# generated using pymatgen
data_ZnS
_symmetry_space_group_name_H-M   'P 1'
_cell_length_a   3.85271383
_cell_length_b   3.85271383
_cell_length_c   75.59590300
_cell_angle_alpha   90.00000000
_cell_angle_beta   90.00000000
_cell_angle_gamma   119.99999706
_symmetry_Int_Tables_number   1
_chemical_formula_structural   ZnS
_chemical_formula_sum   'Zn24 S24'
_cell_volume   971.76758249
_cell_formula_units_Z   24
loop_
 _symmetry_equiv_pos_site_id
 _symmetry_equiv_pos_as_xyz
  1  'x, y, z'
loop_
 _atom_site_type_symbol
 _atom_site_label
 _atom_site_symmetry_multiplicity
 _atom_site_fract_x
 _atom_site_fract_y
 _atom_site_fract_z
 _atom_site_occupancy
  Zn  Zn0  1  0.00000000  0.00000000  0.70834300  1
  Zn  Zn1  1  0.66666700  0.33333300  0.79167200  1
  Zn  Zn2  1  0.00000000  0.00000000  0.33333000  1
  Zn  Zn3  1  0.33333300  0.66666700  0.41667100  1
  Zn  Zn4  1  0.00000000  0.00000000  0.08332900  1
  Zn  Zn5  1  0.66666700  0.33333300  0.20832900  1
  Zn  Zn6  1  0.00000000  0.00000000  0.83332900  1
  Zn  Zn7  1  0.00000000  0.00000000  0.91668200  1
  Zn  Zn8  1  0.33333300  0.66666700  0.12499900  1
  Zn  Zn9  1  0.00000000  0.00000000  0.16668200  1
  Zn  Zn10  1  0.33333300  0.66666700  0.58333100  1
  Zn  Zn11  1  0.66666700  0.33333300  0.66666900  1
  Zn  Zn12  1  0.66666700  0.33333300  0.04168200  1
  Zn  Zn13  1  0.00000000  0.00000000  0.45832900  1
  Zn  Zn14  1  0.33333300  0.66666700  0.75000100  1
  Zn  Zn15  1  0.66666700  0.33333300  0.29167700  1
  Zn  Zn16  1  0.66666700  0.33333300  0.37501100  1
  Zn  Zn17  1  0.66666700  0.33333300  0.95832900  1
  Zn  Zn18  1  0.33333300  0.66666700  0.87499900  1
  Zn  Zn19  1  0.00000000  0.00000000  0.54167700  1
  Zn  Zn20  1  0.00000000  0.00000000  0.62500700  1
  Zn  Zn21  1  0.33333300  0.66666700  0.99999900  1
  Zn  Zn22  1  0.66666700  0.33333300  0.49999900  1
  Zn  Zn23  1  0.33333300  0.66666700  0.24999900  1
  S  S24  1  0.66666700  0.33333300  0.53127300  1
  S  S25  1  0.66666700  0.33333300  0.32289000  1
  S  S26  1  0.00000000  0.00000000  0.86455400  1
  S  S27  1  0.33333300  0.66666700  0.78124800  1
  S  S28  1  0.00000000  0.00000000  0.94791400  1
  S  S29  1  0.66666700  0.33333300  0.98955300  1
  S  S30  1  0.00000000  0.00000000  0.11455300  1
  S  S31  1  0.33333300  0.66666700  0.61460400  1
  S  S32  1  0.33333300  0.66666700  0.03127300  1
  S  S33  1  0.33333300  0.66666700  0.90627300  1
  S  S34  1  0.00000000  0.00000000  0.48955400  1
  S  S35  1  0.33333300  0.66666700  0.28127300  1
  S  S36  1  0.00000000  0.00000000  0.36460300  1
  S  S37  1  0.66666700  0.33333300  0.82291500  1
  S  S38  1  0.00000000  0.00000000  0.65622300  1
  S  S39  1  0.66666700  0.33333300  0.07291400  1
  S  S40  1  0.00000000  0.00000000  0.73957600  1
  S  S41  1  0.66666700  0.33333300  0.69794000  1
  S  S42  1  0.33333300  0.66666700  0.15627300  1
  S  S43  1  0.66666700  0.33333300  0.23955400  1
  S  S44  1  0.00000000  0.00000000  0.57289000  1
  S  S45  1  0.66666700  0.33333300  0.40624700  1
  S  S46  1  0.33333300  0.66666700  0.44791400  1
  S  S47  1  0.00000000  0.00000000  0.19791400  1
