# generated using pymatgen
data_SiO2
_symmetry_space_group_name_H-M   'P 1'
_cell_length_a   12.25202428
_cell_length_b   12.25202428
_cell_length_c   12.25202428
_cell_angle_alpha   135.75046994
_cell_angle_beta   135.75046994
_cell_angle_gamma   64.36634937
_symmetry_Int_Tables_number   1
_chemical_formula_structural   SiO2
_chemical_formula_sum   'Si16 O32'
_cell_volume   883.18348752
_cell_formula_units_Z   16
loop_
 _symmetry_equiv_pos_site_id
 _symmetry_equiv_pos_as_xyz
  1  'x, y, z'
loop_
 _atom_site_type_symbol
 _atom_site_label
 _atom_site_symmetry_multiplicity
 _atom_site_fract_x
 _atom_site_fract_y
 _atom_site_fract_z
 _atom_site_occupancy
  Si  Si0  1  0.38507400  0.88935500  0.15768900  1
  Si  Si1  1  0.97738600  0.63507400  0.99572000  1
  Si  Si2  1  0.11064500  0.26833400  0.49572000  1
  Si  Si3  1  0.01833400  0.36064500  0.99572000  1
  Si  Si4  1  0.63935500  0.63507400  0.65768900  1
  Si  Si5  1  0.73166600  0.22738600  0.84231100  1
  Si  Si6  1  0.38507400  0.22738600  0.49572000  1
  Si  Si7  1  0.77261400  0.61492600  0.50428000  1
  Si  Si8  1  0.11064500  0.61492600  0.84231100  1
  Si  Si9  1  0.36492600  0.36064500  0.34231100  1
  Si  Si10  1  0.73166600  0.88935500  0.50428000  1
  Si  Si11  1  0.77261400  0.26833400  0.15768900  1
  Si  Si12  1  0.01833400  0.02261400  0.65768900  1
  Si  Si13  1  0.97738600  0.98166600  0.34231100  1
  Si  Si14  1  0.36492600  0.02261400  0.00428000  1
  Si  Si15  1  0.63935500  0.98166600  0.00428000  1
  O  O16  1  0.79313400  0.57996500  0.78683100  1
  O  O17  1  0.32996500  0.04313400  0.28683100  1
  O  O18  1  0.95686600  0.24369700  0.28683100  1
  O  O19  1  0.18385300  0.37290000  0.18904600  1
  O  O20  1  0.42003500  0.20686600  0.21316900  1
  O  O21  1  0.02006300  0.97993700  0.50000000  1
  O  O22  1  0.95686600  0.67003500  0.71316900  1
  O  O23  1  0.27006300  0.27006300  0.54012700  1
  O  O24  1  0.47993700  0.97993700  0.95987300  1
  O  O25  1  0.99369700  0.20686600  0.78683100  1
  O  O26  1  0.87500000  0.90404200  0.52904200  1
  O  O27  1  0.37500000  0.34595800  0.47095800  1
  O  O28  1  0.79313400  0.00630300  0.21316900  1
  O  O29  1  0.62710000  0.81614700  0.81095400  1
  O  O30  1  0.72993700  0.72993700  0.45987300  1
  O  O31  1  0.87500000  0.34595800  0.97095800  1
  O  O32  1  0.02006300  0.52006300  0.04012700  1
  O  O33  1  0.72993700  0.27006300  0.00000000  1
  O  O34  1  0.47993700  0.52006300  0.50000000  1
  O  O35  1  0.12290000  0.43385300  0.68904600  1
  O  O36  1  0.56614700  0.25519300  0.68904600  1
  O  O37  1  0.65404200  0.62500000  0.52904200  1
  O  O38  1  0.74480700  0.43385300  0.31095400  1
  O  O39  1  0.09595800  0.62500000  0.97095800  1
  O  O40  1  0.65404200  0.12500000  0.02904200  1
  O  O41  1  0.56614700  0.87710000  0.31095400  1
  O  O42  1  0.18385300  0.99480700  0.81095400  1
  O  O43  1  0.00519300  0.81614700  0.18904600  1
  O  O44  1  0.27006300  0.72993700  0.00000000  1
  O  O45  1  0.09595800  0.12500000  0.47095800  1
  O  O46  1  0.75630300  0.04313400  0.71316900  1
  O  O47  1  0.37500000  0.90404200  0.02904200  1
