# generated using pymatgen
data_H12RhC8NO6
_symmetry_space_group_name_H-M   'P 1'
_cell_length_a   6.59822600
_cell_length_b   11.54191400
_cell_length_c   16.95506900
_cell_angle_alpha   90.00000000
_cell_angle_beta   90.00000000
_cell_angle_gamma   90.00000000
_symmetry_Int_Tables_number   1
_chemical_formula_structural   H12RhC8NO6
_chemical_formula_sum   'H48 Rh4 C32 N4 O24'
_cell_volume   1291.23289747
_cell_formula_units_Z   4
loop_
 _symmetry_equiv_pos_site_id
 _symmetry_equiv_pos_as_xyz
  1  'x, y, z'
loop_
 _atom_site_type_symbol
 _atom_site_label
 _atom_site_symmetry_multiplicity
 _atom_site_fract_x
 _atom_site_fract_y
 _atom_site_fract_z
 _atom_site_occupancy
  H  H0  1  0.43262900  0.10110600  0.72325800  1
  H  H1  1  0.43115500  0.49566800  0.83517300  1
  H  H2  1  0.61331600  0.34033000  0.77206600  1
  H  H3  1  0.61256100  0.35842000  0.91415900  1
  H  H4  1  0.56738600  0.61142700  0.88281000  1
  H  H5  1  0.56884500  0.50433200  0.16482700  1
  H  H6  1  0.11256100  0.64158000  0.08584100  1
  H  H7  1  0.75000000  0.44470100  0.71319200  1
  H  H8  1  0.06737100  0.39889400  0.22325800  1
  H  H9  1  0.06884500  0.00433200  0.33517300  1
  H  H10  1  0.06737100  0.10110600  0.72325800  1
  H  H11  1  0.93115500  0.50433200  0.16482700  1
  H  H12  1  0.56737100  0.60110600  0.77674200  1
  H  H13  1  0.06884500  0.49566800  0.83517300  1
  H  H14  1  0.61256100  0.14158000  0.41415900  1
  H  H15  1  0.93262900  0.89889400  0.27674200  1
  H  H16  1  0.93261400  0.88857300  0.38281000  1
  H  H17  1  0.93115500  0.99566800  0.66482700  1
  H  H18  1  0.38668400  0.65967000  0.22793400  1
  H  H19  1  0.25000000  0.52578900  0.03940800  1
  H  H20  1  0.93261400  0.61142700  0.88281000  1
  H  H21  1  0.43261400  0.11142700  0.61719000  1
  H  H22  1  0.88743900  0.14158000  0.41415900  1
  H  H23  1  0.11331600  0.84033000  0.72793400  1
  H  H24  1  0.25000000  0.97421100  0.53940800  1
  H  H25  1  0.88668400  0.15967000  0.27206600  1
  H  H26  1  0.38668400  0.84033000  0.72793400  1
  H  H27  1  0.11256100  0.85842000  0.58584100  1
  H  H28  1  0.06738600  0.11142700  0.61719000  1
  H  H29  1  0.11331600  0.65967000  0.22793400  1
  H  H30  1  0.75000000  0.05529900  0.21319200  1
  H  H31  1  0.38743900  0.85842000  0.58584100  1
  H  H32  1  0.75000000  0.47421100  0.96059200  1
  H  H33  1  0.56738600  0.88857300  0.38281000  1
  H  H34  1  0.06738600  0.38857300  0.11719000  1
  H  H35  1  0.25000000  0.94470100  0.78680800  1
  H  H36  1  0.88743900  0.35842000  0.91415900  1
  H  H37  1  0.43262900  0.39889400  0.22325800  1
  H  H38  1  0.93262900  0.60110600  0.77674200  1
  H  H39  1  0.88668400  0.34033000  0.77206600  1
  H  H40  1  0.75000000  0.02578900  0.46059200  1
  H  H41  1  0.43261400  0.38857300  0.11719000  1
  H  H42  1  0.61331600  0.15967000  0.27206600  1
  H  H43  1  0.43115500  0.00433200  0.33517300  1
  H  H44  1  0.56737100  0.89889400  0.27674200  1
  H  H45  1  0.56884500  0.99566800  0.66482700  1
  H  H46  1  0.38743900  0.64158000  0.08584100  1
  H  H47  1  0.25000000  0.55529900  0.28680800  1
  Rh  Rh48  1  0.75000000  0.99919500  0.00394100  1
  Rh  Rh49  1  0.25000000  0.00080500  0.99605900  1
  Rh  Rh50  1  0.25000000  0.49919500  0.49605900  1
  Rh  Rh51  1  0.75000000  0.50080500  0.50394100  1
  C  C52  1  0.25000000  0.25293300  0.47109800  1
  C  C53  1  0.93588900  0.55244200  0.83220900  1
  C  C54  1  0.43588900  0.05244200  0.66779100  1
  C  C55  1  0.25000000  0.58857700  0.08781500  1
  C  C56  1  0.93588900  0.94755800  0.33220900  1
  C  C57  1  0.75000000  0.75293300  0.02890200  1
  C  C58  1  0.75000000  0.39406200  0.76788700  1
  C  C59  1  0.75000000  0.08857700  0.41218500  1
  C  C60  1  0.75000000  0.44319200  0.40229000  1
  C  C61  1  0.56411100  0.94755800  0.33220900  1
  C  C62  1  0.75000000  0.41142300  0.91218500  1
  C  C63  1  0.25000000  0.64802900  0.45610000  1
  C  C64  1  0.25000000  0.94319200  0.09771000  1
  C  C65  1  0.75000000  0.69229800  0.61307800  1
  C  C66  1  0.25000000  0.85197100  0.95610000  1
  C  C67  1  0.25000000  0.89406200  0.73211300  1
  C  C68  1  0.25000000  0.60593800  0.23211300  1
  C  C69  1  0.25000000  0.55680800  0.59771000  1
  C  C70  1  0.25000000  0.19229800  0.88692200  1
  C  C71  1  0.25000000  0.24706700  0.97109800  1
  C  C72  1  0.75000000  0.35197100  0.54390000  1
  C  C73  1  0.75000000  0.80770200  0.11307800  1
  C  C74  1  0.56411100  0.55244200  0.83220900  1
  C  C75  1  0.25000000  0.30770200  0.38692200  1
  C  C76  1  0.75000000  0.74706700  0.52890200  1
  C  C77  1  0.06411100  0.44755800  0.16779100  1
  C  C78  1  0.06411100  0.05244200  0.66779100  1
  C  C79  1  0.25000000  0.91142300  0.58781500  1
  C  C80  1  0.75000000  0.14802900  0.04390000  1
  C  C81  1  0.75000000  0.10593800  0.26788700  1
  C  C82  1  0.43588900  0.44755800  0.16779100  1
  C  C83  1  0.75000000  0.05680800  0.90229000  1
  N  N84  1  0.25000000  0.52258300  0.16407200  1
  N  N85  1  0.75000000  0.02258300  0.33592800  1
  N  N86  1  0.75000000  0.47741700  0.83592800  1
  N  N87  1  0.25000000  0.97741700  0.66407200  1
  O  O88  1  0.25000000  0.25435500  0.82727200  1
  O  O89  1  0.75000000  0.67416600  0.47030900  1
  O  O90  1  0.25000000  0.24564500  0.32727200  1
  O  O91  1  0.25000000  0.74054000  0.42872800  1
  O  O92  1  0.75000000  0.75435500  0.67272800  1
  O  O93  1  0.75000000  0.09248800  0.83810500  1
  O  O94  1  0.25000000  0.35396300  0.97877900  1
  O  O95  1  0.25000000  0.75946000  0.92872800  1
  O  O96  1  0.75000000  0.92087200  0.11464400  1
  O  O97  1  0.75000000  0.25946000  0.57127200  1
  O  O98  1  0.25000000  0.90751200  0.16189500  1
  O  O99  1  0.75000000  0.57912800  0.61464400  1
  O  O100  1  0.75000000  0.64603700  0.02122100  1
  O  O101  1  0.25000000  0.14603700  0.47877900  1
  O  O102  1  0.25000000  0.59248800  0.66189500  1
  O  O103  1  0.25000000  0.42087200  0.38535600  1
  O  O104  1  0.75000000  0.40751200  0.33810500  1
  O  O105  1  0.25000000  0.17416600  0.02969100  1
  O  O106  1  0.75000000  0.85396300  0.52122100  1
  O  O107  1  0.25000000  0.07912800  0.88535600  1
  O  O108  1  0.75000000  0.82583400  0.97030900  1
  O  O109  1  0.25000000  0.32583400  0.52969100  1
  O  O110  1  0.75000000  0.24054000  0.07127200  1
  O  O111  1  0.75000000  0.74564500  0.17272800  1
