# generated using pymatgen
data_SiO2
_symmetry_space_group_name_H-M   'P 1'
_cell_length_a   12.88428465
_cell_length_b   12.88428465
_cell_length_c   3.88457700
_cell_angle_alpha   90.00000000
_cell_angle_beta   90.00000000
_cell_angle_gamma   120.00000332
_symmetry_Int_Tables_number   1
_chemical_formula_structural   SiO2
_chemical_formula_sum   'Si12 O24'
_cell_volume   558.46373101
_cell_formula_units_Z   12
loop_
 _symmetry_equiv_pos_site_id
 _symmetry_equiv_pos_as_xyz
  1  'x, y, z'
loop_
 _atom_site_type_symbol
 _atom_site_label
 _atom_site_symmetry_multiplicity
 _atom_site_fract_x
 _atom_site_fract_y
 _atom_site_fract_z
 _atom_site_occupancy
  Si  Si0  1  0.57071100  0.90504000  0.84546500  1
  Si  Si1  1  0.66567100  0.57071100  0.84546500  1
  Si  Si2  1  0.90504000  0.33432900  0.84546500  1
  Si  Si3  1  0.33432900  0.42928900  0.84546500  1
  Si  Si4  1  0.66567100  0.09496000  0.15453500  1
  Si  Si5  1  0.57071100  0.66567100  0.15453500  1
  Si  Si6  1  0.33432900  0.90504000  0.15453500  1
  Si  Si7  1  0.42928900  0.09496000  0.84546500  1
  Si  Si8  1  0.09496000  0.66567100  0.84546500  1
  Si  Si9  1  0.90504000  0.57071100  0.15453500  1
  Si  Si10  1  0.42928900  0.33432900  0.15453500  1
  Si  Si11  1  0.09496000  0.42928900  0.15453500  1
  O  O12  1  0.00000000  0.29624400  0.00000000  1
  O  O13  1  0.70375600  0.00000000  0.00000000  1
  O  O14  1  0.29624400  0.29624400  0.00000000  1
  O  O15  1  0.55673700  0.77836900  0.00000000  1
  O  O16  1  0.40198800  0.00000000  0.50000000  1
  O  O17  1  0.44326300  0.22163100  0.00000000  1
  O  O18  1  0.77836900  0.22163100  0.00000000  1
  O  O19  1  0.88093200  0.44046600  0.00000000  1
  O  O20  1  0.55953400  0.44046600  0.00000000  1
  O  O21  1  0.22163100  0.77836900  0.00000000  1
  O  O22  1  0.00000000  0.40198800  0.50000000  1
  O  O23  1  0.59801200  0.59801200  0.50000000  1
  O  O24  1  0.29624400  0.00000000  0.00000000  1
  O  O25  1  0.22163100  0.44326300  0.00000000  1
  O  O26  1  0.59801200  0.00000000  0.50000000  1
  O  O27  1  0.55953400  0.11906800  0.00000000  1
  O  O28  1  0.40198800  0.40198800  0.50000000  1
  O  O29  1  0.70375600  0.70375600  0.00000000  1
  O  O30  1  0.44046600  0.55953400  0.00000000  1
  O  O31  1  0.00000000  0.59801200  0.50000000  1
  O  O32  1  0.44046600  0.88093200  0.00000000  1
  O  O33  1  0.77836900  0.55673700  0.00000000  1
  O  O34  1  0.11906800  0.55953400  0.00000000  1
  O  O35  1  0.00000000  0.70375600  0.00000000  1
