# generated using pymatgen
data_Gd3Sc2(GaO4)3
_symmetry_space_group_name_H-M   'P 1'
_cell_length_a   11.04688322
_cell_length_b   11.04688322
_cell_length_c   11.04688322
_cell_angle_alpha   109.47122063
_cell_angle_beta   109.47122063
_cell_angle_gamma   109.47122063
_symmetry_Int_Tables_number   1
_chemical_formula_structural   Gd3Sc2(GaO4)3
_chemical_formula_sum   'Gd12 Sc8 Ga12 O48'
_cell_volume   1037.76112550
_cell_formula_units_Z   4
loop_
 _symmetry_equiv_pos_site_id
 _symmetry_equiv_pos_as_xyz
  1  'x, y, z'
loop_
 _atom_site_type_symbol
 _atom_site_label
 _atom_site_symmetry_multiplicity
 _atom_site_fract_x
 _atom_site_fract_y
 _atom_site_fract_z
 _atom_site_occupancy
  Gd  Gd0  1  0.25000000  0.12500000  0.87500000  1
  Gd  Gd1  1  0.37500000  0.62500000  0.75000000  1
  Gd  Gd2  1  0.25000000  0.62500000  0.37500000  1
  Gd  Gd3  1  0.62500000  0.75000000  0.37500000  1
  Gd  Gd4  1  0.12500000  0.75000000  0.87500000  1
  Gd  Gd5  1  0.75000000  0.37500000  0.62500000  1
  Gd  Gd6  1  0.75000000  0.87500000  0.12500000  1
  Gd  Gd7  1  0.87500000  0.12500000  0.75000000  1
  Gd  Gd8  1  0.12500000  0.87500000  0.25000000  1
  Gd  Gd9  1  0.37500000  0.25000000  0.62500000  1
  Gd  Gd10  1  0.87500000  0.25000000  0.12500000  1
  Gd  Gd11  1  0.62500000  0.37500000  0.25000000  1
  Sc  Sc12  1  0.50000000  0.50000000  0.50000000  1
  Sc  Sc13  1  0.00000000  0.00000000  0.00000000  1
  Sc  Sc14  1  0.50000000  0.00000000  0.50000000  1
  Sc  Sc15  1  0.50000000  0.50000000  0.00000000  1
  Sc  Sc16  1  0.00000000  0.00000000  0.50000000  1
  Sc  Sc17  1  0.00000000  0.50000000  0.00000000  1
  Sc  Sc18  1  0.50000000  0.00000000  0.00000000  1
  Sc  Sc19  1  0.00000000  0.50000000  0.50000000  1
  Ga  Ga20  1  0.62500000  0.25000000  0.87500000  1
  Ga  Ga21  1  0.25000000  0.37500000  0.12500000  1
  Ga  Ga22  1  0.87500000  0.62500000  0.25000000  1
  Ga  Ga23  1  0.37500000  0.12500000  0.25000000  1
  Ga  Ga24  1  0.75000000  0.62500000  0.87500000  1
  Ga  Ga25  1  0.12500000  0.37500000  0.75000000  1
  Ga  Ga26  1  0.87500000  0.75000000  0.62500000  1
  Ga  Ga27  1  0.25000000  0.87500000  0.62500000  1
  Ga  Ga28  1  0.75000000  0.12500000  0.37500000  1
  Ga  Ga29  1  0.37500000  0.75000000  0.12500000  1
  Ga  Ga30  1  0.62500000  0.87500000  0.75000000  1
  Ga  Ga31  1  0.12500000  0.25000000  0.37500000  1
  O  O32  1  0.94184500  0.77228700  0.88399700  1
  O  O33  1  0.16955900  0.22771300  0.61171100  1
  O  O34  1  0.16955900  0.44184500  0.55784800  1
  O  O35  1  0.11600300  0.05815400  0.22771300  1
  O  O36  1  0.38828900  0.83044100  0.77228700  1
  O  O37  1  0.88828900  0.27228700  0.33044100  1
  O  O38  1  0.88399700  0.94184500  0.77228700  1
  O  O39  1  0.44215200  0.11171100  0.88399700  1
  O  O40  1  0.77228700  0.38828900  0.83044100  1
  O  O41  1  0.94184500  0.66955900  0.05784800  1
  O  O42  1  0.05815500  0.22771300  0.11600300  1
  O  O43  1  0.27228700  0.44184500  0.38399700  1
  O  O44  1  0.55784800  0.16955900  0.44184500  1
  O  O45  1  0.88399700  0.44215200  0.11171100  1
  O  O46  1  0.05784800  0.94184500  0.66955900  1
  O  O47  1  0.77228700  0.88399700  0.94184500  1
  O  O48  1  0.33044100  0.88828900  0.27228700  1
  O  O49  1  0.05784800  0.61600300  0.38828900  1
  O  O50  1  0.94215200  0.38399700  0.61171100  1
  O  O51  1  0.05815500  0.33044100  0.94215200  1
  O  O52  1  0.44215200  0.83044100  0.55815500  1
  O  O53  1  0.55815400  0.44215200  0.83044100  1
  O  O54  1  0.11600300  0.55784800  0.88828900  1
  O  O55  1  0.61600300  0.38828900  0.05784800  1
  O  O56  1  0.72771300  0.66955900  0.11171100  1
  O  O57  1  0.72771300  0.55815500  0.61600300  1
  O  O58  1  0.27228700  0.33044100  0.88828900  1
  O  O59  1  0.44184500  0.55784800  0.16955900  1
  O  O60  1  0.66955900  0.11171100  0.72771300  1
  O  O61  1  0.38399700  0.61171100  0.94215200  1
  O  O62  1  0.33044100  0.94215200  0.05815500  1
  O  O63  1  0.83044100  0.55815400  0.44215200  1
  O  O64  1  0.66955900  0.05784800  0.94184500  1
  O  O65  1  0.11171100  0.88399700  0.44215200  1
  O  O66  1  0.83044100  0.77228700  0.38828900  1
  O  O67  1  0.38828900  0.05784800  0.61600300  1
  O  O68  1  0.61600300  0.72771300  0.55815500  1
  O  O69  1  0.88828900  0.11600300  0.55784800  1
  O  O70  1  0.44184500  0.38399700  0.27228700  1
  O  O71  1  0.61171100  0.94215200  0.38399700  1
  O  O72  1  0.55815500  0.61600300  0.72771300  1
  O  O73  1  0.94215200  0.05815500  0.33044100  1
  O  O74  1  0.11171100  0.72771300  0.66955900  1
  O  O75  1  0.61171100  0.16955900  0.22771300  1
  O  O76  1  0.38399700  0.27228700  0.44184500  1
  O  O77  1  0.22771300  0.61171100  0.16955900  1
  O  O78  1  0.55784800  0.88828900  0.11600300  1
  O  O79  1  0.22771300  0.11600300  0.05815500  1
