# generated using pymatgen
data_C37F21
_symmetry_space_group_name_H-M   'P 1'
_cell_length_a   11.29745500
_cell_length_b   11.34937726
_cell_length_c   12.51415293
_cell_angle_alpha   69.58924377
_cell_angle_beta   69.72392719
_cell_angle_gamma   76.53407925
_symmetry_Int_Tables_number   1
_chemical_formula_structural   C37F21
_chemical_formula_sum   'C74 F42'
_cell_volume   1399.13178618
_cell_formula_units_Z   2
loop_
 _symmetry_equiv_pos_site_id
 _symmetry_equiv_pos_as_xyz
  1  'x, y, z'
loop_
 _atom_site_type_symbol
 _atom_site_label
 _atom_site_symmetry_multiplicity
 _atom_site_fract_x
 _atom_site_fract_y
 _atom_site_fract_z
 _atom_site_occupancy
  C  C0  1  0.48160400  0.60994900  0.46611900  1
  C  C1  1  0.25898900  0.63782800  0.74502200  1
  C  C2  1  0.41142100  0.49372700  0.24742300  1
  C  C3  1  0.69195000  0.01233800  0.37597500  1
  C  C4  1  0.28184300  0.53990600  0.49055700  1
  C  C5  1  0.99296000  0.10147300  0.33128700  1
  C  C6  1  0.51185200  0.17114300  0.82925500  1
  C  C7  1  0.45654200  0.57214200  0.58799100  1
  C  C8  1  0.30667300  0.42079300  0.34677800  1
  C  C9  1  0.16748900  0.39808700  0.66633500  1
  C  C10  1  0.64912600  0.13545500  0.28631500  1
  C  C11  1  0.32223800  0.29412200  0.34792300  1
  C  C12  1  0.69159000  0.78676100  0.70178900  1
  C  C13  1  0.82466900  0.31480300  0.49155200  1
  C  C14  1  0.38295600  0.62134800  0.40380800  1
  C  C15  1  0.46493100  0.05114100  0.41407700  1
  C  C16  1  0.63620200  0.92715900  0.64987100  1
  C  C17  1  0.25136200  0.50698100  0.61148500  1
  C  C18  1  0.69123200  0.47192900  0.22098200  1
  C  C19  1  0.50946700  0.38117400  0.21704000  1
  C  C20  1  0.63352800  0.37158000  0.20523900  1
  C  C21  1  0.53734800  0.93852600  0.58769600  1
  C  C22  1  0.75900000  0.56698300  0.09980600  1
  C  C23  1  0.55589300  0.49928100  0.63902500  1
  C  C24  1  0.93659800  0.49789500  0.32515100  1
  C  C25  1  0.38474800  0.18139900  0.84079000  1
  C  C26  1  0.55620000  0.98630600  0.75174800  1
  C  C27  1  0.81581900  0.42820200  0.38159600  1
  C  C28  1  0.44172900  0.26443700  0.25115800  1
  C  C29  1  0.36954900  0.41302500  0.76312400  1
  C  C30  1  0.08050300  0.05095200  0.72092200  1
  C  C31  1  0.40557200  0.24336200  0.15023600  1
  C  C32  1  0.69896800  0.25625800  0.70238800  1
  C  C33  1  0.67813700  0.47168800  0.56557100  1
  C  C34  1  0.75153400  0.34893300  0.59776200  1
  C  C35  1  0.60473200  0.57516200  0.39241500  1
  C  C36  1  0.02642200  0.44804800  0.72195000  1
  C  C37  1  0.61001900  0.05728300  0.80326100  1
  C  C38  1  0.24186800  0.45106900  0.45303900  1
  C  C39  1  0.85016400  0.15220400  0.38324600  1
  C  C40  1  0.41434000  0.97382200  0.66041400  1
  C  C41  1  0.18169800  0.35918300  0.55689600  1
  C  C42  1  0.52190100  0.14706100  0.30574600  1
  C  C43  1  0.25331300  0.99527500  0.95417900  1
  C  C44  1  0.32697500  0.76118300  0.35459700  1
  C  C45  1  0.46296100  0.56244600  0.30234800  1
  C  C46  1  0.27056800  0.20197100  0.45221700  1
  C  C47  1  0.32620400  0.53696100  0.67669100  1
  C  C48  1  0.31455700  0.30283200  0.80238900  1
  C  C49  1  0.75746800  0.90237700  0.31759900  1
  C  C50  1  0.32571700  0.07977500  0.82950800  1
  C  C51  1  0.31540500  0.03488400  0.61151400  1
  C  C52  1  0.20119500  0.12019200  0.66830300  1
  C  C53  1  0.65728800  0.97712700  0.91412200  1
  C  C54  1  0.57272400  0.28350300  0.77851900  1
  C  C55  1  0.19525900  0.23491200  0.55764300  1
  C  C56  1  0.34259300  0.07715600  0.48584500  1
  C  C57  1  0.56245500  0.97781600  0.46534700  1
  C  C58  1  0.36882100  0.58616900  0.13545200  1
  C  C59  1  0.50222100  0.40278500  0.74669200  1
  C  C60  1  0.77995500  0.38561900  0.29528100  1
  C  C61  1  0.79600100  0.26364600  0.29513200  1
  C  C62  1  0.73674100  0.00974200  0.56174900  1
  C  C63  1  0.70373800  0.51393600  0.43972200  1
  C  C64  1  0.81204600  0.23673200  0.08958900  1
  C  C65  1  0.83685200  0.19145700  0.49236100  1
  C  C66  1  0.77883500  0.09816600  0.59805500  1
  C  C67  1  0.22345900  0.28595000  0.75108600  1
  C  C68  1  0.76566600  0.04371100  0.44057300  1
  C  C69  1  0.43072100  0.00168000  0.75964200  1
  C  C70  1  0.71725500  0.12753800  0.70388100  1
  C  C71  1  0.72449900  0.24642000  0.21711800  1
  C  C72  1  0.58754500  0.54729500  0.29402200  1
  C  C73  1  0.23458400  0.16229100  0.75553900  1
  F  F74  1  0.60308800  0.72547500  0.79871900  1
  F  F75  1  0.01704300  0.08421800  0.22382300  1
  F  F76  1  0.19935200  0.74042200  0.67940900  1
  F  F77  1  0.97502300  0.12320900  0.76809100  1
  F  F78  1  0.72735300  0.72039700  0.62185000  1
  F  F79  1  0.41882000  0.83022200  0.27089600  1
  F  F80  1  0.76980600  0.90428100  0.88349900  1
  F  F81  1  0.88088900  0.91177200  0.25509700  1
  F  F82  1  0.91785700  0.60998000  0.24266700  1
  F  F83  1  0.31388300  0.97539600  0.03666500  1
  F  F84  1  0.50338200  0.25751600  0.04835300  1
  F  F85  1  0.03967100  0.42825500  0.27156200  1
  F  F86  1  0.75429100  0.78826500  0.40271300  1
  F  F87  1  0.23544800  0.76760600  0.30450000  1
  F  F88  1  0.41120500  0.53665500  0.04225200  1
  F  F89  1  0.27316700  0.81785900  0.44257900  1
  F  F90  1  0.70100100  0.58463300  0.01566400  1
  F  F91  1  0.09491900  0.94169800  0.80783400  1
  F  F92  1  0.88342900  0.52523400  0.05702000  1
  F  F93  1  0.94697500  0.36211700  0.74854600  1
  F  F94  1  0.07146900  0.18344000  0.31728800  1
  F  F95  1  0.13350500  0.05179100  0.99422300  1
  F  F96  1  0.75241100  0.30415100  0.00492300  1
  F  F97  1  0.67619100  0.05467100  0.96714700  1
  F  F98  1  0.24031800  0.61227000  0.16132800  1
  F  F99  1  0.41723000  0.69755700  0.09628100  1
  F  F100  1  0.17184100  0.58989400  0.84944400  1
  F  F101  1  0.83954800  0.11564600  0.08496500  1
  F  F102  1  0.01088200  0.47486400  0.82358600  1
  F  F103  1  0.02643500  0.98898800  0.40687200  1
  F  F104  1  0.24463000  0.87998300  0.94942700  1
  F  F105  1  0.75233400  0.68232400  0.11315800  1
  F  F106  1  0.96534300  0.52366400  0.41134900  1
  F  F107  1  0.92368200  0.28285700  0.05760900  1
  F  F108  1  0.30313000  0.32444100  0.12472800  1
  F  F109  1  0.34656300  0.67892500  0.77201000  1
  F  F110  1  0.98738900  0.55559900  0.64408900  1
  F  F111  1  0.79556100  0.78090400  0.73497700  1
  F  F112  1  0.05788200  0.02077300  0.63391100  1
  F  F113  1  0.69452700  0.89922000  0.24381700  1
  F  F114  1  0.57186500  0.90006400  0.99629500  1
  F  F115  1  0.37477400  0.12369800  0.18435100  1
