# generated using pymatgen
data_ZnAs2C12(NF)12
_symmetry_space_group_name_H-M   'P 1'
_cell_length_a   9.72399468
_cell_length_b   9.72399468
_cell_length_c   9.72399510
_cell_angle_alpha   59.21553813
_cell_angle_beta   59.21553813
_cell_angle_gamma   59.21553137
_symmetry_Int_Tables_number   1
_chemical_formula_structural   ZnAs2C12(NF)12
_chemical_formula_sum   'Zn1 As2 C12 N12 F12'
_cell_volume   638.53919419
_cell_formula_units_Z   1
loop_
 _symmetry_equiv_pos_site_id
 _symmetry_equiv_pos_as_xyz
  1  'x, y, z'
loop_
 _atom_site_type_symbol
 _atom_site_label
 _atom_site_symmetry_multiplicity
 _atom_site_fract_x
 _atom_site_fract_y
 _atom_site_fract_z
 _atom_site_occupancy
  Zn  Zn0  1  0.00000000  0.00000000  0.00000000  1
  As  As1  1  0.63580900  0.63580900  0.63580900  1
  As  As2  1  0.36419100  0.36419100  0.36419100  1
  C  C3  1  0.54131100  0.75798200  0.04148600  1
  C  C4  1  0.61531300  0.17281100  0.97471200  1
  C  C5  1  0.82718900  0.02528800  0.38468700  1
  C  C6  1  0.04148600  0.54131100  0.75798200  1
  C  C7  1  0.02528800  0.38468700  0.82718900  1
  C  C8  1  0.45868900  0.24201800  0.95851400  1
  C  C9  1  0.24201800  0.95851400  0.45868900  1
  C  C10  1  0.95851400  0.45868900  0.24201800  1
  C  C11  1  0.75798200  0.04148600  0.54131100  1
  C  C12  1  0.17281100  0.97471200  0.61531300  1
  C  C13  1  0.97471200  0.61531300  0.17281100  1
  C  C14  1  0.38468700  0.82718900  0.02528800  1
  N  N15  1  0.29400100  0.94648300  0.32595700  1
  N  N16  1  0.01030100  0.25201600  0.89231200  1
  N  N17  1  0.10768800  0.98969900  0.74798400  1
  N  N18  1  0.70599900  0.05351700  0.67404300  1
  N  N19  1  0.74798400  0.10768800  0.98969900  1
  N  N20  1  0.67404300  0.70599900  0.05351700  1
  N  N21  1  0.32595700  0.29400100  0.94648300  1
  N  N22  1  0.89231200  0.01030100  0.25201600  1
  N  N23  1  0.98969900  0.74798400  0.10768800  1
  N  N24  1  0.25201600  0.89231200  0.01030100  1
  N  N25  1  0.94648300  0.32595700  0.29400100  1
  N  N26  1  0.05351700  0.67404300  0.70599900  1
  F  F27  1  0.71859700  0.42526500  0.63626700  1
  F  F28  1  0.55199000  0.84521700  0.64013300  1
  F  F29  1  0.28140300  0.57473500  0.36373300  1
  F  F30  1  0.84521700  0.64013300  0.55199000  1
  F  F31  1  0.35986700  0.44801000  0.15478300  1
  F  F32  1  0.63626700  0.71859700  0.42526500  1
  F  F33  1  0.42526500  0.63626700  0.71859700  1
  F  F34  1  0.64013300  0.55199000  0.84521700  1
  F  F35  1  0.44801000  0.15478300  0.35986700  1
  F  F36  1  0.57473500  0.36373300  0.28140300  1
  F  F37  1  0.36373300  0.28140300  0.57473500  1
  F  F38  1  0.15478300  0.35986700  0.44801000  1
