# generated using pymatgen
data_CIN2(O2F)3
_symmetry_space_group_name_H-M   'P 1'
_cell_length_a   8.92249900
_cell_length_b   9.16915400
_cell_length_c   10.55431995
_cell_angle_alpha   75.71444551
_cell_angle_beta   90.00000000
_cell_angle_gamma   90.00000000
_symmetry_Int_Tables_number   1
_chemical_formula_structural   CIN2(O2F)3
_chemical_formula_sum   'C4 I4 N8 O24 F12'
_cell_volume   836.76740264
_cell_formula_units_Z   4
loop_
 _symmetry_equiv_pos_site_id
 _symmetry_equiv_pos_as_xyz
  1  'x, y, z'
loop_
 _atom_site_type_symbol
 _atom_site_label
 _atom_site_symmetry_multiplicity
 _atom_site_fract_x
 _atom_site_fract_y
 _atom_site_fract_z
 _atom_site_occupancy
  C  C0  1  0.93683300  0.81093100  0.39832600  1
  C  C1  1  0.43683300  0.68906900  0.60167400  1
  C  C2  1  0.56316700  0.31093100  0.39832600  1
  C  C3  1  0.06316700  0.18906900  0.60167400  1
  I  I4  1  0.41471000  0.67008800  0.81881700  1
  I  I5  1  0.91471000  0.82991200  0.18118300  1
  I  I6  1  0.58529000  0.32991200  0.18118300  1
  I  I7  1  0.08529000  0.17008800  0.81881700  1
  N  N8  1  0.58219800  0.84191700  0.22740300  1
  N  N9  1  0.30598100  0.20275900  0.11634800  1
  N  N10  1  0.69401900  0.79724100  0.88365200  1
  N  N11  1  0.41780200  0.15808300  0.77259700  1
  N  N12  1  0.91780200  0.34191700  0.22740300  1
  N  N13  1  0.19401900  0.70275900  0.11634800  1
  N  N14  1  0.80598100  0.29724100  0.88365200  1
  N  N15  1  0.08219800  0.65808300  0.77259700  1
  O  O16  1  0.13972300  0.72003300  0.22972100  1
  O  O17  1  0.18900400  0.13125700  0.11930700  1
  O  O18  1  0.89236500  0.21209500  0.28685400  1
  O  O19  1  0.39236500  0.28790500  0.71314600  1
  O  O20  1  0.81099600  0.86874300  0.88069300  1
  O  O21  1  0.96275100  0.59343100  0.79852800  1
  O  O22  1  0.68900400  0.36874300  0.88069300  1
  O  O23  1  0.70774100  0.93800700  0.18257000  1
  O  O24  1  0.60763500  0.71209500  0.28685400  1
  O  O25  1  0.29225900  0.06199300  0.81743000  1
  O  O26  1  0.20774100  0.56199300  0.81743000  1
  O  O27  1  0.37925400  0.26132900  0.01511500  1
  O  O28  1  0.87925400  0.23867100  0.98488500  1
  O  O29  1  0.86027700  0.27996700  0.77027900  1
  O  O30  1  0.03724900  0.40656900  0.20147200  1
  O  O31  1  0.63972300  0.77996700  0.77027900  1
  O  O32  1  0.12074600  0.76132900  0.01511500  1
  O  O33  1  0.46275100  0.90656900  0.20147200  1
  O  O34  1  0.10763500  0.78790500  0.71314600  1
  O  O35  1  0.31099600  0.63125700  0.11930700  1
  O  O36  1  0.53724900  0.09343100  0.79852800  1
  O  O37  1  0.36027700  0.22003300  0.22972100  1
  O  O38  1  0.79225900  0.43800700  0.18257000  1
  O  O39  1  0.62074600  0.73867100  0.98488500  1
  F  F40  1  0.56228300  0.61875100  0.58096900  1
  F  F41  1  0.68249500  0.37494500  0.43890400  1
  F  F42  1  0.31750500  0.62505500  0.56109600  1
  F  F43  1  0.18249500  0.12505500  0.56109600  1
  F  F44  1  0.05598300  0.33514900  0.53824100  1
  F  F45  1  0.94401700  0.66485100  0.46175900  1
  F  F46  1  0.43771700  0.38124900  0.41903100  1
  F  F47  1  0.81750500  0.87494500  0.43890400  1
  F  F48  1  0.55598300  0.16485100  0.46175900  1
  F  F49  1  0.93771700  0.11875100  0.58096900  1
  F  F50  1  0.44401700  0.83514900  0.53824100  1
  F  F51  1  0.06228300  0.88124900  0.41903100  1
