# generated using pymatgen
data_As2H3CF9
_symmetry_space_group_name_H-M   'P 1'
_cell_length_a   9.15321200
_cell_length_b   8.05656700
_cell_length_c   12.69735718
_cell_angle_alpha   58.38811699
_cell_angle_beta   90.00000000
_cell_angle_gamma   90.00000000
_symmetry_Int_Tables_number   1
_chemical_formula_structural   As2H3CF9
_chemical_formula_sum   'As8 H12 C4 F36'
_cell_volume   797.41029186
_cell_formula_units_Z   4
loop_
 _symmetry_equiv_pos_site_id
 _symmetry_equiv_pos_as_xyz
  1  'x, y, z'
loop_
 _atom_site_type_symbol
 _atom_site_label
 _atom_site_symmetry_multiplicity
 _atom_site_fract_x
 _atom_site_fract_y
 _atom_site_fract_z
 _atom_site_occupancy
  As  As0  1  0.80179600  0.19551500  0.04486200  1
  As  As1  1  0.15150500  0.35269600  0.39611800  1
  As  As2  1  0.65150500  0.64730400  0.10388200  1
  As  As3  1  0.34849500  0.35269600  0.89611800  1
  As  As4  1  0.84849500  0.64730400  0.60388200  1
  As  As5  1  0.19820400  0.80448500  0.95513800  1
  As  As6  1  0.69820400  0.19551500  0.54486200  1
  As  As7  1  0.30179600  0.80448500  0.45513800  1
  H  H8  1  0.13874600  0.03055400  0.58695300  1
  H  H9  1  0.86125400  0.96944600  0.41304700  1
  H  H10  1  0.29986100  0.17056300  0.58215100  1
  H  H11  1  0.20013900  0.17056300  0.08215100  1
  H  H12  1  0.61884600  0.77086400  0.88337800  1
  H  H13  1  0.11884600  0.22913600  0.61662200  1
  H  H14  1  0.36125400  0.03055400  0.08695300  1
  H  H15  1  0.88115400  0.77086400  0.38337800  1
  H  H16  1  0.63874600  0.96944600  0.91304700  1
  H  H17  1  0.38115400  0.22913600  0.11662200  1
  H  H18  1  0.79986100  0.82943700  0.91784900  1
  H  H19  1  0.70013900  0.82943700  0.41784900  1
  C  C20  1  0.31888600  0.16924600  0.07036500  1
  C  C21  1  0.18111400  0.16924600  0.57036500  1
  C  C22  1  0.81888600  0.83075400  0.42963500  1
  C  C23  1  0.68111400  0.83075400  0.92963500  1
  F  F24  1  0.28288800  0.87853300  0.81214400  1
  F  F25  1  0.30541600  0.46616100  0.31527000  1
  F  F26  1  0.71711200  0.12146700  0.18785600  1
  F  F27  1  0.92097900  0.72582200  0.69382500  1
  F  F28  1  0.73347600  0.44448300  0.49490600  1
  F  F29  1  0.23347600  0.55551700  0.00509400  1
  F  F30  1  0.03746700  0.54322700  0.35921200  1
  F  F31  1  0.88021600  0.26971800  0.90059600  1
  F  F32  1  0.61978400  0.26971800  0.40059600  1
  F  F33  1  0.76652400  0.44448300  0.99490600  1
  F  F34  1  0.62540500  0.18380800  0.98514700  1
  F  F35  1  0.17026600  0.05377400  0.90755900  1
  F  F36  1  0.42097900  0.27417800  0.80617500  1
  F  F37  1  0.38021600  0.73028200  0.59940400  1
  F  F38  1  0.02738600  0.79648500  0.89404900  1
  F  F39  1  0.32973400  0.05377400  0.40755900  1
  F  F40  1  0.78288800  0.12146700  0.68785600  1
  F  F41  1  0.52738600  0.20351500  0.60595100  1
  F  F42  1  0.67026600  0.94622600  0.59244100  1
  F  F43  1  0.11978400  0.73028200  0.09940400  1
  F  F44  1  0.07902100  0.27417800  0.30617500  1
  F  F45  1  0.82973400  0.94622600  0.09244100  1
  F  F46  1  0.37459500  0.81619200  0.01485300  1
  F  F47  1  0.57902100  0.72582200  0.19382500  1
  F  F48  1  0.19458400  0.46616100  0.81527000  1
  F  F49  1  0.96253300  0.45677300  0.64078800  1
  F  F50  1  0.46253300  0.54322700  0.85921200  1
  F  F51  1  0.97261400  0.20351500  0.10595100  1
  F  F52  1  0.26652400  0.55551700  0.50509400  1
  F  F53  1  0.80541600  0.53383900  0.18473000  1
  F  F54  1  0.69458400  0.53383900  0.68473000  1
  F  F55  1  0.87459500  0.18380800  0.48514700  1
  F  F56  1  0.53746700  0.45677300  0.14078800  1
  F  F57  1  0.12540500  0.81619200  0.51485300  1
  F  F58  1  0.47261400  0.79648500  0.39404900  1
  F  F59  1  0.21711200  0.87853300  0.31214400  1
