# generated using pymatgen
data_Yb3B5O12
_symmetry_space_group_name_H-M   'P 1'
_cell_length_a   4.79943200
_cell_length_b   12.59408000
_cell_length_c   12.72959800
_cell_angle_alpha   90.00000000
_cell_angle_beta   90.00000000
_cell_angle_gamma   90.00000000
_symmetry_Int_Tables_number   1
_chemical_formula_structural   Yb3B5O12
_chemical_formula_sum   'Yb12 B20 O48'
_cell_volume   769.43330240
_cell_formula_units_Z   4
loop_
 _symmetry_equiv_pos_site_id
 _symmetry_equiv_pos_as_xyz
  1  'x, y, z'
loop_
 _atom_site_type_symbol
 _atom_site_label
 _atom_site_symmetry_multiplicity
 _atom_site_fract_x
 _atom_site_fract_y
 _atom_site_fract_z
 _atom_site_occupancy
  Yb  Yb0  1  0.00373400  0.30505000  0.63804800  1
  Yb  Yb1  1  0.99626600  0.69495000  0.36195200  1
  Yb  Yb2  1  0.00373400  0.30505000  0.36195200  1
  Yb  Yb3  1  0.00373400  0.19495000  0.86195200  1
  Yb  Yb4  1  0.00000000  0.00000000  0.36101200  1
  Yb  Yb5  1  0.99626600  0.80505000  0.13804800  1
  Yb  Yb6  1  0.00000000  0.50000000  0.86101200  1
  Yb  Yb7  1  0.99626600  0.80505000  0.86195200  1
  Yb  Yb8  1  0.00000000  0.50000000  0.13898800  1
  Yb  Yb9  1  0.99626600  0.69495000  0.63804800  1
  Yb  Yb10  1  0.00373400  0.19495000  0.13804800  1
  Yb  Yb11  1  0.00000000  0.00000000  0.63898800  1
  B  B12  1  0.54733100  0.62431300  0.50000000  1
  B  B13  1  0.50000000  0.50000000  0.33816700  1
  B  B14  1  0.45266900  0.12431300  0.00000000  1
  B  B15  1  0.52822900  0.15189800  0.29692600  1
  B  B16  1  0.50000000  0.00000000  0.83816700  1
  B  B17  1  0.54733100  0.87568700  0.00000000  1
  B  B18  1  0.52822900  0.34810200  0.79692600  1
  B  B19  1  0.47504300  0.34109700  0.00000000  1
  B  B20  1  0.47177100  0.65189800  0.79692600  1
  B  B21  1  0.47504300  0.15890300  0.50000000  1
  B  B22  1  0.50000000  0.00000000  0.16183300  1
  B  B23  1  0.52495700  0.65890300  0.00000000  1
  B  B24  1  0.52822900  0.15189800  0.70307400  1
  B  B25  1  0.52822900  0.34810200  0.20307400  1
  B  B26  1  0.45266900  0.37568700  0.50000000  1
  B  B27  1  0.52495700  0.84109700  0.50000000  1
  B  B28  1  0.47177100  0.84810200  0.29692600  1
  B  B29  1  0.50000000  0.50000000  0.66183300  1
  B  B30  1  0.47177100  0.65189800  0.20307400  1
  B  B31  1  0.47177100  0.84810200  0.70307400  1
  O  O32  1  0.34871500  0.75000000  0.25000000  1
  O  O33  1  0.33181100  0.42981300  0.59411400  1
  O  O34  1  0.66818900  0.92981300  0.90588600  1
  O  O35  1  0.33181100  0.42981300  0.40588600  1
  O  O36  1  0.32480800  0.23596800  0.00000000  1
  O  O37  1  0.67562200  0.43343300  0.73192800  1
  O  O38  1  0.32437800  0.93343300  0.23192800  1
  O  O39  1  0.66818900  0.57018700  0.40588600  1
  O  O40  1  0.76764600  0.84998700  0.70325900  1
  O  O41  1  0.67519200  0.76403200  0.00000000  1
  O  O42  1  0.74498300  0.57963900  0.00000000  1
  O  O43  1  0.25613200  0.63751500  0.50000000  1
  O  O44  1  0.74386800  0.36248500  0.50000000  1
  O  O45  1  0.65506400  0.14534100  0.59494100  1
  O  O46  1  0.67562200  0.06656700  0.76807200  1
  O  O47  1  0.23235400  0.15001300  0.70325900  1
  O  O48  1  0.76764600  0.84998700  0.29674100  1
  O  O49  1  0.76764600  0.65001300  0.20325900  1
  O  O50  1  0.65506400  0.35465900  0.09494100  1
  O  O51  1  0.32480800  0.26403200  0.50000000  1
  O  O52  1  0.74386800  0.13751500  0.00000000  1
  O  O53  1  0.25613200  0.86248500  0.00000000  1
  O  O54  1  0.34493600  0.85465900  0.40505900  1
  O  O55  1  0.74498300  0.92036100  0.50000000  1
  O  O56  1  0.25501700  0.42036100  0.00000000  1
  O  O57  1  0.67519200  0.73596800  0.50000000  1
  O  O58  1  0.34493600  0.64534100  0.90505900  1
  O  O59  1  0.66818900  0.92981300  0.09411400  1
  O  O60  1  0.34493600  0.64534100  0.09494100  1
  O  O61  1  0.66818900  0.57018700  0.59411400  1
  O  O62  1  0.65128500  0.25000000  0.25000000  1
  O  O63  1  0.23235400  0.15001300  0.29674100  1
  O  O64  1  0.32437800  0.56656700  0.73192800  1
  O  O65  1  0.33181100  0.07018700  0.90588600  1
  O  O66  1  0.23235400  0.34998700  0.20325900  1
  O  O67  1  0.67562200  0.43343300  0.26807200  1
  O  O68  1  0.33181100  0.07018700  0.09411400  1
  O  O69  1  0.34871500  0.75000000  0.75000000  1
  O  O70  1  0.32437800  0.56656700  0.26807200  1
  O  O71  1  0.65506400  0.14534100  0.40505900  1
  O  O72  1  0.25501700  0.07963900  0.50000000  1
  O  O73  1  0.76764600  0.65001300  0.79674100  1
  O  O74  1  0.23235400  0.34998700  0.79674100  1
  O  O75  1  0.67562200  0.06656700  0.23192800  1
  O  O76  1  0.32437800  0.93343300  0.76807200  1
  O  O77  1  0.34493600  0.85465900  0.59494100  1
  O  O78  1  0.65128500  0.25000000  0.75000000  1
  O  O79  1  0.65506400  0.35465900  0.90505900  1
