# generated using pymatgen
data_Nb2O5
_symmetry_space_group_name_H-M   'P 1'
_cell_length_a   14.81483691
_cell_length_b   14.81483691
_cell_length_c   14.81483691
_cell_angle_alpha   90.97094843
_cell_angle_beta   90.97094843
_cell_angle_gamma   165.04063206
_symmetry_Int_Tables_number   1
_chemical_formula_structural   Nb2O5
_chemical_formula_sum   'Nb16 O40'
_cell_volume   832.19406752
_cell_formula_units_Z   8
loop_
 _symmetry_equiv_pos_site_id
 _symmetry_equiv_pos_as_xyz
  1  'x, y, z'
loop_
 _atom_site_type_symbol
 _atom_site_label
 _atom_site_symmetry_multiplicity
 _atom_site_fract_x
 _atom_site_fract_y
 _atom_site_fract_z
 _atom_site_occupancy
  Nb  Nb0  1  0.26611900  0.86486600  0.13098500  1
  Nb  Nb1  1  0.00000000  0.86875100  0.86875100  1
  Nb  Nb2  1  0.00000000  0.40025700  0.40025700  1
  Nb  Nb3  1  0.40025700  0.00000000  0.40025700  1
  Nb  Nb4  1  0.86486600  0.73388100  0.59874700  1
  Nb  Nb5  1  0.59974300  0.00000000  0.59974300  1
  Nb  Nb6  1  0.13513400  0.26611900  0.40125300  1
  Nb  Nb7  1  0.13124900  0.00000000  0.13124900  1
  Nb  Nb8  1  0.00000000  0.13124900  0.13124900  1
  Nb  Nb9  1  0.86875100  0.00000000  0.86875100  1
  Nb  Nb10  1  0.86486600  0.26611900  0.13098500  1
  Nb  Nb11  1  0.00000000  0.59974300  0.59974300  1
  Nb  Nb12  1  0.73388100  0.86486600  0.59874700  1
  Nb  Nb13  1  0.73388100  0.13513400  0.86901500  1
  Nb  Nb14  1  0.26611900  0.13513400  0.40125300  1
  Nb  Nb15  1  0.13513400  0.73388100  0.86901500  1
  O  O16  1  0.06978500  0.79100700  0.86079200  1
  O  O17  1  0.20631000  0.20631000  0.41262000  1
  O  O18  1  0.93021500  0.20899300  0.13920800  1
  O  O19  1  0.35159400  0.78957600  0.14117000  1
  O  O20  1  0.79369000  0.79369000  0.58738000  1
  O  O21  1  0.79100700  0.06978500  0.86079200  1
  O  O22  1  0.20899300  0.93021500  0.13920800  1
  O  O23  1  0.78957600  0.35159400  0.14117000  1
  O  O24  1  0.21042400  0.35159400  0.56201800  1
  O  O25  1  0.93066400  0.06933600  0.00000000  1
  O  O26  1  0.50000000  0.64470900  0.14470900  1
  O  O27  1  0.06933600  0.06933600  0.13867300  1
  O  O28  1  0.93165300  0.34678500  0.27843800  1
  O  O29  1  0.50000000  0.06671400  0.56671400  1
  O  O30  1  0.20631000  0.79369000  0.00000000  1
  O  O31  1  0.93066400  0.93066400  0.86132700  1
  O  O32  1  0.50000000  0.35529100  0.85529100  1
  O  O33  1  0.93165300  0.65321500  0.58486800  1
  O  O34  1  0.64840600  0.78957600  0.43798200  1
  O  O35  1  0.78957600  0.64840600  0.43798200  1
  O  O36  1  0.64470900  0.50000000  0.14470900  1
  O  O37  1  0.34678500  0.93165300  0.27843800  1
  O  O38  1  0.06834700  0.65321500  0.72156200  1
  O  O39  1  0.65321500  0.06834700  0.72156200  1
  O  O40  1  0.93328600  0.50000000  0.43328600  1
  O  O41  1  0.06834700  0.34678500  0.41513200  1
  O  O42  1  0.06933600  0.93066400  0.00000000  1
  O  O43  1  0.93021500  0.79100700  0.72122300  1
  O  O44  1  0.35159400  0.21042400  0.56201800  1
  O  O45  1  0.79100700  0.93021500  0.72122300  1
  O  O46  1  0.50000000  0.93328600  0.43328600  1
  O  O47  1  0.06978500  0.20899300  0.27877700  1
  O  O48  1  0.65321500  0.93165300  0.58486800  1
  O  O49  1  0.79369000  0.20631000  0.00000000  1
  O  O50  1  0.21042400  0.64840600  0.85883000  1
  O  O51  1  0.06671400  0.50000000  0.56671400  1
  O  O52  1  0.20899300  0.06978500  0.27877700  1
  O  O53  1  0.34678500  0.06834700  0.41513200  1
  O  O54  1  0.64840600  0.21042400  0.85883000  1
  O  O55  1  0.35529100  0.50000000  0.85529100  1
