# generated using pymatgen
data_ZnS
_symmetry_space_group_name_H-M   'P 1'
_cell_length_a   31.52757803
_cell_length_b   31.52757785
_cell_length_c   31.52757850
_cell_angle_alpha   7.01505702
_cell_angle_beta   7.01505862
_cell_angle_gamma   7.01505921
_symmetry_Int_Tables_number   1
_chemical_formula_structural   ZnS
_chemical_formula_sum   'Zn10 S10'
_cell_volume   405.31321389
_cell_formula_units_Z   10
loop_
 _symmetry_equiv_pos_site_id
 _symmetry_equiv_pos_as_xyz
  1  'x, y, z'
loop_
 _atom_site_type_symbol
 _atom_site_label
 _atom_site_symmetry_multiplicity
 _atom_site_fract_x
 _atom_site_fract_y
 _atom_site_fract_z
 _atom_site_occupancy
  Zn  Zn0  1  0.36641200  0.36641200  0.36641200  1
  Zn  Zn1  1  0.93309600  0.93309600  0.93309600  1
  Zn  Zn2  1  0.53309200  0.53309200  0.53309200  1
  Zn  Zn3  1  0.09977600  0.09977600  0.09977600  1
  Zn  Zn4  1  0.63309100  0.63309100  0.63309100  1
  Zn  Zn5  1  0.46643000  0.46643000  0.46643000  1
  Zn  Zn6  1  0.99975400  0.99975400  0.99975400  1
  Zn  Zn7  1  0.23309000  0.23309000  0.23309000  1
  Zn  Zn8  1  0.83309400  0.83309400  0.83309400  1
  Zn  Zn9  1  0.73309700  0.73309700  0.73309700  1
  S  S10  1  0.25807800  0.25807800  0.25807800  1
  S  S11  1  0.12475300  0.12475300  0.12475300  1
  S  S12  1  0.39140300  0.39140300  0.39140300  1
  S  S13  1  0.85809100  0.85809100  0.85809100  1
  S  S14  1  0.49139200  0.49139200  0.49139200  1
  S  S15  1  0.65808600  0.65808600  0.65808600  1
  S  S16  1  0.95805800  0.95805800  0.95805800  1
  S  S17  1  0.55806500  0.55806500  0.55806500  1
  S  S18  1  0.02472600  0.02472600  0.02472600  1
  S  S19  1  0.75808300  0.75808300  0.75808300  1
