# generated using pymatgen
data_NaAsO2
_symmetry_space_group_name_H-M   'P 1'
_cell_length_a   5.17121900
_cell_length_b   6.79418300
_cell_length_c   15.51204900
_cell_angle_alpha   90.00000000
_cell_angle_beta   90.00000000
_cell_angle_gamma   90.00000000
_symmetry_Int_Tables_number   1
_chemical_formula_structural   NaAsO2
_chemical_formula_sum   'Na8 As8 O16'
_cell_volume   545.00355947
_cell_formula_units_Z   8
loop_
 _symmetry_equiv_pos_site_id
 _symmetry_equiv_pos_as_xyz
  1  'x, y, z'
loop_
 _atom_site_type_symbol
 _atom_site_label
 _atom_site_symmetry_multiplicity
 _atom_site_fract_x
 _atom_site_fract_y
 _atom_site_fract_z
 _atom_site_occupancy
  Na  Na0  1  0.25367500  0.59783400  0.80187600  1
  Na  Na1  1  0.75367500  0.40216600  0.69812400  1
  Na  Na2  1  0.24632500  0.09783400  0.19812400  1
  Na  Na3  1  0.25367500  0.09783400  0.69812400  1
  Na  Na4  1  0.24632500  0.59783400  0.30187600  1
  Na  Na5  1  0.74632500  0.90216600  0.30187600  1
  Na  Na6  1  0.74632500  0.40216600  0.19812400  1
  Na  Na7  1  0.75367500  0.90216600  0.80187600  1
  As  As8  1  0.25657000  0.59862500  0.08505700  1
  As  As9  1  0.75657000  0.40137500  0.41494300  1
  As  As10  1  0.74343000  0.90137500  0.58505700  1
  As  As11  1  0.24343000  0.59862500  0.58505700  1
  As  As12  1  0.25657000  0.09862500  0.41494300  1
  As  As13  1  0.74343000  0.40137500  0.91494300  1
  As  As14  1  0.24343000  0.09862500  0.91494300  1
  As  As15  1  0.75657000  0.90137500  0.08505700  1
  O  O16  1  0.29961400  0.92984300  0.83355300  1
  O  O17  1  0.56958100  0.18726200  0.37018300  1
  O  O18  1  0.79961400  0.07015700  0.66644700  1
  O  O19  1  0.20038600  0.42984300  0.16644700  1
  O  O20  1  0.43041900  0.81273800  0.62981700  1
  O  O21  1  0.93041900  0.18726200  0.87018300  1
  O  O22  1  0.79961400  0.57015700  0.83355300  1
  O  O23  1  0.93041900  0.68726200  0.62981700  1
  O  O24  1  0.29961400  0.42984300  0.66644700  1
  O  O25  1  0.06958100  0.81273800  0.12981700  1
  O  O26  1  0.43041900  0.31273800  0.87018300  1
  O  O27  1  0.70038600  0.57015700  0.33355300  1
  O  O28  1  0.06958100  0.31273800  0.37018300  1
  O  O29  1  0.56958100  0.68726200  0.12981700  1
  O  O30  1  0.20038600  0.92984300  0.33355300  1
  O  O31  1  0.70038600  0.07015700  0.16644700  1
