# generated using pymatgen
data_C4O5F6
_symmetry_space_group_name_H-M   'P 1'
_cell_length_a   7.81374500
_cell_length_b   5.07103400
_cell_length_c   20.93472082
_cell_angle_alpha   83.55893277
_cell_angle_beta   90.00000000
_cell_angle_gamma   90.00000000
_symmetry_Int_Tables_number   1
_chemical_formula_structural   C4O5F6
_chemical_formula_sum   'C16 O20 F24'
_cell_volume   824.27641532
_cell_formula_units_Z   4
loop_
 _symmetry_equiv_pos_site_id
 _symmetry_equiv_pos_as_xyz
  1  'x, y, z'
loop_
 _atom_site_type_symbol
 _atom_site_label
 _atom_site_symmetry_multiplicity
 _atom_site_fract_x
 _atom_site_fract_y
 _atom_site_fract_z
 _atom_site_occupancy
  C  C0  1  0.81166400  0.75114800  0.74421000  1
  C  C1  1  0.75564200  0.03151400  0.14934100  1
  C  C2  1  0.75070800  0.32771800  0.45391100  1
  C  C3  1  0.21438400  0.52006700  0.15651900  1
  C  C4  1  0.25070800  0.67228200  0.04608900  1
  C  C5  1  0.25564200  0.96848600  0.35065900  1
  C  C6  1  0.24929200  0.67228200  0.54608900  1
  C  C7  1  0.31166400  0.24885200  0.75579000  1
  C  C8  1  0.18833600  0.24885200  0.25579000  1
  C  C9  1  0.78561600  0.47993300  0.84348100  1
  C  C10  1  0.74435800  0.03151400  0.64934100  1
  C  C11  1  0.71438400  0.47993300  0.34348100  1
  C  C12  1  0.68833600  0.75114800  0.24421000  1
  C  C13  1  0.24435800  0.96848600  0.85065900  1
  C  C14  1  0.28561600  0.52006700  0.65651900  1
  C  C15  1  0.74929200  0.32771800  0.95391100  1
  O  O16  1  0.29481500  0.06215000  0.28712100  1
  O  O17  1  0.20518500  0.06215000  0.78712100  1
  O  O18  1  0.14860900  0.71738600  0.17141600  1
  O  O19  1  0.25705700  0.29172800  0.19505100  1
  O  O20  1  0.56277800  0.65423000  0.22370500  1
  O  O21  1  0.64860900  0.28261400  0.32858400  1
  O  O22  1  0.85139100  0.28261400  0.82858400  1
  O  O23  1  0.35139100  0.71738600  0.67141600  1
  O  O24  1  0.75705700  0.70827200  0.30494900  1
  O  O25  1  0.93722200  0.65423000  0.72370500  1
  O  O26  1  0.26892600  0.47017100  0.09669700  1
  O  O27  1  0.76892600  0.52982900  0.40330300  1
  O  O28  1  0.73107400  0.52982900  0.90330300  1
  O  O29  1  0.06277800  0.34577000  0.27629500  1
  O  O30  1  0.74294300  0.70827200  0.80494900  1
  O  O31  1  0.43722200  0.34577000  0.77629500  1
  O  O32  1  0.24294300  0.29172800  0.69505100  1
  O  O33  1  0.70518500  0.93785000  0.71287900  1
  O  O34  1  0.23107400  0.47017100  0.59669700  1
  O  O35  1  0.79481500  0.93785000  0.21287900  1
  F  F36  1  0.10249100  0.84706300  0.35587200  1
  F  F37  1  0.25824300  0.16348300  0.38944200  1
  F  F38  1  0.74175700  0.83651700  0.61055800  1
  F  F39  1  0.34233100  0.88935000  0.05569800  1
  F  F40  1  0.62138700  0.20972400  0.63038700  1
  F  F41  1  0.68953300  0.42812400  0.00633000  1
  F  F42  1  0.87861300  0.20972400  0.13038700  1
  F  F43  1  0.08549100  0.74294900  0.03610600  1
  F  F44  1  0.65766900  0.11065000  0.94430200  1
  F  F45  1  0.24175700  0.16348300  0.88944200  1
  F  F46  1  0.81046700  0.42812400  0.50633000  1
  F  F47  1  0.75824300  0.83651700  0.11055800  1
  F  F48  1  0.37861300  0.79027600  0.36961300  1
  F  F49  1  0.60249100  0.15293700  0.14412800  1
  F  F50  1  0.31046700  0.57187600  0.99367000  1
  F  F51  1  0.89750900  0.15293700  0.64412800  1
  F  F52  1  0.58549100  0.25705100  0.46389400  1
  F  F53  1  0.18953300  0.57187600  0.49367000  1
  F  F54  1  0.39750900  0.84706300  0.85587200  1
  F  F55  1  0.12138700  0.79027600  0.86961300  1
  F  F56  1  0.91450900  0.25705100  0.96389400  1
  F  F57  1  0.41450900  0.74294900  0.53610600  1
  F  F58  1  0.84233100  0.11065000  0.44430200  1
  F  F59  1  0.15766900  0.88935000  0.55569800  1
