# generated using pymatgen
data_La8Ni4O17
_symmetry_space_group_name_H-M   'P 1'
_cell_length_a   7.81678765
_cell_length_b   7.81678765
_cell_length_c   6.93246202
_cell_angle_alpha   73.16194347
_cell_angle_beta   73.16194347
_cell_angle_gamma   89.09059559
_symmetry_Int_Tables_number   1
_chemical_formula_structural   La8Ni4O17
_chemical_formula_sum   'La8 Ni4 O17'
_cell_volume   386.97465141
_cell_formula_units_Z   1
loop_
 _symmetry_equiv_pos_site_id
 _symmetry_equiv_pos_as_xyz
  1  'x, y, z'
loop_
 _atom_site_type_symbol
 _atom_site_label
 _atom_site_symmetry_multiplicity
 _atom_site_fract_x
 _atom_site_fract_y
 _atom_site_fract_z
 _atom_site_occupancy
  La  La0  1  0.67551600  0.17858600  0.28723500  1
  La  La1  1  0.82141400  0.32448400  0.71276500  1
  La  La2  1  0.16583300  0.67814000  0.28123900  1
  La  La3  1  0.67990200  0.68366800  0.27673600  1
  La  La4  1  0.80761600  0.83065500  0.70835000  1
  La  La5  1  0.32186000  0.83416700  0.71876100  1
  La  La6  1  0.31633200  0.32009800  0.72326400  1
  La  La7  1  0.16934500  0.19238400  0.29165000  1
  Ni  Ni8  1  0.99913600  0.00086400  0.00000000  1
  Ni  Ni9  1  0.49624500  0.50375500  0.00000000  1
  Ni  Ni10  1  0.49162700  0.00376100  0.00808600  1
  Ni  Ni11  1  0.99623900  0.50837300  0.99191400  1
  O  O12  1  0.74701200  0.01043800  0.97736500  1
  O  O13  1  0.91384900  0.47958400  0.33811600  1
  O  O14  1  0.41051300  0.41780500  0.34224000  1
  O  O15  1  0.08140100  0.56888800  0.64773900  1
  O  O16  1  0.50047100  0.25321200  0.99033200  1
  O  O17  1  0.23657800  0.99632900  0.05476500  1
  O  O18  1  0.87259900  0.12740100  0.50000000  1
  O  O19  1  0.23944400  0.50248100  0.00745900  1
  O  O20  1  0.00367100  0.76342200  0.94523500  1
  O  O21  1  0.89486500  0.86306100  0.32856700  1
  O  O22  1  0.13693900  0.10513500  0.67143300  1
  O  O23  1  0.52041600  0.08615100  0.66188400  1
  O  O24  1  0.98956200  0.25298800  0.02263500  1
  O  O25  1  0.49751900  0.76055600  0.99254100  1
  O  O26  1  0.74678800  0.49952900  0.00966800  1
  O  O27  1  0.58219500  0.58948700  0.65776000  1
  O  O28  1  0.43111200  0.91859900  0.35226100  1
