# generated using pymatgen
data_Er2WO6
_symmetry_space_group_name_H-M   'P 1'
_cell_length_a   5.55381700
_cell_length_b   10.55265600
_cell_length_c   16.10192000
_cell_angle_alpha   90.00000000
_cell_angle_beta   90.00000000
_cell_angle_gamma   90.00000000
_symmetry_Int_Tables_number   1
_chemical_formula_structural   Er2WO6
_chemical_formula_sum   'Er16 W8 O48'
_cell_volume   943.69360307
_cell_formula_units_Z   8
loop_
 _symmetry_equiv_pos_site_id
 _symmetry_equiv_pos_as_xyz
  1  'x, y, z'
loop_
 _atom_site_type_symbol
 _atom_site_label
 _atom_site_symmetry_multiplicity
 _atom_site_fract_x
 _atom_site_fract_y
 _atom_site_fract_z
 _atom_site_occupancy
  Er  Er0  1  0.45425500  0.14557100  0.27276200  1
  Er  Er1  1  0.10068000  0.85772900  0.56095300  1
  Er  Er2  1  0.45425500  0.64557100  0.22723800  1
  Er  Er3  1  0.89932000  0.14227100  0.43904700  1
  Er  Er4  1  0.95425500  0.35442900  0.27276200  1
  Er  Er5  1  0.89932000  0.64227100  0.06095300  1
  Er  Er6  1  0.95425500  0.85442900  0.22723800  1
  Er  Er7  1  0.60068000  0.64227100  0.56095300  1
  Er  Er8  1  0.54574500  0.85442900  0.72723800  1
  Er  Er9  1  0.04574500  0.14557100  0.77276200  1
  Er  Er10  1  0.39932000  0.35772900  0.43904700  1
  Er  Er11  1  0.54574500  0.35442900  0.77276200  1
  Er  Er12  1  0.60068000  0.14227100  0.93904700  1
  Er  Er13  1  0.39932000  0.85772900  0.06095300  1
  Er  Er14  1  0.10068000  0.35772900  0.93904700  1
  Er  Er15  1  0.04574500  0.64557100  0.72723800  1
  W  W16  1  0.11314900  0.37915800  0.62088400  1
  W  W17  1  0.38685100  0.37915800  0.12088400  1
  W  W18  1  0.38685100  0.87915800  0.37911600  1
  W  W19  1  0.88685100  0.12084200  0.12088400  1
  W  W20  1  0.61314900  0.12084200  0.62088400  1
  W  W21  1  0.88685100  0.62084200  0.37911600  1
  W  W22  1  0.61314900  0.62084200  0.87911600  1
  W  W23  1  0.11314900  0.87915800  0.87911600  1
  O  O24  1  0.67874400  0.27090700  0.35514200  1
  O  O25  1  0.09563200  0.98670100  0.10766600  1
  O  O26  1  0.18785800  0.44508400  0.73144600  1
  O  O27  1  0.31214200  0.94508400  0.26855400  1
  O  O28  1  0.38261300  0.45869200  0.57165800  1
  O  O29  1  0.42056500  0.78508100  0.47807700  1
  O  O30  1  0.81214200  0.55491600  0.26855400  1
  O  O31  1  0.59563200  0.51329900  0.10766600  1
  O  O32  1  0.90436800  0.01329900  0.89233400  1
  O  O33  1  0.67874400  0.77090700  0.14485800  1
  O  O34  1  0.33974200  0.73132700  0.82651800  1
  O  O35  1  0.07943500  0.78508100  0.97807700  1
  O  O36  1  0.83974200  0.26867300  0.67348200  1
  O  O37  1  0.38261300  0.95869200  0.92834200  1
  O  O38  1  0.82125600  0.77090700  0.64485800  1
  O  O39  1  0.61738700  0.04130800  0.07165800  1
  O  O40  1  0.42056500  0.28508100  0.02192300  1
  O  O41  1  0.11738700  0.95869200  0.42834200  1
  O  O42  1  0.33974200  0.23132700  0.67348200  1
  O  O43  1  0.18785800  0.94508400  0.76855400  1
  O  O44  1  0.32125600  0.72909300  0.64485800  1
  O  O45  1  0.88261300  0.04130800  0.57165800  1
  O  O46  1  0.40436800  0.48670100  0.89233400  1
  O  O47  1  0.57943500  0.21491900  0.52192300  1
  O  O48  1  0.66025800  0.76867300  0.32651800  1
  O  O49  1  0.90436800  0.51329900  0.60766600  1
  O  O50  1  0.66025800  0.26867300  0.17348200  1
  O  O51  1  0.17874400  0.22909300  0.35514200  1
  O  O52  1  0.88261300  0.54130800  0.92834200  1
  O  O53  1  0.16025800  0.73132700  0.32651800  1
  O  O54  1  0.17874400  0.72909300  0.14485800  1
  O  O55  1  0.32125600  0.22909300  0.85514200  1
  O  O56  1  0.61738700  0.54130800  0.42834200  1
  O  O57  1  0.83974200  0.76867300  0.82651800  1
  O  O58  1  0.11738700  0.45869200  0.07165800  1
  O  O59  1  0.92056500  0.21491900  0.02192300  1
  O  O60  1  0.68785800  0.05491600  0.73144600  1
  O  O61  1  0.82125600  0.27090700  0.85514200  1
  O  O62  1  0.81214200  0.05491600  0.23144600  1
  O  O63  1  0.09563200  0.48670100  0.39233400  1
  O  O64  1  0.57943500  0.71491900  0.97807700  1
  O  O65  1  0.31214200  0.44508400  0.23144600  1
  O  O66  1  0.59563200  0.01329900  0.39233400  1
  O  O67  1  0.16025800  0.23132700  0.17348200  1
  O  O68  1  0.92056500  0.71491900  0.47807700  1
  O  O69  1  0.07943500  0.28508100  0.52192300  1
  O  O70  1  0.68785800  0.55491600  0.76855400  1
  O  O71  1  0.40436800  0.98670100  0.60766600  1
