# generated using pymatgen
data_S4N5Cl
_symmetry_space_group_name_H-M   'P 1'
_cell_length_a   12.84270700
_cell_length_b   10.65002500
_cell_length_c   12.23020601
_cell_angle_alpha   86.45295187
_cell_angle_beta   90.00000000
_cell_angle_gamma   90.00000000
_symmetry_Int_Tables_number   1
_chemical_formula_structural   S4N5Cl
_chemical_formula_sum   'S32 N40 Cl8'
_cell_volume   1669.58376273
_cell_formula_units_Z   8
loop_
 _symmetry_equiv_pos_site_id
 _symmetry_equiv_pos_as_xyz
  1  'x, y, z'
loop_
 _atom_site_type_symbol
 _atom_site_label
 _atom_site_symmetry_multiplicity
 _atom_site_fract_x
 _atom_site_fract_y
 _atom_site_fract_z
 _atom_site_occupancy
  S  S0  1  0.64037600  0.19645000  0.86930200  1
  S  S1  1  0.11171400  0.62212900  0.34151700  1
  S  S2  1  0.14982500  0.39994300  0.89059100  1
  S  S3  1  0.15222900  0.06806800  0.07836500  1
  S  S4  1  0.61171400  0.37787100  0.15848300  1
  S  S5  1  0.64982500  0.60005700  0.60940900  1
  S  S6  1  0.65386800  0.94302100  0.80624400  1
  S  S7  1  0.83095400  0.61238700  0.74358800  1
  S  S8  1  0.85466800  0.60099400  0.51990400  1
  S  S9  1  0.16904600  0.38761300  0.25641200  1
  S  S10  1  0.38828600  0.62212900  0.84151700  1
  S  S11  1  0.84243900  0.98718300  0.52681900  1
  S  S12  1  0.65222900  0.93193200  0.42163500  1
  S  S13  1  0.66904600  0.61238700  0.24358800  1
  S  S14  1  0.33095400  0.38761300  0.75641200  1
  S  S15  1  0.14533200  0.39900600  0.48009600  1
  S  S16  1  0.88828600  0.37787100  0.65848300  1
  S  S17  1  0.65756100  0.98718300  0.02681900  1
  S  S18  1  0.35466800  0.39900600  0.98009600  1
  S  S19  1  0.34777100  0.06806800  0.57836500  1
  S  S20  1  0.64533200  0.60099400  0.01990400  1
  S  S21  1  0.35962400  0.80355000  0.13069800  1
  S  S22  1  0.34243900  0.01281700  0.97318100  1
  S  S23  1  0.84613200  0.94302100  0.30624400  1
  S  S24  1  0.14037600  0.80355000  0.63069800  1
  S  S25  1  0.15756100  0.01281700  0.47318100  1
  S  S26  1  0.15386800  0.05697900  0.69375600  1
  S  S27  1  0.84777100  0.93193200  0.92163500  1
  S  S28  1  0.85962400  0.19645000  0.36930200  1
  S  S29  1  0.34613200  0.05697900  0.19375600  1
  S  S30  1  0.35017500  0.39994300  0.39059100  1
  S  S31  1  0.85017500  0.60005700  0.10940900  1
  N  N32  1  0.10831900  0.33652400  0.36751800  1
  N  N33  1  0.27268000  0.39292700  0.49371000  1
  N  N34  1  0.71965000  0.91576100  0.31333200  1
  N  N35  1  0.65619700  0.14553200  0.99099600  1
  N  N36  1  0.29691000  0.38404000  0.27403000  1
  N  N37  1  0.35396200  0.89733800  0.22400200  1
  N  N38  1  0.15619700  0.85446800  0.50900400  1
  N  N39  1  0.09933100  0.08029000  0.57310600  1
  N  N40  1  0.60831900  0.66347600  0.13248200  1
  N  N41  1  0.14338900  0.54679100  0.24119500  1
  N  N42  1  0.61881500  0.44309800  0.04024900  1
  N  N43  1  0.40066900  0.08029000  0.07310600  1
  N  N44  1  0.84380300  0.14553200  0.49099600  1
  N  N45  1  0.20309000  0.38404000  0.77403000  1
  N  N46  1  0.77268000  0.60707300  0.00629000  1
  N  N47  1  0.85396200  0.10266200  0.27599800  1
  N  N48  1  0.70309000  0.61596000  0.72597000  1
  N  N49  1  0.71718800  0.95253100  0.53063300  1
  N  N50  1  0.78035000  0.91576100  0.81333200  1
  N  N51  1  0.38118500  0.55690200  0.95975100  1
  N  N52  1  0.28035000  0.08423900  0.68666800  1
  N  N53  1  0.89168100  0.66347600  0.63248200  1
  N  N54  1  0.35661100  0.54679100  0.74119500  1
  N  N55  1  0.28281200  0.04746900  0.46936700  1
  N  N56  1  0.90066900  0.91971000  0.42689400  1
  N  N57  1  0.21718800  0.04746900  0.96936700  1
  N  N58  1  0.72732000  0.60707300  0.50629000  1
  N  N59  1  0.85661100  0.45320900  0.75880500  1
  N  N60  1  0.88118500  0.44309800  0.54024900  1
  N  N61  1  0.21965000  0.08423900  0.18666800  1
  N  N62  1  0.79691000  0.61596000  0.22597000  1
  N  N63  1  0.64603800  0.10266200  0.77599800  1
  N  N64  1  0.59933100  0.91971000  0.92689400  1
  N  N65  1  0.39168100  0.33652400  0.86751800  1
  N  N66  1  0.78281200  0.95253100  0.03063300  1
  N  N67  1  0.64338900  0.45320900  0.25880500  1
  N  N68  1  0.34380300  0.85446800  0.00900400  1
  N  N69  1  0.11881500  0.55690200  0.45975100  1
  N  N70  1  0.22732000  0.39292700  0.99371000  1
  N  N71  1  0.14603800  0.89733800  0.72400200  1
  Cl  Cl72  1  0.43137600  0.88179700  0.61462800  1
  Cl  Cl73  1  0.09306700  0.60077700  0.88305400  1
  Cl  Cl74  1  0.56862400  0.11820300  0.38537200  1
  Cl  Cl75  1  0.90693300  0.39922300  0.11694600  1
  Cl  Cl76  1  0.93137600  0.11820300  0.88537200  1
  Cl  Cl77  1  0.06862400  0.88179700  0.11462800  1
  Cl  Cl78  1  0.59306700  0.39922300  0.61694600  1
  Cl  Cl79  1  0.40693300  0.60077700  0.38305400  1
