# generated using pymatgen
data_SiH12C2(NF3)2
_symmetry_space_group_name_H-M   'P 1'
_cell_length_a   6.40660000
_cell_length_b   7.30953100
_cell_length_c   9.48400100
_cell_angle_alpha   90.00000000
_cell_angle_beta   90.00000000
_cell_angle_gamma   90.00000000
_symmetry_Int_Tables_number   1
_chemical_formula_structural   SiH12C2(NF3)2
_chemical_formula_sum   'Si2 H24 C4 N4 F12'
_cell_volume   444.12857136
_cell_formula_units_Z   2
loop_
 _symmetry_equiv_pos_site_id
 _symmetry_equiv_pos_as_xyz
  1  'x, y, z'
loop_
 _atom_site_type_symbol
 _atom_site_label
 _atom_site_symmetry_multiplicity
 _atom_site_fract_x
 _atom_site_fract_y
 _atom_site_fract_z
 _atom_site_occupancy
  Si  Si0  1  0.50000000  0.50000000  0.50000000  1
  Si  Si1  1  0.00000000  0.00000000  0.00000000  1
  H  H2  1  0.87002100  0.65831400  0.63273300  1
  H  H3  1  0.13931800  0.50131400  0.14086600  1
  H  H4  1  0.86068200  0.49868600  0.85913400  1
  H  H5  1  0.63931800  0.99868600  0.64086600  1
  H  H6  1  0.13931800  0.49868600  0.85913400  1
  H  H7  1  0.36068200  0.00131400  0.35913400  1
  H  H8  1  0.12997900  0.65831400  0.63273300  1
  H  H9  1  0.87002100  0.34168600  0.36726700  1
  H  H10  1  0.36068200  0.99868600  0.64086600  1
  H  H11  1  0.86068200  0.50131400  0.14086600  1
  H  H12  1  0.37002100  0.15831400  0.86726700  1
  H  H13  1  0.62997900  0.84168600  0.13273300  1
  H  H14  1  0.50000000  0.12896400  0.22802200  1
  H  H15  1  0.63931800  0.00131400  0.35913400  1
  H  H16  1  0.00000000  0.77926700  0.75568900  1
  H  H17  1  0.00000000  0.22073300  0.24431100  1
  H  H18  1  0.12997900  0.34168600  0.36726700  1
  H  H19  1  0.62997900  0.15831400  0.86726700  1
  H  H20  1  0.00000000  0.62896400  0.27197800  1
  H  H21  1  0.50000000  0.72073300  0.25568900  1
  H  H22  1  0.00000000  0.37103600  0.72802200  1
  H  H23  1  0.50000000  0.27926700  0.74431100  1
  H  H24  1  0.37002100  0.84168600  0.13273300  1
  H  H25  1  0.50000000  0.87103600  0.77197800  1
  C  C26  1  0.50000000  0.99481100  0.70722500  1
  C  C27  1  0.50000000  0.00518900  0.29277500  1
  C  C28  1  0.00000000  0.50518900  0.20722500  1
  C  C29  1  0.00000000  0.49481100  0.79277500  1
  N  N30  1  0.50000000  0.84220600  0.19870000  1
  N  N31  1  0.00000000  0.65779400  0.69870000  1
  N  N32  1  0.00000000  0.34220600  0.30130000  1
  N  N33  1  0.50000000  0.15779400  0.80130000  1
  F  F34  1  0.50000000  0.51156400  0.68128500  1
  F  F35  1  0.00000000  0.01156400  0.81871500  1
  F  F36  1  0.30950800  0.66608700  0.49262100  1
  F  F37  1  0.50000000  0.48843600  0.31871500  1
  F  F38  1  0.30950800  0.33391300  0.50737900  1
  F  F39  1  0.69049200  0.33391300  0.50737900  1
  F  F40  1  0.19049200  0.16608700  0.00737900  1
  F  F41  1  0.80950800  0.16608700  0.00737900  1
  F  F42  1  0.69049200  0.66608700  0.49262100  1
  F  F43  1  0.80950800  0.83391300  0.99262100  1
  F  F44  1  0.00000000  0.98843600  0.18128500  1
  F  F45  1  0.19049200  0.83391300  0.99262100  1
