# generated using pymatgen
data_V2CdO6
_symmetry_space_group_name_H-M   'P 1'
_cell_length_a   4.96966900
_cell_length_b   5.85515400
_cell_length_c   14.38215700
_cell_angle_alpha   90.00000000
_cell_angle_beta   90.00000000
_cell_angle_gamma   90.00000000
_symmetry_Int_Tables_number   1
_chemical_formula_structural   V2CdO6
_chemical_formula_sum   'V8 Cd4 O24'
_cell_volume   418.49455469
_cell_formula_units_Z   4
loop_
 _symmetry_equiv_pos_site_id
 _symmetry_equiv_pos_as_xyz
  1  'x, y, z'
loop_
 _atom_site_type_symbol
 _atom_site_label
 _atom_site_symmetry_multiplicity
 _atom_site_fract_x
 _atom_site_fract_y
 _atom_site_fract_z
 _atom_site_occupancy
  V  V0  1  0.22121500  0.18271100  0.33250800  1
  V  V1  1  0.22121500  0.68271100  0.16749200  1
  V  V2  1  0.72121500  0.31728900  0.16749200  1
  V  V3  1  0.27878500  0.18271100  0.66749200  1
  V  V4  1  0.27878500  0.68271100  0.83250800  1
  V  V5  1  0.77878500  0.31728900  0.83250800  1
  V  V6  1  0.72121500  0.81728900  0.33250800  1
  V  V7  1  0.77878500  0.81728900  0.66749200  1
  Cd  Cd8  1  0.25000000  0.21802400  0.00000000  1
  Cd  Cd9  1  0.75000000  0.28197600  0.50000000  1
  Cd  Cd10  1  0.75000000  0.78197600  0.00000000  1
  Cd  Cd11  1  0.25000000  0.71802400  0.50000000  1
  O  O12  1  0.89404400  0.65089600  0.24615600  1
  O  O13  1  0.38677000  0.88031800  0.90985800  1
  O  O14  1  0.38677000  0.38031800  0.59014200  1
  O  O15  1  0.48157400  0.42198700  0.89371200  1
  O  O16  1  0.01842600  0.92198700  0.39371200  1
  O  O17  1  0.51842600  0.07801300  0.39371200  1
  O  O18  1  0.11323000  0.88031800  0.09014200  1
  O  O19  1  0.98157400  0.07801300  0.60628800  1
  O  O20  1  0.10595600  0.34910400  0.75384400  1
  O  O21  1  0.11323000  0.38031800  0.40985800  1
  O  O22  1  0.88677000  0.61968200  0.59014200  1
  O  O23  1  0.48157400  0.92198700  0.60628800  1
  O  O24  1  0.89404400  0.15089600  0.25384400  1
  O  O25  1  0.01842600  0.42198700  0.10628800  1
  O  O26  1  0.51842600  0.57801300  0.10628800  1
  O  O27  1  0.98157400  0.57801300  0.89371200  1
  O  O28  1  0.61323000  0.11968200  0.09014200  1
  O  O29  1  0.39404400  0.84910400  0.25384400  1
  O  O30  1  0.10595600  0.84910400  0.74615600  1
  O  O31  1  0.88677000  0.11968200  0.90985800  1
  O  O32  1  0.61323000  0.61968200  0.40985800  1
  O  O33  1  0.39404400  0.34910400  0.24615600  1
  O  O34  1  0.60595600  0.65089600  0.75384400  1
  O  O35  1  0.60595600  0.15089600  0.74615600  1
