# generated using pymatgen
data_Ba17Dy16Zn8Pt4O57
_symmetry_space_group_name_H-M   'P 1'
_cell_length_a   16.61414871
_cell_length_b   16.61414871
_cell_length_c   16.61414871
_cell_angle_alpha   91.72895056
_cell_angle_beta   91.72895056
_cell_angle_gamma   159.99410044
_symmetry_Int_Tables_number   1
_chemical_formula_structural   Ba17Dy16Zn8Pt4O57
_chemical_formula_sum   'Ba17 Dy16 Zn8 Pt4 O57'
_cell_volume   1545.09903828
_cell_formula_units_Z   1
loop_
 _symmetry_equiv_pos_site_id
 _symmetry_equiv_pos_as_xyz
  1  'x, y, z'
loop_
 _atom_site_type_symbol
 _atom_site_label
 _atom_site_symmetry_multiplicity
 _atom_site_fract_x
 _atom_site_fract_y
 _atom_site_fract_z
 _atom_site_occupancy
  Ba  Ba0  1  0.93240600  0.44165900  0.37406500  1
  Ba  Ba1  1  0.72337200  0.88809800  0.61147000  1
  Ba  Ba2  1  0.65825400  0.64956500  0.30782000  1
  Ba  Ba3  1  0.06759400  0.55834100  0.62593500  1
  Ba  Ba4  1  0.81082800  0.73230900  0.54313700  1
  Ba  Ba5  1  0.73230900  0.18917200  0.92148100  1
  Ba  Ba6  1  0.35043500  0.65825400  0.00868900  1
  Ba  Ba7  1  0.64956500  0.34174600  0.99131100  1
  Ba  Ba8  1  0.88809800  0.27662800  0.16472700  1
  Ba  Ba9  1  0.18917200  0.26769100  0.45686300  1
  Ba  Ba10  1  0.26769100  0.81082800  0.07851900  1
  Ba  Ba11  1  0.55834100  0.93240600  0.49074700  1
  Ba  Ba12  1  0.44165900  0.06759400  0.50925300  1
  Ba  Ba13  1  0.34174600  0.35043500  0.69218000  1
  Ba  Ba14  1  0.27662800  0.11190200  0.38853000  1
  Ba  Ba15  1  0.00000000  0.00000000  0.00000000  1
  Ba  Ba16  1  0.11190200  0.72337200  0.83527300  1
  Dy  Dy17  1  0.51161600  0.40034500  0.91196100  1
  Dy  Dy18  1  0.25039200  0.49372500  0.74411700  1
  Dy  Dy19  1  0.67375600  0.04977300  0.72352800  1
  Dy  Dy20  1  0.95022700  0.67375600  0.62398300  1
  Dy  Dy21  1  0.74960800  0.50627500  0.25588300  1
  Dy  Dy22  1  0.48838400  0.59965500  0.08803900  1
  Dy  Dy23  1  0.49372500  0.74960800  0.24333200  1
  Dy  Dy24  1  0.04977300  0.32624400  0.37601700  1
  Dy  Dy25  1  0.05234000  0.17204600  0.22438600  1
  Dy  Dy26  1  0.59965500  0.51161600  0.11127200  1
  Dy  Dy27  1  0.50627500  0.25039200  0.75666800  1
  Dy  Dy28  1  0.82795400  0.05234000  0.88029400  1
  Dy  Dy29  1  0.40034500  0.48838400  0.88872800  1
  Dy  Dy30  1  0.17204600  0.94766000  0.11970600  1
  Dy  Dy31  1  0.94766000  0.82795400  0.77561400  1
  Dy  Dy32  1  0.32624400  0.95022700  0.27647200  1
  Zn  Zn33  1  0.86642700  0.92427400  0.79070100  1
  Zn  Zn34  1  0.07572600  0.86642700  0.94215400  1
  Zn  Zn35  1  0.21231700  0.62090000  0.83321700  1
  Zn  Zn36  1  0.13357300  0.07572600  0.20929900  1
  Zn  Zn37  1  0.92427400  0.13357300  0.05784600  1
  Zn  Zn38  1  0.62090000  0.78768300  0.40858300  1
  Zn  Zn39  1  0.37910000  0.21231700  0.59141700  1
  Zn  Zn40  1  0.78768300  0.37910000  0.16678300  1
  Pt  Pt41  1  0.85568900  0.58294400  0.43863300  1
  Pt  Pt42  1  0.14431100  0.41705600  0.56136700  1
  Pt  Pt43  1  0.58294400  0.14431100  0.72725500  1
  Pt  Pt44  1  0.41705600  0.85568900  0.27274500  1
  O  O45  1  0.17689800  0.00094100  0.68078600  1
  O  O46  1  0.28032700  0.92522900  0.68924100  1
  O  O47  1  0.68390000  0.65970500  0.84492700  1
  O  O48  1  0.32015600  0.49611200  0.31921400  1
  O  O49  1  0.70097800  0.76045300  0.46143000  1
  O  O50  1  0.39197200  0.76893000  0.16090300  1
  O  O51  1  0.72359400  0.92717200  0.14830000  1
  O  O52  1  0.81477800  0.83897400  0.15507300  1
  O  O53  1  0.87881900  0.11135100  0.47946400  1
  O  O54  1  0.99905900  0.67984400  0.17595600  1
  O  O55  1  0.82310200  0.99905900  0.31921400  1
  O  O56  1  0.67984400  0.50388800  0.68078600  1
  O  O57  1  0.56455400  0.05511900  0.61967300  1
  O  O58  1  0.71967300  0.07477100  0.31075900  1
  O  O59  1  0.60802800  0.23107000  0.83909700  1
  O  O60  1  0.92717200  0.77887200  0.20357800  1
  O  O61  1  0.18522200  0.16102600  0.84492700  1
  O  O62  1  0.23107000  0.39197200  0.62304200  1
  O  O63  1  0.77887200  0.57529400  0.85170000  1
  O  O64  1  0.76401200  0.40891400  0.68924100  1
  O  O65  1  0.94488100  0.56455400  0.50943500  1
  O  O66  1  0.43544600  0.94488100  0.38032700  1
  O  O67  1  0.59108600  0.28032700  0.35509800  1
  O  O68  1  0.23954700  0.70097700  0.94052500  1
  O  O69  1  0.40891400  0.71967300  0.64490200  1
  O  O70  1  0.15968100  0.15765400  0.31733500  1
  O  O71  1  0.84234600  0.15968100  0.00202600  1
  O  O72  1  0.12118100  0.88864900  0.52053600  1
  O  O73  1  0.15765400  0.84031900  0.99797400  1
  O  O74  1  0.60064600  0.12118100  0.23253300  1
  O  O75  1  0.07477100  0.76401200  0.35509800  1
  O  O76  1  0.50000000  0.50000000  0.00000000  1
  O  O77  1  0.23598800  0.59108600  0.31075900  1
  O  O78  1  0.07282800  0.22112800  0.79642200  1
  O  O79  1  0.84031900  0.84234600  0.68266500  1
  O  O80  1  0.42470600  0.27640600  0.20357800  1
  O  O81  1  0.63188700  0.39935400  0.52053600  1
  O  O82  1  0.88864900  0.36811300  0.76746700  1
  O  O83  1  0.00094100  0.32015600  0.82404400  1
  O  O84  1  0.76893000  0.60802800  0.37695800  1
  O  O85  1  0.34029500  0.18522200  0.02419600  1
  O  O86  1  0.57529400  0.72359400  0.79642200  1
  O  O87  1  0.11135100  0.63188700  0.23253300  1
  O  O88  1  0.83897400  0.68390000  0.02419600  1
  O  O89  1  0.27640600  0.07282800  0.85170000  1
  O  O90  1  0.29902300  0.23954700  0.53857000  1
  O  O91  1  0.65970500  0.81477800  0.97580400  1
  O  O92  1  0.36811300  0.60064600  0.47946400  1
  O  O93  1  0.49611200  0.17689800  0.17595600  1
  O  O94  1  0.22112800  0.42470600  0.14830000  1
  O  O95  1  0.50388800  0.82310200  0.82404400  1
  O  O96  1  0.16102600  0.31610000  0.97580400  1
  O  O97  1  0.39935400  0.87881900  0.76746700  1
  O  O98  1  0.05511900  0.43544600  0.49056500  1
  O  O99  1  0.92522900  0.23598800  0.64490200  1
  O  O100  1  0.31610000  0.34029500  0.15507300  1
  O  O101  1  0.76045300  0.29902200  0.05947500  1
