# generated using pymatgen
data_Zr2FeTc
_symmetry_space_group_name_H-M   'P 1'
_cell_length_a   10.72561354
_cell_length_b   10.72561354
_cell_length_c   10.72561354
_cell_angle_alpha   130.37848401
_cell_angle_beta   116.72251732
_cell_angle_gamma   84.40454580
_symmetry_Int_Tables_number   1
_chemical_formula_structural   Zr2FeTc
_chemical_formula_sum   'Zr2 Fe1 Tc1'
_cell_volume   804.76639509
_cell_formula_units_Z   1
loop_
 _symmetry_equiv_pos_site_id
 _symmetry_equiv_pos_as_xyz
  1  'x, y, z'
loop_
 _atom_site_type_symbol
 _atom_site_label
 _atom_site_symmetry_multiplicity
 _atom_site_fract_x
 _atom_site_fract_y
 _atom_site_fract_z
 _atom_site_occupancy
  Zr  Zr0  1  0.00000000  0.24986900  0.24986900  1
  Zr  Zr1  1  0.00000000  0.75013100  0.75013100  1
  Fe  Fe2  1  0.00000000  0.00000000  0.00000000  1
  Tc  Tc3  1  0.00000000  0.50000000  0.50000000  1
