# generated using pymatgen
data_VPO5
_symmetry_space_group_name_H-M   'P 1'
_cell_length_a   5.09612529
_cell_length_b   5.09612529
_cell_length_c   7.38904551
_cell_angle_alpha   72.07217048
_cell_angle_beta   72.07217048
_cell_angle_gamma   87.72800931
_symmetry_Int_Tables_number   1
_chemical_formula_structural   VPO5
_chemical_formula_sum   'V2 P2 O10'
_cell_volume   173.39224150
_cell_formula_units_Z   2
loop_
 _symmetry_equiv_pos_site_id
 _symmetry_equiv_pos_as_xyz
  1  'x, y, z'
loop_
 _atom_site_type_symbol
 _atom_site_label
 _atom_site_symmetry_multiplicity
 _atom_site_fract_x
 _atom_site_fract_y
 _atom_site_fract_z
 _atom_site_occupancy
  V  V0  1  0.76926800  0.23094700  0.00475000  1
  V  V1  1  0.23094700  0.76926800  0.50475000  1
  P  P2  1  0.41177200  0.16921700  0.71582900  1
  P  P3  1  0.16921700  0.41177200  0.21582900  1
  O  O4  1  0.14812000  0.65143200  0.30382900  1
  O  O5  1  0.95867800  0.65750000  0.69523300  1
  O  O6  1  0.12674500  0.12982100  0.38028200  1
  O  O7  1  0.65143200  0.14812000  0.80382900  1
  O  O8  1  0.44446200  0.94270400  0.61301700  1
  O  O9  1  0.12982100  0.12674500  0.88028200  1
  O  O10  1  0.94270400  0.44446200  0.11301700  1
  O  O11  1  0.44084100  0.45649500  0.55326000  1
  O  O12  1  0.45649500  0.44084100  0.05326000  1
  O  O13  1  0.65750000  0.95867800  0.19523300  1
