# generated using pymatgen
data_H14C5(NO)2
_symmetry_space_group_name_H-M   'P 1'
_cell_length_a   9.44212500
_cell_length_b   7.63347600
_cell_length_c   11.22976506
_cell_angle_alpha   86.05806297
_cell_angle_beta   90.00000000
_cell_angle_gamma   90.00000000
_symmetry_Int_Tables_number   1
_chemical_formula_structural   H14C5(NO)2
_chemical_formula_sum   'H56 C20 N8 O8'
_cell_volume   807.48432705
_cell_formula_units_Z   4
loop_
 _symmetry_equiv_pos_site_id
 _symmetry_equiv_pos_as_xyz
  1  'x, y, z'
loop_
 _atom_site_type_symbol
 _atom_site_label
 _atom_site_symmetry_multiplicity
 _atom_site_fract_x
 _atom_site_fract_y
 _atom_site_fract_z
 _atom_site_occupancy
  H  H0  1  0.71311400  0.95732700  0.94571500  1
  H  H1  1  0.73067700  0.81078800  0.82892400  1
  H  H2  1  0.11819100  0.65056900  0.32660400  1
  H  H3  1  0.45111900  0.89518000  0.35471000  1
  H  H4  1  0.59800700  0.63157100  0.45127800  1
  H  H5  1  0.26932300  0.18921200  0.17107600  1
  H  H6  1  0.34931300  0.45824500  0.40305600  1
  H  H7  1  0.15055500  0.42765100  0.53323900  1
  H  H8  1  0.65068700  0.54175500  0.59694400  1
  H  H9  1  0.61819100  0.34943100  0.17339600  1
  H  H10  1  0.15068700  0.45824500  0.90305600  1
  H  H11  1  0.94073300  0.85375800  0.39150900  1
  H  H12  1  0.31009000  0.79300700  0.44247700  1
  H  H13  1  0.04888100  0.89518000  0.85471000  1
  H  H14  1  0.66080000  0.40817400  0.32034000  1
  H  H15  1  0.65055500  0.57234900  0.96676100  1
  H  H16  1  0.63048200  0.71350900  0.08038900  1
  H  H17  1  0.55926700  0.85375800  0.89150900  1
  H  H18  1  0.39232900  0.81166200  0.70409800  1
  H  H19  1  0.77287800  0.02421800  0.15959000  1
  H  H20  1  0.60767100  0.18833800  0.29590200  1
  H  H21  1  0.61419600  0.77151600  0.57155000  1
  H  H22  1  0.09800700  0.36842900  0.04872200  1
  H  H23  1  0.78688600  0.95732700  0.44571500  1
  H  H24  1  0.68991000  0.20699300  0.55752300  1
  H  H25  1  0.13048200  0.28649100  0.41961100  1
  H  H26  1  0.89232900  0.18833800  0.79590200  1
  H  H27  1  0.44073300  0.14624200  0.10849100  1
  H  H28  1  0.76932300  0.81078800  0.32892400  1
  H  H29  1  0.88180900  0.34943100  0.67339600  1
  H  H30  1  0.11419600  0.22848400  0.92845000  1
  H  H31  1  0.95111900  0.10482000  0.14529000  1
  H  H32  1  0.81009000  0.20699300  0.05752300  1
  H  H33  1  0.38580400  0.22848400  0.42845000  1
  H  H34  1  0.84931300  0.54175500  0.09694400  1
  H  H35  1  0.21311400  0.04267300  0.55428500  1
  H  H36  1  0.84944500  0.57234900  0.46676100  1
  H  H37  1  0.16080000  0.59182600  0.17966000  1
  H  H38  1  0.72712200  0.02421800  0.65959000  1
  H  H39  1  0.23067700  0.18921200  0.67107600  1
  H  H40  1  0.38180900  0.65056900  0.82660400  1
  H  H41  1  0.05926700  0.14624200  0.60849100  1
  H  H42  1  0.54888100  0.10482000  0.64529000  1
  H  H43  1  0.83920000  0.40817400  0.82034000  1
  H  H44  1  0.34944500  0.42765100  0.03323900  1
  H  H45  1  0.33920000  0.59182600  0.67966000  1
  H  H46  1  0.40199300  0.36842900  0.54872200  1
  H  H47  1  0.86951800  0.71350900  0.58038900  1
  H  H48  1  0.28688600  0.04267300  0.05428500  1
  H  H49  1  0.27287800  0.97578200  0.34041000  1
  H  H50  1  0.18991000  0.79300700  0.94247700  1
  H  H51  1  0.22712200  0.97578200  0.84041000  1
  H  H52  1  0.36951800  0.28649100  0.91961100  1
  H  H53  1  0.10767100  0.81166200  0.20409800  1
  H  H54  1  0.88580400  0.77151600  0.07155000  1
  H  H55  1  0.90199300  0.63157100  0.95127800  1
  C  C56  1  0.91776900  0.29161400  0.32473000  1
  C  C57  1  0.58223100  0.29161400  0.82473000  1
  C  C58  1  0.15805500  0.34432400  0.96785000  1
  C  C59  1  0.33222100  0.69601800  0.74137700  1
  C  C60  1  0.67236400  0.83677600  0.91038300  1
  C  C61  1  0.82763600  0.83677600  0.41038300  1
  C  C62  1  0.08223100  0.70838600  0.67527000  1
  C  C63  1  0.16059600  0.85699400  0.85487200  1
  C  C64  1  0.34194500  0.34432400  0.46785000  1
  C  C65  1  0.83222100  0.30398200  0.75862300  1
  C  C66  1  0.17236400  0.16322400  0.58961700  1
  C  C67  1  0.33940400  0.85699400  0.35487200  1
  C  C68  1  0.16777900  0.69601800  0.24137700  1
  C  C69  1  0.41776900  0.70838600  0.17527000  1
  C  C70  1  0.66777900  0.30398200  0.25862300  1
  C  C71  1  0.66059600  0.14300600  0.64512800  1
  C  C72  1  0.32763600  0.16322400  0.08961700  1
  C  C73  1  0.65805500  0.65567600  0.53215000  1
  C  C74  1  0.84194500  0.65567600  0.03215000  1
  C  C75  1  0.83940400  0.14300600  0.14512800  1
  N  N76  1  0.18474400  0.73914800  0.76079200  1
  N  N77  1  0.80855400  0.68762500  0.50064400  1
  N  N78  1  0.68474400  0.26085200  0.73920800  1
  N  N79  1  0.31525600  0.73914800  0.26079200  1
  N  N80  1  0.19144600  0.31237500  0.49935600  1
  N  N81  1  0.30855400  0.31237500  0.99935600  1
  N  N82  1  0.69144600  0.68762500  0.00064400  1
  N  N83  1  0.81525600  0.26085200  0.23920800  1
  O  O84  1  0.04451300  0.23679400  0.30667300  1
  O  O85  1  0.45548700  0.23679400  0.80667300  1
  O  O86  1  0.54451300  0.76320600  0.19332700  1
  O  O87  1  0.61962300  0.37276500  0.91544600  1
  O  O88  1  0.88037700  0.37276500  0.41544600  1
  O  O89  1  0.11962300  0.62723500  0.58455400  1
  O  O90  1  0.38037700  0.62723500  0.08455400  1
  O  O91  1  0.95548700  0.76320600  0.69332700  1
