# generated using pymatgen
data_Ba6V4S11O5
_symmetry_space_group_name_H-M   'P 1'
_cell_length_a   7.68888500
_cell_length_b   14.07960300
_cell_length_c   23.61650200
_cell_angle_alpha   90.00000000
_cell_angle_beta   90.00000000
_cell_angle_gamma   90.00000000
_symmetry_Int_Tables_number   1
_chemical_formula_structural   Ba6V4S11O5
_chemical_formula_sum   'Ba24 V16 S44 O20'
_cell_volume   2556.63862809
_cell_formula_units_Z   4
loop_
 _symmetry_equiv_pos_site_id
 _symmetry_equiv_pos_as_xyz
  1  'x, y, z'
loop_
 _atom_site_type_symbol
 _atom_site_label
 _atom_site_symmetry_multiplicity
 _atom_site_fract_x
 _atom_site_fract_y
 _atom_site_fract_z
 _atom_site_occupancy
  Ba  Ba0  1  0.78711000  0.25000000  0.15051700  1
  Ba  Ba1  1  0.29040100  0.98323800  0.07367500  1
  Ba  Ba2  1  0.42074200  0.41964600  0.27560800  1
  Ba  Ba3  1  0.92074200  0.91964600  0.22439200  1
  Ba  Ba4  1  0.28711000  0.75000000  0.34948300  1
  Ba  Ba5  1  0.70959900  0.48323800  0.92632500  1
  Ba  Ba6  1  0.20959900  0.51676200  0.57367500  1
  Ba  Ba7  1  0.29040100  0.51676200  0.07367500  1
  Ba  Ba8  1  0.07925800  0.08035400  0.77560800  1
  Ba  Ba9  1  0.70959900  0.01676200  0.92632500  1
  Ba  Ba10  1  0.18852400  0.25000000  0.95750700  1
  Ba  Ba11  1  0.57925800  0.58035400  0.72439200  1
  Ba  Ba12  1  0.79040100  0.48323800  0.42632500  1
  Ba  Ba13  1  0.21289000  0.75000000  0.84948300  1
  Ba  Ba14  1  0.68852400  0.75000000  0.54249300  1
  Ba  Ba15  1  0.81147600  0.75000000  0.04249300  1
  Ba  Ba16  1  0.31147600  0.25000000  0.45750700  1
  Ba  Ba17  1  0.42074200  0.08035400  0.27560800  1
  Ba  Ba18  1  0.57925800  0.91964600  0.72439200  1
  Ba  Ba19  1  0.92074200  0.58035400  0.22439200  1
  Ba  Ba20  1  0.79040100  0.01676200  0.42632500  1
  Ba  Ba21  1  0.07925800  0.41964600  0.77560800  1
  Ba  Ba22  1  0.20959900  0.98323800  0.57367500  1
  Ba  Ba23  1  0.71289000  0.25000000  0.65051700  1
  V  V24  1  0.20032300  0.25000000  0.66190600  1
  V  V25  1  0.70517600  0.99448500  0.58043000  1
  V  V26  1  0.79967700  0.75000000  0.33809400  1
  V  V27  1  0.08355800  0.75000000  0.66609000  1
  V  V28  1  0.29482400  0.00551500  0.41957000  1
  V  V29  1  0.41644200  0.75000000  0.16609000  1
  V  V30  1  0.29482400  0.49448500  0.41957000  1
  V  V31  1  0.79482400  0.99448500  0.08043000  1
  V  V32  1  0.20517600  0.00551500  0.91957000  1
  V  V33  1  0.70517600  0.50551500  0.58043000  1
  V  V34  1  0.29967700  0.25000000  0.16190600  1
  V  V35  1  0.91644200  0.25000000  0.33391000  1
  V  V36  1  0.79482400  0.50551500  0.08043000  1
  V  V37  1  0.70032300  0.75000000  0.83809400  1
  V  V38  1  0.58355800  0.25000000  0.83391000  1
  V  V39  1  0.20517600  0.49448500  0.91957000  1
  S  S40  1  0.30156000  0.25000000  0.82840300  1
  S  S41  1  0.13805300  0.53876400  0.34632800  1
  S  S42  1  0.13805300  0.96123600  0.34632800  1
  S  S43  1  0.41157700  0.88301600  0.46161500  1
  S  S44  1  0.19844000  0.25000000  0.32840300  1
  S  S45  1  0.90689800  0.75000000  0.42288800  1
  S  S46  1  0.18213800  0.62322600  0.70710500  1
  S  S47  1  0.84834000  0.25000000  0.42262400  1
  S  S48  1  0.85705200  0.62228400  0.82356300  1
  S  S49  1  0.08842300  0.88301600  0.96161500  1
  S  S50  1  0.36194700  0.96123600  0.84632800  1
  S  S51  1  0.68213800  0.12322600  0.79289500  1
  S  S52  1  0.58842300  0.38301600  0.53838500  1
  S  S53  1  0.64294800  0.62228400  0.32356300  1
  S  S54  1  0.86194700  0.03876400  0.65367200  1
  S  S55  1  0.35705200  0.37771600  0.67643700  1
  S  S56  1  0.14294800  0.37771600  0.17643700  1
  S  S57  1  0.91157700  0.11698400  0.03838500  1
  S  S58  1  0.34834000  0.75000000  0.07737600  1
  S  S59  1  0.59310200  0.75000000  0.92288800  1
  S  S60  1  0.86194700  0.46123600  0.65367200  1
  S  S61  1  0.58842300  0.11698400  0.53838500  1
  S  S62  1  0.68213800  0.37677400  0.79289500  1
  S  S63  1  0.81786200  0.12322600  0.29289500  1
  S  S64  1  0.63805300  0.03876400  0.15367200  1
  S  S65  1  0.14294800  0.12228400  0.17643700  1
  S  S66  1  0.31786200  0.87677400  0.20710500  1
  S  S67  1  0.18213800  0.87677400  0.70710500  1
  S  S68  1  0.08842300  0.61698400  0.96161500  1
  S  S69  1  0.65166000  0.25000000  0.92262400  1
  S  S70  1  0.81786200  0.37677400  0.29289500  1
  S  S71  1  0.91157700  0.38301600  0.03838500  1
  S  S72  1  0.40689800  0.25000000  0.07711200  1
  S  S73  1  0.80156000  0.75000000  0.67159700  1
  S  S74  1  0.63805300  0.46123600  0.15367200  1
  S  S75  1  0.35705200  0.12228400  0.67643700  1
  S  S76  1  0.15166000  0.75000000  0.57737600  1
  S  S77  1  0.09310200  0.25000000  0.57711200  1
  S  S78  1  0.85705200  0.87771600  0.82356300  1
  S  S79  1  0.41157700  0.61698400  0.46161500  1
  S  S80  1  0.64294800  0.87771600  0.32356300  1
  S  S81  1  0.31786200  0.62322600  0.20710500  1
  S  S82  1  0.36194700  0.53876400  0.84632800  1
  S  S83  1  0.69844000  0.75000000  0.17159700  1
  O  O84  1  0.45310300  0.41723300  0.39621400  1
  O  O85  1  0.16172300  0.43613600  0.46684000  1
  O  O86  1  0.04689700  0.08276700  0.89621400  1
  O  O87  1  0.95310200  0.91723300  0.10378600  1
  O  O88  1  0.53199100  0.75000000  0.79019100  1
  O  O89  1  0.66172300  0.56386400  0.03316000  1
  O  O90  1  0.83827700  0.56386400  0.53316000  1
  O  O91  1  0.16172300  0.06386400  0.46684000  1
  O  O92  1  0.33827700  0.06386400  0.96684000  1
  O  O93  1  0.45310300  0.08276700  0.39621400  1
  O  O94  1  0.33827700  0.43613600  0.96684000  1
  O  O95  1  0.54689800  0.58276700  0.60378600  1
  O  O96  1  0.95310200  0.58276700  0.10378600  1
  O  O97  1  0.03199100  0.25000000  0.70980900  1
  O  O98  1  0.04689700  0.41723300  0.89621400  1
  O  O99  1  0.66172300  0.93613600  0.03316000  1
  O  O100  1  0.96800900  0.75000000  0.29019100  1
  O  O101  1  0.54689800  0.91723300  0.60378600  1
  O  O102  1  0.83827700  0.93613600  0.53316000  1
  O  O103  1  0.46800900  0.25000000  0.20980900  1
