# generated using pymatgen
data_KLaPdO3
_symmetry_space_group_name_H-M   'P 1'
_cell_length_a   7.05747424
_cell_length_b   7.05747424
_cell_length_c   7.62269946
_cell_angle_alpha   75.20243420
_cell_angle_beta   75.20243420
_cell_angle_gamma   33.00643543
_symmetry_Int_Tables_number   1
_chemical_formula_structural   KLaPdO3
_chemical_formula_sum   'K2 La2 Pd2 O6'
_cell_volume   199.34670591
_cell_formula_units_Z   2
loop_
 _symmetry_equiv_pos_site_id
 _symmetry_equiv_pos_as_xyz
  1  'x, y, z'
loop_
 _atom_site_type_symbol
 _atom_site_label
 _atom_site_symmetry_multiplicity
 _atom_site_fract_x
 _atom_site_fract_y
 _atom_site_fract_z
 _atom_site_occupancy
  K  K0  1  0.35713600  0.35713600  0.56552700  1
  K  K1  1  0.64286400  0.64286400  0.43447300  1
  La  La2  1  0.65037200  0.65037200  0.91699800  1
  La  La3  1  0.34962800  0.34962800  0.08300200  1
  Pd  Pd4  1  0.00692500  0.00692500  0.22848800  1
  Pd  Pd5  1  0.99307500  0.99307500  0.77151100  1
  O  O6  1  0.84864300  0.84864300  0.28357100  1
  O  O7  1  0.83229000  0.83229000  0.86416900  1
  O  O8  1  0.50706800  0.50706800  0.18942400  1
  O  O9  1  0.16771000  0.16771000  0.13583100  1
  O  O10  1  0.49293200  0.49293200  0.81057600  1
  O  O11  1  0.15135700  0.15135700  0.71642900  1
