# generated using pymatgen
data_RbNi2F6
_symmetry_space_group_name_H-M   'P 1'
_cell_length_a   7.21724517
_cell_length_b   7.21724517
_cell_length_c   7.21724517
_cell_angle_alpha   60.00000000
_cell_angle_beta   60.00000000
_cell_angle_gamma   60.00000000
_symmetry_Int_Tables_number   1
_chemical_formula_structural   RbNi2F6
_chemical_formula_sum   'Rb2 Ni4 F12'
_cell_volume   265.82717594
_cell_formula_units_Z   2
loop_
 _symmetry_equiv_pos_site_id
 _symmetry_equiv_pos_as_xyz
  1  'x, y, z'
loop_
 _atom_site_type_symbol
 _atom_site_label
 _atom_site_symmetry_multiplicity
 _atom_site_fract_x
 _atom_site_fract_y
 _atom_site_fract_z
 _atom_site_occupancy
  Rb  Rb0  1  0.25000000  0.25000000  0.25000000  1
  Rb  Rb1  1  0.00000000  0.00000000  0.00000000  1
  Ni  Ni2  1  0.12500000  0.62500000  0.62500000  1
  Ni  Ni3  1  0.62500000  0.62500000  0.12500000  1
  Ni  Ni4  1  0.62500000  0.12500000  0.62500000  1
  Ni  Ni5  1  0.62500000  0.62500000  0.62500000  1
  F  F6  1  0.94700700  0.55299300  0.55299300  1
  F  F7  1  0.30299300  0.30299300  0.69700700  1
  F  F8  1  0.69700700  0.69700700  0.30299300  1
  F  F9  1  0.55299300  0.94700700  0.94700700  1
  F  F10  1  0.30299300  0.69700700  0.69700700  1
  F  F11  1  0.94700700  0.94700700  0.55299300  1
  F  F12  1  0.55299300  0.94700700  0.55299300  1
  F  F13  1  0.69700700  0.30299300  0.69700700  1
  F  F14  1  0.30299300  0.69700700  0.30299300  1
  F  F15  1  0.94700700  0.55299300  0.94700700  1
  F  F16  1  0.69700700  0.30299300  0.30299300  1
  F  F17  1  0.55299300  0.55299300  0.94700700  1
