# generated using pymatgen
data_Sr10Al4Si6O
_symmetry_space_group_name_H-M   'P 1'
_cell_length_a   11.66225003
_cell_length_b   11.66225003
_cell_length_c   11.66225003
_cell_angle_alpha   156.06332352
_cell_angle_beta   110.11897042
_cell_angle_gamma   75.05065142
_symmetry_Int_Tables_number   1
_chemical_formula_structural   Sr10Al4Si6O
_chemical_formula_sum   'Sr10 Al4 Si6 O1'
_cell_volume   597.61470341
_cell_formula_units_Z   1
loop_
 _symmetry_equiv_pos_site_id
 _symmetry_equiv_pos_as_xyz
  1  'x, y, z'
loop_
 _atom_site_type_symbol
 _atom_site_label
 _atom_site_symmetry_multiplicity
 _atom_site_fract_x
 _atom_site_fract_y
 _atom_site_fract_z
 _atom_site_occupancy
  Sr  Sr0  1  0.84364800  0.84364800  0.00000000  1
  Sr  Sr1  1  0.18713700  0.00000000  0.18713700  1
  Sr  Sr2  1  0.46985600  0.80683500  0.66302000  1
  Sr  Sr3  1  0.85618500  0.19316500  0.66302000  1
  Sr  Sr4  1  0.81286300  0.00000000  0.81286300  1
  Sr  Sr5  1  0.00000000  0.50000000  0.50000000  1
  Sr  Sr6  1  0.15635200  0.15635200  0.00000000  1
  Sr  Sr7  1  0.53014400  0.19316500  0.33698000  1
  Sr  Sr8  1  0.50000000  0.00000000  0.50000000  1
  Sr  Sr9  1  0.14381500  0.80683500  0.33698000  1
  Al  Al10  1  0.41317600  0.57062400  0.84255200  1
  Al  Al11  1  0.27192800  0.42937600  0.84255200  1
  Al  Al12  1  0.58682400  0.42937600  0.15744800  1
  Al  Al13  1  0.72807200  0.57062400  0.15744800  1
  Si  Si14  1  0.69001900  0.36821800  0.32180100  1
  Si  Si15  1  0.64561700  0.64561700  0.00000000  1
  Si  Si16  1  0.30998100  0.63178200  0.67819900  1
  Si  Si17  1  0.35438300  0.35438300  0.00000000  1
  Si  Si18  1  0.04641700  0.36821800  0.67819900  1
  Si  Si19  1  0.95358300  0.63178200  0.32180100  1
  O  O20  1  0.00000000  0.00000000  0.00000000  1
