# generated using pymatgen
data_FeMoO4
_symmetry_space_group_name_H-M   'P 1'
_cell_length_a   6.76965770
_cell_length_b   6.76896445
_cell_length_c   7.80593225
_cell_angle_alpha   72.55035638
_cell_angle_beta   72.52258545
_cell_angle_gamma   84.99720173
_symmetry_Int_Tables_number   1
_chemical_formula_structural   FeMoO4
_chemical_formula_sum   'Fe4 Mo4 O16'
_cell_volume   325.48028689
_cell_formula_units_Z   4
loop_
 _symmetry_equiv_pos_site_id
 _symmetry_equiv_pos_as_xyz
  1  'x, y, z'
loop_
 _atom_site_type_symbol
 _atom_site_label
 _atom_site_symmetry_multiplicity
 _atom_site_fract_x
 _atom_site_fract_y
 _atom_site_fract_z
 _atom_site_occupancy
  Fe  Fe0  1  0.69641100  0.30343500  0.50011200  1
  Fe  Fe1  1  0.30592000  0.30602500  0.84530400  1
  Fe  Fe2  1  0.69430700  0.69415300  0.15450700  1
  Fe  Fe3  1  0.30370100  0.69613400  0.50001300  1
  Mo  Mo4  1  0.71252800  0.71230100  0.64186800  1
  Mo  Mo5  1  0.28765000  0.28729300  0.35822000  1
  Mo  Mo6  1  0.28649400  0.71356200  0.99999300  1
  Mo  Mo7  1  0.71335000  0.28677200  0.99994100  1
  O  O8  1  0.65047500  0.65144900  0.91558600  1
  O  O9  1  0.34886400  0.34931600  0.08415600  1
  O  O10  1  0.35037200  0.34951500  0.56148800  1
  O  O11  1  0.65031100  0.64928500  0.43879800  1
  O  O12  1  0.64035900  0.34256700  0.23951100  1
  O  O13  1  0.34256900  0.64081400  0.23924200  1
  O  O14  1  0.35933500  0.65765700  0.76066300  1
  O  O15  1  0.65757600  0.35962500  0.76059600  1
  O  O16  1  0.98418300  0.68314200  0.58264000  1
  O  O17  1  0.68314600  0.98387600  0.58315100  1
  O  O18  1  0.01609600  0.31685800  0.41682200  1
  O  O19  1  0.31684700  0.01597700  0.41731500  1
  O  O20  1  0.31821900  0.98394100  0.92813800  1
  O  O21  1  0.98369200  0.31838400  0.92895700  1
  O  O22  1  0.01600700  0.68174700  0.07215800  1
  O  O23  1  0.68158700  0.01617000  0.07082200  1
