# generated using pymatgen
data_MnBiO3
_symmetry_space_group_name_H-M   'P 1'
_cell_length_a   5.48692300
_cell_length_b   10.50010000
_cell_length_c   11.04739496
_cell_angle_alpha   60.65049686
_cell_angle_beta   90.00000000
_cell_angle_gamma   90.00000000
_symmetry_Int_Tables_number   1
_chemical_formula_structural   MnBiO3
_chemical_formula_sum   'Mn8 Bi8 O24'
_cell_volume   554.78202976
_cell_formula_units_Z   8
loop_
 _symmetry_equiv_pos_site_id
 _symmetry_equiv_pos_as_xyz
  1  'x, y, z'
loop_
 _atom_site_type_symbol
 _atom_site_label
 _atom_site_symmetry_multiplicity
 _atom_site_fract_x
 _atom_site_fract_y
 _atom_site_fract_z
 _atom_site_occupancy
  Mn  Mn0  1  0.53140100  0.69777500  0.72037100  1
  Mn  Mn1  1  0.03140100  0.30222500  0.77962900  1
  Mn  Mn2  1  0.00000000  0.50000000  0.00000000  1
  Mn  Mn3  1  0.00000000  0.00000000  0.00000000  1
  Mn  Mn4  1  0.46859900  0.30222500  0.27962900  1
  Mn  Mn5  1  0.50000000  0.00000000  0.50000000  1
  Mn  Mn6  1  0.96859900  0.69777500  0.22037100  1
  Mn  Mn7  1  0.50000000  0.50000000  0.50000000  1
  Bi  Bi8  1  0.47856100  0.30041000  0.97550900  1
  Bi  Bi9  1  0.97856100  0.69959000  0.52449100  1
  Bi  Bi10  1  0.02143900  0.30041000  0.47550900  1
  Bi  Bi11  1  0.50062900  0.14983200  0.73522300  1
  Bi  Bi12  1  0.52143900  0.69959000  0.02449100  1
  Bi  Bi13  1  0.00062900  0.85016800  0.76477700  1
  Bi  Bi14  1  0.49937100  0.85016800  0.26477700  1
  Bi  Bi15  1  0.99937100  0.14983200  0.23522300  1
  O  O16  1  0.83399100  0.37787500  0.61509400  1
  O  O17  1  0.59540900  0.89173000  0.82597900  1
  O  O18  1  0.92150700  0.65246000  0.04677800  1
  O  O19  1  0.16563100  0.38040700  0.18329300  1
  O  O20  1  0.28254000  0.83822700  0.60481100  1
  O  O21  1  0.40459100  0.10827000  0.17402100  1
  O  O22  1  0.90459100  0.89173000  0.32597900  1
  O  O23  1  0.66600900  0.37787500  0.11509400  1
  O  O24  1  0.26376400  0.12990000  0.90710100  1
  O  O25  1  0.33436900  0.38040700  0.68329300  1
  O  O26  1  0.57849300  0.65246000  0.54677800  1
  O  O27  1  0.33399100  0.62212500  0.88490600  1
  O  O28  1  0.07849300  0.34754000  0.95322200  1
  O  O29  1  0.73623600  0.87010000  0.09289900  1
  O  O30  1  0.66563100  0.61959300  0.31670700  1
  O  O31  1  0.42150700  0.34754000  0.45322200  1
  O  O32  1  0.16600900  0.62212500  0.38490600  1
  O  O33  1  0.78254000  0.16177300  0.89518900  1
  O  O34  1  0.83436900  0.61959300  0.81670700  1
  O  O35  1  0.71746000  0.16177300  0.39518900  1
  O  O36  1  0.23623600  0.12990000  0.40710100  1
  O  O37  1  0.21746000  0.83822700  0.10481100  1
  O  O38  1  0.09540900  0.10827000  0.67402100  1
  O  O39  1  0.76376400  0.87010000  0.59289900  1
