# generated using pymatgen
data_Ti2NiOs
_symmetry_space_group_name_H-M   'P 1'
_cell_length_a   10.39735240
_cell_length_b   10.39735240
_cell_length_c   10.39735240
_cell_angle_alpha   128.76753655
_cell_angle_beta   117.18629636
_cell_angle_gamma   85.23625185
_symmetry_Int_Tables_number   1
_chemical_formula_structural   Ti2NiOs
_chemical_formula_sum   'Ti2 Ni1 Os1'
_cell_volume   745.40872241
_cell_formula_units_Z   1
loop_
 _symmetry_equiv_pos_site_id
 _symmetry_equiv_pos_as_xyz
  1  'x, y, z'
loop_
 _atom_site_type_symbol
 _atom_site_label
 _atom_site_symmetry_multiplicity
 _atom_site_fract_x
 _atom_site_fract_y
 _atom_site_fract_z
 _atom_site_occupancy
  Ti  Ti0  1  0.00000000  0.25474100  0.25474100  1
  Ti  Ti1  1  0.00000000  0.74525900  0.74525900  1
  Ni  Ni2  1  0.00000000  0.00000000  0.00000000  1
  Os  Os3  1  0.00000000  0.50000000  0.50000000  1
