# generated using pymatgen
data_Ag3SNO3
_symmetry_space_group_name_H-M   'P 1'
_cell_length_a   8.04734100
_cell_length_b   8.04734100
_cell_length_c   8.04734100
_cell_angle_alpha   90.00000000
_cell_angle_beta   90.00000000
_cell_angle_gamma   90.00000000
_symmetry_Int_Tables_number   1
_chemical_formula_structural   Ag3SNO3
_chemical_formula_sum   'Ag12 S4 N4 O12'
_cell_volume   521.14336619
_cell_formula_units_Z   4
loop_
 _symmetry_equiv_pos_site_id
 _symmetry_equiv_pos_as_xyz
  1  'x, y, z'
loop_
 _atom_site_type_symbol
 _atom_site_label
 _atom_site_symmetry_multiplicity
 _atom_site_fract_x
 _atom_site_fract_y
 _atom_site_fract_z
 _atom_site_occupancy
  Ag  Ag0  1  0.31567200  0.98052000  0.35812000  1
  Ag  Ag1  1  0.48052000  0.14188000  0.68432800  1
  Ag  Ag2  1  0.01948000  0.85812000  0.18432800  1
  Ag  Ag3  1  0.81567200  0.51948000  0.64188000  1
  Ag  Ag4  1  0.35812000  0.31567200  0.98052000  1
  Ag  Ag5  1  0.51948000  0.64188000  0.81567200  1
  Ag  Ag6  1  0.68432800  0.48052000  0.14188000  1
  Ag  Ag7  1  0.14188000  0.68432800  0.48052000  1
  Ag  Ag8  1  0.64188000  0.81567200  0.51948000  1
  Ag  Ag9  1  0.98052000  0.35812000  0.31567200  1
  Ag  Ag10  1  0.85812000  0.18432800  0.01948000  1
  Ag  Ag11  1  0.18432800  0.01948000  0.85812000  1
  S  S12  1  0.85683000  0.64317000  0.35683000  1
  S  S13  1  0.14317000  0.14317000  0.14317000  1
  S  S14  1  0.64317000  0.35683000  0.85683000  1
  S  S15  1  0.35683000  0.85683000  0.64317000  1
  N  N16  1  0.07927300  0.57927300  0.92072700  1
  N  N17  1  0.92072700  0.07927300  0.57927300  1
  N  N18  1  0.42072700  0.42072700  0.42072700  1
  N  N19  1  0.57927300  0.92072700  0.07927300  1
  O  O20  1  0.69111000  0.92131900  0.96778800  1
  O  O21  1  0.46778800  0.80889000  0.07868100  1
  O  O22  1  0.07868100  0.46778800  0.80889000  1
  O  O23  1  0.92131900  0.96778800  0.69111000  1
  O  O24  1  0.03221200  0.19111000  0.57868100  1
  O  O25  1  0.96778800  0.69111000  0.92131900  1
  O  O26  1  0.30889000  0.42131900  0.53221200  1
  O  O27  1  0.57868100  0.03221200  0.19111000  1
  O  O28  1  0.19111000  0.57868100  0.03221200  1
  O  O29  1  0.80889000  0.07868100  0.46778800  1
  O  O30  1  0.53221200  0.30889000  0.42131900  1
  O  O31  1  0.42131900  0.53221200  0.30889000  1
