# generated using pymatgen
data_GaS
_symmetry_space_group_name_H-M   'P 1'
_cell_length_a   3.62351608
_cell_length_b   3.62351608
_cell_length_c   17.40252300
_cell_angle_alpha   90.00000000
_cell_angle_beta   90.00000000
_cell_angle_gamma   120.00000147
_symmetry_Int_Tables_number   1
_chemical_formula_structural   GaS
_chemical_formula_sum   'Ga4 S4'
_cell_volume   197.88060415
_cell_formula_units_Z   4
loop_
 _symmetry_equiv_pos_site_id
 _symmetry_equiv_pos_as_xyz
  1  'x, y, z'
loop_
 _atom_site_type_symbol
 _atom_site_label
 _atom_site_symmetry_multiplicity
 _atom_site_fract_x
 _atom_site_fract_y
 _atom_site_fract_z
 _atom_site_occupancy
  Ga  Ga0  1  0.00000000  0.00000000  0.17915800  1
  Ga  Ga1  1  0.00000000  0.00000000  0.67915800  1
  Ga  Ga2  1  0.00000000  0.00000000  0.32084200  1
  Ga  Ga3  1  0.00000000  0.00000000  0.82084200  1
  S  S4  1  0.66666700  0.33333300  0.11696700  1
  S  S5  1  0.33333300  0.66666700  0.61696700  1
  S  S6  1  0.66666700  0.33333300  0.38303300  1
  S  S7  1  0.33333300  0.66666700  0.88303300  1
