# generated using pymatgen
data_SiO2
_symmetry_space_group_name_H-M   'P 1'
_cell_length_a   5.92734480
_cell_length_b   5.92734480
_cell_length_c   5.92734495
_cell_angle_alpha   89.14851939
_cell_angle_beta   89.14851939
_cell_angle_gamma   89.14852505
_symmetry_Int_Tables_number   1
_chemical_formula_structural   SiO2
_chemical_formula_sum   'Si6 O12'
_cell_volume   208.17956763
_cell_formula_units_Z   6
loop_
 _symmetry_equiv_pos_site_id
 _symmetry_equiv_pos_as_xyz
  1  'x, y, z'
loop_
 _atom_site_type_symbol
 _atom_site_label
 _atom_site_symmetry_multiplicity
 _atom_site_fract_x
 _atom_site_fract_y
 _atom_site_fract_z
 _atom_site_occupancy
  Si  Si0  1  0.87490400  0.25000000  0.62509600  1
  Si  Si1  1  0.37490400  0.12509600  0.75000000  1
  Si  Si2  1  0.75000000  0.37490400  0.12509600  1
  Si  Si3  1  0.12509600  0.75000000  0.37490400  1
  Si  Si4  1  0.25000000  0.62509600  0.87490400  1
  Si  Si5  1  0.62509600  0.87490400  0.25000000  1
  O  O6  1  0.63054100  0.12384900  0.12575300  1
  O  O7  1  0.62575300  0.62384900  0.13054100  1
  O  O8  1  0.86945900  0.37424700  0.37615100  1
  O  O9  1  0.13054100  0.62575300  0.62384900  1
  O  O10  1  0.12384900  0.12575300  0.63054100  1
  O  O11  1  0.37615100  0.86945900  0.37424700  1
  O  O12  1  0.36945900  0.87615100  0.87424700  1
  O  O13  1  0.62384900  0.13054100  0.62575300  1
  O  O14  1  0.87424700  0.36945900  0.87615100  1
  O  O15  1  0.37424700  0.37615100  0.86945900  1
  O  O16  1  0.12575300  0.63054100  0.12384900  1
  O  O17  1  0.87615100  0.87424700  0.36945900  1
