# generated using pymatgen
data_ZnS
_symmetry_space_group_name_H-M   'P 1'
_cell_length_a   3.85195175
_cell_length_b   3.85195175
_cell_length_c   44.10287500
_cell_angle_alpha   90.00000000
_cell_angle_beta   90.00000000
_cell_angle_gamma   119.99999574
_symmetry_Int_Tables_number   1
_chemical_formula_structural   ZnS
_chemical_formula_sum   'Zn14 S14'
_cell_volume   566.70785083
_cell_formula_units_Z   14
loop_
 _symmetry_equiv_pos_site_id
 _symmetry_equiv_pos_as_xyz
  1  'x, y, z'
loop_
 _atom_site_type_symbol
 _atom_site_label
 _atom_site_symmetry_multiplicity
 _atom_site_fract_x
 _atom_site_fract_y
 _atom_site_fract_z
 _atom_site_occupancy
  Zn  Zn0  1  0.00000000  0.00000000  0.14286400  1
  Zn  Zn1  1  0.33333300  0.66666700  0.21428600  1
  Zn  Zn2  1  0.66666700  0.33333300  0.07143400  1
  Zn  Zn3  1  0.00000000  0.00000000  0.78572300  1
  Zn  Zn4  1  0.33333300  0.66666700  0.71429700  1
  Zn  Zn5  1  0.00000000  0.00000000  0.64285100  1
  Zn  Zn6  1  0.33333300  0.66666700  0.35716200  1
  Zn  Zn7  1  0.33333300  0.66666700  0.00001900  1
  Zn  Zn8  1  0.00000000  0.00000000  0.42857300  1
  Zn  Zn9  1  0.00000000  0.00000000  0.92858500  1
  Zn  Zn10  1  0.66666700  0.33333300  0.28571300  1
  Zn  Zn11  1  0.66666700  0.33333300  0.50000400  1
  Zn  Zn12  1  0.33333300  0.66666700  0.57142700  1
  Zn  Zn13  1  0.33333300  0.66666700  0.85714900  1
  S  S14  1  0.33333300  0.66666700  0.76785000  1
  S  S15  1  0.00000000  0.00000000  0.98217900  1
  S  S16  1  0.00000000  0.00000000  0.19642800  1
  S  S17  1  0.66666700  0.33333300  0.33932500  1
  S  S18  1  0.00000000  0.00000000  0.69642700  1
  S  S19  1  0.33333300  0.66666700  0.41070400  1
  S  S20  1  0.33333300  0.66666700  0.91070400  1
  S  S21  1  0.33333300  0.66666700  0.26781000  1
  S  S22  1  0.66666700  0.33333300  0.55356400  1
  S  S23  1  0.00000000  0.00000000  0.83927700  1
  S  S24  1  0.33333300  0.66666700  0.05356300  1
  S  S25  1  0.00000000  0.00000000  0.48213500  1
  S  S26  1  0.33333300  0.66666700  0.62495100  1
  S  S27  1  0.66666700  0.33333300  0.12499500  1
