# generated using pymatgen
data_CuH12(N5O4)2
_symmetry_space_group_name_H-M   'P 1'
_cell_length_a   6.69586100
_cell_length_b   7.49519404
_cell_length_c   7.63537022
_cell_angle_alpha   96.93534363
_cell_angle_beta   110.92267186
_cell_angle_gamma   115.23723431
_symmetry_Int_Tables_number   1
_chemical_formula_structural   CuH12(N5O4)2
_chemical_formula_sum   'Cu1 H12 N10 O8'
_cell_volume   306.39626464
_cell_formula_units_Z   1
loop_
 _symmetry_equiv_pos_site_id
 _symmetry_equiv_pos_as_xyz
  1  'x, y, z'
loop_
 _atom_site_type_symbol
 _atom_site_label
 _atom_site_symmetry_multiplicity
 _atom_site_fract_x
 _atom_site_fract_y
 _atom_site_fract_z
 _atom_site_occupancy
  Cu  Cu0  1  0.00000000  0.50000000  0.00000000  1
  H  H1  1  0.95429400  0.20288200  0.74173800  1
  H  H2  1  0.72923800  0.22791800  0.11515800  1
  H  H3  1  0.97819800  0.70871300  0.76188600  1
  H  H4  1  0.84341400  0.11600600  0.01382400  1
  H  H5  1  0.16518800  0.42892700  0.74981900  1
  H  H6  1  0.04570600  0.79711800  0.25826200  1
  H  H7  1  0.02180200  0.29128700  0.23811400  1
  H  H8  1  0.27076200  0.77208200  0.88484200  1
  H  H9  1  0.83481200  0.57107300  0.25018100  1
  H  H10  1  0.23542200  0.32888200  0.92917200  1
  H  H11  1  0.15658600  0.88399400  0.98617600  1
  H  H12  1  0.76457800  0.67111800  0.07082800  1
  N  N13  1  0.09871000  0.34901900  0.83496900  1
  N  N14  1  0.40472000  0.18583300  0.59745700  1
  N  N15  1  0.90129000  0.65098100  0.16503100  1
  N  N16  1  0.88531700  0.25515600  0.10034900  1
  N  N17  1  0.33554300  0.12851500  0.39516000  1
  N  N18  1  0.66445700  0.87148500  0.60484000  1
  N  N19  1  0.59528000  0.81416700  0.40254300  1
  N  N20  1  0.11468300  0.74484400  0.89965100  1
  N  N21  1  0.50034000  0.74431000  0.66228100  1
  N  N22  1  0.49966000  0.25569000  0.33771900  1
  O  O23  1  0.41251000  0.20506200  0.15045200  1
  O  O24  1  0.71638200  0.39745600  0.44974500  1
  O  O25  1  0.44702300  0.63215900  0.28716800  1
  O  O26  1  0.55297700  0.36784100  0.71283200  1
  O  O27  1  0.28361800  0.60254400  0.55025500  1
  O  O28  1  0.71061000  0.96228700  0.35272100  1
  O  O29  1  0.58749000  0.79493800  0.84954800  1
  O  O30  1  0.28939000  0.03771300  0.64727900  1
