# generated using pymatgen
data_MgSiO3
_symmetry_space_group_name_H-M   'P 1'
_cell_length_a   5.29015900
_cell_length_b   9.18506900
_cell_length_c   18.42924100
_cell_angle_alpha   90.00000000
_cell_angle_beta   90.00000000
_cell_angle_gamma   90.00000000
_symmetry_Int_Tables_number   1
_chemical_formula_structural   MgSiO3
_chemical_formula_sum   'Mg16 Si16 O48'
_cell_volume   895.48558211
_cell_formula_units_Z   16
loop_
 _symmetry_equiv_pos_site_id
 _symmetry_equiv_pos_as_xyz
  1  'x, y, z'
loop_
 _atom_site_type_symbol
 _atom_site_label
 _atom_site_symmetry_multiplicity
 _atom_site_fract_x
 _atom_site_fract_y
 _atom_site_fract_z
 _atom_site_occupancy
  Mg  Mg0  1  0.64417100  0.15532500  0.38982700  1
  Mg  Mg1  1  0.14417100  0.34467500  0.38982700  1
  Mg  Mg2  1  0.15457600  0.49552700  0.13357200  1
  Mg  Mg3  1  0.85582900  0.15532500  0.88982700  1
  Mg  Mg4  1  0.65457600  0.50447300  0.36642800  1
  Mg  Mg5  1  0.64417100  0.65532500  0.11017300  1
  Mg  Mg6  1  0.84542400  0.00447300  0.63357200  1
  Mg  Mg7  1  0.14417100  0.84467500  0.11017300  1
  Mg  Mg8  1  0.15457600  0.99552700  0.36642800  1
  Mg  Mg9  1  0.65457600  0.00447300  0.13357200  1
  Mg  Mg10  1  0.35582900  0.84467500  0.61017300  1
  Mg  Mg11  1  0.34542400  0.49552700  0.63357200  1
  Mg  Mg12  1  0.34542400  0.99552700  0.86642800  1
  Mg  Mg13  1  0.35582900  0.34467500  0.88982700  1
  Mg  Mg14  1  0.85582900  0.65532500  0.61017300  1
  Mg  Mg15  1  0.84542400  0.50447300  0.86642800  1
  Si  Si16  1  0.57778400  0.78275600  0.74045600  1
  Si  Si17  1  0.57778400  0.28275600  0.75954400  1
  Si  Si18  1  0.20175500  0.16604200  0.03482400  1
  Si  Si19  1  0.29824500  0.66604200  0.96517600  1
  Si  Si20  1  0.92221600  0.28275600  0.25954400  1
  Si  Si21  1  0.92221600  0.78275600  0.24045600  1
  Si  Si22  1  0.07778400  0.71724400  0.74045600  1
  Si  Si23  1  0.07778400  0.21724400  0.75954400  1
  Si  Si24  1  0.79824500  0.83395800  0.96517600  1
  Si  Si25  1  0.70175500  0.33395800  0.03482400  1
  Si  Si26  1  0.42221600  0.21724400  0.25954400  1
  Si  Si27  1  0.79824500  0.33395800  0.53482400  1
  Si  Si28  1  0.29824500  0.16604200  0.53482400  1
  Si  Si29  1  0.70175500  0.83395800  0.46517600  1
  Si  Si30  1  0.42221600  0.71724400  0.24045600  1
  Si  Si31  1  0.20175500  0.66604200  0.46517600  1
  O  O32  1  0.19650400  0.65593300  0.55399100  1
  O  O33  1  0.67865000  0.23288100  0.20670700  1
  O  O34  1  0.68184500  0.97141500  0.92305600  1
  O  O35  1  0.92943700  0.44040900  0.29873800  1
  O  O36  1  0.54075500  0.17117000  0.82773400  1
  O  O37  1  0.17865000  0.26711900  0.20670700  1
  O  O38  1  0.68184500  0.47141500  0.57694400  1
  O  O39  1  0.18184500  0.02858500  0.57694400  1
  O  O40  1  0.04075500  0.32883000  0.82773400  1
  O  O41  1  0.92943700  0.94040900  0.20126200  1
  O  O42  1  0.07056300  0.05959100  0.79873800  1
  O  O43  1  0.31815500  0.52858500  0.42305600  1
  O  O44  1  0.95924500  0.67117000  0.17226600  1
  O  O45  1  0.07056300  0.55959100  0.70126200  1
  O  O46  1  0.82135000  0.73288100  0.79329300  1
  O  O47  1  0.45924500  0.82883000  0.17226600  1
  O  O48  1  0.89286400  0.19209600  0.05843700  1
  O  O49  1  0.69650400  0.84406700  0.55399100  1
  O  O50  1  0.19650400  0.15593300  0.94600900  1
  O  O51  1  0.30349600  0.15593300  0.44600900  1
  O  O52  1  0.89286400  0.69209600  0.44156300  1
  O  O53  1  0.10713600  0.80790400  0.94156300  1
  O  O54  1  0.60713600  0.19209600  0.55843700  1
  O  O55  1  0.82135000  0.23288100  0.70670700  1
  O  O56  1  0.60713600  0.69209600  0.94156300  1
  O  O57  1  0.95924500  0.17117000  0.32773400  1
  O  O58  1  0.67865000  0.73288100  0.29329300  1
  O  O59  1  0.80349600  0.84406700  0.05399100  1
  O  O60  1  0.32135000  0.76711900  0.79329300  1
  O  O61  1  0.57056300  0.44040900  0.79873800  1
  O  O62  1  0.18184500  0.52858500  0.92305600  1
  O  O63  1  0.80349600  0.34406700  0.44600900  1
  O  O64  1  0.69650400  0.34406700  0.94600900  1
  O  O65  1  0.42943700  0.05959100  0.29873800  1
  O  O66  1  0.45924500  0.32883000  0.32773400  1
  O  O67  1  0.04075500  0.82883000  0.67226600  1
  O  O68  1  0.32135000  0.26711900  0.70670700  1
  O  O69  1  0.31815500  0.02858500  0.07694400  1
  O  O70  1  0.39286400  0.30790400  0.05843700  1
  O  O71  1  0.39286400  0.80790400  0.44156300  1
  O  O72  1  0.42943700  0.55959100  0.20126200  1
  O  O73  1  0.17865000  0.76711900  0.29329300  1
  O  O74  1  0.81815500  0.97141500  0.42305600  1
  O  O75  1  0.81815500  0.47141500  0.07694400  1
  O  O76  1  0.54075500  0.67117000  0.67226600  1
  O  O77  1  0.10713600  0.30790400  0.55843700  1
  O  O78  1  0.57056300  0.94040900  0.70126200  1
  O  O79  1  0.30349600  0.65593300  0.05399100  1
