# generated using pymatgen
data_Na2S
_symmetry_space_group_name_H-M   'P 1'
_cell_length_a   4.34441000
_cell_length_b   7.14429900
_cell_length_c   8.39237500
_cell_angle_alpha   90.00000000
_cell_angle_beta   90.00000000
_cell_angle_gamma   90.00000000
_symmetry_Int_Tables_number   1
_chemical_formula_structural   Na2S
_chemical_formula_sum   'Na8 S4'
_cell_volume   260.48055481
_cell_formula_units_Z   4
loop_
 _symmetry_equiv_pos_site_id
 _symmetry_equiv_pos_as_xyz
  1  'x, y, z'
loop_
 _atom_site_type_symbol
 _atom_site_label
 _atom_site_symmetry_multiplicity
 _atom_site_fract_x
 _atom_site_fract_y
 _atom_site_fract_z
 _atom_site_occupancy
  Na  Na0  1  0.25000000  0.14862700  0.42724700  1
  Na  Na1  1  0.75000000  0.47787600  0.32892100  1
  Na  Na2  1  0.75000000  0.97787600  0.17107900  1
  Na  Na3  1  0.75000000  0.35137300  0.92724700  1
  Na  Na4  1  0.25000000  0.52212400  0.67107900  1
  Na  Na5  1  0.75000000  0.85137300  0.57275300  1
  Na  Na6  1  0.25000000  0.64862700  0.07275300  1
  Na  Na7  1  0.25000000  0.02212400  0.82892100  1
  S  S8  1  0.25000000  0.75401700  0.38816200  1
  S  S9  1  0.25000000  0.25401700  0.11183800  1
  S  S10  1  0.75000000  0.74598300  0.88816200  1
  S  S11  1  0.75000000  0.24598300  0.61183800  1
