# generated using pymatgen
data_Na2TlAs
_symmetry_space_group_name_H-M   'P 1'
_cell_length_a   13.06135262
_cell_length_b   13.06135262
_cell_length_c   13.06135262
_cell_angle_alpha   123.91731942
_cell_angle_beta   119.17983263
_cell_angle_gamma   87.38936843
_symmetry_Int_Tables_number   1
_chemical_formula_structural   Na2TlAs
_chemical_formula_sum   'Na2 Tl1 As1'
_cell_volume   1533.51975516
_cell_formula_units_Z   1
loop_
 _symmetry_equiv_pos_site_id
 _symmetry_equiv_pos_as_xyz
  1  'x, y, z'
loop_
 _atom_site_type_symbol
 _atom_site_label
 _atom_site_symmetry_multiplicity
 _atom_site_fract_x
 _atom_site_fract_y
 _atom_site_fract_z
 _atom_site_occupancy
  Na  Na0  1  0.00000000  0.23426900  0.23426900  1
  Na  Na1  1  0.00000000  0.76573100  0.76573100  1
  Tl  Tl2  1  0.00000000  0.50000000  0.50000000  1
  As  As3  1  0.00000000  0.00000000  0.00000000  1
