# generated using pymatgen
data_Dy3BWO9
_symmetry_space_group_name_H-M   'P 1'
_cell_length_a   8.57578107
_cell_length_b   8.57578107
_cell_length_c   5.39747900
_cell_angle_alpha   90.00000000
_cell_angle_beta   90.00000000
_cell_angle_gamma   119.99999286
_symmetry_Int_Tables_number   1
_chemical_formula_structural   Dy3BWO9
_chemical_formula_sum   'Dy6 B2 W2 O18'
_cell_volume   343.77080850
_cell_formula_units_Z   2
loop_
 _symmetry_equiv_pos_site_id
 _symmetry_equiv_pos_as_xyz
  1  'x, y, z'
loop_
 _atom_site_type_symbol
 _atom_site_label
 _atom_site_symmetry_multiplicity
 _atom_site_fract_x
 _atom_site_fract_y
 _atom_site_fract_z
 _atom_site_occupancy
  Dy  Dy0  1  0.27751100  0.35590500  0.69900900  1
  Dy  Dy1  1  0.72248900  0.64409500  0.19900900  1
  Dy  Dy2  1  0.35590500  0.07839400  0.19900900  1
  Dy  Dy3  1  0.64409500  0.92160600  0.69900900  1
  Dy  Dy4  1  0.92160600  0.27751100  0.19900900  1
  Dy  Dy5  1  0.07839400  0.72248900  0.69900900  1
  B  B6  1  0.00000000  0.00000000  0.87336900  1
  B  B7  1  0.00000000  0.00000000  0.37336900  1
  W  W8  1  0.66666700  0.33333300  0.74170900  1
  W  W9  1  0.33333300  0.66666700  0.24170900  1
  O  O10  1  0.53875300  0.74102500  0.03256300  1
  O  O11  1  0.46124700  0.25897500  0.53256300  1
  O  O12  1  0.25897500  0.79772800  0.03256300  1
  O  O13  1  0.05948300  0.87751300  0.36447600  1
  O  O14  1  0.94051700  0.12248700  0.86447600  1
  O  O15  1  0.20227200  0.46124700  0.03256300  1
  O  O16  1  0.51798000  0.38807100  0.97279200  1
  O  O17  1  0.79772800  0.53875300  0.53256300  1
  O  O18  1  0.81802900  0.94051700  0.36447600  1
  O  O19  1  0.74102500  0.20227200  0.53256300  1
  O  O20  1  0.12248700  0.18197100  0.36447600  1
  O  O21  1  0.87009200  0.48202000  0.97279200  1
  O  O22  1  0.61192900  0.12990800  0.97279200  1
  O  O23  1  0.48202000  0.61192900  0.47279200  1
  O  O24  1  0.12990800  0.51798000  0.47279200  1
  O  O25  1  0.18197100  0.05948300  0.86447600  1
  O  O26  1  0.87751300  0.81802900  0.86447600  1
  O  O27  1  0.38807100  0.87009200  0.47279200  1
