# generated using pymatgen
data_S
_symmetry_space_group_name_H-M   'P 1'
_cell_length_a   11.85470283
_cell_length_b   11.85470283
_cell_length_c   9.65966841
_cell_angle_alpha   78.83428965
_cell_angle_beta   78.83428965
_cell_angle_gamma   50.26201398
_symmetry_Int_Tables_number   1
_chemical_formula_structural   S
_chemical_formula_sum   S32
_cell_volume   1019.73460331
_cell_formula_units_Z   32
loop_
 _symmetry_equiv_pos_site_id
 _symmetry_equiv_pos_as_xyz
  1  'x, y, z'
loop_
 _atom_site_type_symbol
 _atom_site_label
 _atom_site_symmetry_multiplicity
 _atom_site_fract_x
 _atom_site_fract_y
 _atom_site_fract_z
 _atom_site_occupancy
  S  S0  1  0.11801200  0.46551900  0.13853800  1
  S  S1  1  0.48888900  0.08435600  0.30719600  1
  S  S2  1  0.36373200  0.74207900  0.04251400  1
  S  S3  1  0.30929000  0.93848000  0.07795200  1
  S  S4  1  0.15986100  0.03251800  0.25131000  1
  S  S5  1  0.86399400  0.04640500  0.31351300  1
  S  S6  1  0.06152000  0.69071000  0.42204800  1
  S  S7  1  0.13600600  0.95359500  0.68648700  1
  S  S8  1  0.03251800  0.15986100  0.75131000  1
  S  S9  1  0.93848000  0.30929000  0.57795200  1
  S  S10  1  0.84013900  0.96748200  0.74869000  1
  S  S11  1  0.53448100  0.88198800  0.36146200  1
  S  S12  1  0.91564400  0.51111100  0.19280400  1
  S  S13  1  0.66309100  0.79246400  0.52945000  1
  S  S14  1  0.88198800  0.53448100  0.86146200  1
  S  S15  1  0.69071000  0.06152000  0.92204800  1
  S  S16  1  0.20753600  0.33690900  0.97055000  1
  S  S17  1  0.46551900  0.11801200  0.63853800  1
  S  S18  1  0.96748200  0.84013900  0.24869000  1
  S  S19  1  0.51111100  0.91564400  0.69280400  1
  S  S20  1  0.58194100  0.50934500  0.69048600  1
  S  S21  1  0.04640500  0.86399400  0.81351300  1
  S  S22  1  0.79246400  0.66309100  0.02945000  1
  S  S23  1  0.95359500  0.13600600  0.18648700  1
  S  S24  1  0.41805900  0.49065500  0.30951400  1
  S  S25  1  0.08435600  0.48888900  0.80719600  1
  S  S26  1  0.74207900  0.36373200  0.54251400  1
  S  S27  1  0.49065500  0.41805900  0.80951400  1
  S  S28  1  0.33690900  0.20753600  0.47055000  1
  S  S29  1  0.25792100  0.63626800  0.45748600  1
  S  S30  1  0.63626800  0.25792100  0.95748600  1
  S  S31  1  0.50934500  0.58194100  0.19048600  1
