# generated using pymatgen
data_BaPr2Ti3O10
_symmetry_space_group_name_H-M   'P 1'
_cell_length_a   14.46537249
_cell_length_b   14.46537249
_cell_length_c   7.70464200
_cell_angle_alpha   90.00000000
_cell_angle_beta   90.00000000
_cell_angle_gamma   164.36836263
_symmetry_Int_Tables_number   1
_chemical_formula_structural   BaPr2Ti3O10
_chemical_formula_sum   'Ba2 Pr4 Ti6 O20'
_cell_volume   434.40268177
_cell_formula_units_Z   2
loop_
 _symmetry_equiv_pos_site_id
 _symmetry_equiv_pos_as_xyz
  1  'x, y, z'
loop_
 _atom_site_type_symbol
 _atom_site_label
 _atom_site_symmetry_multiplicity
 _atom_site_fract_x
 _atom_site_fract_y
 _atom_site_fract_z
 _atom_site_occupancy
  Ba  Ba0  1  0.74066500  0.25933500  0.25000000  1
  Ba  Ba1  1  0.25933500  0.74066500  0.75000000  1
  Pr  Pr2  1  0.42741700  0.57258300  0.75000000  1
  Pr  Pr3  1  0.57258300  0.42741700  0.25000000  1
  Pr  Pr4  1  0.57957200  0.42042800  0.75000000  1
  Pr  Pr5  1  0.42042800  0.57957200  0.25000000  1
  Ti  Ti6  1  0.85420300  0.14579700  0.99584900  1
  Ti  Ti7  1  0.14579700  0.85420300  0.00415100  1
  Ti  Ti8  1  0.85420300  0.14579700  0.50415100  1
  Ti  Ti9  1  0.00000000  0.00000000  0.00000000  1
  Ti  Ti10  1  0.14579700  0.85420300  0.49584900  1
  Ti  Ti11  1  0.00000000  0.00000000  0.50000000  1
  O  O12  1  0.20683500  0.79316500  0.04265000  1
  O  O13  1  0.79316500  0.20683500  0.95735000  1
  O  O14  1  0.63096400  0.36903600  0.49285800  1
  O  O15  1  0.01602500  0.98397500  0.25000000  1
  O  O16  1  0.93368000  0.06632000  0.04957100  1
  O  O17  1  0.36903600  0.63096400  0.50714200  1
  O  O18  1  0.98397500  0.01602500  0.75000000  1
  O  O19  1  0.12323400  0.87676600  0.25000000  1
  O  O20  1  0.79316500  0.20683500  0.54265000  1
  O  O21  1  0.50000000  0.50000000  0.00000000  1
  O  O22  1  0.36903600  0.63096400  0.99285800  1
  O  O23  1  0.06632000  0.93368000  0.54957100  1
  O  O24  1  0.63096400  0.36903600  0.00714200  1
  O  O25  1  0.93368000  0.06632000  0.45042900  1
  O  O26  1  0.20683500  0.79316500  0.45735000  1
  O  O27  1  0.06632000  0.93368000  0.95042900  1
  O  O28  1  0.85534700  0.14465300  0.25000000  1
  O  O29  1  0.87676600  0.12323400  0.75000000  1
  O  O30  1  0.50000000  0.50000000  0.50000000  1
  O  O31  1  0.14465300  0.85534700  0.75000000  1
