# generated using pymatgen
data_Y2ZnPt
_symmetry_space_group_name_H-M   'P 1'
_cell_length_a   11.70731477
_cell_length_b   11.70731477
_cell_length_c   11.70731477
_cell_angle_alpha   122.62321650
_cell_angle_beta   119.08493510
_cell_angle_gamma   88.55497748
_symmetry_Int_Tables_number   1
_chemical_formula_structural   Y2ZnPt
_chemical_formula_sum   'Y2 Zn1 Pt1'
_cell_volume   1118.22583203
_cell_formula_units_Z   1
loop_
 _symmetry_equiv_pos_site_id
 _symmetry_equiv_pos_as_xyz
  1  'x, y, z'
loop_
 _atom_site_type_symbol
 _atom_site_label
 _atom_site_symmetry_multiplicity
 _atom_site_fract_x
 _atom_site_fract_y
 _atom_site_fract_z
 _atom_site_occupancy
  Y  Y0  1  0.00000000  0.27635600  0.27635600  1
  Y  Y1  1  0.00000000  0.72364400  0.72364400  1
  Zn  Zn2  1  0.00000000  0.00000000  0.00000000  1
  Pt  Pt3  1  0.00000000  0.50000000  0.50000000  1
