# generated using pymatgen
data_ZnS
_symmetry_space_group_name_H-M   'P 1'
_cell_length_a   25.25338402
_cell_length_b   25.25338402
_cell_length_c   25.25338355
_cell_angle_alpha   8.75481661
_cell_angle_beta   8.75481661
_cell_angle_gamma   8.75481716
_symmetry_Int_Tables_number   1
_chemical_formula_structural   ZnS
_chemical_formula_sum   'Zn8 S8'
_cell_volume   323.74255997
_cell_formula_units_Z   8
loop_
 _symmetry_equiv_pos_site_id
 _symmetry_equiv_pos_as_xyz
  1  'x, y, z'
loop_
 _atom_site_type_symbol
 _atom_site_label
 _atom_site_symmetry_multiplicity
 _atom_site_fract_x
 _atom_site_fract_y
 _atom_site_fract_z
 _atom_site_occupancy
  Zn  Zn0  1  0.70832400  0.70832400  0.70832400  1
  Zn  Zn1  1  0.41664200  0.41664200  0.41664200  1
  Zn  Zn2  1  0.99999000  0.99999000  0.99999000  1
  Zn  Zn3  1  0.12499200  0.12499200  0.12499200  1
  Zn  Zn4  1  0.24998800  0.24998800  0.24998800  1
  Zn  Zn5  1  0.49998900  0.49998900  0.49998900  1
  Zn  Zn6  1  0.87498700  0.87498700  0.87498700  1
  Zn  Zn7  1  0.62497400  0.62497400  0.62497400  1
  S  S8  1  0.84376300  0.84376300  0.84376300  1
  S  S9  1  0.38543100  0.38543100  0.38543100  1
  S  S10  1  0.09374400  0.09374400  0.09374400  1
  S  S11  1  0.21876500  0.21876500  0.21876500  1
  S  S12  1  0.46878400  0.46878400  0.46878400  1
  S  S13  1  0.67711700  0.67711700  0.67711700  1
  S  S14  1  0.59376300  0.59376300  0.59376300  1
  S  S15  1  0.96874100  0.96874100  0.96874100  1
