# generated using pymatgen
data_SiO2
_symmetry_space_group_name_H-M   'P 1'
_cell_length_a   6.01008391
_cell_length_b   6.01008391
_cell_length_c   4.76747500
_cell_angle_alpha   90.00000000
_cell_angle_beta   90.00000000
_cell_angle_gamma   93.67735780
_symmetry_Int_Tables_number   1
_chemical_formula_structural   SiO2
_chemical_formula_sum   'Si4 O8'
_cell_volume   171.85191636
_cell_formula_units_Z   4
loop_
 _symmetry_equiv_pos_site_id
 _symmetry_equiv_pos_as_xyz
  1  'x, y, z'
loop_
 _atom_site_type_symbol
 _atom_site_label
 _atom_site_symmetry_multiplicity
 _atom_site_fract_x
 _atom_site_fract_y
 _atom_site_fract_z
 _atom_site_occupancy
  Si  Si0  1  0.97859000  0.65291600  0.36868900  1
  Si  Si1  1  0.02141000  0.34708400  0.86868900  1
  Si  Si2  1  0.34708400  0.02141000  0.13131100  1
  Si  Si3  1  0.65291600  0.97859000  0.63131100  1
  O  O4  1  0.51391200  0.09983500  0.38713500  1
  O  O5  1  0.09983500  0.51391200  0.61286500  1
  O  O6  1  0.24087400  0.24087400  0.00000000  1
  O  O7  1  0.48608800  0.90016500  0.88713500  1
  O  O8  1  0.90016500  0.48608800  0.11286500  1
  O  O9  1  0.15069600  0.84930400  0.25000000  1
  O  O10  1  0.75912600  0.75912600  0.50000000  1
  O  O11  1  0.84930400  0.15069600  0.75000000  1
