# generated using pymatgen
data_Rb2Cr2O7
_symmetry_space_group_name_H-M   'P 1'
_cell_length_a   7.61719800
_cell_length_b   7.81542115
_cell_length_c   8.05204492
_cell_angle_alpha   108.97420231
_cell_angle_beta   90.88108406
_cell_angle_gamma   110.19136181
_symmetry_Int_Tables_number   1
_chemical_formula_structural   Rb2Cr2O7
_chemical_formula_sum   'Rb4 Cr4 O14'
_cell_volume   421.02794176
_cell_formula_units_Z   2
loop_
 _symmetry_equiv_pos_site_id
 _symmetry_equiv_pos_as_xyz
  1  'x, y, z'
loop_
 _atom_site_type_symbol
 _atom_site_label
 _atom_site_symmetry_multiplicity
 _atom_site_fract_x
 _atom_site_fract_y
 _atom_site_fract_z
 _atom_site_occupancy
  Rb  Rb0  1  0.37883600  0.99253000  0.74763300  1
  Rb  Rb1  1  0.62116400  0.00747000  0.25236700  1
  Rb  Rb2  1  0.18830500  0.41622600  0.25267500  1
  Rb  Rb3  1  0.81169500  0.58377400  0.74732500  1
  Cr  Cr4  1  0.29891600  0.47707200  0.75546400  1
  Cr  Cr5  1  0.91613100  0.12062400  0.77656700  1
  Cr  Cr6  1  0.08386900  0.87937600  0.22343300  1
  Cr  Cr7  1  0.70108400  0.52292800  0.24453600  1
  O  O8  1  0.23496000  0.84872600  0.34762100  1
  O  O9  1  0.80614800  0.43879200  0.36053900  1
  O  O10  1  0.17679700  0.91692900  0.05081800  1
  O  O11  1  0.82320300  0.08307100  0.94918200  1
  O  O12  1  0.02768000  0.06339200  0.33401200  1
  O  O13  1  0.59887900  0.65773300  0.37278600  1
  O  O14  1  0.54076000  0.34049100  0.08995100  1
  O  O15  1  0.97232000  0.93660800  0.66598800  1
  O  O16  1  0.19385200  0.56120800  0.63946100  1
  O  O17  1  0.76504000  0.15127400  0.65237900  1
  O  O18  1  0.87256600  0.66274000  0.14090200  1
  O  O19  1  0.45924000  0.65950900  0.91004900  1
  O  O20  1  0.12743400  0.33726000  0.85909800  1
  O  O21  1  0.40112100  0.34226700  0.62721400  1
