# generated using pymatgen
data_V2Cd(PO5)2
_symmetry_space_group_name_H-M   'P 1'
_cell_length_a   9.97730162
_cell_length_b   8.89397148
_cell_length_c   6.84780812
_cell_angle_alpha   77.45928990
_cell_angle_beta   60.47642340
_cell_angle_gamma   42.06428670
_symmetry_Int_Tables_number   1
_chemical_formula_structural   V2Cd(PO5)2
_chemical_formula_sum   'V4 Cd2 P4 O20'
_cell_volume   342.52947147
_cell_formula_units_Z   2
loop_
 _symmetry_equiv_pos_site_id
 _symmetry_equiv_pos_as_xyz
  1  'x, y, z'
loop_
 _atom_site_type_symbol
 _atom_site_label
 _atom_site_symmetry_multiplicity
 _atom_site_fract_x
 _atom_site_fract_y
 _atom_site_fract_z
 _atom_site_occupancy
  V  V0  1  0.63505300  0.62523000  0.09363400  1
  V  V1  1  0.15636600  0.60391700  0.61494700  1
  V  V2  1  0.64608300  0.09363400  0.62523000  1
  V  V3  1  0.62477000  0.61494700  0.60391700  1
  Cd  Cd4  1  0.00061100  0.99938900  0.99938900  1
  Cd  Cd5  1  0.25061100  0.24938900  0.24938900  1
  P  P6  1  0.79715400  0.78617800  0.20204200  1
  P  P7  1  0.04795800  0.03537400  0.45284600  1
  P  P8  1  0.21462600  0.20204200  0.78617800  1
  P  P9  1  0.46382200  0.45284600  0.03537400  1
  O  O10  1  0.86783800  0.59877600  0.34448900  1
  O  O11  1  0.39006600  0.63896600  0.89110000  1
  O  O12  1  0.35890000  0.17013200  0.85993400  1
  O  O13  1  0.97368000  0.33272900  0.99735900  1
  O  O14  1  0.33519900  0.96530200  0.69035800  1
  O  O15  1  0.91727100  0.27632000  0.55376800  1
  O  O16  1  0.67295800  0.65926600  0.82338300  1
  O  O17  1  0.65122400  0.38216200  0.06110200  1
  O  O18  1  0.84439400  0.82338300  0.65926600  1
  O  O19  1  0.69623200  0.99735900  0.33272900  1
  O  O20  1  0.25264100  0.55376800  0.27632000  1
  O  O21  1  0.59073400  0.57704200  0.40560600  1
  O  O22  1  0.18889800  0.34448900  0.59877600  1
  O  O23  1  0.90551100  0.06110200  0.38216200  1
  O  O24  1  0.55964200  0.24085900  0.91480100  1
  O  O25  1  0.42661700  0.40560600  0.57704200  1
  O  O26  1  0.07986800  0.89110000  0.63896600  1
  O  O27  1  0.00914100  0.69035800  0.96530200  1
  O  O28  1  0.61103400  0.85993400  0.17013200  1
  O  O29  1  0.28469800  0.91480100  0.24085900  1
