# generated using pymatgen
data_TiAs2O7
_symmetry_space_group_name_H-M   'P 1'
_cell_length_a   5.36042498
_cell_length_b   5.36042498
_cell_length_c   9.58269959
_cell_angle_alpha   80.87933585
_cell_angle_beta   80.87933585
_cell_angle_gamma   98.23351067
_symmetry_Int_Tables_number   1
_chemical_formula_structural   TiAs2O7
_chemical_formula_sum   'Ti2 As4 O14'
_cell_volume   264.40003970
_cell_formula_units_Z   2
loop_
 _symmetry_equiv_pos_site_id
 _symmetry_equiv_pos_as_xyz
  1  'x, y, z'
loop_
 _atom_site_type_symbol
 _atom_site_label
 _atom_site_symmetry_multiplicity
 _atom_site_fract_x
 _atom_site_fract_y
 _atom_site_fract_z
 _atom_site_occupancy
  Ti  Ti0  1  0.00000000  0.00000000  0.00000000  1
  Ti  Ti1  1  0.00000000  0.00000000  0.50000000  1
  As  As2  1  0.17152500  0.43909800  0.19827000  1
  As  As3  1  0.43909800  0.17152500  0.69827000  1
  As  As4  1  0.56090200  0.82847500  0.30173000  1
  As  As5  1  0.82847500  0.56090200  0.80173000  1
  O  O6  1  0.07572200  0.71375000  0.12912600  1
  O  O7  1  0.76734200  0.75158100  0.92377600  1
  O  O8  1  0.28901000  0.96833700  0.85418300  1
  O  O9  1  0.03166300  0.71099000  0.64581700  1
  O  O10  1  0.47252800  0.52747200  0.25000000  1
  O  O11  1  0.71375000  0.07572200  0.62912600  1
  O  O12  1  0.75158100  0.76734200  0.42377600  1
  O  O13  1  0.24841900  0.23265800  0.57622400  1
  O  O14  1  0.23265800  0.24841900  0.07622400  1
  O  O15  1  0.71099000  0.03166300  0.14581700  1
  O  O16  1  0.92427800  0.28625000  0.87087400  1
  O  O17  1  0.96833700  0.28901000  0.35418300  1
  O  O18  1  0.28625000  0.92427800  0.37087400  1
  O  O19  1  0.52747200  0.47252800  0.75000000  1
