# generated using pymatgen
data_Mn(PO3)3
_symmetry_space_group_name_H-M   'P 1'
_cell_length_a   6.46537200
_cell_length_b   9.90166900
_cell_length_c   10.89400100
_cell_angle_alpha   90.00000000
_cell_angle_beta   90.00000000
_cell_angle_gamma   90.00000000
_symmetry_Int_Tables_number   1
_chemical_formula_structural   Mn(PO3)3
_chemical_formula_sum   'Mn4 P12 O36'
_cell_volume   697.41186739
_cell_formula_units_Z   4
loop_
 _symmetry_equiv_pos_site_id
 _symmetry_equiv_pos_as_xyz
  1  'x, y, z'
loop_
 _atom_site_type_symbol
 _atom_site_label
 _atom_site_symmetry_multiplicity
 _atom_site_fract_x
 _atom_site_fract_y
 _atom_site_fract_z
 _atom_site_occupancy
  Mn  Mn0  1  0.50000000  0.50000000  0.00000000  1
  Mn  Mn1  1  0.50000000  0.00000000  0.50000000  1
  Mn  Mn2  1  0.00000000  0.50000000  0.50000000  1
  Mn  Mn3  1  0.00000000  0.00000000  0.00000000  1
  P  P4  1  0.86731500  0.21432700  0.36441000  1
  P  P5  1  0.63268500  0.71432700  0.36441000  1
  P  P6  1  0.36731500  0.78567300  0.86441000  1
  P  P7  1  0.25000000  0.58494300  0.25000000  1
  P  P8  1  0.86731500  0.71432700  0.13559000  1
  P  P9  1  0.75000000  0.41505700  0.75000000  1
  P  P10  1  0.13268500  0.28567300  0.86441000  1
  P  P11  1  0.36731500  0.28567300  0.63559000  1
  P  P12  1  0.25000000  0.08494300  0.25000000  1
  P  P13  1  0.13268500  0.78567300  0.63559000  1
  P  P14  1  0.75000000  0.91505700  0.75000000  1
  P  P15  1  0.63268500  0.21432700  0.13559000  1
  O  O16  1  0.25000000  0.71493300  0.75000000  1
  O  O17  1  0.39009300  0.67997900  0.96371600  1
  O  O18  1  0.73225400  0.58515100  0.40110700  1
  O  O19  1  0.23225400  0.41484900  0.90110700  1
  O  O20  1  0.34924200  0.49759900  0.15368200  1
  O  O21  1  0.10990700  0.67997900  0.53628400  1
  O  O22  1  0.59428500  0.30939200  0.69174000  1
  O  O23  1  0.09428500  0.69060800  0.19174000  1
  O  O24  1  0.84924200  0.00240100  0.84631800  1
  O  O25  1  0.65075800  0.50240100  0.84631800  1
  O  O26  1  0.25000000  0.21493300  0.75000000  1
  O  O27  1  0.76774600  0.08515100  0.40110700  1
  O  O28  1  0.75000000  0.28506700  0.25000000  1
  O  O29  1  0.65075800  0.00240100  0.65368200  1
  O  O30  1  0.15075800  0.49759900  0.34631800  1
  O  O31  1  0.84924200  0.50240100  0.65368200  1
  O  O32  1  0.40571500  0.69060800  0.30826000  1
  O  O33  1  0.26774600  0.41484900  0.59889300  1
  O  O34  1  0.59428500  0.80939200  0.80826000  1
  O  O35  1  0.40571500  0.19060800  0.19174000  1
  O  O36  1  0.60990700  0.82002100  0.46371600  1
  O  O37  1  0.90571500  0.30939200  0.80826000  1
  O  O38  1  0.90571500  0.80939200  0.69174000  1
  O  O39  1  0.76774600  0.58515100  0.09889300  1
  O  O40  1  0.34924200  0.99759900  0.34631800  1
  O  O41  1  0.10990700  0.17997900  0.96371600  1
  O  O42  1  0.89009300  0.32002100  0.46371600  1
  O  O43  1  0.73225400  0.08515100  0.09889300  1
  O  O44  1  0.09428500  0.19060800  0.30826000  1
  O  O45  1  0.15075800  0.99759900  0.15368200  1
  O  O46  1  0.23225400  0.91484900  0.59889300  1
  O  O47  1  0.39009300  0.17997900  0.53628400  1
  O  O48  1  0.60990700  0.32002100  0.03628400  1
  O  O49  1  0.26774600  0.91484900  0.90110700  1
  O  O50  1  0.89009300  0.82002100  0.03628400  1
  O  O51  1  0.75000000  0.78506700  0.25000000  1
