# generated using pymatgen
data_KCa12Si4S2O26F
_symmetry_space_group_name_H-M   'P 1'
_cell_length_a   14.49748214
_cell_length_b   14.49748214
_cell_length_c   14.49748292
_cell_angle_alpha   28.94913603
_cell_angle_beta   28.94913603
_cell_angle_gamma   28.94913419
_symmetry_Int_Tables_number   1
_chemical_formula_structural   KCa12Si4S2O26F
_chemical_formula_sum   'K1 Ca12 Si4 S2 O26 F1'
_cell_volume   631.37748243
_cell_formula_units_Z   1
loop_
 _symmetry_equiv_pos_site_id
 _symmetry_equiv_pos_as_xyz
  1  'x, y, z'
loop_
 _atom_site_type_symbol
 _atom_site_label
 _atom_site_symmetry_multiplicity
 _atom_site_fract_x
 _atom_site_fract_y
 _atom_site_fract_z
 _atom_site_occupancy
  K  K0  1  0.00000000  0.00000000  0.00000000  1
  Ca  Ca1  1  0.08312300  0.55578000  0.55578000  1
  Ca  Ca2  1  0.22489500  0.68844400  0.68844400  1
  Ca  Ca3  1  0.55578000  0.55578000  0.08312300  1
  Ca  Ca4  1  0.68844400  0.22489500  0.68844400  1
  Ca  Ca5  1  0.31155600  0.77510500  0.31155600  1
  Ca  Ca6  1  0.44422000  0.91687700  0.44422000  1
  Ca  Ca7  1  0.55578000  0.08312300  0.55578000  1
  Ca  Ca8  1  0.44422000  0.44422000  0.91687700  1
  Ca  Ca9  1  0.77510500  0.31155600  0.31155600  1
  Ca  Ca10  1  0.68844400  0.68844400  0.22489500  1
  Ca  Ca11  1  0.31155600  0.31155600  0.77510500  1
  Ca  Ca12  1  0.91687700  0.44422000  0.44422000  1
  Si  Si13  1  0.79529000  0.79529000  0.79529000  1
  Si  Si14  1  0.08292900  0.08292900  0.08292900  1
  Si  Si15  1  0.91707100  0.91707100  0.91707100  1
  Si  Si16  1  0.20471000  0.20471000  0.20471000  1
  S  S17  1  0.67643000  0.67643000  0.67643000  1
  S  S18  1  0.32357000  0.32357000  0.32357000  1
  O  O19  1  0.87684700  0.87684700  0.87684700  1
  O  O20  1  0.80031600  0.80031600  0.46549800  1
  O  O21  1  0.31840100  0.31840100  0.94125100  1
  O  O22  1  0.56837800  0.56837800  0.56837800  1
  O  O23  1  0.19968400  0.53450200  0.19968400  1
  O  O24  1  0.19968400  0.19968400  0.53450200  1
  O  O25  1  0.19935000  0.82000200  0.19935000  1
  O  O26  1  0.31840100  0.94125100  0.31840100  1
  O  O27  1  0.53450200  0.19968400  0.19968400  1
  O  O28  1  0.05874900  0.68159900  0.68159900  1
  O  O29  1  0.82000200  0.19935000  0.19935000  1
  O  O30  1  0.80031600  0.46549800  0.80031600  1
  O  O31  1  0.17999800  0.80065000  0.80065000  1
  O  O32  1  0.19935000  0.19935000  0.82000200  1
  O  O33  1  0.43162200  0.43162200  0.43162200  1
  O  O34  1  0.94125100  0.31840100  0.31840100  1
  O  O35  1  0.35973600  0.35973600  0.35973600  1
  O  O36  1  0.75501300  0.75501300  0.75501300  1
  O  O37  1  0.46549800  0.80031600  0.80031600  1
  O  O38  1  0.80065000  0.80065000  0.17999800  1
  O  O39  1  0.80065000  0.17999800  0.80065000  1
  O  O40  1  0.12315300  0.12315300  0.12315300  1
  O  O41  1  0.64026400  0.64026400  0.64026400  1
  O  O42  1  0.68159900  0.68159900  0.05874900  1
  O  O43  1  0.24498700  0.24498700  0.24498700  1
  O  O44  1  0.68159900  0.05874900  0.68159900  1
  F  F45  1  0.50000000  0.50000000  0.50000000  1
