# generated using pymatgen
data_BaMo2(PO4)4
_symmetry_space_group_name_H-M   'P 1'
_cell_length_a   12.60619000
_cell_length_b   6.54752000
_cell_length_c   9.34999362
_cell_angle_alpha   56.52812069
_cell_angle_beta   90.00000000
_cell_angle_gamma   90.00000000
_symmetry_Int_Tables_number   1
_chemical_formula_structural   BaMo2(PO4)4
_chemical_formula_sum   'Ba2 Mo4 P8 O32'
_cell_volume   643.75348528
_cell_formula_units_Z   2
loop_
 _symmetry_equiv_pos_site_id
 _symmetry_equiv_pos_as_xyz
  1  'x, y, z'
loop_
 _atom_site_type_symbol
 _atom_site_label
 _atom_site_symmetry_multiplicity
 _atom_site_fract_x
 _atom_site_fract_y
 _atom_site_fract_z
 _atom_site_occupancy
  Ba  Ba0  1  0.00000000  0.00000000  0.50000000  1
  Ba  Ba1  1  0.50000000  0.00000000  0.00000000  1
  Mo  Mo2  1  0.31049300  0.54061200  0.66279900  1
  Mo  Mo3  1  0.68950700  0.45938800  0.33720100  1
  Mo  Mo4  1  0.18950700  0.54061200  0.16279900  1
  Mo  Mo5  1  0.81049300  0.45938800  0.83720100  1
  P  P6  1  0.69316400  0.87295100  0.43617400  1
  P  P7  1  0.55660400  0.65593700  0.74890700  1
  P  P8  1  0.05660400  0.34406300  0.75109300  1
  P  P9  1  0.94339600  0.65593700  0.24890700  1
  P  P10  1  0.44339600  0.34406300  0.25109300  1
  P  P11  1  0.80683600  0.87295100  0.93617400  1
  P  P12  1  0.30683600  0.12704900  0.56382600  1
  P  P13  1  0.19316400  0.12704900  0.06382600  1
  O  O14  1  0.46843600  0.18002700  0.19239500  1
  O  O15  1  0.03156400  0.18002700  0.69239500  1
  O  O16  1  0.28387700  0.27325600  0.94027800  1
  O  O17  1  0.32866400  0.19529100  0.69426700  1
  O  O18  1  0.14731800  0.53381200  0.65459700  1
  O  O19  1  0.58733500  0.81660900  0.54748800  1
  O  O20  1  0.41266500  0.18339100  0.45251200  1
  O  O21  1  0.65636500  0.31839000  0.54739200  1
  O  O22  1  0.71045800  0.15020700  0.33662400  1
  O  O23  1  0.84363500  0.31839000  0.04739200  1
  O  O24  1  0.85268200  0.46618800  0.34540300  1
  O  O25  1  0.15636500  0.68161000  0.95260800  1
  O  O26  1  0.71612300  0.72674400  0.05972200  1
  O  O27  1  0.96257500  0.50516500  0.74291600  1
  O  O28  1  0.53156400  0.81997300  0.80760500  1
  O  O29  1  0.28954200  0.84979300  0.66337600  1
  O  O30  1  0.34363500  0.68161000  0.45260800  1
  O  O31  1  0.82866400  0.80470900  0.80573300  1
  O  O32  1  0.46257500  0.49483500  0.75708400  1
  O  O33  1  0.08733500  0.18339100  0.95251200  1
  O  O34  1  0.91266500  0.81660900  0.04748800  1
  O  O35  1  0.78387700  0.72674400  0.55972200  1
  O  O36  1  0.21045800  0.84979300  0.16337600  1
  O  O37  1  0.67133600  0.80470900  0.30573300  1
  O  O38  1  0.96843600  0.81997300  0.30760500  1
  O  O39  1  0.53742500  0.50516500  0.24291600  1
  O  O40  1  0.03742500  0.49483500  0.25708400  1
  O  O41  1  0.35268200  0.53381200  0.15459700  1
  O  O42  1  0.78954200  0.15020700  0.83662400  1
  O  O43  1  0.17133600  0.19529100  0.19426700  1
  O  O44  1  0.64731800  0.46618800  0.84540300  1
  O  O45  1  0.21612300  0.27325600  0.44027800  1
