# generated using pymatgen
data_Na3VB6O13
_symmetry_space_group_name_H-M   'P 1'
_cell_length_a   7.75098400
_cell_length_b   10.33245000
_cell_length_c   12.76914300
_cell_angle_alpha   90.00000000
_cell_angle_beta   90.00000000
_cell_angle_gamma   90.00000000
_symmetry_Int_Tables_number   1
_chemical_formula_structural   Na3VB6O13
_chemical_formula_sum   'Na12 V4 B24 O52'
_cell_volume   1022.63794537
_cell_formula_units_Z   4
loop_
 _symmetry_equiv_pos_site_id
 _symmetry_equiv_pos_as_xyz
  1  'x, y, z'
loop_
 _atom_site_type_symbol
 _atom_site_label
 _atom_site_symmetry_multiplicity
 _atom_site_fract_x
 _atom_site_fract_y
 _atom_site_fract_z
 _atom_site_occupancy
  Na  Na0  1  0.73521100  0.28928200  0.23814000  1
  Na  Na1  1  0.75824400  0.27568900  0.73908100  1
  Na  Na2  1  0.12947100  0.49483300  0.52206300  1
  Na  Na3  1  0.23521100  0.21071800  0.76186000  1
  Na  Na4  1  0.62947100  0.00516700  0.47793700  1
  Na  Na5  1  0.26478900  0.78928200  0.26186000  1
  Na  Na6  1  0.74175600  0.72431100  0.23908100  1
  Na  Na7  1  0.76478900  0.71071800  0.73814000  1
  Na  Na8  1  0.24175600  0.77568900  0.76091900  1
  Na  Na9  1  0.25824400  0.22431100  0.26091900  1
  Na  Na10  1  0.87052900  0.99483300  0.97793700  1
  Na  Na11  1  0.37052900  0.50516700  0.02206300  1
  V  V12  1  0.05056600  0.50881900  0.24701200  1
  V  V13  1  0.94943400  0.00881900  0.25298800  1
  V  V14  1  0.55056600  0.99118100  0.75298800  1
  V  V15  1  0.44943400  0.49118100  0.74701200  1
  B  B16  1  0.03005600  0.12924100  0.57501400  1
  B  B17  1  0.40547500  0.50087900  0.27787200  1
  B  B18  1  0.02929200  0.87027000  0.57554400  1
  B  B19  1  0.79967900  0.72429800  0.49484600  1
  B  B20  1  0.90547500  0.99912100  0.72212800  1
  B  B21  1  0.53005600  0.37075900  0.42498600  1
  B  B22  1  0.22169300  0.99845100  0.44191900  1
  B  B23  1  0.09452500  0.49912100  0.77787200  1
  B  B24  1  0.52929200  0.62973000  0.42445600  1
  B  B25  1  0.29737000  0.22420200  0.50358600  1
  B  B26  1  0.47070800  0.12973000  0.07554400  1
  B  B27  1  0.20263000  0.77579800  0.00358600  1
  B  B28  1  0.97070800  0.37027000  0.92445600  1
  B  B29  1  0.70263000  0.72420200  0.99641400  1
  B  B30  1  0.77830700  0.49845100  0.05808100  1
  B  B31  1  0.79737000  0.27579800  0.49641400  1
  B  B32  1  0.29967900  0.77570200  0.50515400  1
  B  B33  1  0.46994400  0.87075900  0.07501400  1
  B  B34  1  0.96994400  0.62924100  0.92498600  1
  B  B35  1  0.59452500  0.00087900  0.22212800  1
  B  B36  1  0.27830700  0.00154900  0.94191900  1
  B  B37  1  0.72169300  0.50154900  0.55808100  1
  B  B38  1  0.70032100  0.27570200  0.99484600  1
  B  B39  1  0.20032100  0.22429800  0.00515400  1
  O  O40  1  0.17741500  0.88087000  0.93773000  1
  O  O41  1  0.88938600  0.16299600  0.50440600  1
  O  O42  1  0.11589300  0.33955000  0.99248900  1
  O  O43  1  0.53321300  0.11643800  0.18469000  1
  O  O44  1  0.33878200  0.88606300  0.44791100  1
  O  O45  1  0.88410700  0.83955000  0.50751100  1
  O  O46  1  0.16121800  0.11393700  0.94791100  1
  O  O47  1  0.60497100  0.50023900  0.46159700  1
  O  O48  1  0.33541900  0.22607200  0.07528200  1
  O  O49  1  0.61589300  0.16045000  0.00751100  1
  O  O50  1  0.61061400  0.83700400  0.00440600  1
  O  O51  1  0.10497100  0.99976100  0.53840300  1
  O  O52  1  0.87938500  0.48432700  0.15512900  1
  O  O53  1  0.22121200  0.49926200  0.70073000  1
  O  O54  1  0.03602700  0.61503900  0.81671600  1
  O  O55  1  0.54055100  0.10467100  0.65897600  1
  O  O56  1  0.37938500  0.01567300  0.84487100  1
  O  O57  1  0.52536200  0.84664700  0.69478400  1
  O  O58  1  0.46678700  0.61643800  0.31531000  1
  O  O59  1  0.89502900  0.49976100  0.96159700  1
  O  O60  1  0.82258500  0.38087000  0.56227000  1
  O  O61  1  0.32258500  0.11913000  0.43773000  1
  O  O62  1  0.83217900  0.72418500  0.92242600  1
  O  O63  1  0.33217900  0.77581500  0.07757400  1
  O  O64  1  0.66121800  0.38606300  0.05208900  1
  O  O65  1  0.11061400  0.66299600  0.99559400  1
  O  O66  1  0.53602700  0.88496100  0.18328400  1
  O  O67  1  0.16782100  0.22418500  0.57757400  1
  O  O68  1  0.67741500  0.61913000  0.06227000  1
  O  O69  1  0.03321300  0.38356200  0.81531000  1
  O  O70  1  0.77878800  0.99926200  0.79927000  1
  O  O71  1  0.62061500  0.51567300  0.65512900  1
  O  O72  1  0.95944900  0.89532900  0.15897600  1
  O  O73  1  0.47463800  0.34664700  0.80521600  1
  O  O74  1  0.04055100  0.39532900  0.34102400  1
  O  O75  1  0.83878200  0.61393700  0.55208900  1
  O  O76  1  0.96678700  0.88356200  0.68469000  1
  O  O77  1  0.66782100  0.27581500  0.42242600  1
  O  O78  1  0.38938600  0.33700400  0.49559400  1
  O  O79  1  0.27878800  0.50073800  0.20073000  1
  O  O80  1  0.46397300  0.38496100  0.31671600  1
  O  O81  1  0.97463800  0.15335300  0.19478400  1
  O  O82  1  0.72121200  0.00073800  0.29927000  1
  O  O83  1  0.45944900  0.60467100  0.84102400  1
  O  O84  1  0.83541900  0.27392800  0.92471800  1
  O  O85  1  0.38410700  0.66045000  0.49248900  1
  O  O86  1  0.12061500  0.98432700  0.34487100  1
  O  O87  1  0.39502900  0.00023900  0.03840300  1
  O  O88  1  0.16458100  0.77392800  0.57528200  1
  O  O89  1  0.66458100  0.72607200  0.42471800  1
  O  O90  1  0.02536200  0.65335300  0.30521600  1
  O  O91  1  0.96397300  0.11503900  0.68328400  1
