# generated using pymatgen
data_Tl2CS3
_symmetry_space_group_name_H-M   'P 1'
_cell_length_a   6.57618586
_cell_length_b   6.57618586
_cell_length_c   9.52483095
_cell_angle_alpha   66.94490820
_cell_angle_beta   66.94490820
_cell_angle_gamma   62.16505836
_symmetry_Int_Tables_number   1
_chemical_formula_structural   Tl2CS3
_chemical_formula_sum   'Tl4 C2 S6'
_cell_volume   323.94073656
_cell_formula_units_Z   2
loop_
 _symmetry_equiv_pos_site_id
 _symmetry_equiv_pos_as_xyz
  1  'x, y, z'
loop_
 _atom_site_type_symbol
 _atom_site_label
 _atom_site_symmetry_multiplicity
 _atom_site_fract_x
 _atom_site_fract_y
 _atom_site_fract_z
 _atom_site_occupancy
  Tl  Tl0  1  0.54722400  0.14974900  0.62024000  1
  Tl  Tl1  1  0.45277600  0.85025100  0.37976000  1
  Tl  Tl2  1  0.14974900  0.54722400  0.12024000  1
  Tl  Tl3  1  0.85025100  0.45277600  0.87976000  1
  C  C4  1  0.93967600  0.06032400  0.25000000  1
  C  C5  1  0.06032400  0.93967600  0.75000000  1
  S  S6  1  0.18381100  0.04741800  0.09047200  1
  S  S7  1  0.68575900  0.31424100  0.25000000  1
  S  S8  1  0.81618900  0.95258200  0.90952800  1
  S  S9  1  0.95258200  0.81618900  0.40952800  1
  S  S10  1  0.04741800  0.18381100  0.59047200  1
  S  S11  1  0.31424100  0.68575900  0.75000000  1
