# generated using pymatgen
data_TlCdIn2
_symmetry_space_group_name_H-M   'P 1'
_cell_length_a   12.39179512
_cell_length_b   12.39179512
_cell_length_c   12.39179512
_cell_angle_alpha   122.22846781
_cell_angle_beta   119.26414358
_cell_angle_gamma   88.73175455
_symmetry_Int_Tables_number   1
_chemical_formula_structural   TlCdIn2
_chemical_formula_sum   'Tl1 Cd1 In2'
_cell_volume   1328.83715762
_cell_formula_units_Z   1
loop_
 _symmetry_equiv_pos_site_id
 _symmetry_equiv_pos_as_xyz
  1  'x, y, z'
loop_
 _atom_site_type_symbol
 _atom_site_label
 _atom_site_symmetry_multiplicity
 _atom_site_fract_x
 _atom_site_fract_y
 _atom_site_fract_z
 _atom_site_occupancy
  Tl  Tl0  1  0.00000000  0.50000000  0.50000000  1
  Cd  Cd1  1  0.00000000  0.00000000  0.00000000  1
  In  In2  1  0.00000000  0.25230000  0.25230000  1
  In  In3  1  0.00000000  0.74770000  0.74770000  1
