# generated using pymatgen
data_LiV2O5
_symmetry_space_group_name_H-M   'P 1'
_cell_length_a   2.91781400
_cell_length_b   10.90563100
_cell_length_c   12.00534700
_cell_angle_alpha   90.00000000
_cell_angle_beta   90.00000000
_cell_angle_gamma   90.00000000
_symmetry_Int_Tables_number   1
_chemical_formula_structural   LiV2O5
_chemical_formula_sum   'Li4 V8 O20'
_cell_volume   382.01737849
_cell_formula_units_Z   4
loop_
 _symmetry_equiv_pos_site_id
 _symmetry_equiv_pos_as_xyz
  1  'x, y, z'
loop_
 _atom_site_type_symbol
 _atom_site_label
 _atom_site_symmetry_multiplicity
 _atom_site_fract_x
 _atom_site_fract_y
 _atom_site_fract_z
 _atom_site_occupancy
  Li  Li0  1  0.00000000  0.18565200  0.24785900  1
  Li  Li1  1  0.00000000  0.81434800  0.74785900  1
  Li  Li2  1  0.50000000  0.31434800  0.74785900  1
  Li  Li3  1  0.50000000  0.68565200  0.24785900  1
  V  V4  1  0.50000000  0.55428000  0.87735500  1
  V  V5  1  0.00000000  0.94572000  0.37735500  1
  V  V6  1  0.50000000  0.44572000  0.37735500  1
  V  V7  1  0.50000000  0.85103100  0.96915400  1
  V  V8  1  0.50000000  0.14896900  0.46915400  1
  V  V9  1  0.00000000  0.05428000  0.87735500  1
  V  V10  1  0.00000000  0.35103100  0.96915400  1
  V  V11  1  0.00000000  0.64896900  0.46915400  1
  O  O12  1  0.00000000  0.76670500  0.59110000  1
  O  O13  1  0.00000000  0.35712800  0.12837900  1
  O  O14  1  0.00000000  0.53472400  0.98548600  1
  O  O15  1  0.00000000  0.21410200  0.85399900  1
  O  O16  1  0.50000000  0.71410200  0.85399900  1
  O  O17  1  0.00000000  0.78589800  0.35399900  1
  O  O18  1  0.50000000  0.28589800  0.35399900  1
  O  O19  1  0.00000000  0.46527600  0.48548600  1
  O  O20  1  0.50000000  0.96527600  0.48548600  1
  O  O21  1  0.00000000  0.55358500  0.30896600  1
  O  O22  1  0.00000000  0.64287200  0.62837900  1
  O  O23  1  0.50000000  0.94641500  0.80896600  1
  O  O24  1  0.00000000  0.23329500  0.09110000  1
  O  O25  1  0.50000000  0.05358500  0.30896600  1
  O  O26  1  0.00000000  0.44641500  0.80896600  1
  O  O27  1  0.50000000  0.26670500  0.59110000  1
  O  O28  1  0.50000000  0.85712800  0.12837900  1
  O  O29  1  0.50000000  0.73329500  0.09110000  1
  O  O30  1  0.50000000  0.03472400  0.98548600  1
  O  O31  1  0.50000000  0.14287200  0.62837900  1
