# generated using pymatgen
data_Sr2SiCl2O3
_symmetry_space_group_name_H-M   'P 1'
_cell_length_a   9.33677768
_cell_length_b   9.33677768
_cell_length_c   9.33677768
_cell_angle_alpha   105.55989501
_cell_angle_beta   105.55989501
_cell_angle_gamma   117.61375992
_symmetry_Int_Tables_number   1
_chemical_formula_structural   Sr2SiCl2O3
_chemical_formula_sum   'Sr8 Si4 Cl8 O12'
_cell_volume   616.95386610
_cell_formula_units_Z   4
loop_
 _symmetry_equiv_pos_site_id
 _symmetry_equiv_pos_as_xyz
  1  'x, y, z'
loop_
 _atom_site_type_symbol
 _atom_site_label
 _atom_site_symmetry_multiplicity
 _atom_site_fract_x
 _atom_site_fract_y
 _atom_site_fract_z
 _atom_site_occupancy
  Sr  Sr0  1  0.51907900  0.68866700  0.66755700  1
  Sr  Sr1  1  0.31133300  0.97889000  0.83041200  1
  Sr  Sr2  1  0.68866700  0.02111000  0.16958800  1
  Sr  Sr3  1  0.02111000  0.85152200  0.33244300  1
  Sr  Sr4  1  0.85152200  0.51907900  0.83041200  1
  Sr  Sr5  1  0.14847800  0.48092100  0.16958800  1
  Sr  Sr6  1  0.48092100  0.31133300  0.33244300  1
  Sr  Sr7  1  0.97889000  0.14847800  0.66755700  1
  Si  Si8  1  0.31794900  0.59654300  0.91449200  1
  Si  Si9  1  0.40345700  0.31794900  0.72140600  1
  Si  Si10  1  0.59654300  0.68205100  0.27859400  1
  Si  Si11  1  0.68205100  0.40345700  0.08550800  1
  Cl  Cl12  1  0.74489900  0.09639300  0.84129200  1
  Cl  Cl13  1  0.20101900  0.20101900  0.00000000  1
  Cl  Cl14  1  0.90360700  0.74489900  0.64850600  1
  Cl  Cl15  1  0.79898100  0.79898100  0.00000000  1
  Cl  Cl16  1  0.09639300  0.25510100  0.35149400  1
  Cl  Cl17  1  0.25000000  0.75000000  0.50000000  1
  Cl  Cl18  1  0.25510100  0.90360700  0.15870800  1
  Cl  Cl19  1  0.75000000  0.25000000  0.50000000  1
  O  O20  1  0.33589200  0.44968600  0.78557800  1
  O  O21  1  0.89064700  0.51645100  0.11565700  1
  O  O22  1  0.40079400  0.77499100  0.88434300  1
  O  O23  1  0.66410800  0.55031400  0.21442200  1
  O  O24  1  0.22500900  0.10935300  0.62580400  1
  O  O25  1  0.10935300  0.48354900  0.88434300  1
  O  O26  1  0.77499100  0.89064700  0.37419600  1
  O  O27  1  0.48354900  0.59920600  0.37419600  1
  O  O28  1  0.51645100  0.40079400  0.62580400  1
  O  O29  1  0.55031400  0.33589200  0.88620500  1
  O  O30  1  0.44968600  0.66410800  0.11379500  1
  O  O31  1  0.59920600  0.22500900  0.11565700  1
