# generated using pymatgen
data_Na2V2ZnO7
_symmetry_space_group_name_H-M   'P 1'
_cell_length_a   8.40488300
_cell_length_b   8.40488300
_cell_length_c   5.19202500
_cell_angle_alpha   90.00000000
_cell_angle_beta   90.00000000
_cell_angle_gamma   90.00000000
_symmetry_Int_Tables_number   1
_chemical_formula_structural   Na2V2ZnO7
_chemical_formula_sum   'Na4 V4 Zn2 O14'
_cell_volume   366.77533245
_cell_formula_units_Z   2
loop_
 _symmetry_equiv_pos_site_id
 _symmetry_equiv_pos_as_xyz
  1  'x, y, z'
loop_
 _atom_site_type_symbol
 _atom_site_label
 _atom_site_symmetry_multiplicity
 _atom_site_fract_x
 _atom_site_fract_y
 _atom_site_fract_z
 _atom_site_occupancy
  Na  Na0  1  0.16481700  0.33518300  0.49194800  1
  Na  Na1  1  0.33518300  0.83518300  0.50805200  1
  Na  Na2  1  0.66481700  0.16481700  0.50805200  1
  Na  Na3  1  0.83518300  0.66481700  0.49194800  1
  V  V4  1  0.14496900  0.64496900  0.92328800  1
  V  V5  1  0.64496900  0.85503100  0.07671200  1
  V  V6  1  0.35503100  0.14496900  0.07671200  1
  V  V7  1  0.85503100  0.35503100  0.92328800  1
  Zn  Zn8  1  0.00000000  0.00000000  0.00000000  1
  Zn  Zn9  1  0.50000000  0.50000000  0.00000000  1
  O  O10  1  0.64758000  0.85242000  0.75362500  1
  O  O11  1  0.00000000  0.50000000  0.79843600  1
  O  O12  1  0.82919300  0.90465200  0.20593000  1
  O  O13  1  0.40465200  0.32919300  0.20593000  1
  O  O14  1  0.14758000  0.64758000  0.24637500  1
  O  O15  1  0.17080700  0.09534800  0.20593000  1
  O  O16  1  0.85242000  0.35242000  0.24637500  1
  O  O17  1  0.50000000  0.00000000  0.20156400  1
  O  O18  1  0.59534800  0.67080700  0.20593000  1
  O  O19  1  0.67080700  0.40465200  0.79407000  1
  O  O20  1  0.90465200  0.17080700  0.79407000  1
  O  O21  1  0.35242000  0.14758000  0.75362500  1
  O  O22  1  0.32919300  0.59534800  0.79407000  1
  O  O23  1  0.09534800  0.82919300  0.79407000  1
