# generated using pymatgen
data_P2H6C4N2Cl2O
_symmetry_space_group_name_H-M   'P 1'
_cell_length_a   7.45654500
_cell_length_b   10.28650715
_cell_length_c   13.92449523
_cell_angle_alpha   107.72635513
_cell_angle_beta   88.22917523
_cell_angle_gamma   108.61226438
_symmetry_Int_Tables_number   1
_chemical_formula_structural   P2H6C4N2Cl2O
_chemical_formula_sum   'P8 H24 C16 N8 Cl8 O4'
_cell_volume   961.51744436
_cell_formula_units_Z   4
loop_
 _symmetry_equiv_pos_site_id
 _symmetry_equiv_pos_as_xyz
  1  'x, y, z'
loop_
 _atom_site_type_symbol
 _atom_site_label
 _atom_site_symmetry_multiplicity
 _atom_site_fract_x
 _atom_site_fract_y
 _atom_site_fract_z
 _atom_site_occupancy
  P  P0  1  0.64475200  0.60778000  0.57054400  1
  P  P1  1  0.74591700  0.34419800  0.46230800  1
  P  P2  1  0.94532800  0.72509700  0.87876700  1
  P  P3  1  0.35524800  0.39222000  0.42945600  1
  P  P4  1  0.25408300  0.65580200  0.53769200  1
  P  P5  1  0.85254500  0.96012700  0.06238300  1
  P  P6  1  0.14745500  0.03987300  0.93761700  1
  P  P7  1  0.05467200  0.27490300  0.12123300  1
  H  H8  1  0.62485800  0.28949300  0.69880100  1
  H  H9  1  0.87470800  0.98210000  0.61543900  1
  H  H10  1  0.05763600  0.15607300  0.35831100  1
  H  H11  1  0.33456200  0.13867400  0.79536500  1
  H  H12  1  0.66543800  0.86132600  0.20463500  1
  H  H13  1  0.83932100  0.31887500  0.63696400  1
  H  H14  1  0.29133200  0.69791900  0.89100100  1
  H  H15  1  0.64326900  0.24222400  0.97670300  1
  H  H16  1  0.16067900  0.68112500  0.36303600  1
  H  H17  1  0.79947900  0.42141000  0.03512200  1
  H  H18  1  0.12529200  0.01790000  0.38456100  1
  H  H19  1  0.85933500  0.84119700  0.26349000  1
  H  H20  1  0.01652700  0.12403700  0.47752400  1
  H  H21  1  0.14066500  0.15880300  0.73651000  1
  H  H22  1  0.30713800  0.31265600  0.82335500  1
  H  H23  1  0.69286200  0.68734400  0.17664500  1
  H  H24  1  0.37514200  0.71050700  0.30119900  1
  H  H25  1  0.70866800  0.30208100  0.10899900  1
  H  H26  1  0.20052100  0.57859000  0.96487800  1
  H  H27  1  0.32660900  0.86054100  0.38978200  1
  H  H28  1  0.35673100  0.75777600  0.02329700  1
  H  H29  1  0.98347300  0.87596300  0.52247600  1
  H  H30  1  0.94236400  0.84392700  0.64168900  1
  H  H31  1  0.67339100  0.13945900  0.61021800  1
  C  C32  1  0.24134400  0.69087400  0.96469200  1
  C  C33  1  0.01082500  0.75589200  0.08076000  1
  C  C34  1  0.88566900  0.87369300  0.58286500  1
  C  C35  1  0.89648000  0.89876400  0.92580900  1
  C  C36  1  0.68861800  0.25406500  0.62764600  1
  C  C37  1  0.75865600  0.30912600  0.03530800  1
  C  C38  1  0.37983000  0.53785200  0.56031500  1
  C  C39  1  0.98917500  0.24410800  0.91924000  1
  C  C40  1  0.10352000  0.10123600  0.07419100  1
  C  C41  1  0.62017000  0.46214800  0.43968500  1
  C  C42  1  0.76865700  0.80338700  0.19346900  1
  C  C43  1  0.59749900  0.80174700  0.47725500  1
  C  C44  1  0.31138200  0.74593500  0.37235400  1
  C  C45  1  0.40250100  0.19825300  0.52274500  1
  C  C46  1  0.11433100  0.12630700  0.41713500  1
  C  C47  1  0.23134300  0.19661300  0.80653100  1
  N  N48  1  0.40380400  0.72054300  0.45427600  1
  N  N49  1  0.69576600  0.76834000  0.54507100  1
  N  N50  1  0.91941300  0.25221400  0.01532800  1
  N  N51  1  0.87952300  0.82955100  0.10761700  1
  N  N52  1  0.30423400  0.23166000  0.45492900  1
  N  N53  1  0.12047700  0.17044900  0.89238300  1
  N  N54  1  0.59619600  0.27945700  0.54572400  1
  N  N55  1  0.08058700  0.74778600  0.98467200  1
  Cl  Cl56  1  0.72126900  0.90062300  0.84291100  1
  Cl  Cl57  1  0.32061000  0.41955400  0.10828600  1
  Cl  Cl58  1  0.32871900  0.82472400  0.67577800  1
  Cl  Cl59  1  0.27873100  0.09937700  0.15708900  1
  Cl  Cl60  1  0.72088100  0.52624600  0.33844300  1
  Cl  Cl61  1  0.27911900  0.47375400  0.66155700  1
  Cl  Cl62  1  0.67128100  0.17527600  0.32422200  1
  Cl  Cl63  1  0.67939000  0.58044600  0.89171400  1
  O  O64  1  0.32553100  0.09987600  0.55835700  1
  O  O65  1  0.05821400  0.69760800  0.13624000  1
  O  O66  1  0.67446900  0.90012400  0.44164300  1
  O  O67  1  0.94178600  0.30239200  0.86376000  1
