# generated using pymatgen
data_Tm2Te4O11
_symmetry_space_group_name_H-M   'P 1'
_cell_length_a   6.70575319
_cell_length_b   6.70575319
_cell_length_c   16.19567904
_cell_angle_alpha   75.69647922
_cell_angle_beta   75.69647922
_cell_angle_gamma   44.94339449
_symmetry_Int_Tables_number   1
_chemical_formula_structural   Tm2Te4O11
_chemical_formula_sum   'Tm4 Te8 O22'
_cell_volume   495.72996392
_cell_formula_units_Z   2
loop_
 _symmetry_equiv_pos_site_id
 _symmetry_equiv_pos_as_xyz
  1  'x, y, z'
loop_
 _atom_site_type_symbol
 _atom_site_label
 _atom_site_symmetry_multiplicity
 _atom_site_fract_x
 _atom_site_fract_y
 _atom_site_fract_z
 _atom_site_occupancy
  Tm  Tm0  1  0.87013000  0.36900200  0.96321500  1
  Tm  Tm1  1  0.63099800  0.12987000  0.53678500  1
  Tm  Tm2  1  0.36900200  0.87013000  0.46321500  1
  Tm  Tm3  1  0.12987000  0.63099800  0.03678500  1
  Te  Te4  1  0.59035300  0.15536900  0.87508100  1
  Te  Te5  1  0.59833500  0.15711000  0.19766400  1
  Te  Te6  1  0.40166500  0.84289000  0.80233600  1
  Te  Te7  1  0.84289000  0.40166500  0.30233600  1
  Te  Te8  1  0.40964700  0.84463100  0.12491900  1
  Te  Te9  1  0.84463100  0.40964700  0.62491900  1
  Te  Te10  1  0.15711000  0.59833500  0.69766400  1
  Te  Te11  1  0.15536900  0.59035300  0.37508100  1
  O  O12  1  0.08895100  0.20949700  0.83398900  1
  O  O13  1  0.55070000  0.40142700  0.09433400  1
  O  O14  1  0.59857300  0.44930000  0.40566600  1
  O  O15  1  0.66021700  0.75567500  0.55132100  1
  O  O16  1  0.79050300  0.91104900  0.66601100  1
  O  O17  1  0.14425300  0.85574700  0.75000000  1
  O  O18  1  0.17212400  0.96539200  0.04400600  1
  O  O19  1  0.82787600  0.03460800  0.95599400  1
  O  O20  1  0.85574700  0.14425300  0.25000000  1
  O  O21  1  0.03460800  0.82787600  0.45599400  1
  O  O22  1  0.33978300  0.24432500  0.44867900  1
  O  O23  1  0.19223900  0.31385800  0.62718900  1
  O  O24  1  0.75567500  0.66021700  0.05132100  1
  O  O25  1  0.40142700  0.55070000  0.59433400  1
  O  O26  1  0.20949700  0.08895100  0.33398900  1
  O  O27  1  0.96539200  0.17212400  0.54400600  1
  O  O28  1  0.80776100  0.68614200  0.37281100  1
  O  O29  1  0.91104900  0.79050300  0.16601100  1
  O  O30  1  0.68614200  0.80776100  0.87281100  1
  O  O31  1  0.44930000  0.59857300  0.90566600  1
  O  O32  1  0.31385800  0.19223900  0.12718900  1
  O  O33  1  0.24432500  0.33978300  0.94867900  1
