# generated using pymatgen
data_ZnS
_symmetry_space_group_name_H-M   'P 1'
_cell_length_a   3.85356372
_cell_length_b   3.85356372
_cell_length_c   63.00424700
_cell_angle_alpha   90.00000000
_cell_angle_beta   90.00000000
_cell_angle_gamma   119.99999526
_symmetry_Int_Tables_number   1
_chemical_formula_structural   ZnS
_chemical_formula_sum   'Zn20 S20'
_cell_volume   810.26217953
_cell_formula_units_Z   20
loop_
 _symmetry_equiv_pos_site_id
 _symmetry_equiv_pos_as_xyz
  1  'x, y, z'
loop_
 _atom_site_type_symbol
 _atom_site_label
 _atom_site_symmetry_multiplicity
 _atom_site_fract_x
 _atom_site_fract_y
 _atom_site_fract_z
 _atom_site_occupancy
  Zn  Zn0  1  0.00000000  0.00000000  0.55000900  1
  Zn  Zn1  1  0.33333300  0.66666700  0.69999800  1
  Zn  Zn2  1  0.33333300  0.66666700  0.19999800  1
  Zn  Zn3  1  0.66666700  0.33333300  0.40000000  1
  Zn  Zn4  1  0.66666700  0.33333300  0.90000300  1
  Zn  Zn5  1  0.00000000  0.00000000  0.85000200  1
  Zn  Zn6  1  0.33333300  0.66666700  0.94999800  1
  Zn  Zn7  1  0.66666700  0.33333300  0.75000000  1
  Zn  Zn8  1  0.66666700  0.33333300  0.10000200  1
  Zn  Zn9  1  0.00000000  0.00000000  0.65001400  1
  Zn  Zn10  1  0.33333300  0.66666700  0.80001400  1
  Zn  Zn11  1  0.66666700  0.33333300  0.59999900  1
  Zn  Zn12  1  0.00000000  0.00000000  0.99999900  1
  Zn  Zn13  1  0.00000000  0.00000000  0.45000900  1
  Zn  Zn14  1  0.33333300  0.66666700  0.05001400  1
  Zn  Zn15  1  0.00000000  0.00000000  0.15000300  1
  Zn  Zn16  1  0.33333300  0.66666700  0.30001400  1
  Zn  Zn17  1  0.00000000  0.00000000  0.34999700  1
  Zn  Zn18  1  0.66666700  0.33333300  0.24999900  1
  Zn  Zn19  1  0.33333300  0.66666700  0.49999900  1
  S  S20  1  0.33333300  0.66666700  0.33749400  1
  S  S21  1  0.00000000  0.00000000  0.58746500  1
  S  S22  1  0.33333300  0.66666700  0.83749500  1
  S  S23  1  0.00000000  0.00000000  0.03752800  1
  S  S24  1  0.33333300  0.66666700  0.73746700  1
  S  S25  1  0.33333300  0.66666700  0.08749500  1
  S  S26  1  0.66666700  0.33333300  0.28752800  1
  S  S27  1  0.66666700  0.33333300  0.43752700  1
  S  S28  1  0.00000000  0.00000000  0.88749700  1
  S  S29  1  0.33333300  0.66666700  0.98746700  1
  S  S30  1  0.66666700  0.33333300  0.63752800  1
  S  S31  1  0.00000000  0.00000000  0.48746600  1
  S  S32  1  0.66666700  0.33333300  0.93749700  1
  S  S33  1  0.33333300  0.66666700  0.23746700  1
  S  S34  1  0.00000000  0.00000000  0.38746600  1
  S  S35  1  0.66666700  0.33333300  0.78752800  1
  S  S36  1  0.00000000  0.00000000  0.18749700  1
  S  S37  1  0.33333300  0.66666700  0.53752700  1
  S  S38  1  0.66666700  0.33333300  0.13749700  1
  S  S39  1  0.00000000  0.00000000  0.68749400  1
