# generated using pymatgen
data_Zr2TlTc
_symmetry_space_group_name_H-M   'P 1'
_cell_length_a   13.87410968
_cell_length_b   13.87410968
_cell_length_c   13.87410968
_cell_angle_alpha   135.11378066
_cell_angle_beta   116.79379302
_cell_angle_gamma   80.83428710
_symmetry_Int_Tables_number   1
_chemical_formula_structural   Zr2TlTc
_chemical_formula_sum   'Zr2 Tl1 Tc1'
_cell_volume   1627.08959461
_cell_formula_units_Z   1
loop_
 _symmetry_equiv_pos_site_id
 _symmetry_equiv_pos_as_xyz
  1  'x, y, z'
loop_
 _atom_site_type_symbol
 _atom_site_label
 _atom_site_symmetry_multiplicity
 _atom_site_fract_x
 _atom_site_fract_y
 _atom_site_fract_z
 _atom_site_occupancy
  Zr  Zr0  1  0.00000000  0.21132500  0.21132500  1
  Zr  Zr1  1  0.00000000  0.78867500  0.78867500  1
  Tl  Tl2  1  0.00000000  0.50000000  0.50000000  1
  Tc  Tc3  1  0.00000000  0.00000000  0.00000000  1
