# generated using pymatgen
data_La2MgIn
_symmetry_space_group_name_H-M   'P 1'
_cell_length_a   12.47925915
_cell_length_b   12.47925915
_cell_length_c   12.47925915
_cell_angle_alpha   119.64936914
_cell_angle_beta   118.14371660
_cell_angle_gamma   91.92689411
_symmetry_Int_Tables_number   1
_chemical_formula_structural   La2MgIn
_chemical_formula_sum   'La2 Mg1 In1'
_cell_volume   1395.98105053
_cell_formula_units_Z   1
loop_
 _symmetry_equiv_pos_site_id
 _symmetry_equiv_pos_as_xyz
  1  'x, y, z'
loop_
 _atom_site_type_symbol
 _atom_site_label
 _atom_site_symmetry_multiplicity
 _atom_site_fract_x
 _atom_site_fract_y
 _atom_site_fract_z
 _atom_site_occupancy
  La  La0  1  0.00000000  0.26288100  0.26288100  1
  La  La1  1  0.00000000  0.73711900  0.73711900  1
  Mg  Mg2  1  0.00000000  0.00000000  0.00000000  1
  In  In3  1  0.00000000  0.50000000  0.50000000  1
