# generated using pymatgen
data_Na5P3O10
_symmetry_space_group_name_H-M   'P 1'
_cell_length_a   5.61432481
_cell_length_b   5.61432481
_cell_length_c   18.72673488
_cell_angle_alpha   83.99023588
_cell_angle_beta   83.99023588
_cell_angle_gamma   57.58459072
_symmetry_Int_Tables_number   1
_chemical_formula_structural   Na5P3O10
_chemical_formula_sum   'Na10 P6 O20'
_cell_volume   494.73493329
_cell_formula_units_Z   2
loop_
 _symmetry_equiv_pos_site_id
 _symmetry_equiv_pos_as_xyz
  1  'x, y, z'
loop_
 _atom_site_type_symbol
 _atom_site_label
 _atom_site_symmetry_multiplicity
 _atom_site_fract_x
 _atom_site_fract_y
 _atom_site_fract_z
 _atom_site_occupancy
  Na  Na0  1  0.68990700  0.15907500  0.06724300  1
  Na  Na1  1  0.96407700  0.60565900  0.82373900  1
  Na  Na2  1  0.39434100  0.03592300  0.67626100  1
  Na  Na3  1  0.84092500  0.31009300  0.43275700  1
  Na  Na4  1  0.31009300  0.84092500  0.93275700  1
  Na  Na5  1  0.60565900  0.96407700  0.32373900  1
  Na  Na6  1  0.00000000  0.50000000  0.00000000  1
  Na  Na7  1  0.03592300  0.39434100  0.17626100  1
  Na  Na8  1  0.15907500  0.68990700  0.56724300  1
  Na  Na9  1  0.50000000  0.00000000  0.50000000  1
  P  P10  1  0.18907500  0.64445600  0.40026700  1
  P  P11  1  0.64445600  0.18907500  0.90026700  1
  P  P12  1  0.40108600  0.59891400  0.25000000  1
  P  P13  1  0.59891400  0.40108600  0.75000000  1
  P  P14  1  0.35554400  0.81092500  0.09973300  1
  P  P15  1  0.81092500  0.35554400  0.59973300  1
  O  O16  1  0.57052100  0.66594800  0.59663900  1
  O  O17  1  0.84347700  0.24401700  0.68698400  1
  O  O18  1  0.42111600  0.33215000  0.23233000  1
  O  O19  1  0.83617500  0.25259100  0.93599000  1
  O  O20  1  0.10310400  0.30538700  0.57728200  1
  O  O21  1  0.33215000  0.42111600  0.73233000  1
  O  O22  1  0.89689600  0.69461300  0.42271800  1
  O  O23  1  0.30538700  0.10310400  0.07728200  1
  O  O24  1  0.33405200  0.42947900  0.90336100  1
  O  O25  1  0.69461300  0.89689600  0.92271800  1
  O  O26  1  0.74740900  0.16382500  0.56401000  1
  O  O27  1  0.42947900  0.33405200  0.40336100  1
  O  O28  1  0.66594800  0.57052100  0.09663900  1
  O  O29  1  0.66785000  0.57888400  0.26767000  1
  O  O30  1  0.25259100  0.83617500  0.43599000  1
  O  O31  1  0.16382500  0.74740900  0.06401000  1
  O  O32  1  0.15652300  0.75598300  0.31301600  1
  O  O33  1  0.57888400  0.66785000  0.76767000  1
  O  O34  1  0.24401700  0.84347700  0.18698400  1
  O  O35  1  0.75598300  0.15652300  0.81301600  1
