# generated using pymatgen
data_CeNbO4
_symmetry_space_group_name_H-M   'P 1'
_cell_length_a   6.91981653
_cell_length_b   6.91981653
_cell_length_c   6.91981653
_cell_angle_alpha   134.08117182
_cell_angle_beta   134.08117182
_cell_angle_gamma   66.96125278
_symmetry_Int_Tables_number   1
_chemical_formula_structural   CeNbO4
_chemical_formula_sum   'Ce2 Nb2 O8'
_cell_volume   168.21030092
_cell_formula_units_Z   2
loop_
 _symmetry_equiv_pos_site_id
 _symmetry_equiv_pos_as_xyz
  1  'x, y, z'
loop_
 _atom_site_type_symbol
 _atom_site_label
 _atom_site_symmetry_multiplicity
 _atom_site_fract_x
 _atom_site_fract_y
 _atom_site_fract_z
 _atom_site_occupancy
  Ce  Ce0  1  0.75000000  0.25000000  0.50000000  1
  Ce  Ce1  1  0.00000000  0.00000000  0.00000000  1
  Nb  Nb2  1  0.25000000  0.75000000  0.50000000  1
  Nb  Nb3  1  0.50000000  0.50000000  0.00000000  1
  O  O4  1  0.58584800  0.67099100  0.58320700  1
  O  O5  1  0.75264000  0.83584800  0.41485700  1
  O  O6  1  0.99736000  0.41415200  0.08514300  1
  O  O7  1  0.42099100  0.33778300  0.58514300  1
  O  O8  1  0.32900900  0.91221700  0.91485700  1
  O  O9  1  0.16415200  0.57900900  0.91679300  1
  O  O10  1  0.08778300  0.00264000  0.41679300  1
  O  O11  1  0.66221700  0.24736000  0.08320700  1
