# generated using pymatgen
data_Sr2CuF6
_symmetry_space_group_name_H-M   'P 1'
_cell_length_a   8.78729851
_cell_length_b   8.78729851
_cell_length_c   5.80493000
_cell_angle_alpha   90.00000000
_cell_angle_beta   90.00000000
_cell_angle_gamma   141.41710000
_symmetry_Int_Tables_number   1
_chemical_formula_structural   Sr2CuF6
_chemical_formula_sum   'Sr4 Cu2 F12'
_cell_volume   279.54138509
_cell_formula_units_Z   2
loop_
 _symmetry_equiv_pos_site_id
 _symmetry_equiv_pos_as_xyz
  1  'x, y, z'
loop_
 _atom_site_type_symbol
 _atom_site_label
 _atom_site_symmetry_multiplicity
 _atom_site_fract_x
 _atom_site_fract_y
 _atom_site_fract_z
 _atom_site_occupancy
  Sr  Sr0  1  0.66173200  0.33826800  0.50000000  1
  Sr  Sr1  1  0.16173200  0.83826800  0.00000000  1
  Sr  Sr2  1  0.83826800  0.16173200  0.00000000  1
  Sr  Sr3  1  0.33826800  0.66173200  0.50000000  1
  Cu  Cu4  1  0.00000000  0.00000000  0.50000000  1
  Cu  Cu5  1  0.50000000  0.50000000  0.00000000  1
  F  F6  1  0.08507500  0.24689200  0.33297600  1
  F  F7  1  0.50499700  0.00499700  0.25000000  1
  F  F8  1  0.99500300  0.49500300  0.75000000  1
  F  F9  1  0.91492500  0.75310800  0.66702400  1
  F  F10  1  0.49500300  0.99500300  0.75000000  1
  F  F11  1  0.75310800  0.91492500  0.66702400  1
  F  F12  1  0.41492500  0.25310800  0.83297600  1
  F  F13  1  0.25310800  0.41492500  0.83297600  1
  F  F14  1  0.00499700  0.50499700  0.25000000  1
  F  F15  1  0.74689200  0.58507500  0.16702400  1
  F  F16  1  0.58507500  0.74689200  0.16702400  1
  F  F17  1  0.24689200  0.08507500  0.33297600  1
