# generated using pymatgen
data_CaV2CuO7
_symmetry_space_group_name_H-M   'P 1'
_cell_length_a   8.93043200
_cell_length_b   10.32397700
_cell_length_c   10.33693881
_cell_angle_alpha   88.11077587
_cell_angle_beta   90.00000000
_cell_angle_gamma   90.00000000
_symmetry_Int_Tables_number   1
_chemical_formula_structural   CaV2CuO7
_chemical_formula_sum   'Ca6 V12 Cu6 O42'
_cell_volume   952.52264609
_cell_formula_units_Z   6
loop_
 _symmetry_equiv_pos_site_id
 _symmetry_equiv_pos_as_xyz
  1  'x, y, z'
loop_
 _atom_site_type_symbol
 _atom_site_label
 _atom_site_symmetry_multiplicity
 _atom_site_fract_x
 _atom_site_fract_y
 _atom_site_fract_z
 _atom_site_occupancy
  Ca  Ca0  1  0.44450700  0.82270700  0.56848100  1
  Ca  Ca1  1  0.93557800  0.50000000  0.75000000  1
  Ca  Ca2  1  0.44450700  0.17729300  0.93151900  1
  Ca  Ca3  1  0.06442200  0.50000000  0.25000000  1
  Ca  Ca4  1  0.55549300  0.17729300  0.43151900  1
  Ca  Ca5  1  0.55549300  0.82270700  0.06848100  1
  V  V6  1  0.20287200  0.83526500  0.28812200  1
  V  V7  1  0.74703400  0.83732100  0.38236000  1
  V  V8  1  0.25296600  0.83732100  0.88236000  1
  V  V9  1  0.79712800  0.83526500  0.78812200  1
  V  V10  1  0.29651300  0.52544000  0.95879500  1
  V  V11  1  0.74703400  0.16267900  0.11764000  1
  V  V12  1  0.70348700  0.52544000  0.45879500  1
  V  V13  1  0.25296600  0.16267900  0.61764000  1
  V  V14  1  0.29651300  0.47456000  0.54120500  1
  V  V15  1  0.70348700  0.47456000  0.04120500  1
  V  V16  1  0.79712800  0.16473500  0.71187800  1
  V  V17  1  0.20287200  0.16473500  0.21187800  1
  Cu  Cu18  1  0.93498300  0.19347400  0.40996700  1
  Cu  Cu19  1  0.06501700  0.80652600  0.59003300  1
  Cu  Cu20  1  0.44272300  0.50000000  0.25000000  1
  Cu  Cu21  1  0.93498300  0.80652600  0.09003300  1
  Cu  Cu22  1  0.55727700  0.50000000  0.75000000  1
  Cu  Cu23  1  0.06501700  0.19347400  0.90996700  1
  O  O24  1  0.78328200  0.80720000  0.95606900  1
  O  O25  1  0.77315900  0.17133500  0.28544200  1
  O  O26  1  0.85238900  0.00000000  0.75000000  1
  O  O27  1  0.87643000  0.49044100  0.09949300  1
  O  O28  1  0.38059400  0.04806300  0.57628900  1
  O  O29  1  0.92708800  0.73127900  0.71705200  1
  O  O30  1  0.35634200  0.69339400  0.94010000  1
  O  O31  1  0.12357000  0.49044100  0.59949300  1
  O  O32  1  0.71535400  0.51648700  0.87605900  1
  O  O33  1  0.38059400  0.95193700  0.92371100  1
  O  O34  1  0.71535400  0.48351300  0.62394100  1
  O  O35  1  0.42000800  0.42358400  0.87793800  1
  O  O36  1  0.91015800  0.14962800  0.03316800  1
  O  O37  1  0.07291200  0.73127900  0.21705200  1
  O  O38  1  0.64365800  0.30660600  0.05990000  1
  O  O39  1  0.35634200  0.30660600  0.55990000  1
  O  O40  1  0.92708800  0.26872100  0.78294800  1
  O  O41  1  0.61940600  0.95193700  0.42371100  1
  O  O42  1  0.21671800  0.80720000  0.45606900  1
  O  O43  1  0.57999200  0.57641600  0.12206200  1
  O  O44  1  0.37533800  0.19066600  0.27009200  1
  O  O45  1  0.28464600  0.48351300  0.12394100  1
  O  O46  1  0.08984200  0.14962800  0.53316800  1
  O  O47  1  0.28464600  0.51648700  0.37605900  1
  O  O48  1  0.87643000  0.50955900  0.40050700  1
  O  O49  1  0.57999200  0.42358400  0.37793800  1
  O  O50  1  0.12357000  0.50955900  0.90050700  1
  O  O51  1  0.62466200  0.19066600  0.77009200  1
  O  O52  1  0.62466200  0.80933400  0.72990800  1
  O  O53  1  0.08984200  0.85037200  0.96683200  1
  O  O54  1  0.07291200  0.26872100  0.28294800  1
  O  O55  1  0.78328200  0.19280000  0.54393100  1
  O  O56  1  0.14761100  0.00000000  0.25000000  1
  O  O57  1  0.22684100  0.17133500  0.78544200  1
  O  O58  1  0.61940600  0.04806300  0.07628900  1
  O  O59  1  0.91015800  0.85037200  0.46683200  1
  O  O60  1  0.21671800  0.19280000  0.04393100  1
  O  O61  1  0.77315900  0.82866500  0.21455800  1
  O  O62  1  0.42000800  0.57641600  0.62206200  1
  O  O63  1  0.64365800  0.69339400  0.44010000  1
  O  O64  1  0.22684100  0.82866500  0.71455800  1
  O  O65  1  0.37533800  0.80933400  0.22990800  1
