# generated using pymatgen
data_Lu(PO3)3
_symmetry_space_group_name_H-M   'P 1'
_cell_length_a   12.87231500
_cell_length_b   12.87231500
_cell_length_c   12.87231435
_cell_angle_alpha   110.44552651
_cell_angle_beta   110.44552651
_cell_angle_gamma   110.44552445
_symmetry_Int_Tables_number   1
_chemical_formula_structural   Lu(PO3)3
_chemical_formula_sum   'Lu8 P24 O72'
_cell_volume   1579.90667449
_cell_formula_units_Z   8
loop_
 _symmetry_equiv_pos_site_id
 _symmetry_equiv_pos_as_xyz
  1  'x, y, z'
loop_
 _atom_site_type_symbol
 _atom_site_label
 _atom_site_symmetry_multiplicity
 _atom_site_fract_x
 _atom_site_fract_y
 _atom_site_fract_z
 _atom_site_occupancy
  Lu  Lu0  1  0.73155200  0.02125400  0.53833400  1
  Lu  Lu1  1  0.50000000  0.50000000  0.50000000  1
  Lu  Lu2  1  0.26844800  0.97874600  0.46166600  1
  Lu  Lu3  1  0.53833400  0.73155200  0.02125400  1
  Lu  Lu4  1  0.97874600  0.46166600  0.26844800  1
  Lu  Lu5  1  0.46166600  0.26844800  0.97874600  1
  Lu  Lu6  1  0.02125400  0.53833400  0.73155200  1
  Lu  Lu7  1  0.00000000  0.00000000  0.00000000  1
  P  P8  1  0.79125000  0.32976200  0.37734600  1
  P  P9  1  0.62265400  0.20875000  0.67023800  1
  P  P10  1  0.27160600  0.26990300  0.51809600  1
  P  P11  1  0.51809600  0.27160600  0.26990300  1
  P  P12  1  0.06716700  0.28721700  0.76592200  1
  P  P13  1  0.01754800  0.20015800  0.29697900  1
  P  P14  1  0.98245200  0.79984200  0.70302100  1
  P  P15  1  0.70302100  0.98245200  0.79984200  1
  P  P16  1  0.76592200  0.06716700  0.28721700  1
  P  P17  1  0.79984200  0.70302100  0.98245200  1
  P  P18  1  0.71278300  0.23407800  0.93283300  1
  P  P19  1  0.26990300  0.51809600  0.27160600  1
  P  P20  1  0.73009700  0.48190400  0.72839400  1
  P  P21  1  0.93283300  0.71278300  0.23407800  1
  P  P22  1  0.28721700  0.76592200  0.06716700  1
  P  P23  1  0.37734600  0.79125000  0.32976200  1
  P  P24  1  0.72839400  0.73009700  0.48190400  1
  P  P25  1  0.29697900  0.01754800  0.20015800  1
  P  P26  1  0.20875000  0.67023800  0.62265400  1
  P  P27  1  0.32976200  0.37734600  0.79125000  1
  P  P28  1  0.48190400  0.72839400  0.73009700  1
  P  P29  1  0.23407800  0.93283300  0.71278300  1
  P  P30  1  0.20015800  0.29697900  0.01754800  1
  P  P31  1  0.67023800  0.62265400  0.20875000  1
  O  O32  1  0.14746200  0.27337300  0.43737100  1
  O  O33  1  0.76709300  0.86127400  0.49782100  1
  O  O34  1  0.17546400  0.59954400  0.68864200  1
  O  O35  1  0.10730800  0.18972900  0.02047600  1
  O  O36  1  0.84711400  0.32567700  0.05506400  1
  O  O37  1  0.62601100  0.67290300  0.50978800  1
  O  O38  1  0.66283100  0.31815300  0.37666100  1
  O  O39  1  0.86127400  0.49782100  0.76709300  1
  O  O40  1  0.31135800  0.82453600  0.40045600  1
  O  O41  1  0.82122900  0.72018600  0.25916600  1
  O  O42  1  0.99685900  0.30406900  0.28549100  1
  O  O43  1  0.68864200  0.17546400  0.59954400  1
  O  O44  1  0.85253800  0.72662700  0.56262900  1
  O  O45  1  0.38410200  0.51696200  0.89073000  1
  O  O46  1  0.94016500  0.60053000  0.23729800  1
  O  O47  1  0.27981400  0.74083400  0.17877100  1
  O  O48  1  0.08617900  0.88116500  0.67692900  1
  O  O49  1  0.89269200  0.81027100  0.97952400  1
  O  O50  1  0.32567700  0.05506400  0.84711400  1
  O  O51  1  0.05506400  0.84711400  0.32567700  1
  O  O52  1  0.32709700  0.49021200  0.37398900  1
  O  O53  1  0.67692900  0.08617900  0.88116500  1
  O  O54  1  0.32307100  0.91382100  0.11883500  1
  O  O55  1  0.15288600  0.67432300  0.94493600  1
  O  O56  1  0.74083400  0.17877100  0.27981400  1
  O  O57  1  0.27337300  0.43737100  0.14746200  1
  O  O58  1  0.25916600  0.82122900  0.72018600  1
  O  O59  1  0.68184700  0.62333900  0.33716900  1
  O  O60  1  0.71450900  0.00314100  0.69593100  1
  O  O61  1  0.69593100  0.71450900  0.00314100  1
  O  O62  1  0.23290700  0.13872600  0.50217900  1
  O  O63  1  0.72662700  0.56262900  0.85253800  1
  O  O64  1  0.18972900  0.02047600  0.10730800  1
  O  O65  1  0.13872600  0.50217900  0.23290700  1
  O  O66  1  0.11883500  0.32307100  0.91382100  1
  O  O67  1  0.60053000  0.23729800  0.94016500  1
  O  O68  1  0.37666100  0.66283100  0.31815300  1
  O  O69  1  0.40045600  0.31135800  0.82453600  1
  O  O70  1  0.89073000  0.38410200  0.51696200  1
  O  O71  1  0.10927000  0.61589800  0.48303800  1
  O  O72  1  0.76270200  0.05983500  0.39947000  1
  O  O73  1  0.49782100  0.76709300  0.86127400  1
  O  O74  1  0.17877100  0.27981400  0.74083400  1
  O  O75  1  0.72018600  0.25916600  0.82122900  1
  O  O76  1  0.50978800  0.62601100  0.67290300  1
  O  O77  1  0.28549100  0.99685900  0.30406900  1
  O  O78  1  0.31815300  0.37666100  0.66283100  1
  O  O79  1  0.02047600  0.10730800  0.18972900  1
  O  O80  1  0.33716900  0.68184700  0.62333900  1
  O  O81  1  0.43737100  0.14746200  0.27337300  1
  O  O82  1  0.00314100  0.69593100  0.71450900  1
  O  O83  1  0.51696200  0.89073000  0.38410200  1
  O  O84  1  0.50217900  0.23290700  0.13872600  1
  O  O85  1  0.94493600  0.15288600  0.67432300  1
  O  O86  1  0.56262900  0.85253800  0.72662700  1
  O  O87  1  0.62333900  0.33716900  0.68184700  1
  O  O88  1  0.91382100  0.11883500  0.32307100  1
  O  O89  1  0.48303800  0.10927000  0.61589800  1
  O  O90  1  0.05983500  0.39947000  0.76270200  1
  O  O91  1  0.82453600  0.40045600  0.31135800  1
  O  O92  1  0.39947000  0.76270200  0.05983500  1
  O  O93  1  0.59954400  0.68864200  0.17546400  1
  O  O94  1  0.88116500  0.67692900  0.08617900  1
  O  O95  1  0.30406900  0.28549100  0.99685900  1
  O  O96  1  0.23729800  0.94016500  0.60053000  1
  O  O97  1  0.49021200  0.37398900  0.32709700  1
  O  O98  1  0.97952400  0.89269200  0.81027100  1
  O  O99  1  0.67290300  0.50978800  0.62601100  1
  O  O100  1  0.67432300  0.94493600  0.15288600  1
  O  O101  1  0.61589800  0.48303800  0.10927000  1
  O  O102  1  0.37398900  0.32709700  0.49021200  1
  O  O103  1  0.81027100  0.97952400  0.89269200  1
