# generated using pymatgen
data_Na5Y4Si4O16F
_symmetry_space_group_name_H-M   'P 1'
_cell_length_a   8.70725956
_cell_length_b   8.70725956
_cell_length_c   8.70725956
_cell_angle_alpha   95.63453991
_cell_angle_beta   95.63453991
_cell_angle_gamma   143.47856937
_symmetry_Int_Tables_number   1
_chemical_formula_structural   Na5Y4Si4O16F
_chemical_formula_sum   'Na5 Y4 Si4 O16 F1'
_cell_volume   373.08755125
_cell_formula_units_Z   1
loop_
 _symmetry_equiv_pos_site_id
 _symmetry_equiv_pos_as_xyz
  1  'x, y, z'
loop_
 _atom_site_type_symbol
 _atom_site_label
 _atom_site_symmetry_multiplicity
 _atom_site_fract_x
 _atom_site_fract_y
 _atom_site_fract_z
 _atom_site_occupancy
  Na  Na0  1  0.90102600  0.59536300  0.51545700  1
  Na  Na1  1  0.50000000  0.50000000  0.00000000  1
  Na  Na2  1  0.40463700  0.92009400  0.30566300  1
  Na  Na3  1  0.61443100  0.09897400  0.69433700  1
  Na  Na4  1  0.07990600  0.38556900  0.48454300  1
  Y  Y5  1  0.86044000  0.15879600  0.06663700  1
  Y  Y6  1  0.20619700  0.13956000  0.29835600  1
  Y  Y7  1  0.84120400  0.90784100  0.70164400  1
  Y  Y8  1  0.09215900  0.79380300  0.93336300  1
  Si  Si9  1  0.59263900  0.73633100  0.35067300  1
  Si  Si10  1  0.75803400  0.40736100  0.14369200  1
  Si  Si11  1  0.26366900  0.61434200  0.85630800  1
  Si  Si12  1  0.38565800  0.24196600  0.64932700  1
  O  O13  1  0.87074300  0.37413300  0.27789100  1
  O  O14  1  0.55110000  0.79109400  0.82701400  1
  O  O15  1  0.07912600  0.31462500  0.86173200  1
  O  O16  1  0.77003100  0.33061200  0.96812100  1
  O  O17  1  0.27591400  0.44890000  0.23999400  1
  O  O18  1  0.40714800  0.12925700  0.50339000  1
  O  O19  1  0.68537500  0.54710700  0.76450100  1
  O  O20  1  0.78260600  0.92087400  0.23549900  1
  O  O21  1  0.62586700  0.90375800  0.49661000  1
  O  O22  1  0.09624200  0.59285200  0.72210900  1
  O  O23  1  0.96408000  0.72408600  0.17298600  1
  O  O24  1  0.45289300  0.21739400  0.13826800  1
  O  O25  1  0.20890600  0.03592000  0.76000600  1
  O  O26  1  0.36249100  0.80191000  0.03187900  1
  O  O27  1  0.19809000  0.22996900  0.56058100  1
  O  O28  1  0.66938800  0.63750900  0.43941900  1
  F  F29  1  0.00000000  0.00000000  0.00000000  1
