# generated using pymatgen
data_PSN(Cl2O)2
_symmetry_space_group_name_H-M   'P 1'
_cell_length_a   7.81792100
_cell_length_b   11.41166000
_cell_length_c   20.27572500
_cell_angle_alpha   90.00000000
_cell_angle_beta   90.00000000
_cell_angle_gamma   90.00000000
_symmetry_Int_Tables_number   1
_chemical_formula_structural   PSN(Cl2O)2
_chemical_formula_sum   'P8 S8 N8 Cl32 O16'
_cell_volume   1808.90805888
_cell_formula_units_Z   8
loop_
 _symmetry_equiv_pos_site_id
 _symmetry_equiv_pos_as_xyz
  1  'x, y, z'
loop_
 _atom_site_type_symbol
 _atom_site_label
 _atom_site_symmetry_multiplicity
 _atom_site_fract_x
 _atom_site_fract_y
 _atom_site_fract_z
 _atom_site_occupancy
  P  P0  1  0.89046200  0.18733000  0.89642100  1
  P  P1  1  0.60953800  0.68733000  0.89642100  1
  P  P2  1  0.60953800  0.81267000  0.39642100  1
  P  P3  1  0.89046200  0.31267000  0.39642100  1
  P  P4  1  0.39046200  0.18733000  0.60357900  1
  P  P5  1  0.10953800  0.68733000  0.60357900  1
  P  P6  1  0.10953800  0.81267000  0.10357900  1
  P  P7  1  0.39046200  0.31267000  0.10357900  1
  S  S8  1  0.38462600  0.48741100  0.88628300  1
  S  S9  1  0.88462600  0.48741100  0.61371700  1
  S  S10  1  0.61537400  0.98741100  0.61371700  1
  S  S11  1  0.38462600  0.01258900  0.38628300  1
  S  S12  1  0.11537400  0.51258900  0.38628300  1
  S  S13  1  0.11537400  0.98741100  0.88628300  1
  S  S14  1  0.61537400  0.51258900  0.11371700  1
  S  S15  1  0.88462600  0.01258900  0.11371700  1
  N  N16  1  0.54367300  0.10606500  0.58294900  1
  N  N17  1  0.04367300  0.10606500  0.91705100  1
  N  N18  1  0.95632700  0.89393500  0.08294900  1
  N  N19  1  0.45632700  0.60606500  0.91705100  1
  N  N20  1  0.54367300  0.39393500  0.08294900  1
  N  N21  1  0.04367300  0.39393500  0.41705100  1
  N  N22  1  0.45632700  0.89393500  0.41705100  1
  N  N23  1  0.95632700  0.60606500  0.58294900  1
  Cl  Cl24  1  0.42868500  0.22025300  0.18582100  1
  Cl  Cl25  1  0.24481900  0.04322100  0.80115000  1
  Cl  Cl26  1  0.33527900  0.89065300  0.11701500  1
  Cl  Cl27  1  0.24481900  0.45677900  0.30115000  1
  Cl  Cl28  1  0.64267700  0.80220300  0.96793700  1
  Cl  Cl29  1  0.16472100  0.39065300  0.11701500  1
  Cl  Cl30  1  0.14267700  0.69779700  0.03206300  1
  Cl  Cl31  1  0.33527900  0.60934700  0.61701500  1
  Cl  Cl32  1  0.75518100  0.95677900  0.19885000  1
  Cl  Cl33  1  0.92868500  0.22025300  0.31417900  1
  Cl  Cl34  1  0.07131500  0.77974700  0.68582100  1
  Cl  Cl35  1  0.92868500  0.27974700  0.81417900  1
  Cl  Cl36  1  0.74481900  0.45677900  0.19885000  1
  Cl  Cl37  1  0.64267700  0.69779700  0.46793700  1
  Cl  Cl38  1  0.85732300  0.30220300  0.96793700  1
  Cl  Cl39  1  0.25518100  0.54322100  0.80115000  1
  Cl  Cl40  1  0.57131500  0.72025300  0.31417900  1
  Cl  Cl41  1  0.83527900  0.89065300  0.38298500  1
  Cl  Cl42  1  0.14267700  0.80220300  0.53206300  1
  Cl  Cl43  1  0.25518100  0.95677900  0.30115000  1
  Cl  Cl44  1  0.83527900  0.60934700  0.88298500  1
  Cl  Cl45  1  0.74481900  0.04322100  0.69885000  1
  Cl  Cl46  1  0.35732300  0.19779700  0.03206300  1
  Cl  Cl47  1  0.66472100  0.39065300  0.38298500  1
  Cl  Cl48  1  0.35732300  0.30220300  0.53206300  1
  Cl  Cl49  1  0.75518100  0.54322100  0.69885000  1
  Cl  Cl50  1  0.16472100  0.10934700  0.61701500  1
  Cl  Cl51  1  0.85732300  0.19779700  0.46793700  1
  Cl  Cl52  1  0.07131500  0.72025300  0.18582100  1
  Cl  Cl53  1  0.66472100  0.10934700  0.88298500  1
  Cl  Cl54  1  0.57131500  0.77974700  0.81417900  1
  Cl  Cl55  1  0.42868500  0.27974700  0.68582100  1
  O  O56  1  0.48453800  0.90920500  0.63746000  1
  O  O57  1  0.51546200  0.40920500  0.86254000  1
  O  O58  1  0.24788600  0.55543700  0.42911400  1
  O  O59  1  0.98453800  0.59079500  0.36254000  1
  O  O60  1  0.25211400  0.05543700  0.42911400  1
  O  O61  1  0.51546200  0.09079500  0.36254000  1
  O  O62  1  0.98453800  0.90920500  0.86254000  1
  O  O63  1  0.74788600  0.55543700  0.07088600  1
  O  O64  1  0.75211400  0.44456300  0.57088600  1
  O  O65  1  0.74788600  0.94456300  0.57088600  1
  O  O66  1  0.01546200  0.40920500  0.63746000  1
  O  O67  1  0.01546200  0.09079500  0.13746000  1
  O  O68  1  0.48453800  0.59079500  0.13746000  1
  O  O69  1  0.25211400  0.44456300  0.92911400  1
  O  O70  1  0.75211400  0.05543700  0.07088600  1
  O  O71  1  0.24788600  0.94456300  0.92911400  1
