# generated using pymatgen
data_Zn(IrO2)2
_symmetry_space_group_name_H-M   'P 1'
_cell_length_a   6.18673744
_cell_length_b   6.18673744
_cell_length_c   6.18673744
_cell_angle_alpha   60.00000000
_cell_angle_beta   60.00000000
_cell_angle_gamma   60.00000000
_symmetry_Int_Tables_number   1
_chemical_formula_structural   Zn(IrO2)2
_chemical_formula_sum   'Zn2 Ir4 O8'
_cell_volume   167.44418075
_cell_formula_units_Z   2
loop_
 _symmetry_equiv_pos_site_id
 _symmetry_equiv_pos_as_xyz
  1  'x, y, z'
loop_
 _atom_site_type_symbol
 _atom_site_label
 _atom_site_symmetry_multiplicity
 _atom_site_fract_x
 _atom_site_fract_y
 _atom_site_fract_z
 _atom_site_occupancy
  Zn  Zn0  1  0.25000000  0.25000000  0.25000000  1
  Zn  Zn1  1  0.00000000  0.00000000  0.00000000  1
  Ir  Ir2  1  0.62500000  0.62500000  0.12500000  1
  Ir  Ir3  1  0.62500000  0.12500000  0.62500000  1
  Ir  Ir4  1  0.12500000  0.62500000  0.62500000  1
  Ir  Ir5  1  0.62500000  0.62500000  0.62500000  1
  O  O6  1  0.86356200  0.86356200  0.40931400  1
  O  O7  1  0.86356200  0.40931400  0.86356200  1
  O  O8  1  0.40931400  0.86356200  0.86356200  1
  O  O9  1  0.86356200  0.86356200  0.86356200  1
  O  O10  1  0.38643800  0.38643800  0.84068600  1
  O  O11  1  0.38643800  0.84068600  0.38643800  1
  O  O12  1  0.84068600  0.38643800  0.38643800  1
  O  O13  1  0.38643800  0.38643800  0.38643800  1
