# generated using pymatgen
data_Te4As2S(OF6)2
_symmetry_space_group_name_H-M   'P 1'
_cell_length_a   9.18763900
_cell_length_b   10.11248900
_cell_length_c   18.82809700
_cell_angle_alpha   90.00000000
_cell_angle_beta   90.00000000
_cell_angle_gamma   90.00000000
_symmetry_Int_Tables_number   1
_chemical_formula_structural   Te4As2S(OF6)2
_chemical_formula_sum   'Te16 As8 S4 O8 F48'
_cell_volume   1749.31657789
_cell_formula_units_Z   4
loop_
 _symmetry_equiv_pos_site_id
 _symmetry_equiv_pos_as_xyz
  1  'x, y, z'
loop_
 _atom_site_type_symbol
 _atom_site_label
 _atom_site_symmetry_multiplicity
 _atom_site_fract_x
 _atom_site_fract_y
 _atom_site_fract_z
 _atom_site_occupancy
  Te  Te0  1  0.67886800  0.88448400  0.78914100  1
  Te  Te1  1  0.68585400  0.61671300  0.93298400  1
  Te  Te2  1  0.17886800  0.88448400  0.71085900  1
  Te  Te3  1  0.17886800  0.61551600  0.71085900  1
  Te  Te4  1  0.31414600  0.11671300  0.06701600  1
  Te  Te5  1  0.18585400  0.61671300  0.56701600  1
  Te  Te6  1  0.68585400  0.88328700  0.93298400  1
  Te  Te7  1  0.32113200  0.11551600  0.21085900  1
  Te  Te8  1  0.67886800  0.61551600  0.78914100  1
  Te  Te9  1  0.81414600  0.11671300  0.43298400  1
  Te  Te10  1  0.32113200  0.38448400  0.21085900  1
  Te  Te11  1  0.18585400  0.88328700  0.56701600  1
  Te  Te12  1  0.31414600  0.38328700  0.06701600  1
  Te  Te13  1  0.82113200  0.38448400  0.28914100  1
  Te  Te14  1  0.81414600  0.38328700  0.43298400  1
  Te  Te15  1  0.82113200  0.11551600  0.28914100  1
  As  As16  1  0.17597600  0.75000000  0.91889500  1
  As  As17  1  0.60803200  0.75000000  0.14487500  1
  As  As18  1  0.10803200  0.75000000  0.35512500  1
  As  As19  1  0.67597600  0.75000000  0.58110500  1
  As  As20  1  0.39196800  0.25000000  0.85512500  1
  As  As21  1  0.82402400  0.25000000  0.08110500  1
  As  As22  1  0.32402400  0.25000000  0.41889500  1
  As  As23  1  0.89196800  0.25000000  0.64487500  1
  S  S24  1  0.93047200  0.25000000  0.86251300  1
  S  S25  1  0.56952800  0.75000000  0.36251300  1
  S  S26  1  0.43047200  0.25000000  0.63748700  1
  S  S27  1  0.06952800  0.75000000  0.13748700  1
  O  O28  1  0.15154800  0.87257500  0.13985600  1
  O  O29  1  0.34845200  0.12742500  0.63985600  1
  O  O30  1  0.84845200  0.12742500  0.86014400  1
  O  O31  1  0.65154800  0.87257500  0.36014400  1
  O  O32  1  0.34845200  0.37257500  0.63985600  1
  O  O33  1  0.84845200  0.37257500  0.86014400  1
  O  O34  1  0.15154800  0.62742500  0.13985600  1
  O  O35  1  0.65154800  0.62742500  0.36014400  1
  F  F36  1  0.95976900  0.25000000  0.01390200  1
  F  F37  1  0.07817200  0.87317400  0.87109800  1
  F  F38  1  0.49395000  0.37396400  0.90013100  1
  F  F39  1  0.28807900  0.12590100  0.81276800  1
  F  F40  1  0.27446600  0.87405600  0.96449100  1
  F  F41  1  0.92182800  0.12682600  0.12890200  1
  F  F42  1  0.22553400  0.37405600  0.46449100  1
  F  F43  1  0.72553400  0.12594400  0.03550900  1
  F  F44  1  0.92182800  0.37317400  0.12890200  1
  F  F45  1  0.28807900  0.37409900  0.81276800  1
  F  F46  1  0.57817200  0.87317400  0.62890200  1
  F  F47  1  0.45976900  0.25000000  0.48609800  1
  F  F48  1  0.00605000  0.62603600  0.40013100  1
  F  F49  1  0.78807900  0.12590100  0.68723200  1
  F  F50  1  0.76542400  0.25000000  0.57155500  1
  F  F51  1  0.01924200  0.25000000  0.71559700  1
  F  F52  1  0.23457600  0.75000000  0.42844500  1
  F  F53  1  0.68962800  0.25000000  0.15024100  1
  F  F54  1  0.31037200  0.75000000  0.84975900  1
  F  F55  1  0.54023100  0.75000000  0.51390200  1
  F  F56  1  0.71192100  0.62590100  0.18723200  1
  F  F57  1  0.50605000  0.62603600  0.09986900  1
  F  F58  1  0.18962800  0.25000000  0.34975900  1
  F  F59  1  0.04023100  0.75000000  0.98609800  1
  F  F60  1  0.21192100  0.87409900  0.31276800  1
  F  F61  1  0.42182800  0.37317400  0.37109800  1
  F  F62  1  0.50605000  0.87396400  0.09986900  1
  F  F63  1  0.99395000  0.37396400  0.59986900  1
  F  F64  1  0.51924200  0.25000000  0.78440300  1
  F  F65  1  0.73457600  0.75000000  0.07155500  1
  F  F66  1  0.77446600  0.87405600  0.53550900  1
  F  F67  1  0.98075800  0.75000000  0.28440300  1
  F  F68  1  0.77446600  0.62594400  0.53550900  1
  F  F69  1  0.49395000  0.12603600  0.90013100  1
  F  F70  1  0.48075800  0.75000000  0.21559700  1
  F  F71  1  0.99395000  0.12603600  0.59986900  1
  F  F72  1  0.00605000  0.87396400  0.40013100  1
  F  F73  1  0.07817200  0.62682600  0.87109800  1
  F  F74  1  0.57817200  0.62682600  0.62890200  1
  F  F75  1  0.71192100  0.87409900  0.18723200  1
  F  F76  1  0.78807900  0.37409900  0.68723200  1
  F  F77  1  0.22553400  0.12594400  0.46449100  1
  F  F78  1  0.26542400  0.25000000  0.92844500  1
  F  F79  1  0.72553400  0.37405600  0.03550900  1
  F  F80  1  0.21192100  0.62590100  0.31276800  1
  F  F81  1  0.42182800  0.12682600  0.37109800  1
  F  F82  1  0.81037200  0.75000000  0.65024100  1
  F  F83  1  0.27446600  0.62594400  0.96449100  1
