# generated using pymatgen
data_H12PbC4S4(NO4)2
_symmetry_space_group_name_H-M   'P 1'
_cell_length_a   9.16368400
_cell_length_b   7.87631800
_cell_length_c   21.46163626
_cell_angle_alpha   72.12360640
_cell_angle_beta   90.00000000
_cell_angle_gamma   90.00000000
_symmetry_Int_Tables_number   1
_chemical_formula_structural   H12PbC4S4(NO4)2
_chemical_formula_sum   'H48 Pb4 C16 S16 N8 O32'
_cell_volume   1474.23191674
_cell_formula_units_Z   4
loop_
 _symmetry_equiv_pos_site_id
 _symmetry_equiv_pos_as_xyz
  1  'x, y, z'
loop_
 _atom_site_type_symbol
 _atom_site_label
 _atom_site_symmetry_multiplicity
 _atom_site_fract_x
 _atom_site_fract_y
 _atom_site_fract_z
 _atom_site_occupancy
  H  H0  1  0.45977600  0.46452700  0.23399100  1
  H  H1  1  0.25385400  0.54540000  0.39818900  1
  H  H2  1  0.21595000  0.32025300  0.39712700  1
  H  H3  1  0.95977600  0.53547300  0.26600900  1
  H  H4  1  0.15535600  0.05733400  0.67836200  1
  H  H5  1  0.08714100  0.43607800  0.43332000  1
  H  H6  1  0.42409200  0.06000400  0.71423300  1
  H  H7  1  0.03026500  0.86286300  0.32951500  1
  H  H8  1  0.07590800  0.06000400  0.21423300  1
  H  H9  1  0.53026500  0.13713700  0.17048500  1
  H  H10  1  0.88219900  0.60622600  0.72904300  1
  H  H11  1  0.95043400  0.79731600  0.86863400  1
  H  H12  1  0.71595000  0.67974700  0.10287300  1
  H  H13  1  0.45043400  0.20268400  0.63136600  1
  H  H14  1  0.38226300  0.29114300  0.13930500  1
  H  H15  1  0.88226300  0.70885700  0.36069500  1
  H  H16  1  0.57590800  0.93999600  0.28576700  1
  H  H17  1  0.59505300  0.17534100  0.69151400  1
  H  H18  1  0.28405000  0.32025300  0.89712700  1
  H  H19  1  0.04956600  0.20268400  0.13136600  1
  H  H20  1  0.61773700  0.70885700  0.86069500  1
  H  H21  1  0.38219900  0.39377400  0.77095700  1
  H  H22  1  0.34464400  0.05733400  0.17836200  1
  H  H23  1  0.24614600  0.54540000  0.89818900  1
  H  H24  1  0.92409200  0.93999600  0.78576700  1
  H  H25  1  0.99577400  0.43805100  0.20204700  1
  H  H26  1  0.54956600  0.79731600  0.36863400  1
  H  H27  1  0.11780100  0.39377400  0.27095700  1
  H  H28  1  0.11773700  0.29114300  0.63930500  1
  H  H29  1  0.74614600  0.45460000  0.60181100  1
  H  H30  1  0.54022400  0.53547300  0.76600900  1
  H  H31  1  0.96973500  0.13713700  0.67048500  1
  H  H32  1  0.84464400  0.94266600  0.32163800  1
  H  H33  1  0.65535600  0.94266600  0.82163800  1
  H  H34  1  0.41285900  0.43607800  0.93332000  1
  H  H35  1  0.04022400  0.46452700  0.73399100  1
  H  H36  1  0.61780100  0.60622600  0.22904300  1
  H  H37  1  0.46973500  0.86286300  0.82951500  1
  H  H38  1  0.00422600  0.56194900  0.79795300  1
  H  H39  1  0.90494700  0.17534100  0.19151400  1
  H  H40  1  0.58714100  0.56392200  0.06668000  1
  H  H41  1  0.50422600  0.43805100  0.70204700  1
  H  H42  1  0.75385400  0.45460000  0.10181100  1
  H  H43  1  0.91285900  0.56392200  0.56668000  1
  H  H44  1  0.09505300  0.82465900  0.80848600  1
  H  H45  1  0.49577400  0.56194900  0.29795300  1
  H  H46  1  0.78405000  0.67974700  0.60287300  1
  H  H47  1  0.40494700  0.82465900  0.30848600  1
  Pb  Pb48  1  0.28329400  0.80812400  0.53560500  1
  Pb  Pb49  1  0.78329400  0.19187600  0.96439500  1
  Pb  Pb50  1  0.21670600  0.80812400  0.03560500  1
  Pb  Pb51  1  0.71670600  0.19187600  0.46439500  1
  C  C52  1  0.20251700  0.41729500  0.42391500  1
  C  C53  1  0.49682300  0.88843900  0.32540700  1
  C  C54  1  0.54469900  0.50778900  0.26160200  1
  C  C55  1  0.92153300  0.84561400  0.35199900  1
  C  C56  1  0.42153300  0.15438600  0.14800100  1
  C  C57  1  0.04469900  0.49221100  0.23839800  1
  C  C58  1  0.50317700  0.11156100  0.67459300  1
  C  C59  1  0.57846700  0.84561400  0.85199900  1
  C  C60  1  0.79748300  0.58270500  0.57608500  1
  C  C61  1  0.07846700  0.15438600  0.64800100  1
  C  C62  1  0.29748300  0.41729500  0.92391500  1
  C  C63  1  0.45530100  0.49221100  0.73839800  1
  C  C64  1  0.70251700  0.58270500  0.07608500  1
  C  C65  1  0.00317700  0.88843900  0.82540700  1
  C  C66  1  0.95530100  0.50778900  0.76160200  1
  C  C67  1  0.99682300  0.11156100  0.17459300  1
  S  S68  1  0.65385100  0.32199700  0.30341700  1
  S  S69  1  0.07736800  0.07110200  0.84733300  1
  S  S70  1  0.29123900  0.33147400  0.50077500  1
  S  S71  1  0.15385100  0.67800300  0.19658300  1
  S  S72  1  0.56091000  0.88681600  0.92843100  1
  S  S73  1  0.70876100  0.66852600  0.49922500  1
  S  S74  1  0.43909000  0.11318400  0.07156900  1
  S  S75  1  0.93909000  0.88681600  0.42843100  1
  S  S76  1  0.42263200  0.07110200  0.34733300  1
  S  S77  1  0.34614900  0.67800300  0.69658300  1
  S  S78  1  0.06091000  0.11318400  0.57156900  1
  S  S79  1  0.20876100  0.33147400  0.00077500  1
  S  S80  1  0.79123900  0.66852600  0.99922500  1
  S  S81  1  0.57736800  0.92889800  0.65266700  1
  S  S82  1  0.92263200  0.92889800  0.15266700  1
  S  S83  1  0.84614900  0.32199700  0.80341700  1
  N  N84  1  0.94156800  0.18661300  0.86102900  1
  N  N85  1  0.28017200  0.13861300  0.03693500  1
  N  N86  1  0.44156800  0.81338700  0.63897100  1
  N  N87  1  0.78017200  0.86138700  0.46306500  1
  N  N88  1  0.05843200  0.81338700  0.13897100  1
  N  N89  1  0.55843200  0.18661300  0.36102900  1
  N  N90  1  0.71982800  0.86138700  0.96306500  1
  N  N91  1  0.21982800  0.13861300  0.53693500  1
  O  O92  1  0.04874000  0.76072100  0.46585900  1
  O  O93  1  0.45126000  0.76072100  0.96585900  1
  O  O94  1  0.23585100  0.61354800  0.65921900  1
  O  O95  1  0.44297200  0.29669700  0.48868000  1
  O  O96  1  0.23399900  0.45582000  0.03829100  1
  O  O97  1  0.66795800  0.82595700  0.70677500  1
  O  O98  1  0.95126000  0.23927900  0.53414100  1
  O  O99  1  0.03070400  0.92331000  0.58415300  1
  O  O100  1  0.76414900  0.38645200  0.34078100  1
  O  O101  1  0.73585100  0.38645200  0.84078100  1
  O  O102  1  0.29164600  0.75774100  0.74503700  1
  O  O103  1  0.76600100  0.54418000  0.96170900  1
  O  O104  1  0.34998700  0.99708500  0.41050500  1
  O  O105  1  0.16795800  0.17404300  0.79322500  1
  O  O106  1  0.55702800  0.70330300  0.51132000  1
  O  O107  1  0.73399900  0.54418000  0.46170900  1
  O  O108  1  0.70835400  0.24225900  0.25496300  1
  O  O109  1  0.33204200  0.17404300  0.29322500  1
  O  O110  1  0.53070400  0.07669000  0.91584700  1
  O  O111  1  0.46929600  0.92331000  0.08415300  1
  O  O112  1  0.94297200  0.70330300  0.01132000  1
  O  O113  1  0.05702800  0.29669700  0.98868000  1
  O  O114  1  0.84998700  0.00291500  0.08949500  1
  O  O115  1  0.26414900  0.61354800  0.15921900  1
  O  O116  1  0.26600100  0.45582000  0.53829100  1
  O  O117  1  0.15001300  0.99708500  0.91050500  1
  O  O118  1  0.79164600  0.24225900  0.75496300  1
  O  O119  1  0.54874000  0.23927900  0.03414100  1
  O  O120  1  0.20835400  0.75774100  0.24503700  1
  O  O121  1  0.96929600  0.07669000  0.41584700  1
  O  O122  1  0.65001300  0.00291500  0.58949500  1
  O  O123  1  0.83204200  0.82595700  0.20677500  1
