# generated using pymatgen
data_SrFeP(O2F)2
_symmetry_space_group_name_H-M   'P 1'
_cell_length_a   12.44168400
_cell_length_b   5.26642400
_cell_length_c   7.83870127
_cell_angle_alpha   62.44052465
_cell_angle_beta   90.00000000
_cell_angle_gamma   90.00000000
_symmetry_Int_Tables_number   1
_chemical_formula_structural   SrFeP(O2F)2
_chemical_formula_sum   'Sr4 Fe4 P4 O16 F8'
_cell_volume   455.33711202
_cell_formula_units_Z   4
loop_
 _symmetry_equiv_pos_site_id
 _symmetry_equiv_pos_as_xyz
  1  'x, y, z'
loop_
 _atom_site_type_symbol
 _atom_site_label
 _atom_site_symmetry_multiplicity
 _atom_site_fract_x
 _atom_site_fract_y
 _atom_site_fract_z
 _atom_site_occupancy
  Sr  Sr0  1  0.79377200  0.85451000  0.68752900  1
  Sr  Sr1  1  0.20622800  0.14549000  0.31247100  1
  Sr  Sr2  1  0.29377200  0.14549000  0.81247100  1
  Sr  Sr3  1  0.70622800  0.85451000  0.18752900  1
  Fe  Fe4  1  0.00000000  0.00000000  0.00000000  1
  Fe  Fe5  1  0.50000000  0.00000000  0.50000000  1
  Fe  Fe6  1  0.50000000  0.50000000  0.00000000  1
  Fe  Fe7  1  0.00000000  0.50000000  0.50000000  1
  P  P8  1  0.61477300  0.37043900  0.69524600  1
  P  P9  1  0.11477300  0.62956100  0.80475400  1
  P  P10  1  0.38522700  0.62956100  0.30475400  1
  P  P11  1  0.88522700  0.37043900  0.19524600  1
  O  O12  1  0.87724100  0.70416800  0.05777300  1
  O  O13  1  0.71836100  0.26270200  0.81135700  1
  O  O14  1  0.28163900  0.73729800  0.18864300  1
  O  O15  1  0.62275900  0.70416800  0.55777300  1
  O  O16  1  0.39935600  0.77607500  0.43533100  1
  O  O17  1  0.51509100  0.31803400  0.82821700  1
  O  O18  1  0.01509100  0.68196600  0.67178300  1
  O  O19  1  0.10064400  0.77607500  0.93533100  1
  O  O20  1  0.78163900  0.26270200  0.31135700  1
  O  O21  1  0.12275900  0.29583200  0.94222700  1
  O  O22  1  0.98490900  0.31803400  0.32821700  1
  O  O23  1  0.60064400  0.22392500  0.56466900  1
  O  O24  1  0.48490900  0.68196600  0.17178300  1
  O  O25  1  0.37724100  0.29583200  0.44222700  1
  O  O26  1  0.21836100  0.73729800  0.68864300  1
  O  O27  1  0.89935600  0.22392500  0.06466900  1
  F  F28  1  0.85526500  0.66904500  0.44917500  1
  F  F29  1  0.35526500  0.33095500  0.05082500  1
  F  F30  1  0.44063500  0.83997300  0.77176200  1
  F  F31  1  0.64473500  0.66904500  0.94917500  1
  F  F32  1  0.14473500  0.33095500  0.55082500  1
  F  F33  1  0.05936500  0.83997300  0.27176200  1
  F  F34  1  0.94063500  0.16002700  0.72823800  1
  F  F35  1  0.55936500  0.16002700  0.22823800  1
