# generated using pymatgen
data_SiO2
_symmetry_space_group_name_H-M   'P 1'
_cell_length_a   5.12072022
_cell_length_b   5.12072022
_cell_length_c   8.79883283
_cell_angle_alpha   70.27592309
_cell_angle_beta   70.27592309
_cell_angle_gamma   57.45110296
_symmetry_Int_Tables_number   1
_chemical_formula_structural   SiO2
_chemical_formula_sum   'Si4 O8'
_cell_volume   179.50274226
_cell_formula_units_Z   4
loop_
 _symmetry_equiv_pos_site_id
 _symmetry_equiv_pos_as_xyz
  1  'x, y, z'
loop_
 _atom_site_type_symbol
 _atom_site_label
 _atom_site_symmetry_multiplicity
 _atom_site_fract_x
 _atom_site_fract_y
 _atom_site_fract_z
 _atom_site_occupancy
  Si  Si0  1  0.04912500  0.32623600  0.18685000  1
  Si  Si1  1  0.95087500  0.67376400  0.81315000  1
  Si  Si2  1  0.32623600  0.04912500  0.68685000  1
  Si  Si3  1  0.67376400  0.95087500  0.31315000  1
  O  O4  1  0.42053200  0.17107000  0.19100700  1
  O  O5  1  0.82893000  0.57946800  0.30899300  1
  O  O6  1  0.04466200  0.95533800  0.75000000  1
  O  O7  1  0.95533800  0.04466200  0.25000000  1
  O  O8  1  0.57946800  0.82893000  0.80899300  1
  O  O9  1  0.17107000  0.42053200  0.69100700  1
  O  O10  1  0.00000000  0.50000000  0.00000000  1
  O  O11  1  0.50000000  0.00000000  0.50000000  1
