# generated using pymatgen
data_Er2Hf2O7
_symmetry_space_group_name_H-M   'P 1'
_cell_length_a   7.39188499
_cell_length_b   7.39188499
_cell_length_c   7.39188499
_cell_angle_alpha   60.00000000
_cell_angle_beta   60.00000000
_cell_angle_gamma   60.00000000
_symmetry_Int_Tables_number   1
_chemical_formula_structural   Er2Hf2O7
_chemical_formula_sum   'Er4 Hf4 O14'
_cell_volume   285.59500334
_cell_formula_units_Z   2
loop_
 _symmetry_equiv_pos_site_id
 _symmetry_equiv_pos_as_xyz
  1  'x, y, z'
loop_
 _atom_site_type_symbol
 _atom_site_label
 _atom_site_symmetry_multiplicity
 _atom_site_fract_x
 _atom_site_fract_y
 _atom_site_fract_z
 _atom_site_occupancy
  Er  Er0  1  0.62500000  0.62500000  0.12500000  1
  Er  Er1  1  0.62500000  0.62500000  0.62500000  1
  Er  Er2  1  0.12500000  0.62500000  0.62500000  1
  Er  Er3  1  0.62500000  0.12500000  0.62500000  1
  Hf  Hf4  1  0.12500000  0.12500000  0.12500000  1
  Hf  Hf5  1  0.62500000  0.12500000  0.12500000  1
  Hf  Hf6  1  0.12500000  0.12500000  0.62500000  1
  Hf  Hf7  1  0.12500000  0.62500000  0.12500000  1
  O  O8  1  0.03540400  0.46459600  0.03540400  1
  O  O9  1  0.21459600  0.78540400  0.78540400  1
  O  O10  1  0.21459600  0.78540400  0.21459600  1
  O  O11  1  0.03540400  0.03540400  0.46459600  1
  O  O12  1  0.78540400  0.78540400  0.21459600  1
  O  O13  1  0.78540400  0.21459600  0.21459600  1
  O  O14  1  0.46459600  0.03540400  0.03540400  1
  O  O15  1  0.46459600  0.03540400  0.46459600  1
  O  O16  1  0.21459600  0.21459600  0.78540400  1
  O  O17  1  0.75000000  0.75000000  0.75000000  1
  O  O18  1  0.03540400  0.46459600  0.46459600  1
  O  O19  1  0.46459600  0.46459600  0.03540400  1
  O  O20  1  0.78540400  0.21459600  0.78540400  1
  O  O21  1  0.50000000  0.50000000  0.50000000  1
