# generated using pymatgen
data_LaF3
_symmetry_space_group_name_H-M   'P 1'
_cell_length_a   6.81564086
_cell_length_b   6.81564086
_cell_length_c   4.53078400
_cell_angle_alpha   90.00000000
_cell_angle_beta   90.00000000
_cell_angle_gamma   101.45844480
_symmetry_Int_Tables_number   1
_chemical_formula_structural   LaF3
_chemical_formula_sum   'La4 F12'
_cell_volume   206.27349425
_cell_formula_units_Z   4
loop_
 _symmetry_equiv_pos_site_id
 _symmetry_equiv_pos_as_xyz
  1  'x, y, z'
loop_
 _atom_site_type_symbol
 _atom_site_label
 _atom_site_symmetry_multiplicity
 _atom_site_fract_x
 _atom_site_fract_y
 _atom_site_fract_z
 _atom_site_occupancy
  La  La0  1  0.50000000  0.00000000  0.50000000  1
  La  La1  1  0.00000000  0.50000000  0.50000000  1
  La  La2  1  0.00000000  0.00000000  0.00000000  1
  La  La3  1  0.50000000  0.50000000  0.00000000  1
  F  F4  1  0.37505200  0.12494800  0.00000000  1
  F  F5  1  0.25000000  0.75000000  0.10888300  1
  F  F6  1  0.62494800  0.87505200  0.00000000  1
  F  F7  1  0.87505200  0.62494800  0.00000000  1
  F  F8  1  0.25000000  0.25000000  0.50000000  1
  F  F9  1  0.87198900  0.12801100  0.42891600  1
  F  F10  1  0.12494800  0.37505200  0.00000000  1
  F  F11  1  0.75000000  0.75000000  0.50000000  1
  F  F12  1  0.12801100  0.87198900  0.57108400  1
  F  F13  1  0.37198900  0.62801100  0.57108400  1
  F  F14  1  0.75000000  0.25000000  0.89111700  1
  F  F15  1  0.62801100  0.37198900  0.42891600  1
