# generated using pymatgen
data_KPO3
_symmetry_space_group_name_H-M   'P 1'
_cell_length_a   12.18313300
_cell_length_b   7.49784000
_cell_length_c   12.14350184
_cell_angle_alpha   65.05057428
_cell_angle_beta   90.00000000
_cell_angle_gamma   90.00000000
_symmetry_Int_Tables_number   1
_chemical_formula_structural   KPO3
_chemical_formula_sum   'K12 P12 O36'
_cell_volume   1005.75768490
_cell_formula_units_Z   12
loop_
 _symmetry_equiv_pos_site_id
 _symmetry_equiv_pos_as_xyz
  1  'x, y, z'
loop_
 _atom_site_type_symbol
 _atom_site_label
 _atom_site_symmetry_multiplicity
 _atom_site_fract_x
 _atom_site_fract_y
 _atom_site_fract_z
 _atom_site_occupancy
  K  K0  1  0.75626800  0.69845700  0.39890400  1
  K  K1  1  0.58134500  0.23143100  0.62139300  1
  K  K2  1  0.35878000  0.92248800  0.91944900  1
  K  K3  1  0.91865500  0.23143100  0.12139300  1
  K  K4  1  0.64122000  0.07751200  0.08055100  1
  K  K5  1  0.14122000  0.92248800  0.41944900  1
  K  K6  1  0.08134500  0.76856900  0.87860700  1
  K  K7  1  0.24373200  0.30154300  0.60109600  1
  K  K8  1  0.25626800  0.30154300  0.10109600  1
  K  K9  1  0.41865500  0.76856900  0.37860700  1
  K  K10  1  0.74373200  0.69845700  0.89890400  1
  K  K11  1  0.85878000  0.07751200  0.58055100  1
  P  P12  1  0.55466700  0.60748600  0.16463700  1
  P  P13  1  0.42998600  0.28183200  0.34564200  1
  P  P14  1  0.44533300  0.39251400  0.83536300  1
  P  P15  1  0.32875000  0.74790700  0.67583600  1
  P  P16  1  0.94533300  0.60748600  0.66463700  1
  P  P17  1  0.05466700  0.39251400  0.33536300  1
  P  P18  1  0.92998600  0.71816800  0.15435800  1
  P  P19  1  0.57001400  0.71816800  0.65435800  1
  P  P20  1  0.82875000  0.25209300  0.82416400  1
  P  P21  1  0.07001400  0.28183200  0.84564200  1
  P  P22  1  0.17125000  0.74790700  0.17583600  1
  P  P23  1  0.67125000  0.25209300  0.32416400  1
  O  O24  1  0.57206400  0.71857400  0.24116400  1
  O  O25  1  0.76246100  0.10827000  0.79594300  1
  O  O26  1  0.34206800  0.15184600  0.33376800  1
  O  O27  1  0.79018000  0.31784500  0.91846000  1
  O  O28  1  0.45183700  0.27926000  0.97037500  1
  O  O29  1  0.65793200  0.84815400  0.66623200  1
  O  O30  1  0.95183700  0.72074000  0.52962500  1
  O  O31  1  0.73753900  0.10827000  0.29594300  1
  O  O32  1  0.29018000  0.68215500  0.58154000  1
  O  O33  1  0.23753900  0.89173000  0.20405700  1
  O  O34  1  0.15079900  0.55927300  0.30681200  1
  O  O35  1  0.54816300  0.72074000  0.02962500  1
  O  O36  1  0.07745500  0.35755200  0.94157000  1
  O  O37  1  0.34920100  0.55927300  0.80681200  1
  O  O38  1  0.65079900  0.44072700  0.19318800  1
  O  O39  1  0.42793600  0.28142600  0.75883600  1
  O  O40  1  0.70982000  0.31784500  0.41846000  1
  O  O41  1  0.92793600  0.71857400  0.74116400  1
  O  O42  1  0.55406400  0.53345600  0.78872300  1
  O  O43  1  0.95362700  0.16362600  0.85690500  1
  O  O44  1  0.57745500  0.64244800  0.55843000  1
  O  O45  1  0.05406400  0.46654400  0.71127700  1
  O  O46  1  0.54637300  0.16362600  0.35690500  1
  O  O47  1  0.84920100  0.44072700  0.69318800  1
  O  O48  1  0.04637300  0.83637400  0.14309500  1
  O  O49  1  0.92254500  0.64244800  0.05843000  1
  O  O50  1  0.94593600  0.53345600  0.28872300  1
  O  O51  1  0.44593600  0.46654400  0.21127700  1
  O  O52  1  0.04816300  0.27926000  0.47037500  1
  O  O53  1  0.84206800  0.84815400  0.16623200  1
  O  O54  1  0.07206400  0.28142600  0.25883600  1
  O  O55  1  0.26246100  0.89173000  0.70405700  1
  O  O56  1  0.15793200  0.15184600  0.83376800  1
  O  O57  1  0.42254500  0.35755200  0.44157000  1
  O  O58  1  0.45362700  0.83637400  0.64309500  1
  O  O59  1  0.20982000  0.68215500  0.08154000  1
