# generated using pymatgen
data_Al3Pb5F19
_symmetry_space_group_name_H-M   'P 1'
_cell_length_a   10.94822774
_cell_length_b   10.94822774
_cell_length_c   10.94822774
_cell_angle_alpha   96.46871255
_cell_angle_beta   96.46871255
_cell_angle_gamma   140.77591365
_symmetry_Int_Tables_number   1
_chemical_formula_structural   Al3Pb5F19
_chemical_formula_sum   'Al6 Pb10 F38'
_cell_volume   781.69496360
_cell_formula_units_Z   2
loop_
 _symmetry_equiv_pos_site_id
 _symmetry_equiv_pos_as_xyz
  1  'x, y, z'
loop_
 _atom_site_type_symbol
 _atom_site_label
 _atom_site_symmetry_multiplicity
 _atom_site_fract_x
 _atom_site_fract_y
 _atom_site_fract_z
 _atom_site_occupancy
  Al  Al0  1  0.83378200  0.33378200  0.16756400  1
  Al  Al1  1  0.33378200  0.16621800  0.50000000  1
  Al  Al2  1  0.16621800  0.66621800  0.83243600  1
  Al  Al3  1  0.25000000  0.25000000  0.00000000  1
  Al  Al4  1  0.75000000  0.75000000  0.00000000  1
  Al  Al5  1  0.66621800  0.83378200  0.50000000  1
  Pb  Pb6  1  0.72865100  0.57272900  0.30138000  1
  Pb  Pb7  1  0.27134900  0.42727100  0.69862000  1
  Pb  Pb8  1  0.42727100  0.72865100  0.15592200  1
  Pb  Pb9  1  0.22865100  0.92727100  0.15592200  1
  Pb  Pb10  1  0.07272900  0.22865100  0.30138000  1
  Pb  Pb11  1  0.92727100  0.77134900  0.69862000  1
  Pb  Pb12  1  0.57272900  0.27134900  0.84407800  1
  Pb  Pb13  1  0.75000000  0.25000000  0.50000000  1
  Pb  Pb14  1  0.77134900  0.07272900  0.84407800  1
  Pb  Pb15  1  0.25000000  0.75000000  0.50000000  1
  F  F16  1  0.33802000  0.16198000  0.00000000  1
  F  F17  1  0.83802000  0.83802000  0.17604000  1
  F  F18  1  0.23080500  0.05399200  0.62813100  1
  F  F19  1  0.74516800  0.24516800  0.99033600  1
  F  F20  1  0.42586100  0.60267400  0.37186900  1
  F  F21  1  0.42299400  0.07700600  0.50000000  1
  F  F22  1  0.83802000  0.66198000  0.00000000  1
  F  F23  1  0.00000000  0.00000000  0.00000000  1
  F  F24  1  0.76919500  0.94600800  0.37186900  1
  F  F25  1  0.60267400  0.23080500  0.17681300  1
  F  F26  1  0.05399200  0.42586100  0.82318700  1
  F  F27  1  0.66198000  0.83802000  0.00000000  1
  F  F28  1  0.92586100  0.55399200  0.82318700  1
  F  F29  1  0.16198000  0.33802000  0.00000000  1
  F  F30  1  0.75483200  0.74516800  0.50000000  1
  F  F31  1  0.92299400  0.42299400  0.34598700  1
  F  F32  1  0.57413900  0.39732600  0.62813100  1
  F  F33  1  0.25483200  0.75483200  0.00966400  1
  F  F34  1  0.07413900  0.44600800  0.17681300  1
  F  F35  1  0.16198000  0.16198000  0.82396000  1
  F  F36  1  0.10267400  0.92586100  0.37186900  1
  F  F37  1  0.60650100  0.10650100  0.71300200  1
  F  F38  1  0.44600800  0.26919500  0.37186900  1
  F  F39  1  0.55399200  0.73080500  0.62813100  1
  F  F40  1  0.66198000  0.66198000  0.82396000  1
  F  F41  1  0.39732600  0.76919500  0.82318700  1
  F  F42  1  0.33802000  0.33802000  0.17604000  1
  F  F43  1  0.50000000  0.50000000  0.00000000  1
  F  F44  1  0.89732600  0.07413900  0.62813100  1
  F  F45  1  0.57700600  0.92299400  0.50000000  1
  F  F46  1  0.26919500  0.89732600  0.82318700  1
  F  F47  1  0.07700600  0.57700600  0.65401300  1
  F  F48  1  0.94600800  0.57413900  0.17681300  1
  F  F49  1  0.73080500  0.10267400  0.17681300  1
  F  F50  1  0.89349900  0.60650100  0.50000000  1
  F  F51  1  0.10650100  0.39349900  0.50000000  1
  F  F52  1  0.39349900  0.89349900  0.28699800  1
  F  F53  1  0.24516800  0.25483200  0.50000000  1
