# generated using pymatgen
data_Hg3TeO6
_symmetry_space_group_name_H-M   'P 1'
_cell_length_a   11.90954671
_cell_length_b   11.90954671
_cell_length_c   11.90954671
_cell_angle_alpha   109.47122063
_cell_angle_beta   109.47122063
_cell_angle_gamma   109.47122063
_symmetry_Int_Tables_number   1
_chemical_formula_structural   Hg3TeO6
_chemical_formula_sum   'Hg24 Te8 O48'
_cell_volume   1300.36061049
_cell_formula_units_Z   8
loop_
 _symmetry_equiv_pos_site_id
 _symmetry_equiv_pos_as_xyz
  1  'x, y, z'
loop_
 _atom_site_type_symbol
 _atom_site_label
 _atom_site_symmetry_multiplicity
 _atom_site_fract_x
 _atom_site_fract_y
 _atom_site_fract_z
 _atom_site_occupancy
  Hg  Hg0  1  0.68735700  0.59367900  0.34367900  1
  Hg  Hg1  1  0.18735700  0.84367900  0.09367900  1
  Hg  Hg2  1  0.25000000  0.65632100  0.84367900  1
  Hg  Hg3  1  0.09367900  0.40632100  0.25000000  1
  Hg  Hg4  1  0.59367900  0.34367900  0.68735700  1
  Hg  Hg5  1  0.65632100  0.31264300  0.40632100  1
  Hg  Hg6  1  0.15632100  0.90632100  0.81264300  1
  Hg  Hg7  1  0.90632100  0.81264300  0.15632100  1
  Hg  Hg8  1  0.81264300  0.15632100  0.90632100  1
  Hg  Hg9  1  0.75000000  0.34367900  0.15632100  1
  Hg  Hg10  1  0.84367900  0.09367900  0.18735700  1
  Hg  Hg11  1  0.31264300  0.40632100  0.65632100  1
  Hg  Hg12  1  0.90632100  0.59367900  0.75000000  1
  Hg  Hg13  1  0.75000000  0.90632100  0.59367900  1
  Hg  Hg14  1  0.25000000  0.09367900  0.40632100  1
  Hg  Hg15  1  0.59367900  0.75000000  0.90632100  1
  Hg  Hg16  1  0.40632100  0.25000000  0.09367900  1
  Hg  Hg17  1  0.40632100  0.65632100  0.31264300  1
  Hg  Hg18  1  0.34367900  0.15632100  0.75000000  1
  Hg  Hg19  1  0.84367900  0.25000000  0.65632100  1
  Hg  Hg20  1  0.65632100  0.84367900  0.25000000  1
  Hg  Hg21  1  0.34367900  0.68735700  0.59367900  1
  Hg  Hg22  1  0.15632100  0.75000000  0.34367900  1
  Hg  Hg23  1  0.09367900  0.18735700  0.84367900  1
  Te  Te24  1  0.00000000  0.50000000  0.50000000  1
  Te  Te25  1  0.00000000  0.00000000  0.00000000  1
  Te  Te26  1  0.50000000  0.00000000  0.50000000  1
  Te  Te27  1  0.50000000  0.00000000  0.00000000  1
  Te  Te28  1  0.00000000  0.50000000  0.00000000  1
  Te  Te29  1  0.00000000  0.00000000  0.50000000  1
  Te  Te30  1  0.50000000  0.50000000  0.00000000  1
  Te  Te31  1  0.50000000  0.50000000  0.50000000  1
  O  O32  1  0.64178800  0.65064700  0.50498300  1
  O  O33  1  0.85433600  0.50498300  0.36319500  1
  O  O34  1  0.00498300  0.35433600  0.86319500  1
  O  O35  1  0.49114200  0.13680500  0.64178800  1
  O  O36  1  0.65064700  0.50498300  0.64178800  1
  O  O37  1  0.00498300  0.15064700  0.14178800  1
  O  O38  1  0.50498300  0.64178800  0.65064700  1
  O  O39  1  0.65064700  0.64566400  0.00885800  1
  O  O40  1  0.15064700  0.50885800  0.14566400  1
  O  O41  1  0.99114200  0.34935300  0.35433600  1
  O  O42  1  0.86319500  0.00498300  0.35433600  1
  O  O43  1  0.50885800  0.14566400  0.15064700  1
  O  O44  1  0.64566400  0.13680500  0.99501700  1
  O  O45  1  0.13680500  0.64178800  0.49114200  1
  O  O46  1  0.85821200  0.36319500  0.00885800  1
  O  O47  1  0.99501700  0.64566400  0.13680500  1
  O  O48  1  0.86319500  0.35821200  0.50885800  1
  O  O49  1  0.35821200  0.34935300  0.49501700  1
  O  O50  1  0.63680500  0.14566400  0.49501700  1
  O  O51  1  0.00885800  0.85821200  0.36319500  1
  O  O52  1  0.50885800  0.86319500  0.35821200  1
  O  O53  1  0.35433600  0.86319500  0.00498300  1
  O  O54  1  0.13680500  0.99501700  0.64566400  1
  O  O55  1  0.14566400  0.49501700  0.63680500  1
  O  O56  1  0.36319500  0.00885800  0.85821200  1
  O  O57  1  0.64566400  0.00885800  0.65064700  1
  O  O58  1  0.84935300  0.85821200  0.99501700  1
  O  O59  1  0.34935300  0.49501700  0.35821200  1
  O  O60  1  0.36319500  0.85433600  0.50498300  1
  O  O61  1  0.34935300  0.35433600  0.99114200  1
  O  O62  1  0.50498300  0.36319500  0.85433600  1
  O  O63  1  0.49501700  0.63680500  0.14566400  1
  O  O64  1  0.14178800  0.00498300  0.15064700  1
  O  O65  1  0.63680500  0.99114200  0.14178800  1
  O  O66  1  0.99501700  0.84935300  0.85821200  1
  O  O67  1  0.64178800  0.49114200  0.13680500  1
  O  O68  1  0.15064700  0.14178800  0.00498300  1
  O  O69  1  0.35821200  0.50885800  0.86319500  1
  O  O70  1  0.85821200  0.99501700  0.84935300  1
  O  O71  1  0.49114200  0.85433600  0.84935300  1
  O  O72  1  0.49501700  0.35821200  0.34935300  1
  O  O73  1  0.14566400  0.15064700  0.50885800  1
  O  O74  1  0.00885800  0.65064700  0.64566400  1
  O  O75  1  0.99114200  0.14178800  0.63680500  1
  O  O76  1  0.35433600  0.99114200  0.34935300  1
  O  O77  1  0.14178800  0.63680500  0.99114200  1
  O  O78  1  0.84935300  0.49114200  0.85433600  1
  O  O79  1  0.85433600  0.84935300  0.49114200  1
