# generated using pymatgen
data_ZrIn2O5
_symmetry_space_group_name_H-M   'P 1'
_cell_length_a   3.70622800
_cell_length_b   7.50272700
_cell_length_c   15.62089100
_cell_angle_alpha   90.00000000
_cell_angle_beta   90.00000000
_cell_angle_gamma   90.00000000
_symmetry_Int_Tables_number   1
_chemical_formula_structural   ZrIn2O5
_chemical_formula_sum   'Zr4 In8 O20'
_cell_volume   434.36725560
_cell_formula_units_Z   4
loop_
 _symmetry_equiv_pos_site_id
 _symmetry_equiv_pos_as_xyz
  1  'x, y, z'
loop_
 _atom_site_type_symbol
 _atom_site_label
 _atom_site_symmetry_multiplicity
 _atom_site_fract_x
 _atom_site_fract_y
 _atom_site_fract_z
 _atom_site_occupancy
  Zr  Zr0  1  0.25000000  0.11147900  0.57937900  1
  Zr  Zr1  1  0.25000000  0.61147900  0.92062100  1
  Zr  Zr2  1  0.75000000  0.88852100  0.42062100  1
  Zr  Zr3  1  0.75000000  0.38852100  0.07937900  1
  In  In4  1  0.25000000  0.09487600  0.91434900  1
  In  In5  1  0.25000000  0.59487600  0.58565100  1
  In  In6  1  0.75000000  0.90512400  0.08565100  1
  In  In7  1  0.75000000  0.40512400  0.41434900  1
  In  In8  1  0.75000000  0.32105900  0.76107500  1
  In  In9  1  0.75000000  0.82105900  0.73892500  1
  In  In10  1  0.25000000  0.67894100  0.23892500  1
  In  In11  1  0.25000000  0.17894100  0.26107500  1
  O  O12  1  0.25000000  0.24868300  0.68892900  1
  O  O13  1  0.25000000  0.74868300  0.81107100  1
  O  O14  1  0.75000000  0.75131700  0.31107100  1
  O  O15  1  0.75000000  0.25131700  0.18892900  1
  O  O16  1  0.25000000  0.35649000  0.50264500  1
  O  O17  1  0.25000000  0.85649000  0.99735500  1
  O  O18  1  0.75000000  0.64351000  0.49735500  1
  O  O19  1  0.75000000  0.14351000  0.00264500  1
  O  O20  1  0.25000000  0.35932800  0.85202200  1
  O  O21  1  0.25000000  0.85932800  0.64797800  1
  O  O22  1  0.75000000  0.64067200  0.14797800  1
  O  O23  1  0.75000000  0.14067200  0.35202200  1
  O  O24  1  0.75000000  0.05668400  0.82378000  1
  O  O25  1  0.75000000  0.55668400  0.67622000  1
  O  O26  1  0.25000000  0.94331600  0.17622000  1
  O  O27  1  0.25000000  0.44331600  0.32378000  1
  O  O28  1  0.75000000  0.06712700  0.54217300  1
  O  O29  1  0.75000000  0.56712700  0.95782700  1
  O  O30  1  0.25000000  0.93287300  0.45782700  1
  O  O31  1  0.25000000  0.43287300  0.04217300  1
