# generated using pymatgen
data_H12Pd(N5O4)2
_symmetry_space_group_name_H-M   'P 1'
_cell_length_a   7.06902000
_cell_length_b   7.56417807
_cell_length_c   7.56632088
_cell_angle_alpha   97.03050794
_cell_angle_beta   117.65809934
_cell_angle_gamma   109.71554018
_symmetry_Int_Tables_number   1
_chemical_formula_structural   H12Pd(N5O4)2
_chemical_formula_sum   'H12 Pd1 N10 O8'
_cell_volume   317.89961743
_cell_formula_units_Z   1
loop_
 _symmetry_equiv_pos_site_id
 _symmetry_equiv_pos_as_xyz
  1  'x, y, z'
loop_
 _atom_site_type_symbol
 _atom_site_label
 _atom_site_symmetry_multiplicity
 _atom_site_fract_x
 _atom_site_fract_y
 _atom_site_fract_z
 _atom_site_occupancy
  H  H0  1  0.22127900  0.79299200  0.96247200  1
  H  H1  1  0.82886100  0.20771400  0.77056600  1
  H  H2  1  0.78115100  0.06301200  0.18465900  1
  H  H3  1  0.97504500  0.72854800  0.72772800  1
  H  H4  1  0.82293000  0.03005800  0.61572600  1
  H  H5  1  0.21884900  0.93698800  0.81534100  1
  H  H6  1  0.02495500  0.27145200  0.27227200  1
  H  H7  1  0.17113900  0.79228600  0.22943400  1
  H  H8  1  0.92112100  0.76811700  0.20999200  1
  H  H9  1  0.17707000  0.96994200  0.38427400  1
  H  H10  1  0.07887900  0.23188300  0.79000800  1
  H  H11  1  0.77872100  0.20700800  0.03752800  1
  Pd  Pd12  1  0.00000000  0.00000000  0.00000000  1
  N  N13  1  0.11733300  0.84683900  0.86067100  1
  N  N14  1  0.31710800  0.36993300  0.62204900  1
  N  N15  1  0.92272800  0.13098000  0.76677900  1
  N  N16  1  0.37091400  0.57233600  0.68169800  1
  N  N17  1  0.50368500  0.67440200  0.25869800  1
  N  N18  1  0.68289200  0.63006700  0.37795100  1
  N  N19  1  0.62908600  0.42766400  0.31830200  1
  N  N20  1  0.88266700  0.15316100  0.13932900  1
  N  N21  1  0.07727200  0.86902000  0.23322100  1
  N  N22  1  0.49631500  0.32559800  0.74130200  1
  O  O23  1  0.74557100  0.37978500  0.47027900  1
  O  O24  1  0.42954800  0.13894200  0.70173000  1
  O  O25  1  0.29017100  0.55113500  0.13214800  1
  O  O26  1  0.70982900  0.44886500  0.86785200  1
  O  O27  1  0.49600300  0.31563000  0.13143900  1
  O  O28  1  0.57045200  0.86105800  0.29827000  1
  O  O29  1  0.25442900  0.62021500  0.52972100  1
  O  O30  1  0.50399700  0.68437000  0.86856100  1
