# generated using pymatgen
data_S
_symmetry_space_group_name_H-M   'P 1'
_cell_length_a   5.66346900
_cell_length_b   9.63248900
_cell_length_c   15.71045900
_cell_angle_alpha   90.00000000
_cell_angle_beta   90.00000000
_cell_angle_gamma   90.00000000
_symmetry_Int_Tables_number   1
_chemical_formula_structural   S
_chemical_formula_sum   S24
_cell_volume   857.05742765
_cell_formula_units_Z   24
loop_
 _symmetry_equiv_pos_site_id
 _symmetry_equiv_pos_as_xyz
  1  'x, y, z'
loop_
 _atom_site_type_symbol
 _atom_site_label
 _atom_site_symmetry_multiplicity
 _atom_site_fract_x
 _atom_site_fract_y
 _atom_site_fract_z
 _atom_site_occupancy
  S  S0  1  0.00945500  0.30365100  0.89277600  1
  S  S1  1  0.50000000  0.50000000  0.28612700  1
  S  S2  1  0.19026200  0.73662400  0.00000000  1
  S  S3  1  0.99054500  0.69634900  0.10722400  1
  S  S4  1  0.79959100  0.87270700  0.86343500  1
  S  S5  1  0.49054500  0.80365100  0.60722400  1
  S  S6  1  0.29959100  0.62729300  0.63656500  1
  S  S7  1  0.50000000  0.50000000  0.71387300  1
  S  S8  1  0.50945500  0.19634900  0.39277600  1
  S  S9  1  0.49054500  0.80365100  0.39277600  1
  S  S10  1  0.29959100  0.62729300  0.36343500  1
  S  S11  1  0.70040900  0.37270700  0.36343500  1
  S  S12  1  0.30973800  0.23662400  0.50000000  1
  S  S13  1  0.00000000  0.00000000  0.21387300  1
  S  S14  1  0.00000000  0.00000000  0.78612700  1
  S  S15  1  0.20040900  0.12729300  0.13656500  1
  S  S16  1  0.50945500  0.19634900  0.60722400  1
  S  S17  1  0.99054500  0.69634900  0.89277600  1
  S  S18  1  0.20040900  0.12729300  0.86343500  1
  S  S19  1  0.70040900  0.37270700  0.63656500  1
  S  S20  1  0.69026200  0.76337600  0.50000000  1
  S  S21  1  0.79959100  0.87270700  0.13656500  1
  S  S22  1  0.00945500  0.30365100  0.10722400  1
  S  S23  1  0.80973800  0.26337600  0.00000000  1
