# generated using pymatgen
data_VO2
_symmetry_space_group_name_H-M   'P 1'
_cell_length_a   5.21029300
_cell_length_b   5.40000200
_cell_length_c   9.19114000
_cell_angle_alpha   90.00000000
_cell_angle_beta   90.00000000
_cell_angle_gamma   90.00000000
_symmetry_Int_Tables_number   1
_chemical_formula_structural   VO2
_chemical_formula_sum   'V8 O16'
_cell_volume   258.59817076
_cell_formula_units_Z   8
loop_
 _symmetry_equiv_pos_site_id
 _symmetry_equiv_pos_as_xyz
  1  'x, y, z'
loop_
 _atom_site_type_symbol
 _atom_site_label
 _atom_site_symmetry_multiplicity
 _atom_site_fract_x
 _atom_site_fract_y
 _atom_site_fract_z
 _atom_site_occupancy
  V  V0  1  0.14112300  0.59842600  0.87127500  1
  V  V1  1  0.85887700  0.90157400  0.37127500  1
  V  V2  1  0.35887700  0.09842600  0.12872500  1
  V  V3  1  0.64112300  0.40157400  0.62872500  1
  V  V4  1  0.85887700  0.40157400  0.12872500  1
  V  V5  1  0.14112300  0.09842600  0.62872500  1
  V  V6  1  0.64112300  0.90157400  0.87127500  1
  V  V7  1  0.35887700  0.59842600  0.37127500  1
  O  O8  1  0.81034000  0.64109200  0.99427300  1
  O  O9  1  0.18966000  0.85890800  0.49427300  1
  O  O10  1  0.68966000  0.14109200  0.00572700  1
  O  O11  1  0.31034000  0.35890800  0.50572700  1
  O  O12  1  0.18966000  0.35890800  0.00572700  1
  O  O13  1  0.81034000  0.14109200  0.50572700  1
  O  O14  1  0.31034000  0.85890800  0.99427300  1
  O  O15  1  0.68966000  0.64109200  0.49427300  1
  O  O16  1  0.46727600  0.61919300  0.77338900  1
  O  O17  1  0.53272400  0.88080700  0.27338900  1
  O  O18  1  0.03272400  0.11919300  0.22661100  1
  O  O19  1  0.96727600  0.38080700  0.72661100  1
  O  O20  1  0.53272400  0.38080700  0.22661100  1
  O  O21  1  0.46727600  0.11919300  0.72661100  1
  O  O22  1  0.96727600  0.88080700  0.77338900  1
  O  O23  1  0.03272400  0.61919300  0.27338900  1
