# generated using pymatgen
data_KFeF4
_symmetry_space_group_name_H-M   'P 1'
_cell_length_a   6.50333095
_cell_length_b   6.50333095
_cell_length_c   7.75559600
_cell_angle_alpha   90.00000000
_cell_angle_beta   90.00000000
_cell_angle_gamma   144.20525512
_symmetry_Int_Tables_number   1
_chemical_formula_structural   KFeF4
_chemical_formula_sum   'K2 Fe2 F8'
_cell_volume   191.84747935
_cell_formula_units_Z   2
loop_
 _symmetry_equiv_pos_site_id
 _symmetry_equiv_pos_as_xyz
  1  'x, y, z'
loop_
 _atom_site_type_symbol
 _atom_site_label
 _atom_site_symmetry_multiplicity
 _atom_site_fract_x
 _atom_site_fract_y
 _atom_site_fract_z
 _atom_site_occupancy
  K  K0  1  0.27099300  0.72900700  0.75000000  1
  K  K1  1  0.72900700  0.27099300  0.25000000  1
  Fe  Fe2  1  0.00000000  0.00000000  0.00000000  1
  Fe  Fe3  1  0.00000000  0.00000000  0.50000000  1
  F  F4  1  0.84970700  0.15029300  0.55252000  1
  F  F5  1  0.15029300  0.84970700  0.44747900  1
  F  F6  1  0.15029300  0.84970700  0.05252000  1
  F  F7  1  0.84970700  0.15029300  0.94748000  1
  F  F8  1  0.50000000  0.50000000  0.00000000  1
  F  F9  1  0.50000000  0.50000000  0.50000000  1
  F  F10  1  0.04033600  0.95966400  0.75000000  1
  F  F11  1  0.95966400  0.04033600  0.25000000  1
