# generated using pymatgen
data_V6Fe4(CuO8)3
_symmetry_space_group_name_H-M   'P 1'
_cell_length_a   6.66607700
_cell_length_b   8.15557240
_cell_length_c   9.95437764
_cell_angle_alpha   106.78061449
_cell_angle_beta   103.04391390
_cell_angle_gamma   102.47734864
_symmetry_Int_Tables_number   1
_chemical_formula_structural   V6Fe4(CuO8)3
_chemical_formula_sum   'V6 Fe4 Cu3 O24'
_cell_volume   481.27374650
_cell_formula_units_Z   1
loop_
 _symmetry_equiv_pos_site_id
 _symmetry_equiv_pos_as_xyz
  1  'x, y, z'
loop_
 _atom_site_type_symbol
 _atom_site_label
 _atom_site_symmetry_multiplicity
 _atom_site_fract_x
 _atom_site_fract_y
 _atom_site_fract_z
 _atom_site_occupancy
  V  V0  1  0.58563400  0.26559600  0.12285200  1
  V  V1  1  0.11334400  0.10769800  0.33852500  1
  V  V2  1  0.21636200  0.65532500  0.26587900  1
  V  V3  1  0.41436600  0.73440400  0.87714800  1
  V  V4  1  0.78363800  0.34467500  0.73412100  1
  V  V5  1  0.88665600  0.89230200  0.66147500  1
  Fe  Fe6  1  0.37833000  0.94885100  0.60712000  1
  Fe  Fe7  1  0.62167000  0.05114900  0.39288000  1
  Fe  Fe8  1  0.96052700  0.79969300  0.99025600  1
  Fe  Fe9  1  0.03947300  0.20030700  0.00974400  1
  Cu  Cu10  1  0.00000000  0.50000000  0.50000000  1
  Cu  Cu11  1  0.71736900  0.70985900  0.20057900  1
  Cu  Cu12  1  0.28263100  0.29014100  0.79942100  1
  O  O13  1  0.33275000  0.03931800  0.42797400  1
  O  O14  1  0.43765300  0.85308300  0.75854900  1
  O  O15  1  0.30728400  0.51078900  0.76661200  1
  O  O16  1  0.99649400  0.28373000  0.83430800  1
  O  O17  1  0.82508800  0.56377100  0.82302800  1
  O  O18  1  0.00350600  0.71627000  0.16569200  1
  O  O19  1  0.33535800  0.22511300  0.98809000  1
  O  O20  1  0.56234700  0.14691700  0.24145100  1
  O  O21  1  0.69271600  0.48921100  0.23338800  1
  O  O22  1  0.24143700  0.79521200  0.97296800  1
  O  O23  1  0.13457800  0.32512500  0.42365200  1
  O  O24  1  0.79857400  0.30963200  0.55138400  1
  O  O25  1  0.07961000  0.06072600  0.14766400  1
  O  O26  1  0.66464200  0.77488700  0.01191000  1
  O  O27  1  0.17491200  0.43622900  0.17697200  1
  O  O28  1  0.86542200  0.67487500  0.57634800  1
  O  O29  1  0.92039000  0.93927400  0.85233600  1
  O  O30  1  0.47386300  0.77106600  0.26486000  1
  O  O31  1  0.66725000  0.96068200  0.57202600  1
  O  O32  1  0.75856300  0.20478800  0.02703200  1
  O  O33  1  0.87600600  0.98319200  0.35080700  1
  O  O34  1  0.52613700  0.22893400  0.73514000  1
  O  O35  1  0.20142600  0.69036800  0.44861600  1
  O  O36  1  0.12399400  0.01680800  0.64919300  1
