# generated using pymatgen
data_FeN3ClO3
_symmetry_space_group_name_H-M   'P 1'
_cell_length_a   7.71230830
_cell_length_b   7.71230830
_cell_length_c   6.32583700
_cell_angle_alpha   90.00000000
_cell_angle_beta   90.00000000
_cell_angle_gamma   120.00000260
_symmetry_Int_Tables_number   1
_chemical_formula_structural   FeN3ClO3
_chemical_formula_sum   'Fe2 N6 Cl2 O6'
_cell_volume   325.84974253
_cell_formula_units_Z   2
loop_
 _symmetry_equiv_pos_site_id
 _symmetry_equiv_pos_as_xyz
  1  'x, y, z'
loop_
 _atom_site_type_symbol
 _atom_site_label
 _atom_site_symmetry_multiplicity
 _atom_site_fract_x
 _atom_site_fract_y
 _atom_site_fract_z
 _atom_site_occupancy
  Fe  Fe0  1  0.33333300  0.66666700  0.78688400  1
  Fe  Fe1  1  0.66666700  0.33333300  0.28688400  1
  N  N2  1  0.79431300  0.20568700  0.18332900  1
  N  N3  1  0.58862500  0.79431300  0.68332900  1
  N  N4  1  0.20568700  0.79431300  0.68332900  1
  N  N5  1  0.41137500  0.20568700  0.18332900  1
  N  N6  1  0.79431300  0.58862500  0.18332900  1
  N  N7  1  0.20568700  0.41137500  0.68332900  1
  Cl  Cl8  1  0.33333300  0.66666700  0.14647400  1
  Cl  Cl9  1  0.66666700  0.33333300  0.64647400  1
  O  O10  1  0.86168200  0.13831800  0.06394100  1
  O  O11  1  0.13831800  0.27663500  0.56394100  1
  O  O12  1  0.13831800  0.86168200  0.56394100  1
  O  O13  1  0.27663500  0.13831800  0.06394100  1
  O  O14  1  0.72336500  0.86168200  0.56394100  1
  O  O15  1  0.86168200  0.72336500  0.06394100  1
