# generated using pymatgen
data_MoH2(CO2)2
_symmetry_space_group_name_H-M   'P 1'
_cell_length_a   11.52396400
_cell_length_b   5.63685900
_cell_length_c   8.13826915
_cell_angle_alpha   69.31105111
_cell_angle_beta   90.00000000
_cell_angle_gamma   90.00000000
_symmetry_Int_Tables_number   1
_chemical_formula_structural   MoH2(CO2)2
_chemical_formula_sum   'Mo4 H8 C8 O16'
_cell_volume   494.56179545
_cell_formula_units_Z   4
loop_
 _symmetry_equiv_pos_site_id
 _symmetry_equiv_pos_as_xyz
  1  'x, y, z'
loop_
 _atom_site_type_symbol
 _atom_site_label
 _atom_site_symmetry_multiplicity
 _atom_site_fract_x
 _atom_site_fract_y
 _atom_site_fract_z
 _atom_site_occupancy
  Mo  Mo0  1  0.45173900  0.34500900  0.48892900  1
  Mo  Mo1  1  0.54826100  0.65499100  0.51107100  1
  Mo  Mo2  1  0.04826100  0.34500900  0.98892900  1
  Mo  Mo3  1  0.95173900  0.65499100  0.01107100  1
  H  H4  1  0.56098100  0.73459900  0.00389100  1
  H  H5  1  0.28102600  0.89732000  0.90582700  1
  H  H6  1  0.71897400  0.10268000  0.09417300  1
  H  H7  1  0.78102600  0.10268000  0.59417300  1
  H  H8  1  0.43901900  0.26540100  0.99610900  1
  H  H9  1  0.93901900  0.73459900  0.50389100  1
  H  H10  1  0.21897400  0.89732000  0.40582700  1
  H  H11  1  0.06098100  0.26540100  0.49610900  1
  C  C12  1  0.79857000  0.21799400  0.06386100  1
  C  C13  1  0.95656600  0.67030200  0.64572700  1
  C  C14  1  0.20143000  0.78200600  0.93613900  1
  C  C15  1  0.29857000  0.78200600  0.43613900  1
  C  C16  1  0.45656600  0.32969800  0.85427300  1
  C  C17  1  0.04343400  0.32969800  0.35427300  1
  C  C18  1  0.54343400  0.67030200  0.14572700  1
  C  C19  1  0.70143000  0.21799400  0.56386100  1
  O  O20  1  0.98275600  0.53077700  0.28617600  1
  O  O21  1  0.58407300  0.79816400  0.23568000  1
  O  O22  1  0.39335800  0.88396400  0.46373300  1
  O  O23  1  0.41592700  0.20183600  0.76432000  1
  O  O24  1  0.10664200  0.88396400  0.96373300  1
  O  O25  1  0.29421200  0.55397800  0.43982100  1
  O  O26  1  0.51724400  0.53077700  0.78617600  1
  O  O27  1  0.91592700  0.79816400  0.73568000  1
  O  O28  1  0.20578800  0.55397800  0.93982100  1
  O  O29  1  0.79421200  0.44602200  0.06017900  1
  O  O30  1  0.70578800  0.44602200  0.56017900  1
  O  O31  1  0.48275600  0.46922300  0.21382400  1
  O  O32  1  0.60664200  0.11603600  0.53626700  1
  O  O33  1  0.01724400  0.46922300  0.71382400  1
  O  O34  1  0.08407300  0.20183600  0.26432000  1
  O  O35  1  0.89335800  0.11603600  0.03626700  1
