# generated using pymatgen
data_CdAs2S2(OF3)4
_symmetry_space_group_name_H-M   'P 1'
_cell_length_a   12.18064888
_cell_length_b   10.35402536
_cell_length_c   9.12283565
_cell_angle_alpha   77.13477885
_cell_angle_beta   55.96542432
_cell_angle_gamma   46.89979683
_symmetry_Int_Tables_number   1
_chemical_formula_structural   CdAs2S2(OF3)4
_chemical_formula_sum   'Cd2 As4 S4 O8 F24'
_cell_volume   671.47863558
_cell_formula_units_Z   2
loop_
 _symmetry_equiv_pos_site_id
 _symmetry_equiv_pos_as_xyz
  1  'x, y, z'
loop_
 _atom_site_type_symbol
 _atom_site_label
 _atom_site_symmetry_multiplicity
 _atom_site_fract_x
 _atom_site_fract_y
 _atom_site_fract_z
 _atom_site_occupancy
  Cd  Cd0  1  0.86979600  0.63020400  0.63020400  1
  Cd  Cd1  1  0.61979600  0.38020400  0.38020400  1
  As  As2  1  0.50728000  0.60466000  0.81361300  1
  As  As3  1  0.07444700  0.81361300  0.60466000  1
  As  As4  1  0.43638700  0.17555300  0.74272000  1
  As  As5  1  0.64534000  0.74272000  0.17555300  1
  S  S6  1  0.99869300  0.70697000  0.17912500  1
  S  S7  1  0.54303000  0.25130700  0.13478800  1
  S  S8  1  0.11521200  0.17912500  0.70697000  1
  S  S9  1  0.07087500  0.13478800  0.25130700  1
  O  O10  1  0.63920200  0.26218100  0.17327600  1
  O  O11  1  0.96955900  0.23144500  0.89429200  1
  O  O12  1  0.07672400  0.32465800  0.61079800  1
  O  O13  1  0.98781900  0.61079800  0.32465800  1
  O  O14  1  0.92534200  0.17327600  0.26218100  1
  O  O15  1  0.35570800  0.34529600  0.28044100  1
  O  O16  1  0.90470400  0.89429200  0.23144500  1
  O  O17  1  0.01855500  0.28044100  0.34529600  1
  F  F18  1  0.56883200  0.23633500  0.60590000  1
  F  F19  1  0.38227900  0.54142800  0.93051700  1
  F  F20  1  0.65382800  0.94290000  0.67579500  1
  F  F21  1  0.02957800  0.83114300  0.82146100  1
  F  F22  1  0.64410000  0.66106600  0.68116800  1
  F  F23  1  0.42853900  0.93218200  0.22042200  1
  F  F24  1  0.14577500  0.93051700  0.54142800  1
  F  F25  1  0.30710000  0.59617200  0.52252200  1
  F  F26  1  0.86565800  0.54297600  0.11995800  1
  F  F27  1  0.84842600  0.01655800  0.68580300  1
  F  F28  1  0.58893400  0.60590000  0.23633500  1
  F  F29  1  0.57420500  0.52252200  0.59617200  1
  F  F30  1  0.01366500  0.68116800  0.66106600  1
  F  F31  1  0.23344200  0.40157400  0.80078600  1
  F  F32  1  0.41885700  0.22042200  0.93218200  1
  F  F33  1  0.70702400  0.38434200  0.77859200  1
  F  F34  1  0.31948300  0.10422500  0.86772100  1
  F  F35  1  0.70857200  0.86772100  0.10422500  1
  F  F36  1  0.31781800  0.82146100  0.83114300  1
  F  F37  1  0.72747800  0.67579500  0.94290000  1
  F  F38  1  0.44921400  0.68580300  0.01655800  1
  F  F39  1  0.13004200  0.77859200  0.38434200  1
  F  F40  1  0.56419700  0.80078600  0.40157400  1
  F  F41  1  0.47140800  0.11995800  0.54297600  1
