# generated using pymatgen
data_Na2Ce2TiSi(CO6)2
_symmetry_space_group_name_H-M   'P 1'
_cell_length_a   5.06886300
_cell_length_b   7.62174068
_cell_length_c   14.05297862
_cell_angle_alpha   78.97252800
_cell_angle_beta   79.79850066
_cell_angle_gamma   70.75912970
_symmetry_Int_Tables_number   1
_chemical_formula_structural   Na2Ce2TiSi(CO6)2
_chemical_formula_sum   'Na4 Ce4 Ti2 Si2 C4 O24'
_cell_volume   499.29889846
_cell_formula_units_Z   2
loop_
 _symmetry_equiv_pos_site_id
 _symmetry_equiv_pos_as_xyz
  1  'x, y, z'
loop_
 _atom_site_type_symbol
 _atom_site_label
 _atom_site_symmetry_multiplicity
 _atom_site_fract_x
 _atom_site_fract_y
 _atom_site_fract_z
 _atom_site_occupancy
  Na  Na0  1  0.82557500  0.86235100  0.47349100  1
  Na  Na1  1  0.50000000  0.00000000  0.00000000  1
  Na  Na2  1  0.50000000  0.50000000  0.50000000  1
  Na  Na3  1  0.17442500  0.13764900  0.52650900  1
  Ce  Ce4  1  0.40529900  0.34301600  0.78272900  1
  Ce  Ce5  1  0.30851800  0.21904000  0.21786600  1
  Ce  Ce6  1  0.69148200  0.78096000  0.78213400  1
  Ce  Ce7  1  0.59470100  0.65698400  0.21727100  1
  Ti  Ti8  1  0.19795600  0.60419400  0.99968800  1
  Ti  Ti9  1  0.80204400  0.39580600  0.00031200  1
  Si  Si10  1  0.90756100  0.96129500  0.14161500  1
  Si  Si11  1  0.09243900  0.03870500  0.85838500  1
  C  C12  1  0.23821500  0.79216400  0.64758500  1
  C  C13  1  0.76178500  0.20783600  0.35241500  1
  C  C14  1  0.93909000  0.39882300  0.65366000  1
  C  C15  1  0.06091000  0.60117700  0.34634000  1
  O  O16  1  0.22191200  0.95678600  0.15696300  1
  O  O17  1  0.30326000  0.06670500  0.75627200  1
  O  O18  1  0.46313700  0.80942900  0.59453100  1
  O  O19  1  0.13397600  0.54350400  0.25977700  1
  O  O20  1  0.82160800  0.59931900  0.39301200  1
  O  O21  1  0.27944400  0.83766800  0.91630600  1
  O  O22  1  0.76714000  0.33438400  0.62385000  1
  O  O23  1  0.09388000  0.20870400  0.91614500  1
  O  O24  1  0.53686300  0.19057100  0.40546900  1
  O  O25  1  0.50125300  0.44706600  0.91835100  1
  O  O26  1  0.77808800  0.04321400  0.84303700  1
  O  O27  1  0.25417600  0.69340300  0.73609900  1
  O  O28  1  0.01069600  0.12918800  0.37896600  1
  O  O29  1  0.07270000  0.40169600  0.08244300  1
  O  O30  1  0.98930400  0.87081200  0.62103400  1
  O  O31  1  0.92730000  0.59830400  0.91755700  1
  O  O32  1  0.74582400  0.30659700  0.26390100  1
  O  O33  1  0.86602400  0.45649600  0.74022300  1
  O  O34  1  0.72055600  0.16233200  0.08369400  1
  O  O35  1  0.17839200  0.40068100  0.60698800  1
  O  O36  1  0.69674000  0.93329500  0.24372800  1
  O  O37  1  0.90612000  0.79129600  0.08385500  1
  O  O38  1  0.49874700  0.55293400  0.08164900  1
  O  O39  1  0.23286000  0.66561600  0.37615000  1
