# generated using pymatgen
data_Tl2CuAsO4
_symmetry_space_group_name_H-M   'P 1'
_cell_length_a   5.48886800
_cell_length_b   8.82759000
_cell_length_c   12.38145195
_cell_angle_alpha   80.60303736
_cell_angle_beta   90.00000000
_cell_angle_gamma   90.00000000
_symmetry_Int_Tables_number   1
_chemical_formula_structural   Tl2CuAsO4
_chemical_formula_sum   'Tl8 Cu4 As4 O16'
_cell_volume   591.87389402
_cell_formula_units_Z   4
loop_
 _symmetry_equiv_pos_site_id
 _symmetry_equiv_pos_as_xyz
  1  'x, y, z'
loop_
 _atom_site_type_symbol
 _atom_site_label
 _atom_site_symmetry_multiplicity
 _atom_site_fract_x
 _atom_site_fract_y
 _atom_site_fract_z
 _atom_site_occupancy
  Tl  Tl0  1  0.72215700  0.31284500  0.85316100  1
  Tl  Tl1  1  0.22215700  0.68715500  0.64683900  1
  Tl  Tl2  1  0.75150600  0.01016200  0.11577200  1
  Tl  Tl3  1  0.74849400  0.01016200  0.61577200  1
  Tl  Tl4  1  0.24849400  0.98983800  0.88422800  1
  Tl  Tl5  1  0.27784300  0.68715500  0.14683900  1
  Tl  Tl6  1  0.77784300  0.31284500  0.35316100  1
  Tl  Tl7  1  0.25150600  0.98983800  0.38422800  1
  Cu  Cu8  1  0.19556300  0.51319600  0.42333200  1
  Cu  Cu9  1  0.30443700  0.51319600  0.92333200  1
  Cu  Cu10  1  0.80443700  0.48680400  0.57666800  1
  Cu  Cu11  1  0.69556300  0.48680400  0.07666800  1
  As  As12  1  0.74964700  0.71441000  0.87054400  1
  As  As13  1  0.75035300  0.71441000  0.37054400  1
  As  As14  1  0.24964700  0.28559000  0.62945600  1
  As  As15  1  0.25035300  0.28559000  0.12945600  1
  O  O16  1  0.89536000  0.58481500  0.80318000  1
  O  O17  1  0.43128600  0.70226100  0.85360600  1
  O  O18  1  0.18400400  0.32179700  0.98973200  1
  O  O19  1  0.10464000  0.41518500  0.19682000  1
  O  O20  1  0.93128600  0.29773900  0.64639400  1
  O  O21  1  0.33009300  0.09917200  0.68040800  1
  O  O22  1  0.68400400  0.67820300  0.51026800  1
  O  O23  1  0.06871400  0.70226100  0.35360600  1
  O  O24  1  0.83009300  0.90082800  0.81959200  1
  O  O25  1  0.81599600  0.67820300  0.01026800  1
  O  O26  1  0.39536000  0.41518500  0.69682000  1
  O  O27  1  0.16990700  0.09917200  0.18040800  1
  O  O28  1  0.60464000  0.58481500  0.30318000  1
  O  O29  1  0.66990700  0.90082800  0.31959200  1
  O  O30  1  0.31599600  0.32179700  0.48973200  1
  O  O31  1  0.56871400  0.29773900  0.14639400  1
