# generated using pymatgen
data_MgFe(SiO3)2
_symmetry_space_group_name_H-M   'P 1'
_cell_length_a   5.30419400
_cell_length_b   9.05167200
_cell_length_c   18.53401800
_cell_angle_alpha   90.00000000
_cell_angle_beta   90.00000000
_cell_angle_gamma   90.00000000
_symmetry_Int_Tables_number   1
_chemical_formula_structural   MgFe(SiO3)2
_chemical_formula_sum   'Mg8 Fe8 Si16 O48'
_cell_volume   889.85201602
_cell_formula_units_Z   8
loop_
 _symmetry_equiv_pos_site_id
 _symmetry_equiv_pos_as_xyz
  1  'x, y, z'
loop_
 _atom_site_type_symbol
 _atom_site_label
 _atom_site_symmetry_multiplicity
 _atom_site_fract_x
 _atom_site_fract_y
 _atom_site_fract_z
 _atom_site_occupancy
  Mg  Mg0  1  0.61703300  0.15383000  0.37530800  1
  Mg  Mg1  1  0.38296700  0.84617000  0.62469200  1
  Mg  Mg2  1  0.61703300  0.65383000  0.12469200  1
  Mg  Mg3  1  0.11703300  0.84617000  0.12469200  1
  Mg  Mg4  1  0.88296700  0.15383000  0.87530800  1
  Mg  Mg5  1  0.38296700  0.34617000  0.87530800  1
  Mg  Mg6  1  0.11703300  0.34617000  0.37530800  1
  Mg  Mg7  1  0.88296700  0.65383000  0.62469200  1
  Fe  Fe8  1  0.37713000  0.98641400  0.87699100  1
  Fe  Fe9  1  0.62287000  0.01358600  0.12300900  1
  Fe  Fe10  1  0.87713000  0.01358600  0.62300900  1
  Fe  Fe11  1  0.12287000  0.98641400  0.37699100  1
  Fe  Fe12  1  0.37713000  0.48641400  0.62300900  1
  Fe  Fe13  1  0.62287000  0.51358600  0.37699100  1
  Fe  Fe14  1  0.87713000  0.51358600  0.87699100  1
  Fe  Fe15  1  0.12287000  0.48641400  0.12300900  1
  Si  Si16  1  0.56216300  0.66048800  0.77189300  1
  Si  Si17  1  0.71050500  0.83606300  0.47471300  1
  Si  Si18  1  0.78949500  0.83606300  0.97471300  1
  Si  Si19  1  0.93783700  0.16048800  0.22810700  1
  Si  Si20  1  0.06216300  0.33951200  0.72810700  1
  Si  Si21  1  0.43783700  0.83951200  0.27189300  1
  Si  Si22  1  0.21050500  0.66393700  0.47471300  1
  Si  Si23  1  0.71050500  0.33606300  0.02528700  1
  Si  Si24  1  0.78949500  0.33606300  0.52528700  1
  Si  Si25  1  0.93783700  0.66048800  0.27189300  1
  Si  Si26  1  0.43783700  0.33951200  0.22810700  1
  Si  Si27  1  0.56216300  0.16048800  0.72810700  1
  Si  Si28  1  0.28949500  0.16393700  0.52528700  1
  Si  Si29  1  0.06216300  0.83951200  0.77189300  1
  Si  Si30  1  0.28949500  0.66393700  0.97471300  1
  Si  Si31  1  0.21050500  0.16393700  0.02528700  1
  O  O32  1  0.93627900  0.50137200  0.31171500  1
  O  O33  1  0.29684700  0.01397400  0.06594200  1
  O  O34  1  0.06372100  0.49862800  0.68828500  1
  O  O35  1  0.70962700  0.33567500  0.93695400  1
  O  O36  1  0.20962700  0.16432500  0.93695400  1
  O  O37  1  0.91730400  0.20641000  0.05196200  1
  O  O38  1  0.94426700  0.66390100  0.18396400  1
  O  O39  1  0.05573300  0.83609900  0.68396400  1
  O  O40  1  0.70962700  0.83567500  0.56304600  1
  O  O41  1  0.94426700  0.16390100  0.31603600  1
  O  O42  1  0.43627900  0.49862800  0.18828500  1
  O  O43  1  0.79037300  0.33567500  0.43695400  1
  O  O44  1  0.70315300  0.98602600  0.93405800  1
  O  O45  1  0.44426700  0.83609900  0.18396400  1
  O  O46  1  0.56372100  0.00137200  0.68828500  1
  O  O47  1  0.29684700  0.51397400  0.43405800  1
  O  O48  1  0.43627900  0.99862800  0.31171500  1
  O  O49  1  0.16746800  0.76777900  0.30255000  1
  O  O50  1  0.33253200  0.76777900  0.80255000  1
  O  O51  1  0.58269600  0.70641000  0.94803800  1
  O  O52  1  0.79037300  0.83567500  0.06304600  1
  O  O53  1  0.55573300  0.66390100  0.68396400  1
  O  O54  1  0.79684700  0.48602600  0.06594200  1
  O  O55  1  0.16746800  0.26777900  0.19745000  1
  O  O56  1  0.29037300  0.16432500  0.43695400  1
  O  O57  1  0.55573300  0.16390100  0.81603600  1
  O  O58  1  0.70315300  0.48602600  0.56594200  1
  O  O59  1  0.20962700  0.66432500  0.56304600  1
  O  O60  1  0.20315300  0.51397400  0.93405800  1
  O  O61  1  0.66746800  0.73222100  0.30255000  1
  O  O62  1  0.06372100  0.99862800  0.81171500  1
  O  O63  1  0.83253200  0.73222100  0.80255000  1
  O  O64  1  0.83253200  0.23222100  0.69745000  1
  O  O65  1  0.79684700  0.98602600  0.43405800  1
  O  O66  1  0.29037300  0.66432500  0.06304600  1
  O  O67  1  0.20315300  0.01397400  0.56594200  1
  O  O68  1  0.33253200  0.26777900  0.69745000  1
  O  O69  1  0.08269600  0.79359000  0.94803800  1
  O  O70  1  0.41730400  0.79359000  0.44803800  1
  O  O71  1  0.66746800  0.23222100  0.19745000  1
  O  O72  1  0.41730400  0.29359000  0.05196200  1
  O  O73  1  0.58269600  0.20641000  0.55196200  1
  O  O74  1  0.08269600  0.29359000  0.55196200  1
  O  O75  1  0.44426700  0.33609900  0.31603600  1
  O  O76  1  0.56372100  0.50137200  0.81171500  1
  O  O77  1  0.91730400  0.70641000  0.44803800  1
  O  O78  1  0.05573300  0.33609900  0.81603600  1
  O  O79  1  0.93627900  0.00137200  0.18828500  1
