# generated using pymatgen
data_SnH6CI3N
_symmetry_space_group_name_H-M   'P 1'
_cell_length_a   8.50530600
_cell_length_b   9.14933100
_cell_length_c   13.15568000
_cell_angle_alpha   90.00000000
_cell_angle_beta   90.00000000
_cell_angle_gamma   90.00000000
_symmetry_Int_Tables_number   1
_chemical_formula_structural   SnH6CI3N
_chemical_formula_sum   'Sn4 H24 C4 I12 N4'
_cell_volume   1023.74686248
_cell_formula_units_Z   4
loop_
 _symmetry_equiv_pos_site_id
 _symmetry_equiv_pos_as_xyz
  1  'x, y, z'
loop_
 _atom_site_type_symbol
 _atom_site_label
 _atom_site_symmetry_multiplicity
 _atom_site_fract_x
 _atom_site_fract_y
 _atom_site_fract_z
 _atom_site_occupancy
  Sn  Sn0  1  0.50000000  0.50000000  0.00000000  1
  Sn  Sn1  1  0.00000000  0.00000000  0.00000000  1
  Sn  Sn2  1  0.50000000  0.50000000  0.50000000  1
  Sn  Sn3  1  0.00000000  0.00000000  0.50000000  1
  H  H4  1  0.49548700  0.14236200  0.31416100  1
  H  H5  1  0.50451300  0.85763800  0.68583900  1
  H  H6  1  0.00451300  0.64236200  0.68583900  1
  H  H7  1  0.99548700  0.35763800  0.31416100  1
  H  H8  1  0.50451300  0.85763800  0.81416100  1
  H  H9  1  0.49548700  0.14236200  0.18583900  1
  H  H10  1  0.99548700  0.35763800  0.18583900  1
  H  H11  1  0.00451300  0.64236200  0.81416100  1
  H  H12  1  0.33742500  0.07648200  0.25000000  1
  H  H13  1  0.66257500  0.92351800  0.75000000  1
  H  H14  1  0.16257500  0.57648200  0.75000000  1
  H  H15  1  0.83742500  0.42351800  0.25000000  1
  H  H16  1  0.49344900  0.88068900  0.31869200  1
  H  H17  1  0.50655100  0.11931100  0.68130800  1
  H  H18  1  0.00655100  0.38068900  0.68130800  1
  H  H19  1  0.99344900  0.61931100  0.31869200  1
  H  H20  1  0.50655100  0.11931100  0.81869200  1
  H  H21  1  0.49344900  0.88068900  0.18130800  1
  H  H22  1  0.99344900  0.61931100  0.18130800  1
  H  H23  1  0.00655100  0.38068900  0.81869200  1
  H  H24  1  0.65997900  0.95138200  0.25000000  1
  H  H25  1  0.34002100  0.04861800  0.75000000  1
  H  H26  1  0.84002100  0.45138200  0.75000000  1
  H  H27  1  0.15997900  0.54861800  0.25000000  1
  C  C28  1  0.53206100  0.93750400  0.25000000  1
  C  C29  1  0.46793900  0.06249600  0.75000000  1
  C  C30  1  0.96793900  0.43750400  0.75000000  1
  C  C31  1  0.03206100  0.56249600  0.25000000  1
  I  I32  1  0.54166400  0.51125700  0.25000000  1
  I  I33  1  0.45833600  0.48874300  0.75000000  1
  I  I34  1  0.95833600  0.01125700  0.75000000  1
  I  I35  1  0.04166400  0.98874300  0.25000000  1
  I  I36  1  0.81403800  0.69466600  0.97805400  1
  I  I37  1  0.18596200  0.30533400  0.02194600  1
  I  I38  1  0.68596200  0.19466600  0.02194600  1
  I  I39  1  0.31403800  0.80533400  0.97805400  1
  I  I40  1  0.18596200  0.30533400  0.47805400  1
  I  I41  1  0.81403800  0.69466600  0.52194600  1
  I  I42  1  0.31403800  0.80533400  0.52194600  1
  I  I43  1  0.68596200  0.19466600  0.47805400  1
  N  N44  1  0.45985100  0.08553100  0.25000000  1
  N  N45  1  0.54014900  0.91446900  0.75000000  1
  N  N46  1  0.04014900  0.58553100  0.75000000  1
  N  N47  1  0.95985100  0.41446900  0.25000000  1
