# generated using pymatgen
data_Ba9Sc2(SiO4)6
_symmetry_space_group_name_H-M   'P 1'
_cell_length_a   9.39486401
_cell_length_b   9.39486401
_cell_length_c   9.39486390
_cell_angle_alpha   64.30783375
_cell_angle_beta   64.30783375
_cell_angle_gamma   64.30782754
_symmetry_Int_Tables_number   1
_chemical_formula_structural   Ba9Sc2(SiO4)6
_chemical_formula_sum   'Ba9 Sc2 Si6 O24'
_cell_volume   641.83645889
_cell_formula_units_Z   1
loop_
 _symmetry_equiv_pos_site_id
 _symmetry_equiv_pos_as_xyz
  1  'x, y, z'
loop_
 _atom_site_type_symbol
 _atom_site_label
 _atom_site_symmetry_multiplicity
 _atom_site_fract_x
 _atom_site_fract_y
 _atom_site_fract_z
 _atom_site_occupancy
  Ba  Ba0  1  0.56272700  0.86394700  0.24755700  1
  Ba  Ba1  1  0.66338400  0.66338400  0.66338400  1
  Ba  Ba2  1  0.75244300  0.43727300  0.13605300  1
  Ba  Ba3  1  0.86394700  0.24755700  0.56272700  1
  Ba  Ba4  1  0.00000000  0.00000000  0.00000000  1
  Ba  Ba5  1  0.13605300  0.75244300  0.43727300  1
  Ba  Ba6  1  0.43727300  0.13605300  0.75244300  1
  Ba  Ba7  1  0.33661600  0.33661600  0.33661600  1
  Ba  Ba8  1  0.24755700  0.56272700  0.86394700  1
  Sc  Sc9  1  0.83516100  0.83516100  0.83516100  1
  Sc  Sc10  1  0.16483900  0.16483900  0.16483900  1
  Si  Si11  1  0.41522300  0.76360200  0.05032200  1
  Si  Si12  1  0.05032200  0.41522300  0.76360200  1
  Si  Si13  1  0.76360200  0.05032200  0.41522300  1
  Si  Si14  1  0.94967800  0.58477700  0.23639800  1
  Si  Si15  1  0.23639800  0.94967800  0.58477700  1
  Si  Si16  1  0.58477700  0.23639800  0.94967800  1
  O  O17  1  0.36403500  0.72604900  0.92933400  1
  O  O18  1  0.90437800  0.71717200  0.06087700  1
  O  O19  1  0.09562200  0.28282800  0.93912300  1
  O  O20  1  0.92933400  0.36403500  0.72604900  1
  O  O21  1  0.77294000  0.56876700  0.37927700  1
  O  O22  1  0.37927700  0.77294000  0.56876700  1
  O  O23  1  0.71717200  0.06087700  0.90437800  1
  O  O24  1  0.06087700  0.90437800  0.71717200  1
  O  O25  1  0.63596500  0.27395100  0.07066600  1
  O  O26  1  0.05099100  0.39581600  0.20955200  1
  O  O27  1  0.94900900  0.60418400  0.79044800  1
  O  O28  1  0.56876700  0.37927700  0.77294000  1
  O  O29  1  0.39581600  0.20955200  0.05099100  1
  O  O30  1  0.27395100  0.07066600  0.63596500  1
  O  O31  1  0.79044800  0.94900900  0.60418400  1
  O  O32  1  0.62072300  0.22706000  0.43123300  1
  O  O33  1  0.07066600  0.63596500  0.27395100  1
  O  O34  1  0.43123300  0.62072300  0.22706000  1
  O  O35  1  0.60418400  0.79044800  0.94900900  1
  O  O36  1  0.93912300  0.09562200  0.28282800  1
  O  O37  1  0.72604900  0.92933400  0.36403500  1
  O  O38  1  0.22706000  0.43123300  0.62072300  1
  O  O39  1  0.28282800  0.93912300  0.09562200  1
  O  O40  1  0.20955200  0.05099100  0.39581600  1
