# generated using pymatgen
data_BH9(CO)3
_symmetry_space_group_name_H-M   'P 1'
_cell_length_a   7.13904806
_cell_length_b   7.13904806
_cell_length_c   6.80570500
_cell_angle_alpha   90.00000000
_cell_angle_beta   90.00000000
_cell_angle_gamma   120.00000059
_symmetry_Int_Tables_number   1
_chemical_formula_structural   BH9(CO)3
_chemical_formula_sum   'B2 H18 C6 O6'
_cell_volume   300.38923236
_cell_formula_units_Z   2
loop_
 _symmetry_equiv_pos_site_id
 _symmetry_equiv_pos_as_xyz
  1  'x, y, z'
loop_
 _atom_site_type_symbol
 _atom_site_label
 _atom_site_symmetry_multiplicity
 _atom_site_fract_x
 _atom_site_fract_y
 _atom_site_fract_z
 _atom_site_occupancy
  B  B0  1  0.00000000  0.00000000  0.25000000  1
  B  B1  1  0.00000000  0.00000000  0.75000000  1
  H  H2  1  0.41538900  0.27108400  0.38199900  1
  H  H3  1  0.49489100  0.06448600  0.75000000  1
  H  H4  1  0.56959500  0.50510900  0.75000000  1
  H  H5  1  0.06448600  0.56959500  0.25000000  1
  H  H6  1  0.58461100  0.72891600  0.88199900  1
  H  H7  1  0.58461100  0.72891600  0.61800100  1
  H  H8  1  0.14430500  0.41538900  0.88199900  1
  H  H9  1  0.41538900  0.27108400  0.11800100  1
  H  H10  1  0.27108400  0.85569500  0.61800100  1
  H  H11  1  0.50510900  0.93551400  0.25000000  1
  H  H12  1  0.72891600  0.14430500  0.11800100  1
  H  H13  1  0.85569500  0.58461100  0.11800100  1
  H  H14  1  0.72891600  0.14430500  0.38199900  1
  H  H15  1  0.27108400  0.85569500  0.88199900  1
  H  H16  1  0.14430500  0.41538900  0.61800100  1
  H  H17  1  0.93551400  0.43040500  0.75000000  1
  H  H18  1  0.43040500  0.49489100  0.25000000  1
  H  H19  1  0.85569500  0.58461100  0.38199900  1
  C  C20  1  0.68130400  0.04180400  0.25000000  1
  C  C21  1  0.04180400  0.36049900  0.75000000  1
  C  C22  1  0.36049900  0.31869600  0.25000000  1
  C  C23  1  0.95819600  0.63950100  0.25000000  1
  C  C24  1  0.31869600  0.95819600  0.75000000  1
  C  C25  1  0.63950100  0.68130400  0.75000000  1
  O  O26  1  0.12931700  0.22166500  0.25000000  1
  O  O27  1  0.09234800  0.87068300  0.25000000  1
  O  O28  1  0.22166500  0.09234800  0.75000000  1
  O  O29  1  0.87068300  0.77833500  0.75000000  1
  O  O30  1  0.77833500  0.90765200  0.25000000  1
  O  O31  1  0.90765200  0.12931700  0.75000000  1
