# generated using pymatgen
data_Ca6Hf19O44
_symmetry_space_group_name_H-M   'P 1'
_cell_length_a   12.09144371
_cell_length_b   12.09144371
_cell_length_c   12.09144429
_cell_angle_alpha   98.07670119
_cell_angle_beta   98.07670119
_cell_angle_gamma   98.07670022
_symmetry_Int_Tables_number   1
_chemical_formula_structural   Ca6Hf19O44
_chemical_formula_sum   'Ca12 Hf38 O88'
_cell_volume   1709.60010745
_cell_formula_units_Z   2
loop_
 _symmetry_equiv_pos_site_id
 _symmetry_equiv_pos_as_xyz
  1  'x, y, z'
loop_
 _atom_site_type_symbol
 _atom_site_label
 _atom_site_symmetry_multiplicity
 _atom_site_fract_x
 _atom_site_fract_y
 _atom_site_fract_z
 _atom_site_occupancy
  Ca  Ca0  1  0.04966700  0.45033300  0.25000000  1
  Ca  Ca1  1  0.33390200  0.16609800  0.75000000  1
  Ca  Ca2  1  0.16609800  0.75000000  0.33390200  1
  Ca  Ca3  1  0.75000000  0.33390200  0.16609800  1
  Ca  Ca4  1  0.25000000  0.04966700  0.45033300  1
  Ca  Ca5  1  0.95033300  0.54966700  0.75000000  1
  Ca  Ca6  1  0.54966700  0.75000000  0.95033300  1
  Ca  Ca7  1  0.25000000  0.66609800  0.83390200  1
  Ca  Ca8  1  0.83390200  0.25000000  0.66609800  1
  Ca  Ca9  1  0.45033300  0.25000000  0.04966700  1
  Ca  Ca10  1  0.75000000  0.95033300  0.54966700  1
  Ca  Ca11  1  0.66609800  0.83390200  0.25000000  1
  Hf  Hf12  1  0.35737000  0.75000000  0.14263000  1
  Hf  Hf13  1  0.85776400  0.42394400  0.44932600  1
  Hf  Hf14  1  0.44831700  0.62115100  0.65768800  1
  Hf  Hf15  1  0.05067400  0.07605600  0.64223600  1
  Hf  Hf16  1  0.15768800  0.12115100  0.94831700  1
  Hf  Hf17  1  0.06200200  0.25000000  0.43799800  1
  Hf  Hf18  1  0.34231200  0.55168300  0.37884900  1
  Hf  Hf19  1  0.44932600  0.85776400  0.42394400  1
  Hf  Hf20  1  0.56200200  0.93799800  0.75000000  1
  Hf  Hf21  1  0.14263000  0.35737000  0.75000000  1
  Hf  Hf22  1  0.43799800  0.06200200  0.25000000  1
  Hf  Hf23  1  0.55168300  0.37884900  0.34231200  1
  Hf  Hf24  1  0.25000000  0.85737000  0.64263000  1
  Hf  Hf25  1  0.05168300  0.84231200  0.87884900  1
  Hf  Hf26  1  0.64263000  0.25000000  0.85737000  1
  Hf  Hf27  1  0.37884900  0.34231200  0.55168300  1
  Hf  Hf28  1  0.25000000  0.25000000  0.25000000  1
  Hf  Hf29  1  0.12115100  0.94831700  0.15768800  1
  Hf  Hf30  1  0.35776400  0.94932600  0.92394400  1
  Hf  Hf31  1  0.94831700  0.15768800  0.12115100  1
  Hf  Hf32  1  0.57605600  0.55067400  0.14223600  1
  Hf  Hf33  1  0.65768800  0.44831700  0.62115100  1
  Hf  Hf34  1  0.62115100  0.65768800  0.44831700  1
  Hf  Hf35  1  0.87884900  0.05168300  0.84231200  1
  Hf  Hf36  1  0.75000000  0.14263000  0.35737000  1
  Hf  Hf37  1  0.42394400  0.44932600  0.85776400  1
  Hf  Hf38  1  0.64223600  0.05067400  0.07605600  1
  Hf  Hf39  1  0.75000000  0.56200200  0.93799800  1
  Hf  Hf40  1  0.93799800  0.75000000  0.56200200  1
  Hf  Hf41  1  0.85737000  0.64263000  0.25000000  1
  Hf  Hf42  1  0.94932600  0.92394400  0.35776400  1
  Hf  Hf43  1  0.55067400  0.14223600  0.57605600  1
  Hf  Hf44  1  0.75000000  0.75000000  0.75000000  1
  Hf  Hf45  1  0.25000000  0.43799800  0.06200200  1
  Hf  Hf46  1  0.92394400  0.35776400  0.94932600  1
  Hf  Hf47  1  0.14223600  0.57605600  0.55067400  1
  Hf  Hf48  1  0.07605600  0.64223600  0.05067400  1
  Hf  Hf49  1  0.84231200  0.87884900  0.05168300  1
  O  O50  1  0.10875400  0.74502400  0.56653600  1
  O  O51  1  0.39287900  0.39287900  0.39287900  1
  O  O52  1  0.45617800  0.68546700  0.49464400  1
  O  O53  1  0.20063400  0.84798200  0.80137100  1
  O  O54  1  0.10684000  0.91462700  0.31786500  1
  O  O55  1  0.92963000  0.74796700  0.73426000  1
  O  O56  1  0.68546700  0.49464400  0.45617800  1
  O  O57  1  0.95902200  0.92018000  0.54914500  1
  O  O58  1  0.25497600  0.43346400  0.89124600  1
  O  O59  1  0.65201800  0.29936600  0.69862900  1
  O  O60  1  0.80142000  0.98536000  0.36890700  1
  O  O61  1  0.30137100  0.34798200  0.70063400  1
  O  O62  1  0.07037000  0.25203300  0.26574000  1
  O  O63  1  0.84798200  0.80137100  0.20063400  1
  O  O64  1  0.49464400  0.45617800  0.68546700  1
  O  O65  1  0.95617800  0.99464400  0.18546700  1
  O  O66  1  0.30142000  0.86890700  0.48536000  1
  O  O67  1  0.60684000  0.81786500  0.41462700  1
  O  O68  1  0.19862900  0.79936600  0.15201800  1
  O  O69  1  0.75203300  0.57037000  0.76574000  1
  O  O70  1  0.43346400  0.89124600  0.25497600  1
  O  O71  1  0.26574000  0.07037000  0.25203300  1
  O  O72  1  0.19858000  0.01464000  0.63109300  1
  O  O73  1  0.51464000  0.69858000  0.13109300  1
  O  O74  1  0.36890700  0.80142000  0.98536000  1
  O  O75  1  0.92018000  0.54914500  0.95902200  1
  O  O76  1  0.06653600  0.24502400  0.60875400  1
  O  O77  1  0.24796700  0.42963000  0.23426000  1
  O  O78  1  0.70063400  0.30137100  0.34798200  1
  O  O79  1  0.18546700  0.95617800  0.99464400  1
  O  O80  1  0.89287900  0.89287900  0.89287900  1
  O  O81  1  0.75497600  0.39124600  0.93346400  1
  O  O82  1  0.89316000  0.08537300  0.68213500  1
  O  O83  1  0.34798200  0.70063400  0.30137100  1
  O  O84  1  0.23426000  0.24796700  0.42963000  1
  O  O85  1  0.39316000  0.18213500  0.58537300  1
  O  O86  1  0.98536000  0.36890700  0.80142000  1
  O  O87  1  0.95085500  0.57982000  0.54097800  1
  O  O88  1  0.04097800  0.07982000  0.45085500  1
  O  O89  1  0.56653600  0.10875400  0.74502400  1
  O  O90  1  0.41462700  0.60684000  0.81786500  1
  O  O91  1  0.45085500  0.04097800  0.07982000  1
  O  O92  1  0.04914500  0.42018000  0.45902200  1
  O  O93  1  0.99464400  0.18546700  0.95617800  1
  O  O94  1  0.81453300  0.04382200  0.00535600  1
  O  O95  1  0.93346400  0.75497600  0.39124600  1
  O  O96  1  0.89124600  0.25497600  0.43346400  1
  O  O97  1  0.60875400  0.06653600  0.24502400  1
  O  O98  1  0.13109300  0.51464000  0.69858000  1
  O  O99  1  0.63109300  0.19858000  0.01464000  1
  O  O100  1  0.76574000  0.75203300  0.57037000  1
  O  O101  1  0.31786500  0.10684000  0.91462700  1
  O  O102  1  0.81786500  0.41462700  0.60684000  1
  O  O103  1  0.18213500  0.58537300  0.39316000  1
  O  O104  1  0.45902200  0.04914500  0.42018000  1
  O  O105  1  0.69858000  0.13109300  0.51464000  1
  O  O106  1  0.50535600  0.54382200  0.31453300  1
  O  O107  1  0.79936600  0.15201800  0.19862900  1
  O  O108  1  0.74502400  0.56653600  0.10875400  1
  O  O109  1  0.91462700  0.31786500  0.10684000  1
  O  O110  1  0.08537300  0.68213500  0.89316000  1
  O  O111  1  0.86890700  0.48536000  0.30142000  1
  O  O112  1  0.00535600  0.81453300  0.04382200  1
  O  O113  1  0.54382200  0.31453300  0.50535600  1
  O  O114  1  0.48536000  0.30142000  0.86890700  1
  O  O115  1  0.60712100  0.60712100  0.60712100  1
  O  O116  1  0.04382200  0.00535600  0.81453300  1
  O  O117  1  0.73426000  0.92963000  0.74796700  1
  O  O118  1  0.42963000  0.23426000  0.24796700  1
  O  O119  1  0.68213500  0.89316000  0.08537300  1
  O  O120  1  0.10712100  0.10712100  0.10712100  1
  O  O121  1  0.25203300  0.26574000  0.07037000  1
  O  O122  1  0.07982000  0.45085500  0.04097800  1
  O  O123  1  0.57037000  0.76574000  0.75203300  1
  O  O124  1  0.74796700  0.73426000  0.92963000  1
  O  O125  1  0.54914500  0.95902200  0.92018000  1
  O  O126  1  0.42018000  0.45902200  0.04914500  1
  O  O127  1  0.69862900  0.65201800  0.29936600  1
  O  O128  1  0.80137100  0.20063400  0.84798200  1
  O  O129  1  0.29936600  0.69862900  0.65201800  1
  O  O130  1  0.39124600  0.93346400  0.75497600  1
  O  O131  1  0.57982000  0.54097800  0.95085500  1
  O  O132  1  0.24502400  0.60875400  0.06653600  1
  O  O133  1  0.15201800  0.19862900  0.79936600  1
  O  O134  1  0.54097800  0.95085500  0.57982000  1
  O  O135  1  0.01464000  0.63109300  0.19858000  1
  O  O136  1  0.58537300  0.39316000  0.18213500  1
  O  O137  1  0.31453300  0.50535600  0.54382200  1
