# generated using pymatgen
data_Na3LaV2O8
_symmetry_space_group_name_H-M   'P 1'
_cell_length_a   5.71183600
_cell_length_b   14.31106400
_cell_length_c   20.00066400
_cell_angle_alpha   90.00000000
_cell_angle_beta   90.00000000
_cell_angle_gamma   90.00000000
_symmetry_Int_Tables_number   1
_chemical_formula_structural   Na3LaV2O8
_chemical_formula_sum   'Na24 La8 V16 O64'
_cell_volume   1634.90328806
_cell_formula_units_Z   8
loop_
 _symmetry_equiv_pos_site_id
 _symmetry_equiv_pos_as_xyz
  1  'x, y, z'
loop_
 _atom_site_type_symbol
 _atom_site_label
 _atom_site_symmetry_multiplicity
 _atom_site_fract_x
 _atom_site_fract_y
 _atom_site_fract_z
 _atom_site_occupancy
  Na  Na0  1  0.97391600  0.78427100  0.91998300  1
  Na  Na1  1  0.45557200  0.53233600  0.81488000  1
  Na  Na2  1  0.54799700  0.70328100  0.66208300  1
  Na  Na3  1  0.02608400  0.28427100  0.91998300  1
  Na  Na4  1  0.54442800  0.03233600  0.81488000  1
  Na  Na5  1  0.54799700  0.79671900  0.16208300  1
  Na  Na6  1  0.98305700  0.36447400  0.25086600  1
  Na  Na7  1  0.51037100  0.61460500  0.47985200  1
  Na  Na8  1  0.03543900  0.95318000  0.07028400  1
  Na  Na9  1  0.96456100  0.04682000  0.57028400  1
  Na  Na10  1  0.45200300  0.29671900  0.16208300  1
  Na  Na11  1  0.51037100  0.88539500  0.97985200  1
  Na  Na12  1  0.45200300  0.20328100  0.66208300  1
  Na  Na13  1  0.48962900  0.11460500  0.47985200  1
  Na  Na14  1  0.03543900  0.54682000  0.57028400  1
  Na  Na15  1  0.45557200  0.96766400  0.31488000  1
  Na  Na16  1  0.96456100  0.45318000  0.07028400  1
  Na  Na17  1  0.54442800  0.46766400  0.31488000  1
  Na  Na18  1  0.01694300  0.63552600  0.75086600  1
  Na  Na19  1  0.02608400  0.21572900  0.41998300  1
  Na  Na20  1  0.01694300  0.86447400  0.25086600  1
  Na  Na21  1  0.97391600  0.71572900  0.41998300  1
  Na  Na22  1  0.48962900  0.38539500  0.97985200  1
  Na  Na23  1  0.98305700  0.13552600  0.75086600  1
  La  La24  1  0.92520500  0.38831400  0.73087900  1
  La  La25  1  0.07479500  0.61168600  0.23087900  1
  La  La26  1  0.56361200  0.13824800  0.99835200  1
  La  La27  1  0.43638800  0.63824800  0.99835200  1
  La  La28  1  0.56361200  0.36175200  0.49835200  1
  La  La29  1  0.07479500  0.88831400  0.73087900  1
  La  La30  1  0.43638800  0.86175200  0.49835200  1
  La  La31  1  0.92520500  0.11168600  0.23087900  1
  V  V32  1  0.47446200  0.02256400  0.15056700  1
  V  V33  1  0.01536800  0.22724400  0.07926900  1
  V  V34  1  0.96290900  0.52604100  0.90647900  1
  V  V35  1  0.03709100  0.02604100  0.90647900  1
  V  V36  1  0.01536800  0.27275600  0.57926900  1
  V  V37  1  0.52553800  0.52256400  0.15056700  1
  V  V38  1  0.54577700  0.72488400  0.32309600  1
  V  V39  1  0.98463200  0.77275600  0.57926900  1
  V  V40  1  0.52553800  0.97743600  0.65056700  1
  V  V41  1  0.98463200  0.72724400  0.07926900  1
  V  V42  1  0.96290900  0.97395900  0.40647900  1
  V  V43  1  0.03709100  0.47395900  0.40647900  1
  V  V44  1  0.45422300  0.27511600  0.82309600  1
  V  V45  1  0.45422300  0.22488400  0.32309600  1
  V  V46  1  0.54577700  0.77511600  0.82309600  1
  V  V47  1  0.47446200  0.47743600  0.65056700  1
  O  O48  1  0.30352500  0.03703900  0.69220200  1
  O  O49  1  0.53158800  0.75269400  0.90900100  1
  O  O50  1  0.79629500  0.00379500  0.68663700  1
  O  O51  1  0.54475500  0.36091900  0.65882300  1
  O  O52  1  0.60033400  0.12022400  0.30696000  1
  O  O53  1  0.46841200  0.25269400  0.90900100  1
  O  O54  1  0.98412300  0.00231800  0.82194200  1
  O  O55  1  0.10592200  0.63088300  0.92432300  1
  O  O56  1  0.54475500  0.13908100  0.15882300  1
  O  O57  1  0.90948800  0.94105100  0.95580100  1
  O  O58  1  0.46841200  0.24730600  0.40900100  1
  O  O59  1  0.01587700  0.50231800  0.82194200  1
  O  O60  1  0.15472100  0.28453900  0.80220300  1
  O  O61  1  0.46558700  0.99487100  0.06526700  1
  O  O62  1  0.28929700  0.25294500  0.04484300  1
  O  O63  1  0.33983500  0.03584300  0.92320300  1
  O  O64  1  0.09051200  0.44105100  0.95580100  1
  O  O65  1  0.30352500  0.46296100  0.19220200  1
  O  O66  1  0.01587700  0.99768200  0.32194200  1
  O  O67  1  0.28929700  0.24705500  0.54484300  1
  O  O68  1  0.94404000  0.38937600  0.57314600  1
  O  O69  1  0.84527900  0.78453900  0.80220300  1
  O  O70  1  0.79629500  0.49620500  0.18663700  1
  O  O71  1  0.98261600  0.75744800  0.16392200  1
  O  O72  1  0.66016500  0.53584300  0.92320300  1
  O  O73  1  0.79804700  0.21402100  0.53478600  1
  O  O74  1  0.09051200  0.05894900  0.45580100  1
  O  O75  1  0.53441300  0.49487100  0.06526700  1
  O  O76  1  0.71070300  0.75294500  0.04484300  1
  O  O77  1  0.45524500  0.63908100  0.15882300  1
  O  O78  1  0.60033400  0.37977600  0.80696000  1
  O  O79  1  0.20195300  0.78597900  0.03478600  1
  O  O80  1  0.05596000  0.61062400  0.07314600  1
  O  O81  1  0.05596000  0.88937600  0.57314600  1
  O  O82  1  0.33983500  0.46415700  0.42320300  1
  O  O83  1  0.53441300  0.00512900  0.56526700  1
  O  O84  1  0.89407800  0.36911700  0.42432300  1
  O  O85  1  0.98261600  0.74255200  0.66392200  1
  O  O86  1  0.20370500  0.50379500  0.68663700  1
  O  O87  1  0.66016500  0.96415700  0.42320300  1
  O  O88  1  0.58659800  0.31099500  0.27615200  1
  O  O89  1  0.69647500  0.96296100  0.19220200  1
  O  O90  1  0.39966600  0.87977600  0.80696000  1
  O  O91  1  0.46558700  0.50512900  0.56526700  1
  O  O92  1  0.79804700  0.28597900  0.03478600  1
  O  O93  1  0.53158800  0.74730600  0.40900100  1
  O  O94  1  0.89407800  0.13088300  0.92432300  1
  O  O95  1  0.45524500  0.86091900  0.65882300  1
  O  O96  1  0.20370500  0.99620500  0.18663700  1
  O  O97  1  0.90948800  0.55894900  0.45580100  1
  O  O98  1  0.01738400  0.24255200  0.66392200  1
  O  O99  1  0.41340200  0.81099500  0.27615200  1
  O  O100  1  0.58659800  0.18900500  0.77615200  1
  O  O101  1  0.69647500  0.53703900  0.69220200  1
  O  O102  1  0.41340200  0.68900500  0.77615200  1
  O  O103  1  0.20195300  0.71402100  0.53478600  1
  O  O104  1  0.94404000  0.11062400  0.07314600  1
  O  O105  1  0.98412300  0.49768200  0.32194200  1
  O  O106  1  0.15472100  0.21546100  0.30220300  1
  O  O107  1  0.39966600  0.62022400  0.30696000  1
  O  O108  1  0.01738400  0.25744800  0.16392200  1
  O  O109  1  0.71070300  0.74705500  0.54484300  1
  O  O110  1  0.10592200  0.86911700  0.42432300  1
  O  O111  1  0.84527900  0.71546100  0.30220300  1
