# generated using pymatgen
data_KSO3
_symmetry_space_group_name_H-M   'P 1'
_cell_length_a   10.14682953
_cell_length_b   10.14682953
_cell_length_c   6.49305900
_cell_angle_alpha   90.00000000
_cell_angle_beta   90.00000000
_cell_angle_gamma   119.99999691
_symmetry_Int_Tables_number   1
_chemical_formula_structural   KSO3
_chemical_formula_sum   'K6 S6 O18'
_cell_volume   578.94955214
_cell_formula_units_Z   6
loop_
 _symmetry_equiv_pos_site_id
 _symmetry_equiv_pos_as_xyz
  1  'x, y, z'
loop_
 _atom_site_type_symbol
 _atom_site_label
 _atom_site_symmetry_multiplicity
 _atom_site_fract_x
 _atom_site_fract_y
 _atom_site_fract_z
 _atom_site_occupancy
  K  K0  1  0.69867500  0.69867500  0.50000000  1
  K  K1  1  0.36332700  0.36332700  0.00000000  1
  K  K2  1  0.63667300  0.00000000  0.00000000  1
  K  K3  1  0.30132500  0.00000000  0.50000000  1
  K  K4  1  0.00000000  0.63667300  0.00000000  1
  K  K5  1  0.00000000  0.30132500  0.50000000  1
  S  S6  1  0.33333300  0.66666700  0.69914400  1
  S  S7  1  0.00000000  0.00000000  0.83076300  1
  S  S8  1  0.33333300  0.66666700  0.35871500  1
  S  S9  1  0.66666700  0.33333300  0.30085600  1
  S  S10  1  0.00000000  0.00000000  0.16923700  1
  S  S11  1  0.66666700  0.33333300  0.64128500  1
  O  O12  1  0.37896000  0.82415300  0.75676800  1
  O  O13  1  0.62104000  0.44519300  0.24323200  1
  O  O14  1  0.23439300  0.72848500  0.30252000  1
  O  O15  1  0.93905100  0.83955400  0.22652000  1
  O  O16  1  0.16044600  0.09949700  0.22652000  1
  O  O17  1  0.50590800  0.27151500  0.69748000  1
  O  O18  1  0.82415300  0.37896000  0.24323200  1
  O  O19  1  0.06094900  0.90050300  0.77348000  1
  O  O20  1  0.72848500  0.23439300  0.69748000  1
  O  O21  1  0.83955400  0.93905100  0.77348000  1
  O  O22  1  0.44519300  0.62104000  0.75676800  1
  O  O23  1  0.09949700  0.16044600  0.77348000  1
  O  O24  1  0.90050300  0.06094900  0.22652000  1
  O  O25  1  0.49409200  0.76560700  0.30252000  1
  O  O26  1  0.55480700  0.17584700  0.24323200  1
  O  O27  1  0.27151500  0.50590800  0.30252000  1
  O  O28  1  0.17584700  0.55480700  0.75676800  1
  O  O29  1  0.76560700  0.49409200  0.69748000  1
