# generated using pymatgen
data_VH16C6N6O7F2
_symmetry_space_group_name_H-M   'P 1'
_cell_length_a   7.75222300
_cell_length_b   10.82608167
_cell_length_c   10.95988394
_cell_angle_alpha   116.90655894
_cell_angle_beta   108.57006240
_cell_angle_gamma   84.68901636
_symmetry_Int_Tables_number   1
_chemical_formula_structural   VH16C6N6O7F2
_chemical_formula_sum   'V2 H32 C12 N12 O14 F4'
_cell_volume   776.09315974
_cell_formula_units_Z   2
loop_
 _symmetry_equiv_pos_site_id
 _symmetry_equiv_pos_as_xyz
  1  'x, y, z'
loop_
 _atom_site_type_symbol
 _atom_site_label
 _atom_site_symmetry_multiplicity
 _atom_site_fract_x
 _atom_site_fract_y
 _atom_site_fract_z
 _atom_site_occupancy
  V  V0  1  0.37225100  0.95969100  0.32822600  1
  V  V1  1  0.62774900  0.04030900  0.67177400  1
  H  H2  1  0.90041700  0.17543300  0.40683800  1
  H  H3  1  0.95177200  0.53697200  0.71324200  1
  H  H4  1  0.21446500  0.04142100  0.97252900  1
  H  H5  1  0.73184300  0.70142800  0.82776700  1
  H  H6  1  0.23044800  0.68867100  0.60886900  1
  H  H7  1  0.56949800  0.27707300  0.16128700  1
  H  H8  1  0.96144200  0.62833300  0.33060500  1
  H  H9  1  0.95189200  0.29756200  0.04385200  1
  H  H10  1  0.60429200  0.13785400  0.00754000  1
  H  H11  1  0.23986300  0.31855500  0.82881100  1
  H  H12  1  0.31537800  0.43272700  0.01393600  1
  H  H13  1  0.20043400  0.20542300  0.22451100  1
  H  H14  1  0.26815700  0.29857200  0.17223300  1
  H  H15  1  0.21940200  0.66722900  0.08629100  1
  H  H16  1  0.09958300  0.82456700  0.59316200  1
  H  H17  1  0.00073800  0.86679100  0.36269100  1
  H  H18  1  0.04822800  0.46302800  0.28675800  1
  H  H19  1  0.83170000  0.89142400  0.42077900  1
  H  H20  1  0.76013700  0.68144500  0.17118900  1
  H  H21  1  0.79956600  0.79457700  0.77548900  1
  H  H22  1  0.99926200  0.13320900  0.63730900  1
  H  H23  1  0.16830000  0.10857600  0.57922100  1
  H  H24  1  0.03855800  0.37166700  0.66939500  1
  H  H25  1  0.68462200  0.56727300  0.98606400  1
  H  H26  1  0.06235400  0.01288300  0.80483200  1
  H  H27  1  0.76955200  0.31132900  0.39113100  1
  H  H28  1  0.78059800  0.33277100  0.91370900  1
  H  H29  1  0.93764600  0.98711700  0.19516800  1
  H  H30  1  0.39570800  0.86214600  0.99246000  1
  H  H31  1  0.04810800  0.70243800  0.95614800  1
  H  H32  1  0.78553500  0.95857900  0.02747100  1
  H  H33  1  0.43050200  0.72292700  0.83871300  1
  C  C34  1  0.36094400  0.42653000  0.54965900  1
  C  C35  1  0.49830600  0.45822900  0.69261500  1
  C  C36  1  0.63905600  0.57347000  0.45034100  1
  C  C37  1  0.14116400  0.50876800  0.87977700  1
  C  C38  1  0.38740800  0.27659800  0.50734800  1
  C  C39  1  0.48257800  0.69007700  0.35133600  1
  C  C40  1  0.50169400  0.54177100  0.30738500  1
  C  C41  1  0.61259200  0.72340200  0.49265200  1
  C  C42  1  0.51742200  0.30992300  0.64866400  1
  C  C43  1  0.24468500  0.86118900  0.80145900  1
  C  C44  1  0.75531500  0.13881100  0.19854100  1
  C  C45  1  0.85883600  0.49123200  0.12022300  1
  N  N46  1  0.37349100  0.81539000  0.88318600  1
  N  N47  1  0.74670400  0.58315700  0.09042500  1
  N  N48  1  0.18865600  0.78692000  0.65763000  1
  N  N49  1  0.17295500  0.98210100  0.86375900  1
  N  N50  1  0.86727500  0.36559200  0.01648500  1
  N  N51  1  0.82704500  0.01789900  0.13624100  1
  N  N52  1  0.95955600  0.52738100  0.25727800  1
  N  N53  1  0.81134400  0.21308000  0.34237000  1
  N  N54  1  0.13272500  0.63440800  0.98351500  1
  N  N55  1  0.25329600  0.41684300  0.90957500  1
  N  N56  1  0.04044400  0.47261900  0.74272200  1
  N  N57  1  0.62650900  0.18461000  0.11681400  1
  O  O58  1  0.16904000  0.23149300  0.14518100  1
  O  O59  1  0.26538900  0.49614800  0.49194300  1
  O  O60  1  0.31888600  0.16749300  0.39115000  1
  O  O61  1  0.43081600  0.43305300  0.19461500  1
  O  O62  1  0.56918400  0.56694700  0.80538500  1
  O  O63  1  0.68111400  0.83250700  0.60885000  1
  O  O64  1  0.61547000  0.24479600  0.71588000  1
  O  O65  1  0.83096000  0.76850700  0.85481900  1
  O  O66  1  0.07313500  0.17337900  0.60350800  1
  O  O67  1  0.40085400  0.93883300  0.17791400  1
  O  O68  1  0.38453000  0.75520400  0.28412000  1
  O  O69  1  0.73461100  0.50385200  0.50805700  1
  O  O70  1  0.59914600  0.06116700  0.82208600  1
  O  O71  1  0.92686500  0.82662100  0.39649200  1
  F  F72  1  0.88590600  0.07494500  0.71500000  1
  F  F73  1  0.11409400  0.92505500  0.28500000  1
  F  F74  1  0.63072800  0.99583800  0.45605200  1
  F  F75  1  0.36927200  0.00416200  0.54394800  1
