# generated using pymatgen
data_Nb2PbO6
_symmetry_space_group_name_H-M   'P 1'
_cell_length_a   7.33912805
_cell_length_b   7.33912805
_cell_length_c   7.33912859
_cell_angle_alpha   93.99041941
_cell_angle_beta   93.99041941
_cell_angle_gamma   93.99042007
_symmetry_Int_Tables_number   1
_chemical_formula_structural   Nb2PbO6
_chemical_formula_sum   'Nb6 Pb3 O18'
_cell_volume   392.28975631
_cell_formula_units_Z   3
loop_
 _symmetry_equiv_pos_site_id
 _symmetry_equiv_pos_as_xyz
  1  'x, y, z'
loop_
 _atom_site_type_symbol
 _atom_site_label
 _atom_site_symmetry_multiplicity
 _atom_site_fract_x
 _atom_site_fract_y
 _atom_site_fract_z
 _atom_site_occupancy
  Nb  Nb0  1  0.51287700  0.16196300  0.81478500  1
  Nb  Nb1  1  0.81478500  0.51287700  0.16196300  1
  Nb  Nb2  1  0.16196300  0.81478500  0.51287700  1
  Nb  Nb3  1  0.81478500  0.16196300  0.51287700  1
  Nb  Nb4  1  0.51287700  0.81478500  0.16196300  1
  Nb  Nb5  1  0.16196300  0.51287700  0.81478500  1
  Pb  Pb6  1  0.99219900  0.99219900  0.99219900  1
  Pb  Pb7  1  0.64968800  0.64968800  0.64968800  1
  Pb  Pb8  1  0.35365700  0.35365700  0.35365700  1
  O  O9  1  0.05785200  0.51047900  0.05785200  1
  O  O10  1  0.05785200  0.05785200  0.51047900  1
  O  O11  1  0.51047900  0.05785200  0.05785200  1
  O  O12  1  0.39594700  0.96136900  0.67761700  1
  O  O13  1  0.67761700  0.39594700  0.96136900  1
  O  O14  1  0.96136900  0.67761700  0.39594700  1
  O  O15  1  0.67761700  0.96136900  0.39594700  1
  O  O16  1  0.39594700  0.67761700  0.96136900  1
  O  O17  1  0.96136900  0.39594700  0.67761700  1
  O  O18  1  0.30164700  0.58150700  0.58150700  1
  O  O19  1  0.58150700  0.30164700  0.58150700  1
  O  O20  1  0.58150700  0.58150700  0.30164700  1
  O  O21  1  0.77305200  0.06790400  0.77305200  1
  O  O22  1  0.77305200  0.77305200  0.06790400  1
  O  O23  1  0.06790400  0.77305200  0.77305200  1
  O  O24  1  0.30401700  0.84125200  0.30401700  1
  O  O25  1  0.30401700  0.30401700  0.84125200  1
  O  O26  1  0.84125200  0.30401700  0.30401700  1
