# generated using pymatgen
data_Re2PbO6
_symmetry_space_group_name_H-M   'P 1'
_cell_length_a   7.19066033
_cell_length_b   7.19066033
_cell_length_c   7.19066062
_cell_angle_alpha   94.98878027
_cell_angle_beta   94.98878027
_cell_angle_gamma   94.98877494
_symmetry_Int_Tables_number   1
_chemical_formula_structural   Re2PbO6
_chemical_formula_sum   'Re6 Pb3 O18'
_cell_volume   367.30841311
_cell_formula_units_Z   3
loop_
 _symmetry_equiv_pos_site_id
 _symmetry_equiv_pos_as_xyz
  1  'x, y, z'
loop_
 _atom_site_type_symbol
 _atom_site_label
 _atom_site_symmetry_multiplicity
 _atom_site_fract_x
 _atom_site_fract_y
 _atom_site_fract_z
 _atom_site_occupancy
  Re  Re0  1  0.84745000  0.15255000  0.50000000  1
  Re  Re1  1  0.15255000  0.84745000  0.50000000  1
  Re  Re2  1  0.15255000  0.50000000  0.84745000  1
  Re  Re3  1  0.50000000  0.15255000  0.84745000  1
  Re  Re4  1  0.84745000  0.50000000  0.15255000  1
  Re  Re5  1  0.50000000  0.84745000  0.15255000  1
  Pb  Pb6  1  0.31909500  0.31909500  0.31909500  1
  Pb  Pb7  1  0.68090500  0.68090500  0.68090500  1
  Pb  Pb8  1  0.00000000  0.00000000  0.00000000  1
  O  O9  1  0.36570400  0.36570400  0.82953000  1
  O  O10  1  0.00000000  0.70078900  0.29921100  1
  O  O11  1  0.91223300  0.91223300  0.62129400  1
  O  O12  1  0.00000000  0.29921100  0.70078900  1
  O  O13  1  0.82953000  0.36570400  0.36570400  1
  O  O14  1  0.29921100  0.70078900  0.00000000  1
  O  O15  1  0.62129400  0.91223300  0.91223300  1
  O  O16  1  0.08776700  0.08776700  0.37870600  1
  O  O17  1  0.08776700  0.37870600  0.08776700  1
  O  O18  1  0.29921100  0.00000000  0.70078900  1
  O  O19  1  0.17047000  0.63429600  0.63429600  1
  O  O20  1  0.70078900  0.00000000  0.29921100  1
  O  O21  1  0.37870600  0.08776700  0.08776700  1
  O  O22  1  0.63429600  0.63429600  0.17047000  1
  O  O23  1  0.36570400  0.82953000  0.36570400  1
  O  O24  1  0.70078900  0.29921100  0.00000000  1
  O  O25  1  0.91223300  0.62129400  0.91223300  1
  O  O26  1  0.63429600  0.17047000  0.63429600  1
