# generated using pymatgen
data_FeH44C12(N5O8)2
_symmetry_space_group_name_H-M   'P 1'
_cell_length_a   9.19601600
_cell_length_b   9.45373293
_cell_length_c   9.82800233
_cell_angle_alpha   88.12345670
_cell_angle_beta   104.27564226
_cell_angle_gamma   118.81463160
_symmetry_Int_Tables_number   1
_chemical_formula_structural   FeH44C12(N5O8)2
_chemical_formula_sum   'Fe1 H44 C12 N10 O16'
_cell_volume   721.76683873
_cell_formula_units_Z   1
loop_
 _symmetry_equiv_pos_site_id
 _symmetry_equiv_pos_as_xyz
  1  'x, y, z'
loop_
 _atom_site_type_symbol
 _atom_site_label
 _atom_site_symmetry_multiplicity
 _atom_site_fract_x
 _atom_site_fract_y
 _atom_site_fract_z
 _atom_site_occupancy
  Fe  Fe0  1  0.00000000  0.00000000  0.00000000  1
  H  H1  1  0.43419300  0.45379200  0.14802700  1
  H  H2  1  0.76522600  0.77319500  0.13587300  1
  H  H3  1  0.54629000  0.18381800  0.00323600  1
  H  H4  1  0.23477400  0.22680500  0.86412700  1
  H  H5  1  0.16389300  0.63048400  0.99860400  1
  H  H6  1  0.72059500  0.04067800  0.87775500  1
  H  H7  1  0.40849200  0.68209500  0.69582600  1
  H  H8  1  0.27940500  0.95932200  0.12224500  1
  H  H9  1  0.85994100  0.49966900  0.31548700  1
  H  H10  1  0.16723800  0.67725400  0.70111500  1
  H  H11  1  0.02912700  0.83246400  0.78295200  1
  H  H12  1  0.29582800  0.15309500  0.64161900  1
  H  H13  1  0.04615900  0.15648000  0.76003100  1
  H  H14  1  0.59150800  0.31790500  0.30417400  1
  H  H15  1  0.95384100  0.84352000  0.23996900  1
  H  H16  1  0.49626200  0.27508800  0.42832000  1
  H  H17  1  0.50373800  0.72491200  0.57168000  1
  H  H18  1  0.90901800  0.37457000  0.84700900  1
  H  H19  1  0.60099100  0.95256500  0.15033800  1
  H  H20  1  0.63035100  0.63275400  0.35514800  1
  H  H21  1  0.35692500  0.53364700  0.99522200  1
  H  H22  1  0.08919400  0.30508000  0.13290800  1
  H  H23  1  0.56580700  0.54620800  0.85197300  1
  H  H24  1  0.49076200  0.05355300  0.64148200  1
  H  H25  1  0.91080600  0.69492000  0.86709200  1
  H  H26  1  0.39900900  0.04743500  0.84966200  1
  H  H27  1  0.45371000  0.81618200  0.99676400  1
  H  H28  1  0.36964900  0.36724600  0.64485200  1
  H  H29  1  0.14005900  0.50033100  0.68451300  1
  H  H30  1  0.50923800  0.94644700  0.35851800  1
  H  H31  1  0.09098200  0.62543000  0.15299100  1
  H  H32  1  0.32428100  0.12986600  0.19671400  1
  H  H33  1  0.29142900  0.80931400  0.36119200  1
  H  H34  1  0.34223000  0.44819300  0.35706800  1
  H  H35  1  0.70417200  0.84690500  0.35838100  1
  H  H36  1  0.19465100  0.51956800  0.36109600  1
  H  H37  1  0.64307500  0.46635300  0.00477800  1
  H  H38  1  0.65777000  0.55180700  0.64293200  1
  H  H39  1  0.70857100  0.19068600  0.63880800  1
  H  H40  1  0.80534900  0.48043200  0.63890400  1
  H  H41  1  0.83276200  0.32274600  0.29888500  1
  H  H42  1  0.67571900  0.87013400  0.80328600  1
  H  H43  1  0.97087300  0.16753600  0.21704800  1
  H  H44  1  0.83610700  0.36951600  0.00139600  1
  C  C45  1  0.40561600  0.27444400  0.68110300  1
  C  C46  1  0.69640400  0.46076000  0.67934900  1
  C  C47  1  0.60269400  0.45432200  0.88893500  1
  C  C48  1  0.50783900  0.16972100  0.88738500  1
  C  C49  1  0.49216100  0.83027900  0.11261500  1
  C  C50  1  0.79950600  0.35723400  0.88552200  1
  C  C51  1  0.60082100  0.17549700  0.67876500  1
  C  C52  1  0.39730600  0.54567800  0.11106500  1
  C  C53  1  0.30359600  0.53924000  0.32065100  1
  C  C54  1  0.20049400  0.64276600  0.11447800  1
  C  C55  1  0.39917900  0.82450300  0.32123500  1
  C  C56  1  0.59438400  0.72555600  0.31889700  1
  N  N57  1  0.65447000  0.19126900  0.83489100  1
  N  N58  1  0.45020000  0.70282000  0.37540500  1
  N  N59  1  0.06076900  0.81186500  0.50434300  1
  N  N60  1  0.34553000  0.80873100  0.16510900  1
  N  N61  1  0.54647800  0.70932400  0.16237500  1
  N  N62  1  0.75126100  0.48215200  0.83569800  1
  N  N63  1  0.93923100  0.18813500  0.49565700  1
  N  N64  1  0.54980000  0.29718000  0.62459500  1
  N  N65  1  0.45352200  0.29067600  0.83762500  1
  N  N66  1  0.24873900  0.51784800  0.16430200  1
  O  O67  1  0.88844900  0.81278700  0.13928400  1
  O  O68  1  0.91066300  0.08165000  0.58137300  1
  O  O69  1  0.99342700  0.81407800  0.87108200  1
  O  O70  1  0.24986800  0.04913800  0.11161700  1
  O  O71  1  0.47709900  0.27551300  0.32373100  1
  O  O72  1  0.21278800  0.60530700  0.74266600  1
  O  O73  1  0.75013200  0.95086200  0.88838300  1
  O  O74  1  0.78721200  0.39469300  0.25733400  1
  O  O75  1  0.52290100  0.72448700  0.67626900  1
  O  O76  1  0.13985100  0.85443800  0.63576600  1
  O  O77  1  0.00657300  0.18592200  0.12891800  1
  O  O78  1  0.08933700  0.91835000  0.41862700  1
  O  O79  1  0.86014900  0.14556200  0.36423400  1
  O  O80  1  0.11155100  0.18721300  0.86071600  1
  O  O81  1  0.04239500  0.33686900  0.53605800  1
  O  O82  1  0.95760500  0.66313100  0.46394200  1
