# generated using pymatgen
data_Ba2Sc2B4O11
_symmetry_space_group_name_H-M   'P 1'
_cell_length_a   9.37710514
_cell_length_b   9.37710514
_cell_length_c   6.42403919
_cell_angle_alpha   81.30785455
_cell_angle_beta   81.30785455
_cell_angle_gamma   60.59910021
_symmetry_Int_Tables_number   1
_chemical_formula_structural   Ba2Sc2B4O11
_chemical_formula_sum   'Ba4 Sc4 B8 O22'
_cell_volume   484.51787964
_cell_formula_units_Z   2
loop_
 _symmetry_equiv_pos_site_id
 _symmetry_equiv_pos_as_xyz
  1  'x, y, z'
loop_
 _atom_site_type_symbol
 _atom_site_label
 _atom_site_symmetry_multiplicity
 _atom_site_fract_x
 _atom_site_fract_y
 _atom_site_fract_z
 _atom_site_occupancy
  Ba  Ba0  1  0.47165500  0.80344200  0.57520000  1
  Ba  Ba1  1  0.80344200  0.47165500  0.07520000  1
  Ba  Ba2  1  0.19655800  0.52834500  0.92480000  1
  Ba  Ba3  1  0.52834500  0.19655800  0.42480000  1
  Sc  Sc4  1  0.00000000  0.00000000  0.50000000  1
  Sc  Sc5  1  0.50000000  0.00000000  0.00000000  1
  Sc  Sc6  1  0.00000000  0.50000000  0.50000000  1
  Sc  Sc7  1  0.00000000  0.00000000  0.00000000  1
  B  B8  1  0.27876000  0.61993400  0.41180800  1
  B  B9  1  0.38006600  0.72124000  0.08819200  1
  B  B10  1  0.82904100  0.83124900  0.25499100  1
  B  B11  1  0.17095900  0.16875100  0.74500900  1
  B  B12  1  0.16875100  0.17095900  0.24500900  1
  B  B13  1  0.83124900  0.82904100  0.75499100  1
  B  B14  1  0.72124000  0.38006600  0.58819200  1
  B  B15  1  0.61993400  0.27876000  0.91180800  1
  O  O16  1  0.78587100  0.23406800  0.50233600  1
  O  O17  1  0.33331800  0.07093000  0.26538300  1
  O  O18  1  0.07242500  0.10192400  0.20583100  1
  O  O19  1  0.09514900  0.33669500  0.26341400  1
  O  O20  1  0.76247500  0.50181800  0.52131200  1
  O  O21  1  0.66330500  0.90485100  0.23658600  1
  O  O22  1  0.07093000  0.33331800  0.76538300  1
  O  O23  1  0.89807600  0.92757500  0.29416900  1
  O  O24  1  0.90485100  0.66330500  0.73658600  1
  O  O25  1  0.41425300  0.58574700  0.25000000  1
  O  O26  1  0.23752500  0.49818200  0.47868800  1
  O  O27  1  0.92757500  0.89807600  0.79416900  1
  O  O28  1  0.58574700  0.41425300  0.75000000  1
  O  O29  1  0.49818200  0.23752500  0.97868800  1
  O  O30  1  0.10192400  0.07242500  0.70583100  1
  O  O31  1  0.92907000  0.66668200  0.23461700  1
  O  O32  1  0.76593200  0.21412900  0.99766400  1
  O  O33  1  0.21412900  0.76593200  0.49766400  1
  O  O34  1  0.23406800  0.78587100  0.00233600  1
  O  O35  1  0.33669500  0.09514900  0.76341400  1
  O  O36  1  0.50181800  0.76247500  0.02131200  1
  O  O37  1  0.66668200  0.92907000  0.73461700  1
