# generated using pymatgen
data_NiAs2S6(NF3)6
_symmetry_space_group_name_H-M   'P 1'
_cell_length_a   9.17039600
_cell_length_b   9.56288500
_cell_length_c   16.33306268
_cell_angle_alpha   54.40948209
_cell_angle_beta   90.00000000
_cell_angle_gamma   90.00000000
_symmetry_Int_Tables_number   1
_chemical_formula_structural   NiAs2S6(NF3)6
_chemical_formula_sum   'Ni2 As4 S12 N12 F36'
_cell_volume   1164.77077763
_cell_formula_units_Z   2
loop_
 _symmetry_equiv_pos_site_id
 _symmetry_equiv_pos_as_xyz
  1  'x, y, z'
loop_
 _atom_site_type_symbol
 _atom_site_label
 _atom_site_symmetry_multiplicity
 _atom_site_fract_x
 _atom_site_fract_y
 _atom_site_fract_z
 _atom_site_occupancy
  Ni  Ni0  1  0.00000000  0.00000000  0.00000000  1
  Ni  Ni1  1  0.50000000  0.00000000  0.50000000  1
  As  As2  1  0.44916800  0.74308000  0.25515700  1
  As  As3  1  0.55083200  0.25692000  0.74484300  1
  As  As4  1  0.94916800  0.25692000  0.24484300  1
  As  As5  1  0.05083200  0.74308000  0.75515700  1
  S  S6  1  0.50290600  0.17361200  0.24421300  1
  S  S7  1  0.19058400  0.24574400  0.45793900  1
  S  S8  1  0.49709400  0.82638800  0.75578700  1
  S  S9  1  0.69058400  0.75425600  0.04206100  1
  S  S10  1  0.00290600  0.82638800  0.25578700  1
  S  S11  1  0.80941600  0.75425600  0.54206100  1
  S  S12  1  0.99709400  0.17361200  0.74421300  1
  S  S13  1  0.70076100  0.34512500  0.46047800  1
  S  S14  1  0.29923900  0.65487500  0.53952200  1
  S  S15  1  0.30941600  0.24574400  0.95793900  1
  S  S16  1  0.79923900  0.34512500  0.96047800  1
  S  S17  1  0.20076100  0.65487500  0.03952200  1
  N  N18  1  0.10923100  0.78176000  0.03409300  1
  N  N19  1  0.19526600  0.13650000  0.96471800  1
  N  N20  1  0.98885200  0.08059800  0.85166800  1
  N  N21  1  0.51114800  0.08059800  0.35166800  1
  N  N22  1  0.39076900  0.78176000  0.53409300  1
  N  N23  1  0.69526600  0.86350000  0.53528200  1
  N  N24  1  0.60923100  0.21824000  0.46590700  1
  N  N25  1  0.80473400  0.86350000  0.03528200  1
  N  N26  1  0.48885200  0.91940200  0.64833200  1
  N  N27  1  0.89076900  0.21824000  0.96590700  1
  N  N28  1  0.30473400  0.13650000  0.46471800  1
  N  N29  1  0.01114800  0.91940200  0.14833200  1
  F  F30  1  0.79580900  0.38387200  0.23003500  1
  F  F31  1  0.56825800  0.59630000  0.25576600  1
  F  F32  1  0.33012800  0.89094100  0.25454400  1
  F  F33  1  0.56772900  0.13889500  0.87787600  1
  F  F34  1  0.43227100  0.86110500  0.12212400  1
  F  F35  1  0.06825800  0.40370000  0.24423400  1
  F  F36  1  0.16987200  0.89094100  0.75454400  1
  F  F37  1  0.20765700  0.30572000  0.53577600  1
  F  F38  1  0.70419100  0.38387200  0.73003500  1
  F  F39  1  0.83012800  0.10905900  0.24545600  1
  F  F40  1  0.43174200  0.40370000  0.74423400  1
  F  F41  1  0.64581500  0.26745500  0.02972600  1
  F  F42  1  0.44934300  0.37938300  0.18257000  1
  F  F43  1  0.03668500  0.62262400  0.88862200  1
  F  F44  1  0.60030300  0.87063100  0.24087000  1
  F  F45  1  0.93174200  0.59630000  0.75576600  1
  F  F46  1  0.70765700  0.69428000  0.96422400  1
  F  F47  1  0.35418500  0.73254500  0.97027400  1
  F  F48  1  0.06772900  0.86110500  0.62212400  1
  F  F49  1  0.46331500  0.62262400  0.38862200  1
  F  F50  1  0.05065700  0.37938300  0.68257000  1
  F  F51  1  0.85418500  0.26745500  0.52972600  1
  F  F52  1  0.29580900  0.61612800  0.26996500  1
  F  F53  1  0.55065700  0.62061700  0.81743000  1
  F  F54  1  0.96331500  0.37737600  0.11137800  1
  F  F55  1  0.79234300  0.69428000  0.46422400  1
  F  F56  1  0.20419100  0.61612800  0.76996500  1
  F  F57  1  0.10030300  0.12936900  0.25913000  1
  F  F58  1  0.14581500  0.73254500  0.47027400  1
  F  F59  1  0.39969700  0.12936900  0.75913000  1
  F  F60  1  0.89969700  0.87063100  0.74087000  1
  F  F61  1  0.29234300  0.30572000  0.03577600  1
  F  F62  1  0.53668500  0.37737600  0.61137800  1
  F  F63  1  0.93227100  0.13889500  0.37787600  1
  F  F64  1  0.66987200  0.10905900  0.74545600  1
  F  F65  1  0.94934300  0.62061700  0.31743000  1
