# generated using pymatgen
data_PAuS
_symmetry_space_group_name_H-M   'P 1'
_cell_length_a   5.65826200
_cell_length_b   5.69871700
_cell_length_c   16.63846300
_cell_angle_alpha   90.00000000
_cell_angle_beta   90.00000000
_cell_angle_gamma   90.00000000
_symmetry_Int_Tables_number   1
_chemical_formula_structural   PAuS
_chemical_formula_sum   'P8 Au8 S8'
_cell_volume   536.50447495
_cell_formula_units_Z   8
loop_
 _symmetry_equiv_pos_site_id
 _symmetry_equiv_pos_as_xyz
  1  'x, y, z'
loop_
 _atom_site_type_symbol
 _atom_site_label
 _atom_site_symmetry_multiplicity
 _atom_site_fract_x
 _atom_site_fract_y
 _atom_site_fract_z
 _atom_site_occupancy
  P  P0  1  0.10094700  0.07435600  0.17057500  1
  P  P1  1  0.60094700  0.42564400  0.82942500  1
  P  P2  1  0.89905300  0.57435600  0.32942500  1
  P  P3  1  0.39905300  0.92564400  0.67057500  1
  P  P4  1  0.89905300  0.92564400  0.82942500  1
  P  P5  1  0.39905300  0.57435600  0.17057500  1
  P  P6  1  0.10094700  0.42564400  0.67057500  1
  P  P7  1  0.60094700  0.07435600  0.32942500  1
  Au  Au8  1  0.99280000  0.18142400  0.37139700  1
  Au  Au9  1  0.99280000  0.31857600  0.87139700  1
  Au  Au10  1  0.50720000  0.68142400  0.37139700  1
  Au  Au11  1  0.00720000  0.81857600  0.62860300  1
  Au  Au12  1  0.49280000  0.31857600  0.62860300  1
  Au  Au13  1  0.50720000  0.81857600  0.87139700  1
  Au  Au14  1  0.00720000  0.68142400  0.12860300  1
  Au  Au15  1  0.49280000  0.18142400  0.12860300  1
  S  S16  1  0.59770900  0.71947200  0.58780600  1
  S  S17  1  0.90229100  0.28052800  0.08780600  1
  S  S18  1  0.40229100  0.21947200  0.91219400  1
  S  S19  1  0.09770900  0.78052800  0.41219400  1
  S  S20  1  0.09770900  0.71947200  0.91219400  1
  S  S21  1  0.59770900  0.78052800  0.08780600  1
  S  S22  1  0.90229100  0.21947200  0.58780600  1
  S  S23  1  0.40229100  0.28052800  0.41219400  1
