# generated using pymatgen
data_SbCSF11
_symmetry_space_group_name_H-M   'P 1'
_cell_length_a   9.36670959
_cell_length_b   9.36670959
_cell_length_c   13.62933753
_cell_angle_alpha   88.73979980
_cell_angle_beta   88.73979980
_cell_angle_gamma   47.22201430
_symmetry_Int_Tables_number   1
_chemical_formula_structural   SbCSF11
_chemical_formula_sum   'Sb4 C4 S4 F44'
_cell_volume   877.43383580
_cell_formula_units_Z   4
loop_
 _symmetry_equiv_pos_site_id
 _symmetry_equiv_pos_as_xyz
  1  'x, y, z'
loop_
 _atom_site_type_symbol
 _atom_site_label
 _atom_site_symmetry_multiplicity
 _atom_site_fract_x
 _atom_site_fract_y
 _atom_site_fract_z
 _atom_site_occupancy
  Sb  Sb0  1  0.78546600  0.99703800  0.87895100  1
  Sb  Sb1  1  0.00296200  0.21453400  0.62104900  1
  Sb  Sb2  1  0.21453400  0.00296200  0.12104900  1
  Sb  Sb3  1  0.99703800  0.78546600  0.37895100  1
  C  C4  1  0.59203500  0.71106700  0.41914200  1
  C  C5  1  0.28893300  0.40796500  0.08085800  1
  C  C6  1  0.40796500  0.28893300  0.58085800  1
  C  C7  1  0.71106700  0.59203500  0.91914200  1
  S  S8  1  0.82500500  0.47185200  0.35076300  1
  S  S9  1  0.17499500  0.52814800  0.64923700  1
  S  S10  1  0.47185200  0.82500500  0.85076300  1
  S  S11  1  0.52814800  0.17499500  0.14923700  1
  F  F12  1  0.35137500  0.28098500  0.49434500  1
  F  F13  1  0.69398300  0.46303100  0.92872100  1
  F  F14  1  0.28098500  0.35137500  0.99434500  1
  F  F15  1  0.46303100  0.69398300  0.42872100  1
  F  F16  1  0.04913300  0.22809000  0.03924700  1
  F  F17  1  0.60031400  0.27748400  0.17932300  1
  F  F18  1  0.40896500  0.02392700  0.10676300  1
  F  F19  1  0.84208600  0.33068800  0.50303600  1
  F  F20  1  0.66931200  0.15791400  0.99696400  1
  F  F21  1  0.16294100  0.11666900  0.73540000  1
  F  F22  1  0.11666900  0.16294100  0.23540000  1
  F  F23  1  0.57626700  0.79321000  0.75054300  1
  F  F24  1  0.86346100  0.52511500  0.86314600  1
  F  F25  1  0.13653900  0.47488500  0.13685400  1
  F  F26  1  0.27748400  0.60031400  0.67932300  1
  F  F27  1  0.52511500  0.86346100  0.36314600  1
  F  F28  1  0.88333100  0.83705900  0.76460000  1
  F  F29  1  0.71901500  0.64862500  0.00565500  1
  F  F30  1  0.33068800  0.84208600  0.00303600  1
  F  F31  1  0.42373300  0.20679000  0.24945700  1
  F  F32  1  0.77181200  0.39809900  0.69631200  1
  F  F33  1  0.39809900  0.77181200  0.19631200  1
  F  F34  1  0.64862500  0.71901500  0.50565500  1
  F  F35  1  0.02881100  0.97973500  0.13028400  1
  F  F36  1  0.97607300  0.59103500  0.39323700  1
  F  F37  1  0.47488500  0.13653900  0.63685400  1
  F  F38  1  0.79321000  0.57626700  0.25054300  1
  F  F39  1  0.72251600  0.39968600  0.32067700  1
  F  F40  1  0.39968600  0.72251600  0.82067700  1
  F  F41  1  0.59103500  0.97607300  0.89323700  1
  F  F42  1  0.53696900  0.30601700  0.57127900  1
  F  F43  1  0.02392700  0.40896500  0.60676300  1
  F  F44  1  0.60190100  0.22818800  0.80368800  1
  F  F45  1  0.83705900  0.88333100  0.26460000  1
  F  F46  1  0.97973500  0.02881100  0.63028400  1
  F  F47  1  0.95086700  0.77191000  0.96075300  1
  F  F48  1  0.02026500  0.97118900  0.36971600  1
  F  F49  1  0.22818800  0.60190100  0.30368800  1
  F  F50  1  0.97118900  0.02026500  0.86971600  1
  F  F51  1  0.20679000  0.42373300  0.74945700  1
  F  F52  1  0.77191000  0.95086700  0.46075300  1
  F  F53  1  0.30601700  0.53696900  0.07127900  1
  F  F54  1  0.22809000  0.04913300  0.53924700  1
  F  F55  1  0.15791400  0.66931200  0.49696400  1
