# generated using pymatgen
data_Na3MoH6(CO2)6
_symmetry_space_group_name_H-M   'P 1'
_cell_length_a   6.52514400
_cell_length_b   14.17940700
_cell_length_c   14.83975700
_cell_angle_alpha   90.00000000
_cell_angle_beta   90.00000000
_cell_angle_gamma   90.00000000
_symmetry_Int_Tables_number   1
_chemical_formula_structural   Na3MoH6(CO2)6
_chemical_formula_sum   'Na12 Mo4 H24 C24 O48'
_cell_volume   1373.01397703
_cell_formula_units_Z   4
loop_
 _symmetry_equiv_pos_site_id
 _symmetry_equiv_pos_as_xyz
  1  'x, y, z'
loop_
 _atom_site_type_symbol
 _atom_site_label
 _atom_site_symmetry_multiplicity
 _atom_site_fract_x
 _atom_site_fract_y
 _atom_site_fract_z
 _atom_site_occupancy
  Na  Na0  1  0.22681800  0.27935800  0.99968400  1
  Na  Na1  1  0.22681800  0.77935800  0.50031600  1
  Na  Na2  1  0.27318200  0.77935800  0.99968400  1
  Na  Na3  1  0.77318200  0.72064200  0.00031600  1
  Na  Na4  1  0.75000000  0.57662700  0.25000000  1
  Na  Na5  1  0.27318200  0.27935800  0.50031600  1
  Na  Na6  1  0.72681800  0.72064200  0.49968400  1
  Na  Na7  1  0.25000000  0.42337300  0.75000000  1
  Na  Na8  1  0.75000000  0.07662700  0.25000000  1
  Na  Na9  1  0.77318200  0.22064200  0.49968400  1
  Na  Na10  1  0.25000000  0.92337300  0.75000000  1
  Na  Na11  1  0.72681800  0.22064200  0.00031600  1
  Mo  Mo12  1  0.25000000  0.43640100  0.25000000  1
  Mo  Mo13  1  0.25000000  0.93640100  0.25000000  1
  Mo  Mo14  1  0.75000000  0.06359900  0.75000000  1
  Mo  Mo15  1  0.75000000  0.56359900  0.75000000  1
  H  H16  1  0.32421900  0.57401400  0.08692700  1
  H  H17  1  0.27021600  0.57026800  0.59129700  1
  H  H18  1  0.32421900  0.07401400  0.41307300  1
  H  H19  1  0.99868800  0.75466600  0.22608900  1
  H  H20  1  0.17578100  0.57401400  0.41307300  1
  H  H21  1  0.77021600  0.42973200  0.09129700  1
  H  H22  1  0.50131200  0.75466600  0.27391100  1
  H  H23  1  0.49868800  0.24533400  0.72608900  1
  H  H24  1  0.72978400  0.42973200  0.40870300  1
  H  H25  1  0.22978400  0.07026800  0.59129700  1
  H  H26  1  0.00131200  0.24533400  0.77391100  1
  H  H27  1  0.72978400  0.92973200  0.09129700  1
  H  H28  1  0.67578100  0.92598600  0.58692700  1
  H  H29  1  0.82421900  0.42598600  0.58692700  1
  H  H30  1  0.77021600  0.92973200  0.40870300  1
  H  H31  1  0.67578100  0.42598600  0.91307300  1
  H  H32  1  0.49868800  0.74533400  0.77391100  1
  H  H33  1  0.00131200  0.74533400  0.72608900  1
  H  H34  1  0.17578100  0.07401400  0.08692700  1
  H  H35  1  0.27021600  0.07026800  0.90870300  1
  H  H36  1  0.50131200  0.25466600  0.22608900  1
  H  H37  1  0.82421900  0.92598600  0.91307300  1
  H  H38  1  0.22978400  0.57026800  0.90870300  1
  H  H39  1  0.99868800  0.25466600  0.27391100  1
  C  C40  1  0.50141300  0.26147900  0.30068500  1
  C  C41  1  0.60860100  0.91080400  0.39410600  1
  C  C42  1  0.10860100  0.08919600  0.89410600  1
  C  C43  1  0.00141300  0.23852100  0.69931500  1
  C  C44  1  0.99858700  0.76147900  0.30068500  1
  C  C45  1  0.33836200  0.58783700  0.39611800  1
  C  C46  1  0.16163800  0.08783700  0.39611800  1
  C  C47  1  0.33836200  0.08783700  0.10388200  1
  C  C48  1  0.83836200  0.91216300  0.60388200  1
  C  C49  1  0.00141300  0.73852100  0.80068500  1
  C  C50  1  0.66163800  0.91216300  0.89611800  1
  C  C51  1  0.39139900  0.58919600  0.89410600  1
  C  C52  1  0.60860100  0.41080400  0.10589400  1
  C  C53  1  0.83836200  0.41216300  0.89611800  1
  C  C54  1  0.66163800  0.41216300  0.60388200  1
  C  C55  1  0.89139900  0.91080400  0.10589400  1
  C  C56  1  0.49858700  0.23852100  0.80068500  1
  C  C57  1  0.49858700  0.73852100  0.69931500  1
  C  C58  1  0.89139900  0.41080400  0.39410600  1
  C  C59  1  0.39139900  0.08919600  0.60589400  1
  C  C60  1  0.16163800  0.58783700  0.10388200  1
  C  C61  1  0.10860100  0.58919600  0.60589400  1
  C  C62  1  0.50141300  0.76147900  0.19931500  1
  C  C63  1  0.99858700  0.26147900  0.19931500  1
  O  O64  1  0.89519400  0.20484100  0.15340800  1
  O  O65  1  0.06280000  0.14571700  0.44207000  1
  O  O66  1  0.56280000  0.85428300  0.94207000  1
  O  O67  1  0.60937000  0.17127700  0.83405300  1
  O  O68  1  0.39519400  0.29515900  0.84659200  1
  O  O69  1  0.41217700  0.54240600  0.32774100  1
  O  O70  1  0.41217700  0.04240600  0.17225900  1
  O  O71  1  0.06280000  0.64571700  0.05793000  1
  O  O72  1  0.10480600  0.79515900  0.84659200  1
  O  O73  1  0.98374300  0.85528300  0.05516600  1
  O  O74  1  0.03646400  0.54914300  0.67755300  1
  O  O75  1  0.58782300  0.45759400  0.67225900  1
  O  O76  1  0.48374300  0.64471700  0.94483400  1
  O  O77  1  0.96353600  0.45085700  0.32244700  1
  O  O78  1  0.51625700  0.35528300  0.05516600  1
  O  O79  1  0.39063000  0.82872300  0.16594700  1
  O  O80  1  0.91217700  0.45759400  0.82774100  1
  O  O81  1  0.08782300  0.54240600  0.17225900  1
  O  O82  1  0.39063000  0.32872300  0.33405300  1
  O  O83  1  0.96353600  0.95085700  0.17755300  1
  O  O84  1  0.08782300  0.04240600  0.32774100  1
  O  O85  1  0.10937000  0.82872300  0.33405300  1
  O  O86  1  0.10937000  0.32872300  0.16594700  1
  O  O87  1  0.01625700  0.14471700  0.94483400  1
  O  O88  1  0.51625700  0.85528300  0.44483400  1
  O  O89  1  0.58782300  0.95759400  0.82774100  1
  O  O90  1  0.53646400  0.95085700  0.32244700  1
  O  O91  1  0.98374300  0.35528300  0.44483400  1
  O  O92  1  0.93720000  0.85428300  0.55793000  1
  O  O93  1  0.46353600  0.54914300  0.82244700  1
  O  O94  1  0.43720000  0.14571700  0.05793000  1
  O  O95  1  0.93720000  0.35428300  0.94207000  1
  O  O96  1  0.91217700  0.95759400  0.67225900  1
  O  O97  1  0.89519400  0.70484100  0.34659200  1
  O  O98  1  0.60480600  0.70484100  0.15340800  1
  O  O99  1  0.89063000  0.67127700  0.83405300  1
  O  O100  1  0.46353600  0.04914300  0.67755300  1
  O  O101  1  0.89063000  0.17127700  0.66594700  1
  O  O102  1  0.53646400  0.45085700  0.17755300  1
  O  O103  1  0.10480600  0.29515900  0.65340800  1
  O  O104  1  0.01625700  0.64471700  0.55516600  1
  O  O105  1  0.39519400  0.79515900  0.65340800  1
  O  O106  1  0.60480600  0.20484100  0.34659200  1
  O  O107  1  0.43720000  0.64571700  0.44207000  1
  O  O108  1  0.48374300  0.14471700  0.55516600  1
  O  O109  1  0.60937000  0.67127700  0.66594700  1
  O  O110  1  0.56280000  0.35428300  0.55793000  1
  O  O111  1  0.03646400  0.04914300  0.82244700  1
