# generated using pymatgen
data_Sr10Fe10O29
_symmetry_space_group_name_H-M   'P 1'
_cell_length_a   3.90601300
_cell_length_b   7.85183800
_cell_length_c   19.69593600
_cell_angle_alpha   90.00000000
_cell_angle_beta   90.00000000
_cell_angle_gamma   90.00000000
_symmetry_Int_Tables_number   1
_chemical_formula_structural   Sr10Fe10O29
_chemical_formula_sum   'Sr10 Fe10 O29'
_cell_volume   604.06217128
_cell_formula_units_Z   1
loop_
 _symmetry_equiv_pos_site_id
 _symmetry_equiv_pos_as_xyz
  1  'x, y, z'
loop_
 _atom_site_type_symbol
 _atom_site_label
 _atom_site_symmetry_multiplicity
 _atom_site_fract_x
 _atom_site_fract_y
 _atom_site_fract_z
 _atom_site_occupancy
  Sr  Sr0  1  0.00000000  0.25429500  0.70229500  1
  Sr  Sr1  1  0.00000000  0.25068800  0.90024800  1
  Sr  Sr2  1  0.00000000  0.25068800  0.09975200  1
  Sr  Sr3  1  0.00000000  0.25429500  0.29770500  1
  Sr  Sr4  1  0.00000000  0.26665700  0.50000000  1
  Sr  Sr5  1  0.00000000  0.74570500  0.70229500  1
  Sr  Sr6  1  0.00000000  0.74931200  0.90024800  1
  Sr  Sr7  1  0.00000000  0.74931200  0.09975200  1
  Sr  Sr8  1  0.00000000  0.74570500  0.29770500  1
  Sr  Sr9  1  0.00000000  0.73334300  0.50000000  1
  Fe  Fe10  1  0.50000000  0.00000000  0.60634400  1
  Fe  Fe11  1  0.50000000  0.00000000  0.80146600  1
  Fe  Fe12  1  0.50000000  0.00000000  0.00000000  1
  Fe  Fe13  1  0.50000000  0.00000000  0.19853400  1
  Fe  Fe14  1  0.50000000  0.00000000  0.39365600  1
  Fe  Fe15  1  0.50000000  0.50000000  0.60017200  1
  Fe  Fe16  1  0.50000000  0.50000000  0.80035000  1
  Fe  Fe17  1  0.50000000  0.50000000  0.00000000  1
  Fe  Fe18  1  0.50000000  0.50000000  0.19965000  1
  Fe  Fe19  1  0.50000000  0.50000000  0.39982800  1
  O  O20  1  0.50000000  0.24006900  0.59337100  1
  O  O21  1  0.50000000  0.25056400  0.79882600  1
  O  O22  1  0.50000000  0.24866000  0.00000000  1
  O  O23  1  0.50000000  0.25056400  0.20117400  1
  O  O24  1  0.50000000  0.24006900  0.40662900  1
  O  O25  1  0.50000000  0.75993100  0.59337100  1
  O  O26  1  0.50000000  0.74943600  0.79882600  1
  O  O27  1  0.50000000  0.75134000  0.00000000  1
  O  O28  1  0.50000000  0.74943600  0.20117400  1
  O  O29  1  0.50000000  0.75993100  0.40662900  1
  O  O30  1  0.50000000  0.00000000  0.70159600  1
  O  O31  1  0.50000000  0.00000000  0.89894900  1
  O  O32  1  0.50000000  0.00000000  0.10105100  1
  O  O33  1  0.50000000  0.00000000  0.29840400  1
  O  O34  1  0.50000000  0.50000000  0.69810800  1
  O  O35  1  0.50000000  0.50000000  0.90076200  1
  O  O36  1  0.50000000  0.50000000  0.09923800  1
  O  O37  1  0.50000000  0.50000000  0.30189200  1
  O  O38  1  0.50000000  0.50000000  0.50000000  1
  O  O39  1  0.00000000  0.00000000  0.58690300  1
  O  O40  1  0.00000000  0.00000000  0.79912400  1
  O  O41  1  0.00000000  0.00000000  0.00000000  1
  O  O42  1  0.00000000  0.00000000  0.20087600  1
  O  O43  1  0.00000000  0.00000000  0.41309700  1
  O  O44  1  0.00000000  0.50000000  0.60007700  1
  O  O45  1  0.00000000  0.50000000  0.79866700  1
  O  O46  1  0.00000000  0.50000000  0.00000000  1
  O  O47  1  0.00000000  0.50000000  0.20133300  1
  O  O48  1  0.00000000  0.50000000  0.39992300  1
