# generated using pymatgen
data_KBC4NF9
_symmetry_space_group_name_H-M   'P 1'
_cell_length_a   9.47843600
_cell_length_b   9.89086600
_cell_length_c   10.67891200
_cell_angle_alpha   90.00000000
_cell_angle_beta   90.00000000
_cell_angle_gamma   90.00000000
_symmetry_Int_Tables_number   1
_chemical_formula_structural   KBC4NF9
_chemical_formula_sum   'K4 B4 C16 N4 F36'
_cell_volume   1001.14736317
_cell_formula_units_Z   4
loop_
 _symmetry_equiv_pos_site_id
 _symmetry_equiv_pos_as_xyz
  1  'x, y, z'
loop_
 _atom_site_type_symbol
 _atom_site_label
 _atom_site_symmetry_multiplicity
 _atom_site_fract_x
 _atom_site_fract_y
 _atom_site_fract_z
 _atom_site_occupancy
  K  K0  1  0.50856300  0.22260100  0.25000000  1
  K  K1  1  0.00856300  0.27739900  0.75000000  1
  K  K2  1  0.49143700  0.77739900  0.75000000  1
  K  K3  1  0.99143700  0.72260100  0.25000000  1
  B  B4  1  0.97882700  0.28717200  0.25000000  1
  B  B5  1  0.47882700  0.21282800  0.75000000  1
  B  B6  1  0.52117300  0.78717200  0.25000000  1
  B  B7  1  0.02117300  0.71282800  0.75000000  1
  C  C8  1  0.85863400  0.65359200  0.75000000  1
  C  C9  1  0.10610400  0.66234100  0.87628100  1
  C  C10  1  0.39389600  0.16234100  0.62371900  1
  C  C11  1  0.51161200  0.51665700  0.25000000  1
  C  C12  1  0.14136600  0.34640800  0.25000000  1
  C  C13  1  0.89389600  0.33765900  0.12371900  1
  C  C14  1  0.48838800  0.48334300  0.75000000  1
  C  C15  1  0.60610400  0.83765900  0.37628100  1
  C  C16  1  0.98838800  0.01665700  0.25000000  1
  C  C17  1  0.64136600  0.15359200  0.75000000  1
  C  C18  1  0.35863400  0.84640800  0.25000000  1
  C  C19  1  0.01161200  0.98334300  0.75000000  1
  C  C20  1  0.39389600  0.16234100  0.87628100  1
  C  C21  1  0.10610400  0.66234100  0.62371900  1
  C  C22  1  0.60610400  0.83765900  0.12371900  1
  C  C23  1  0.89389600  0.33765900  0.37628100  1
  N  N24  1  0.48442300  0.36461700  0.75000000  1
  N  N25  1  0.51557700  0.63538300  0.25000000  1
  N  N26  1  0.98442300  0.13538300  0.25000000  1
  N  N27  1  0.01557700  0.86461700  0.75000000  1
  F  F28  1  0.78096100  0.69408500  0.85223500  1
  F  F29  1  0.37934200  0.02401100  0.88569200  1
  F  F30  1  0.14866600  0.48656800  0.25000000  1
  F  F31  1  0.71903900  0.19408500  0.64776500  1
  F  F32  1  0.62065800  0.97598900  0.11430800  1
  F  F33  1  0.04144400  0.70262200  0.51412200  1
  F  F34  1  0.85133400  0.51343200  0.75000000  1
  F  F35  1  0.78096100  0.69408500  0.64776500  1
  F  F36  1  0.74149100  0.78664800  0.38381500  1
  F  F37  1  0.12065800  0.52401100  0.88569200  1
  F  F38  1  0.25850900  0.21335200  0.61618500  1
  F  F39  1  0.45855600  0.20262200  0.51412200  1
  F  F40  1  0.35133400  0.98656800  0.25000000  1
  F  F41  1  0.24149100  0.71335200  0.88381500  1
  F  F42  1  0.54144400  0.79737800  0.48587800  1
  F  F43  1  0.75850900  0.28664800  0.38381500  1
  F  F44  1  0.87934200  0.47598900  0.11430800  1
  F  F45  1  0.64866600  0.01343200  0.75000000  1
  F  F46  1  0.54144400  0.79737800  0.01412200  1
  F  F47  1  0.75850900  0.28664800  0.11618500  1
  F  F48  1  0.74149100  0.78664800  0.11618500  1
  F  F49  1  0.28096100  0.80591500  0.14776500  1
  F  F50  1  0.62065800  0.97598900  0.38569200  1
  F  F51  1  0.24149100  0.71335200  0.61618500  1
  F  F52  1  0.37934200  0.02401100  0.61430800  1
  F  F53  1  0.45855600  0.20262200  0.98587800  1
  F  F54  1  0.25850900  0.21335200  0.88381500  1
  F  F55  1  0.28096100  0.80591500  0.35223500  1
  F  F56  1  0.12065800  0.52401100  0.61430800  1
  F  F57  1  0.87934200  0.47598900  0.38569200  1
  F  F58  1  0.04144400  0.70262200  0.98587800  1
  F  F59  1  0.95855600  0.29737800  0.48587800  1
  F  F60  1  0.95855600  0.29737800  0.01412200  1
  F  F61  1  0.71903900  0.19408500  0.85223500  1
  F  F62  1  0.21903900  0.30591500  0.35223500  1
  F  F63  1  0.21903900  0.30591500  0.14776500  1
