# generated using pymatgen
data_La3Si2ClO8
_symmetry_space_group_name_H-M   'P 1'
_cell_length_a   8.02985403
_cell_length_b   8.02985403
_cell_length_c   8.90673512
_cell_angle_alpha   82.56603597
_cell_angle_beta   82.56603597
_cell_angle_gamma   48.26566875
_symmetry_Int_Tables_number   1
_chemical_formula_structural   La3Si2ClO8
_chemical_formula_sum   'La6 Si4 Cl2 O16'
_cell_volume   424.23150413
_cell_formula_units_Z   2
loop_
 _symmetry_equiv_pos_site_id
 _symmetry_equiv_pos_as_xyz
  1  'x, y, z'
loop_
 _atom_site_type_symbol
 _atom_site_label
 _atom_site_symmetry_multiplicity
 _atom_site_fract_x
 _atom_site_fract_y
 _atom_site_fract_z
 _atom_site_occupancy
  La  La0  1  0.93098200  0.06901800  0.75000000  1
  La  La1  1  0.41960100  0.21158600  0.17065300  1
  La  La2  1  0.78841400  0.58039900  0.32934700  1
  La  La3  1  0.58039900  0.78841400  0.82934700  1
  La  La4  1  0.21158600  0.41960100  0.67065300  1
  La  La5  1  0.06901800  0.93098200  0.25000000  1
  Si  Si6  1  0.10194500  0.21451000  0.97357900  1
  Si  Si7  1  0.89805500  0.78549000  0.02642100  1
  Si  Si8  1  0.78549000  0.89805500  0.52642100  1
  Si  Si9  1  0.21451000  0.10194500  0.47357900  1
  Cl  Cl10  1  0.47543500  0.52456500  0.75000000  1
  Cl  Cl11  1  0.52456500  0.47543500  0.25000000  1
  O  O12  1  0.38148800  0.90707300  0.35319900  1
  O  O13  1  0.95714100  0.20039000  0.46738200  1
  O  O14  1  0.79651300  0.68518300  0.58096500  1
  O  O15  1  0.68518300  0.79651300  0.08096500  1
  O  O16  1  0.79961000  0.04285900  0.03261800  1
  O  O17  1  0.90707300  0.38148800  0.85319900  1
  O  O18  1  0.61851200  0.09292700  0.64680100  1
  O  O19  1  0.72791700  0.96401500  0.34759800  1
  O  O20  1  0.27208400  0.03598500  0.65240200  1
  O  O21  1  0.96401500  0.72791600  0.84759800  1
  O  O22  1  0.31481700  0.20348700  0.91903500  1
  O  O23  1  0.04285900  0.79961000  0.53261800  1
  O  O24  1  0.20348700  0.31481700  0.41903500  1
  O  O25  1  0.20039000  0.95714100  0.96738200  1
  O  O26  1  0.09292700  0.61851200  0.14680100  1
  O  O27  1  0.03598500  0.27208400  0.15240200  1
