# generated using pymatgen
data_KB(CO2)4
_symmetry_space_group_name_H-M   'P 1'
_cell_length_a   7.00813932
_cell_length_b   7.00813932
_cell_length_c   8.42215600
_cell_angle_alpha   90.00000000
_cell_angle_beta   90.00000000
_cell_angle_gamma   105.08855468
_symmetry_Int_Tables_number   1
_chemical_formula_structural   KB(CO2)4
_chemical_formula_sum   'K2 B2 C8 O16'
_cell_volume   399.38532286
_cell_formula_units_Z   2
loop_
 _symmetry_equiv_pos_site_id
 _symmetry_equiv_pos_as_xyz
  1  'x, y, z'
loop_
 _atom_site_type_symbol
 _atom_site_label
 _atom_site_symmetry_multiplicity
 _atom_site_fract_x
 _atom_site_fract_y
 _atom_site_fract_z
 _atom_site_occupancy
  K  K0  1  0.92847000  0.07153000  0.75000000  1
  K  K1  1  0.07153000  0.92847000  0.25000000  1
  B  B2  1  0.57176200  0.42823800  0.25000000  1
  B  B3  1  0.42823800  0.57176200  0.75000000  1
  C  C4  1  0.76652500  0.23347500  0.15834600  1
  C  C5  1  0.71402400  0.46695400  0.75000000  1
  C  C6  1  0.28597600  0.53304600  0.25000000  1
  C  C7  1  0.53304600  0.28597600  0.75000000  1
  C  C8  1  0.23347500  0.76652500  0.65834600  1
  C  C9  1  0.46695400  0.71402400  0.25000000  1
  C  C10  1  0.76652500  0.23347500  0.34165400  1
  C  C11  1  0.23347500  0.76652500  0.84165400  1
  O  O12  1  0.65241700  0.34758300  0.10978500  1
  O  O13  1  0.85514900  0.14485100  0.07330000  1
  O  O14  1  0.14485100  0.85514900  0.92670000  1
  O  O15  1  0.34758300  0.65241700  0.89021500  1
  O  O16  1  0.88589200  0.46045500  0.75000000  1
  O  O17  1  0.62969500  0.64840600  0.25000000  1
  O  O18  1  0.34758300  0.65241700  0.60978500  1
  O  O19  1  0.46045500  0.88589200  0.25000000  1
  O  O20  1  0.14485100  0.85514900  0.57330000  1
  O  O21  1  0.37030500  0.35159400  0.75000000  1
  O  O22  1  0.11410800  0.53954500  0.25000000  1
  O  O23  1  0.53954500  0.11410800  0.75000000  1
  O  O24  1  0.64840600  0.62969500  0.75000000  1
  O  O25  1  0.35159400  0.37030500  0.25000000  1
  O  O26  1  0.85514900  0.14485100  0.42670000  1
  O  O27  1  0.65241700  0.34758300  0.39021500  1
