# generated using pymatgen
data_In2Te2MoO10
_symmetry_space_group_name_H-M   'P 1'
_cell_length_a   5.47548300
_cell_length_b   12.16824600
_cell_length_c   17.04190420
_cell_angle_alpha   50.21640467
_cell_angle_beta   90.00000000
_cell_angle_gamma   90.00000000
_symmetry_Int_Tables_number   1
_chemical_formula_structural   In2Te2MoO10
_chemical_formula_sum   'In8 Te8 Mo4 O40'
_cell_volume   872.55663568
_cell_formula_units_Z   4
loop_
 _symmetry_equiv_pos_site_id
 _symmetry_equiv_pos_as_xyz
  1  'x, y, z'
loop_
 _atom_site_type_symbol
 _atom_site_label
 _atom_site_symmetry_multiplicity
 _atom_site_fract_x
 _atom_site_fract_y
 _atom_site_fract_z
 _atom_site_occupancy
  In  In0  1  0.29541200  0.97391000  0.18145100  1
  In  In1  1  0.70458800  0.02609000  0.81854900  1
  In  In2  1  0.76183200  0.81367400  0.12563100  1
  In  In3  1  0.20458800  0.97391000  0.68145100  1
  In  In4  1  0.26183200  0.18632600  0.37436900  1
  In  In5  1  0.73816800  0.81367400  0.62563100  1
  In  In6  1  0.23816800  0.18632600  0.87436900  1
  In  In7  1  0.79541200  0.02609000  0.31854900  1
  Te  Te8  1  0.76020800  0.38061400  0.74448200  1
  Te  Te9  1  0.30811600  0.82136800  0.45871100  1
  Te  Te10  1  0.73979200  0.38061400  0.24448200  1
  Te  Te11  1  0.19188400  0.82136800  0.95871100  1
  Te  Te12  1  0.69188400  0.17863200  0.54128900  1
  Te  Te13  1  0.26020800  0.61938600  0.75551800  1
  Te  Te14  1  0.80811600  0.17863200  0.04128900  1
  Te  Te15  1  0.23979200  0.61938600  0.25551800  1
  Mo  Mo16  1  0.73244300  0.67857700  0.88674600  1
  Mo  Mo17  1  0.76755700  0.67857700  0.38674600  1
  Mo  Mo18  1  0.23244300  0.32142300  0.61325400  1
  Mo  Mo19  1  0.26755700  0.32142300  0.11325400  1
  O  O20  1  0.92496300  0.74483900  0.77420100  1
  O  O21  1  0.08714900  0.80091400  0.21100700  1
  O  O22  1  0.45132200  0.39255700  0.30325500  1
  O  O23  1  0.07503700  0.25516100  0.22579900  1
  O  O24  1  0.40282800  0.10329000  0.52174700  1
  O  O25  1  0.91285100  0.19908600  0.78899300  1
  O  O26  1  0.41285100  0.80091400  0.71100700  1
  O  O27  1  0.56693200  0.53658700  0.91048500  1
  O  O28  1  0.53309000  0.81579700  0.87232400  1
  O  O29  1  0.46691000  0.18420300  0.12767600  1
  O  O30  1  0.38582900  0.98966200  0.91251700  1
  O  O31  1  0.42182100  0.72273500  0.12933800  1
  O  O32  1  0.92443400  0.61692500  0.99058800  1
  O  O33  1  0.54554100  0.08057200  0.67757500  1
  O  O34  1  0.61417100  0.01033800  0.08748300  1
  O  O35  1  0.11417100  0.98966200  0.41251700  1
  O  O36  1  0.57503700  0.74483900  0.27420100  1
  O  O37  1  0.90282800  0.89671000  0.97825300  1
  O  O38  1  0.06693200  0.46341300  0.58951500  1
  O  O39  1  0.03309000  0.18420300  0.62767600  1
  O  O40  1  0.04867800  0.39255700  0.80325500  1
  O  O41  1  0.57556600  0.61692500  0.49058800  1
  O  O42  1  0.42443400  0.38307500  0.50941200  1
  O  O43  1  0.07817900  0.72273500  0.62933800  1
  O  O44  1  0.59717200  0.89671000  0.47825300  1
  O  O45  1  0.43306800  0.46341300  0.08951500  1
  O  O46  1  0.57817900  0.27726500  0.87066200  1
  O  O47  1  0.54867800  0.60744300  0.69674500  1
  O  O48  1  0.07556600  0.38307500  0.00941200  1
  O  O49  1  0.95445900  0.08057200  0.17757500  1
  O  O50  1  0.96691000  0.81579700  0.37232400  1
  O  O51  1  0.04554100  0.91942800  0.82242500  1
  O  O52  1  0.95132200  0.60744300  0.19674500  1
  O  O53  1  0.88582900  0.01033800  0.58748300  1
  O  O54  1  0.45445900  0.91942800  0.32242500  1
  O  O55  1  0.93306800  0.53658700  0.41048500  1
  O  O56  1  0.92182100  0.27726500  0.37066200  1
  O  O57  1  0.58714900  0.19908600  0.28899300  1
  O  O58  1  0.09717200  0.10329000  0.02174700  1
  O  O59  1  0.42496300  0.25516100  0.72579900  1
