# generated using pymatgen
data_WO3
_symmetry_space_group_name_H-M   'P 1'
_cell_length_a   7.70435600
_cell_length_b   7.70435600
_cell_length_c   3.89855200
_cell_angle_alpha   90.00000000
_cell_angle_beta   90.00000000
_cell_angle_gamma   90.00000000
_symmetry_Int_Tables_number   1
_chemical_formula_structural   WO3
_chemical_formula_sum   'W4 O12'
_cell_volume   231.40674628
_cell_formula_units_Z   4
loop_
 _symmetry_equiv_pos_site_id
 _symmetry_equiv_pos_as_xyz
  1  'x, y, z'
loop_
 _atom_site_type_symbol
 _atom_site_label
 _atom_site_symmetry_multiplicity
 _atom_site_fract_x
 _atom_site_fract_y
 _atom_site_fract_z
 _atom_site_occupancy
  W  W0  1  0.74016900  0.24016900  0.03588200  1
  W  W1  1  0.25983100  0.75983100  0.03588200  1
  W  W2  1  0.75983100  0.74016900  0.96411800  1
  W  W3  1  0.24016900  0.25983100  0.96411800  1
  O  O4  1  0.74455900  0.24455900  0.50774000  1
  O  O5  1  0.24455900  0.25544100  0.49226000  1
  O  O6  1  0.25544100  0.75544100  0.50774000  1
  O  O7  1  0.75544100  0.74455900  0.49226000  1
  O  O8  1  0.25016600  0.00420000  0.00113400  1
  O  O9  1  0.24983400  0.50420000  0.99886600  1
  O  O10  1  0.99580000  0.25016600  0.99886600  1
  O  O11  1  0.74983400  0.99580000  0.00113400  1
  O  O12  1  0.00420000  0.74983400  0.99886600  1
  O  O13  1  0.49580000  0.24983400  0.00113400  1
  O  O14  1  0.50420000  0.75016600  0.00113400  1
  O  O15  1  0.75016600  0.49580000  0.99886600  1
