# generated using pymatgen
data_Na2Zn2S3
_symmetry_space_group_name_H-M   'P 1'
_cell_length_a   7.06957200
_cell_length_b   7.01896300
_cell_length_c   7.04207794
_cell_angle_alpha   61.92801129
_cell_angle_beta   90.00000000
_cell_angle_gamma   90.00000000
_symmetry_Int_Tables_number   1
_chemical_formula_structural   Na2Zn2S3
_chemical_formula_sum   'Na4 Zn4 S6'
_cell_volume   308.32678486
_cell_formula_units_Z   2
loop_
 _symmetry_equiv_pos_site_id
 _symmetry_equiv_pos_as_xyz
  1  'x, y, z'
loop_
 _atom_site_type_symbol
 _atom_site_label
 _atom_site_symmetry_multiplicity
 _atom_site_fract_x
 _atom_site_fract_y
 _atom_site_fract_z
 _atom_site_occupancy
  Na  Na0  1  0.83699500  0.85509200  0.40129300  1
  Na  Na1  1  0.33699500  0.14490800  0.09870700  1
  Na  Na2  1  0.16300500  0.14490800  0.59870700  1
  Na  Na3  1  0.66300500  0.85509200  0.90129300  1
  Zn  Zn4  1  0.11773700  0.65878300  0.06895500  1
  Zn  Zn5  1  0.61773700  0.34121700  0.43104500  1
  Zn  Zn6  1  0.88226300  0.34121700  0.93104500  1
  Zn  Zn7  1  0.38226300  0.65878300  0.56895500  1
  S  S8  1  0.40611300  0.63533300  0.24129300  1
  S  S9  1  0.90611300  0.36466700  0.25870700  1
  S  S10  1  0.59388700  0.36466700  0.75870700  1
  S  S11  1  0.09388700  0.63533300  0.74129300  1
  S  S12  1  0.00000000  0.00000000  0.00000000  1
  S  S13  1  0.50000000  0.00000000  0.50000000  1
