# generated using pymatgen
data_Ni3H12C10NO6
_symmetry_space_group_name_H-M   'P 1'
_cell_length_a   11.06610694
_cell_length_b   11.06610694
_cell_length_c   7.19789700
_cell_angle_alpha   90.00000000
_cell_angle_beta   90.00000000
_cell_angle_gamma   120.00000561
_symmetry_Int_Tables_number   1
_chemical_formula_structural   Ni3H12C10NO6
_chemical_formula_sum   'Ni6 H24 C20 N2 O12'
_cell_volume   763.35395550
_cell_formula_units_Z   2
loop_
 _symmetry_equiv_pos_site_id
 _symmetry_equiv_pos_as_xyz
  1  'x, y, z'
loop_
 _atom_site_type_symbol
 _atom_site_label
 _atom_site_symmetry_multiplicity
 _atom_site_fract_x
 _atom_site_fract_y
 _atom_site_fract_z
 _atom_site_occupancy
  Ni  Ni0  1  0.11588500  0.98270700  0.16985200  1
  Ni  Ni1  1  0.86682200  0.88411500  0.16985200  1
  Ni  Ni2  1  0.88411500  0.01729300  0.83014800  1
  Ni  Ni3  1  0.98270700  0.86682200  0.83014800  1
  Ni  Ni4  1  0.01729300  0.13317800  0.16985200  1
  Ni  Ni5  1  0.13317800  0.11588500  0.83014800  1
  H  H6  1  0.11294300  0.55645300  0.57717900  1
  H  H7  1  0.24388700  0.56889600  0.84208500  1
  H  H8  1  0.80429800  0.35840100  0.63599100  1
  H  H9  1  0.32500900  0.75611300  0.84208500  1
  H  H10  1  0.74314800  0.55061100  0.44337700  1
  H  H11  1  0.55410400  0.19570200  0.63599100  1
  H  H12  1  0.67499100  0.24388700  0.15791500  1
  H  H13  1  0.75611300  0.43110400  0.15791500  1
  H  H14  1  0.55649000  0.11294300  0.42282100  1
  H  H15  1  0.44589600  0.80429800  0.36400900  1
  H  H16  1  0.80746300  0.25685200  0.44337700  1
  H  H17  1  0.35840100  0.55410400  0.36400900  1
  H  H18  1  0.55645300  0.44351000  0.42282100  1
  H  H19  1  0.44351000  0.88705700  0.57717900  1
  H  H20  1  0.25685200  0.44938900  0.55662300  1
  H  H21  1  0.56889600  0.32500900  0.15791500  1
  H  H22  1  0.55061100  0.80746300  0.55662300  1
  H  H23  1  0.88705700  0.44354700  0.42282100  1
  H  H24  1  0.43110400  0.67499100  0.84208500  1
  H  H25  1  0.64159900  0.44589600  0.63599100  1
  H  H26  1  0.19253700  0.74314800  0.55662300  1
  H  H27  1  0.19570200  0.64159900  0.36400900  1
  H  H28  1  0.44938900  0.19253700  0.44337700  1
  H  H29  1  0.44354700  0.55649000  0.57717900  1
  C  C30  1  0.33333300  0.66666700  0.79378700  1
  C  C31  1  0.45267300  0.80167200  0.51544400  1
  C  C32  1  0.02556700  0.19612900  0.76051900  1
  C  C33  1  0.19612900  0.17056200  0.23948100  1
  C  C34  1  0.74261000  0.04480500  0.83211300  1
  C  C35  1  0.34899900  0.54732700  0.51544400  1
  C  C36  1  0.80387100  0.82943800  0.76051900  1
  C  C37  1  0.97443300  0.80387100  0.23948100  1
  C  C38  1  0.82943800  0.02556700  0.23948100  1
  C  C39  1  0.04480500  0.30219500  0.16788700  1
  C  C40  1  0.25739000  0.95519500  0.16788700  1
  C  C41  1  0.17056200  0.97443300  0.76051900  1
  C  C42  1  0.80167200  0.34899900  0.48455600  1
  C  C43  1  0.19832800  0.65100100  0.51544400  1
  C  C44  1  0.30219500  0.25739000  0.83211300  1
  C  C45  1  0.66666700  0.33333300  0.20621300  1
  C  C46  1  0.54732700  0.19832800  0.48455600  1
  C  C47  1  0.69780500  0.74261000  0.16788700  1
  C  C48  1  0.95519500  0.69780500  0.83211300  1
  C  C49  1  0.65100100  0.45267300  0.48455600  1
  N  N50  1  0.66666700  0.33333300  0.41504300  1
  N  N51  1  0.33333300  0.66666700  0.58495700  1
  O  O52  1  0.93180100  0.58294400  0.84655700  1
  O  O53  1  0.58294400  0.65114300  0.15344300  1
  O  O54  1  0.06819900  0.41705600  0.15344300  1
  O  O55  1  0.41705600  0.34885700  0.84655700  1
  O  O56  1  0.73789000  0.03875800  0.30570900  1
  O  O57  1  0.26211000  0.96124200  0.69429100  1
  O  O58  1  0.65114300  0.06819900  0.84655700  1
  O  O59  1  0.03875800  0.30086800  0.69429100  1
  O  O60  1  0.96124200  0.69913200  0.30570900  1
  O  O61  1  0.69913200  0.73789000  0.69429100  1
  O  O62  1  0.34885700  0.93180100  0.15344300  1
  O  O63  1  0.30086800  0.26211000  0.30570900  1
