# generated using pymatgen
data_Na6MnNi3(SbO6)2
_symmetry_space_group_name_H-M   'P 1'
_cell_length_a   9.37044900
_cell_length_b   5.41612500
_cell_length_c   5.71684067
_cell_angle_alpha   71.60562169
_cell_angle_beta   90.00000000
_cell_angle_gamma   90.00000000
_symmetry_Int_Tables_number   1
_chemical_formula_structural   Na6MnNi3(SbO6)2
_chemical_formula_sum   'Na6 Mn1 Ni3 Sb2 O12'
_cell_volume   275.31432488
_cell_formula_units_Z   1
loop_
 _symmetry_equiv_pos_site_id
 _symmetry_equiv_pos_as_xyz
  1  'x, y, z'
loop_
 _atom_site_type_symbol
 _atom_site_label
 _atom_site_symmetry_multiplicity
 _atom_site_fract_x
 _atom_site_fract_y
 _atom_site_fract_z
 _atom_site_occupancy
  Na  Na0  1  0.99868300  0.50000000  0.50000000  1
  Na  Na1  1  0.82565700  0.00000000  0.50000000  1
  Na  Na2  1  0.17225800  0.00000000  0.50000000  1
  Na  Na3  1  0.50176200  0.00000000  0.50000000  1
  Na  Na4  1  0.32583900  0.50000000  0.50000000  1
  Na  Na5  1  0.67478900  0.50000000  0.50000000  1
  Mn  Mn6  1  0.33397200  0.00000000  0.00000000  1
  Ni  Ni7  1  0.16497000  0.50000000  0.00000000  1
  Ni  Ni8  1  0.83392000  0.50000000  0.00000000  1
  Ni  Ni9  1  0.66775600  0.00000000  0.00000000  1
  Sb  Sb10  1  0.99700200  0.00000000  0.00000000  1
  Sb  Sb11  1  0.50318900  0.50000000  0.00000000  1
  O  O12  1  0.15249900  0.23069200  0.79227200  1
  O  O13  1  0.99984500  0.24955100  0.20163800  1
  O  O14  1  0.99984500  0.75044900  0.79836200  1
  O  O15  1  0.83966200  0.22642800  0.79764100  1
  O  O16  1  0.15249900  0.76930800  0.20772800  1
  O  O17  1  0.83966200  0.77357200  0.20235900  1
  O  O18  1  0.65990900  0.72877500  0.79755900  1
  O  O19  1  0.50562300  0.74270000  0.20704400  1
  O  O20  1  0.50562300  0.25730000  0.79295600  1
  O  O21  1  0.34256300  0.71713700  0.79157200  1
  O  O22  1  0.65990900  0.27122500  0.20244100  1
  O  O23  1  0.34256300  0.28286300  0.20842800  1
