# generated using pymatgen
data_YTaO4
_symmetry_space_group_name_H-M   'P 1'
_cell_length_a   6.57945027
_cell_length_b   6.57945027
_cell_length_c   5.11944497
_cell_angle_alpha   69.34594391
_cell_angle_beta   69.34594391
_cell_angle_gamma   114.87663301
_symmetry_Int_Tables_number   1
_chemical_formula_structural   YTaO4
_chemical_formula_sum   'Y2 Ta2 O8'
_cell_volume   151.85775241
_cell_formula_units_Z   2
loop_
 _symmetry_equiv_pos_site_id
 _symmetry_equiv_pos_as_xyz
  1  'x, y, z'
loop_
 _atom_site_type_symbol
 _atom_site_label
 _atom_site_symmetry_multiplicity
 _atom_site_fract_x
 _atom_site_fract_y
 _atom_site_fract_z
 _atom_site_occupancy
  Y  Y0  1  0.13040100  0.86959900  0.25000000  1
  Y  Y1  1  0.86959900  0.13040100  0.75000000  1
  Ta  Ta2  1  0.60377800  0.39622200  0.25000000  1
  Ta  Ta3  1  0.39622200  0.60377800  0.75000000  1
  O  O4  1  0.28697300  0.22343400  0.70716500  1
  O  O5  1  0.44888100  0.86880300  0.83855300  1
  O  O6  1  0.71302700  0.77656600  0.29283500  1
  O  O7  1  0.86880300  0.44888100  0.33855300  1
  O  O8  1  0.77656600  0.71302700  0.79283500  1
  O  O9  1  0.13119700  0.55111900  0.66144700  1
  O  O10  1  0.55111900  0.13119700  0.16144700  1
  O  O11  1  0.22343400  0.28697300  0.20716500  1
