# generated using pymatgen
data_SiO2
_symmetry_space_group_name_H-M   'P 1'
_cell_length_a   6.88394500
_cell_length_b   6.88394500
_cell_length_c   9.06871300
_cell_angle_alpha   90.00000000
_cell_angle_beta   90.00000000
_cell_angle_gamma   97.40148863
_symmetry_Int_Tables_number   1
_chemical_formula_structural   SiO2
_chemical_formula_sum   'Si8 O16'
_cell_volume   426.17371517
_cell_formula_units_Z   8
loop_
 _symmetry_equiv_pos_site_id
 _symmetry_equiv_pos_as_xyz
  1  'x, y, z'
loop_
 _atom_site_type_symbol
 _atom_site_label
 _atom_site_symmetry_multiplicity
 _atom_site_fract_x
 _atom_site_fract_y
 _atom_site_fract_z
 _atom_site_occupancy
  Si  Si0  1  0.30685800  0.03950200  0.90954400  1
  Si  Si1  1  0.46049800  0.19314200  0.59045600  1
  Si  Si2  1  0.03950200  0.30685800  0.09045600  1
  Si  Si3  1  0.19314200  0.46049800  0.40954400  1
  Si  Si4  1  0.96049800  0.69314200  0.90954400  1
  Si  Si5  1  0.69314200  0.96049800  0.09045600  1
  Si  Si6  1  0.80685800  0.53950200  0.59045600  1
  Si  Si7  1  0.53950200  0.80685800  0.40954400  1
  O  O8  1  0.80692400  0.80692400  0.00000000  1
  O  O9  1  0.63270400  0.86729600  0.25000000  1
  O  O10  1  0.69307600  0.69307600  0.50000000  1
  O  O11  1  0.33303400  0.66696600  0.38672300  1
  O  O12  1  0.13270400  0.36729600  0.25000000  1
  O  O13  1  0.86729600  0.63270400  0.75000000  1
  O  O14  1  0.19307600  0.19307600  0.00000000  1
  O  O15  1  0.36729600  0.13270400  0.75000000  1
  O  O16  1  0.00000000  0.50000000  0.00000000  1
  O  O17  1  0.16696600  0.83303400  0.88672300  1
  O  O18  1  0.66696600  0.33303400  0.61327700  1
  O  O19  1  0.83303400  0.16696600  0.11327700  1
  O  O20  1  0.30692400  0.30692400  0.50000000  1
  O  O21  1  0.50000000  0.00000000  0.00000000  1
  O  O22  1  0.00000000  0.50000000  0.50000000  1
  O  O23  1  0.50000000  0.00000000  0.50000000  1
