# generated using pymatgen
data_Na6U2Mo4O21
_symmetry_space_group_name_H-M   'P 1'
_cell_length_a   7.79274900
_cell_length_b   8.30857155
_cell_length_c   8.86754818
_cell_angle_alpha   72.07962757
_cell_angle_beta   78.62571812
_cell_angle_gamma   65.39777585
_symmetry_Int_Tables_number   1
_chemical_formula_structural   Na6U2Mo4O21
_chemical_formula_sum   'Na6 U2 Mo4 O21'
_cell_volume   495.10915341
_cell_formula_units_Z   1
loop_
 _symmetry_equiv_pos_site_id
 _symmetry_equiv_pos_as_xyz
  1  'x, y, z'
loop_
 _atom_site_type_symbol
 _atom_site_label
 _atom_site_symmetry_multiplicity
 _atom_site_fract_x
 _atom_site_fract_y
 _atom_site_fract_z
 _atom_site_occupancy
  Na  Na0  1  0.72924100  0.90428400  0.34525000  1
  Na  Na1  1  0.54694400  0.59938600  0.65116400  1
  Na  Na2  1  0.05441100  0.75487300  0.01052600  1
  Na  Na3  1  0.45305600  0.40061400  0.34883600  1
  Na  Na4  1  0.94558900  0.24512700  0.98947400  1
  Na  Na5  1  0.27075900  0.09571600  0.65475000  1
  U  U6  1  0.21359100  0.92221200  0.31488200  1
  U  U7  1  0.78640900  0.07778800  0.68511800  1
  Mo  Mo8  1  0.44424400  0.24891200  0.01627100  1
  Mo  Mo9  1  0.93924600  0.41390700  0.35499800  1
  Mo  Mo10  1  0.55575600  0.75108800  0.98372900  1
  Mo  Mo11  1  0.06075400  0.58609300  0.64500200  1
  O  O12  1  0.39450600  0.92909300  0.42069000  1
  O  O13  1  0.67373400  0.91571900  0.92528900  1
  O  O14  1  0.60549400  0.07090700  0.57931000  1
  O  O15  1  0.15306900  0.35943300  0.44225600  1
  O  O16  1  0.61822100  0.17967400  0.15095600  1
  O  O17  1  0.74655200  0.36520300  0.49841400  1
  O  O18  1  0.28002700  0.45813100  0.05136100  1
  O  O19  1  0.55144200  0.29679200  0.81033000  1
  O  O20  1  0.44855800  0.70320800  0.18967000  1
  O  O21  1  0.25344800  0.63479700  0.50158600  1
  O  O22  1  0.99510700  0.74010300  0.76899600  1
  O  O23  1  0.95757700  0.09129100  0.79646500  1
  O  O24  1  0.38177900  0.82032600  0.84904400  1
  O  O25  1  0.00000000  0.00000000  0.50000000  1
  O  O26  1  0.32626600  0.08428100  0.07471100  1
  O  O27  1  0.84693100  0.64056700  0.55774400  1
  O  O28  1  0.04242300  0.90870900  0.20353500  1
  O  O29  1  0.85714800  0.63810300  0.22845500  1
  O  O30  1  0.00489300  0.25989700  0.23100400  1
  O  O31  1  0.14285200  0.36189700  0.77154500  1
  O  O32  1  0.71997300  0.54186900  0.94863900  1
