# generated using pymatgen
data_CoF3
_symmetry_space_group_name_H-M   'P 1'
_cell_length_a   5.34667119
_cell_length_b   5.34505246
_cell_length_c   5.34563989
_cell_angle_alpha   118.34872079
_cell_angle_beta   61.63138791
_cell_angle_gamma   118.36211215
_symmetry_Int_Tables_number   1
_chemical_formula_structural   CoF3
_chemical_formula_sum   'Co2 F6'
_cell_volume   111.99726393
_cell_formula_units_Z   2
loop_
 _symmetry_equiv_pos_site_id
 _symmetry_equiv_pos_as_xyz
  1  'x, y, z'
loop_
 _atom_site_type_symbol
 _atom_site_label
 _atom_site_symmetry_multiplicity
 _atom_site_fract_x
 _atom_site_fract_y
 _atom_site_fract_z
 _atom_site_occupancy
  Co  Co0  1  0.50000000  0.50000000  0.50000000  1
  Co  Co1  1  0.00000000  0.00000000  0.00000000  1
  F  F2  1  0.24981000  0.24980200  0.75021300  1
  F  F3  1  0.75019000  0.75023000  0.24981800  1
  F  F4  1  0.74982800  0.74986100  0.74982500  1
  F  F5  1  0.25020300  0.25013900  0.25014300  1
  F  F6  1  0.74991800  0.25000500  0.25002700  1
  F  F7  1  0.25005000  0.74996400  0.74997300  1
