# generated using pymatgen
data_Fe(BO2)2
_symmetry_space_group_name_H-M   'P 1'
_cell_length_a   7.53471200
_cell_length_b   7.23774300
_cell_length_c   8.72070256
_cell_angle_alpha   85.34234975
_cell_angle_beta   90.00000000
_cell_angle_gamma   90.00000000
_symmetry_Int_Tables_number   1
_chemical_formula_structural   Fe(BO2)2
_chemical_formula_sum   'Fe8 B16 O32'
_cell_volume   474.00697884
_cell_formula_units_Z   8
loop_
 _symmetry_equiv_pos_site_id
 _symmetry_equiv_pos_as_xyz
  1  'x, y, z'
loop_
 _atom_site_type_symbol
 _atom_site_label
 _atom_site_symmetry_multiplicity
 _atom_site_fract_x
 _atom_site_fract_y
 _atom_site_fract_z
 _atom_site_occupancy
  Fe  Fe0  1  0.76568300  0.52284200  0.63849800  1
  Fe  Fe1  1  0.27082200  0.03133400  0.39227500  1
  Fe  Fe2  1  0.26568300  0.47715800  0.86150200  1
  Fe  Fe3  1  0.73431700  0.52284200  0.13849800  1
  Fe  Fe4  1  0.77082200  0.96866600  0.10772500  1
  Fe  Fe5  1  0.23431700  0.47715800  0.36150200  1
  Fe  Fe6  1  0.22917800  0.03133400  0.89227500  1
  Fe  Fe7  1  0.72917800  0.96866600  0.60772500  1
  B  B8  1  0.89769100  0.29947000  0.88504800  1
  B  B9  1  0.42816000  0.81904100  0.14139000  1
  B  B10  1  0.43559200  0.19845900  0.14080900  1
  B  B11  1  0.40335200  0.32059700  0.62197400  1
  B  B12  1  0.06440800  0.19845900  0.64080900  1
  B  B13  1  0.90335200  0.67940300  0.87802600  1
  B  B14  1  0.57184000  0.18095900  0.85861000  1
  B  B15  1  0.60230900  0.29947000  0.38504800  1
  B  B16  1  0.07184000  0.81904100  0.64139000  1
  B  B17  1  0.39769100  0.70053000  0.61495200  1
  B  B18  1  0.59664800  0.67940300  0.37802600  1
  B  B19  1  0.56440800  0.80154100  0.85919100  1
  B  B20  1  0.93559200  0.80154100  0.35919100  1
  B  B21  1  0.92816000  0.18095900  0.35861000  1
  B  B22  1  0.09664800  0.32059700  0.12197400  1
  B  B23  1  0.10230900  0.70053000  0.11495200  1
  O  O24  1  0.44276700  0.23615800  0.47501500  1
  O  O25  1  0.44197600  0.68218800  0.27608000  1
  O  O26  1  0.51953700  0.99683700  0.80662600  1
  O  O27  1  0.25027700  0.83081100  0.07161300  1
  O  O28  1  0.16034700  0.51449200  0.07736900  1
  O  O29  1  0.94276700  0.76384200  0.02498500  1
  O  O30  1  0.98046300  0.99683700  0.30662600  1
  O  O31  1  0.24795100  0.23231300  0.70302500  1
  O  O32  1  0.05802400  0.68218800  0.77608000  1
  O  O33  1  0.75027700  0.16918900  0.42838700  1
  O  O34  1  0.25204900  0.23231300  0.20302500  1
  O  O35  1  0.56719200  0.76372300  0.02698400  1
  O  O36  1  0.56462000  0.31400600  0.21743200  1
  O  O37  1  0.06719200  0.23627700  0.47301600  1
  O  O38  1  0.74795100  0.76768700  0.79697500  1
  O  O39  1  0.05723300  0.23615800  0.97501500  1
  O  O40  1  0.74972300  0.16918900  0.92838700  1
  O  O41  1  0.01953700  0.00316300  0.69337400  1
  O  O42  1  0.06462000  0.68599400  0.28256800  1
  O  O43  1  0.93538000  0.31400600  0.71743200  1
  O  O44  1  0.55723300  0.76384200  0.52498500  1
  O  O45  1  0.83965300  0.48550800  0.92263100  1
  O  O46  1  0.55802400  0.31781200  0.72392000  1
  O  O47  1  0.24972300  0.83081100  0.57161300  1
  O  O48  1  0.93280800  0.76372300  0.52698400  1
  O  O49  1  0.66034700  0.48550800  0.42263100  1
  O  O50  1  0.43538000  0.68599400  0.78256800  1
  O  O51  1  0.43280800  0.23627700  0.97301600  1
  O  O52  1  0.94197600  0.31781200  0.22392000  1
  O  O53  1  0.75204900  0.76768700  0.29697500  1
  O  O54  1  0.33965300  0.51449200  0.57736900  1
  O  O55  1  0.48046300  0.00316300  0.19337400  1
