# generated using pymatgen
data_VO2
_symmetry_space_group_name_H-M   'P 1'
_cell_length_a   6.75349400
_cell_length_b   4.87123100
_cell_length_c   8.73781855
_cell_angle_alpha   84.08014765
_cell_angle_beta   90.00000000
_cell_angle_gamma   90.00000000
_symmetry_Int_Tables_number   1
_chemical_formula_structural   VO2
_chemical_formula_sum   'V4 O8'
_cell_volume   285.92230514
_cell_formula_units_Z   4
loop_
 _symmetry_equiv_pos_site_id
 _symmetry_equiv_pos_as_xyz
  1  'x, y, z'
loop_
 _atom_site_type_symbol
 _atom_site_label
 _atom_site_symmetry_multiplicity
 _atom_site_fract_x
 _atom_site_fract_y
 _atom_site_fract_z
 _atom_site_occupancy
  V  V0  1  0.00000000  0.63343800  0.79961400  1
  V  V1  1  0.00000000  0.36656200  0.20038600  1
  V  V2  1  0.16355200  0.00000000  0.00000000  1
  V  V3  1  0.83644800  0.00000000  0.00000000  1
  O  O4  1  0.00000000  0.25090500  0.86528800  1
  O  O5  1  0.00000000  0.74909500  0.13471200  1
  O  O6  1  0.75815700  0.24524200  0.13242200  1
  O  O7  1  0.75815700  0.75475800  0.86757800  1
  O  O8  1  0.24184300  0.75475800  0.86757800  1
  O  O9  1  0.24184300  0.24524200  0.13242200  1
  O  O10  1  0.00000000  0.30265200  0.38480500  1
  O  O11  1  0.00000000  0.69734800  0.61519500  1
