# generated using pymatgen
data_MnP3H12NO7
_symmetry_space_group_name_H-M   'P 1'
_cell_length_a   15.46833700
_cell_length_b   7.56123200
_cell_length_c   10.04854431
_cell_angle_alpha   62.77996291
_cell_angle_beta   90.00000000
_cell_angle_gamma   90.00000000
_symmetry_Int_Tables_number   1
_chemical_formula_structural   MnP3H12NO7
_chemical_formula_sum   'Mn4 P12 H48 N4 O28'
_cell_volume   1045.12051434
_cell_formula_units_Z   4
loop_
 _symmetry_equiv_pos_site_id
 _symmetry_equiv_pos_as_xyz
  1  'x, y, z'
loop_
 _atom_site_type_symbol
 _atom_site_label
 _atom_site_symmetry_multiplicity
 _atom_site_fract_x
 _atom_site_fract_y
 _atom_site_fract_z
 _atom_site_occupancy
  Mn  Mn0  1  0.32838800  0.99254600  0.40717500  1
  Mn  Mn1  1  0.17161200  0.99254600  0.90717500  1
  Mn  Mn2  1  0.82838800  0.00745400  0.09282500  1
  Mn  Mn3  1  0.67161200  0.00745400  0.59282500  1
  P  P4  1  0.34913100  0.10398100  0.04566600  1
  P  P5  1  0.65086900  0.89601900  0.95433400  1
  P  P6  1  0.17053200  0.75466400  0.31148900  1
  P  P7  1  0.67053200  0.24533600  0.18851100  1
  P  P8  1  0.42998100  0.43107900  0.27044000  1
  P  P9  1  0.82946800  0.24533600  0.68851100  1
  P  P10  1  0.84913100  0.89601900  0.45433400  1
  P  P11  1  0.15086900  0.10398100  0.54566600  1
  P  P12  1  0.57001900  0.56892100  0.72956000  1
  P  P13  1  0.92998100  0.56892100  0.22956000  1
  P  P14  1  0.32946800  0.75466400  0.81148900  1
  P  P15  1  0.07001900  0.43107900  0.77044000  1
  H  H16  1  0.99956800  0.16401900  0.04401700  1
  H  H17  1  0.45941300  0.76059900  0.34586200  1
  H  H18  1  0.56924300  0.80867000  0.01281300  1
  H  H19  1  0.14529400  0.32157800  0.05332200  1
  H  H20  1  0.93075700  0.80867000  0.51281300  1
  H  H21  1  0.63211800  0.43681200  0.11168200  1
  H  H22  1  0.50043200  0.16401900  0.54401700  1
  H  H23  1  0.36788200  0.56318800  0.88831800  1
  H  H24  1  0.38889400  0.88034700  0.83603800  1
  H  H25  1  0.90474200  0.55879800  0.86240800  1
  H  H26  1  0.30849500  0.52866800  0.54387400  1
  H  H27  1  0.96916200  0.62183700  0.33409300  1
  H  H28  1  0.86632800  0.10317900  0.38516300  1
  H  H29  1  0.35130100  0.52287800  0.20004500  1
  H  H30  1  0.54058700  0.23940100  0.65413800  1
  H  H31  1  0.04058700  0.76059900  0.84586200  1
  H  H32  1  0.59525800  0.55879800  0.36240800  1
  H  H33  1  0.43075700  0.19133000  0.98718700  1
  H  H34  1  0.19150500  0.52866800  0.04387400  1
  H  H35  1  0.68744500  0.68465900  0.28818900  1
  H  H36  1  0.85470600  0.67842200  0.94667800  1
  H  H37  1  0.13367200  0.89682100  0.61483700  1
  H  H38  1  0.09525800  0.44120200  0.13759200  1
  H  H39  1  0.03083800  0.37816300  0.66590700  1
  H  H40  1  0.36632800  0.89682100  0.11483700  1
  H  H41  1  0.35470600  0.32157800  0.55332200  1
  H  H42  1  0.00043200  0.83598100  0.95598300  1
  H  H43  1  0.11110600  0.88034700  0.33603800  1
  H  H44  1  0.64869900  0.47712200  0.79995500  1
  H  H45  1  0.49956800  0.83598100  0.45598300  1
  H  H46  1  0.18744500  0.31534100  0.21181100  1
  H  H47  1  0.85130100  0.47712200  0.29995500  1
  H  H48  1  0.80849500  0.47133200  0.95612600  1
  H  H49  1  0.31255500  0.31534100  0.71181100  1
  H  H50  1  0.40474200  0.44120200  0.63759200  1
  H  H51  1  0.13211800  0.56318800  0.38831800  1
  H  H52  1  0.46916200  0.37816300  0.16590700  1
  H  H53  1  0.06924300  0.19133000  0.48718700  1
  H  H54  1  0.86788200  0.43681200  0.61168200  1
  H  H55  1  0.14869900  0.52287800  0.70004500  1
  H  H56  1  0.61110600  0.11965300  0.16396200  1
  H  H57  1  0.95941300  0.23940100  0.15413800  1
  H  H58  1  0.81255500  0.68465900  0.78818900  1
  H  H59  1  0.88889400  0.11965300  0.66396200  1
  H  H60  1  0.69150500  0.47133200  0.45612600  1
  H  H61  1  0.63367200  0.10317900  0.88516300  1
  H  H62  1  0.53083800  0.62183700  0.83409300  1
  H  H63  1  0.64529400  0.67842200  0.44667800  1
  N  N64  1  0.15556100  0.40277600  0.11165900  1
  N  N65  1  0.65556100  0.59722400  0.38834100  1
  N  N66  1  0.34443900  0.40277600  0.61165900  1
  N  N67  1  0.84443900  0.59722400  0.88834100  1
  O  O68  1  0.54667900  0.13616900  0.61906500  1
  O  O69  1  0.45332100  0.86383100  0.38093500  1
  O  O70  1  0.51371600  0.41754600  0.71021600  1
  O  O71  1  0.48628400  0.58245400  0.28978400  1
  O  O72  1  0.98628400  0.41754600  0.21021600  1
  O  O73  1  0.25508600  0.74846200  0.39217200  1
  O  O74  1  0.71107700  0.84556100  0.08782600  1
  O  O75  1  0.59135200  0.76061200  0.58645200  1
  O  O76  1  0.04667900  0.86383100  0.88093500  1
  O  O77  1  0.78892300  0.84556100  0.58782600  1
  O  O78  1  0.67246400  0.18804400  0.35387700  1
  O  O79  1  0.40864800  0.23938800  0.41354800  1
  O  O80  1  0.90864800  0.76061200  0.08645200  1
  O  O81  1  0.82076900  0.83431300  0.33657500  1
  O  O82  1  0.67923100  0.83431300  0.83657500  1
  O  O83  1  0.95332100  0.13616900  0.11906500  1
  O  O84  1  0.01371600  0.58245400  0.78978400  1
  O  O85  1  0.32076900  0.16568700  0.16342500  1
  O  O86  1  0.21107700  0.15443900  0.41217400  1
  O  O87  1  0.24491400  0.74846200  0.89217200  1
  O  O88  1  0.17923100  0.16568700  0.66342500  1
  O  O89  1  0.82753600  0.18804400  0.85387700  1
  O  O90  1  0.17246400  0.81195600  0.14612300  1
  O  O91  1  0.75508600  0.25153800  0.10782800  1
  O  O92  1  0.32753600  0.81195600  0.64612300  1
  O  O93  1  0.28892300  0.15443900  0.91217400  1
  O  O94  1  0.74491400  0.25153800  0.60782800  1
  O  O95  1  0.09135200  0.23938800  0.91354800  1
