# generated using pymatgen
data_Na3VSO3
_symmetry_space_group_name_H-M   'P 1'
_cell_length_a   6.48428442
_cell_length_b   6.48428442
_cell_length_c   6.48428519
_cell_angle_alpha   83.84708749
_cell_angle_beta   83.84708749
_cell_angle_gamma   83.84708543
_symmetry_Int_Tables_number   1
_chemical_formula_structural   Na3VSO3
_chemical_formula_sum   'Na6 V2 S2 O6'
_cell_volume   268.24001249
_cell_formula_units_Z   2
loop_
 _symmetry_equiv_pos_site_id
 _symmetry_equiv_pos_as_xyz
  1  'x, y, z'
loop_
 _atom_site_type_symbol
 _atom_site_label
 _atom_site_symmetry_multiplicity
 _atom_site_fract_x
 _atom_site_fract_y
 _atom_site_fract_z
 _atom_site_occupancy
  Na  Na0  1  0.09378400  0.70652500  0.39736000  1
  Na  Na1  1  0.20652500  0.59378400  0.89736000  1
  Na  Na2  1  0.89736000  0.20652500  0.59378400  1
  Na  Na3  1  0.70652500  0.39736000  0.09378400  1
  Na  Na4  1  0.39736000  0.09378400  0.70652500  1
  Na  Na5  1  0.59378400  0.89736000  0.20652500  1
  V  V6  1  0.68162900  0.68162900  0.68162900  1
  V  V7  1  0.18162900  0.18162900  0.18162900  1
  S  S8  1  0.49985900  0.49985900  0.49985900  1
  S  S9  1  0.99985900  0.99985900  0.99985900  1
  O  O10  1  0.91615500  0.53730400  0.72157400  1
  O  O11  1  0.53730400  0.72157400  0.91615500  1
  O  O12  1  0.72157400  0.91615500  0.53730400  1
  O  O13  1  0.41615500  0.22157400  0.03730400  1
  O  O14  1  0.03730400  0.41615500  0.22157400  1
  O  O15  1  0.22157400  0.03730400  0.41615500  1
