# generated using pymatgen
data_K2NClO3
_symmetry_space_group_name_H-M   'P 1'
_cell_length_a   5.81044900
_cell_length_b   7.72704200
_cell_length_c   10.32134700
_cell_angle_alpha   90.00000000
_cell_angle_beta   90.00000000
_cell_angle_gamma   90.00000000
_symmetry_Int_Tables_number   1
_chemical_formula_structural   K2NClO3
_chemical_formula_sum   'K8 N4 Cl4 O12'
_cell_volume   463.40353837
_cell_formula_units_Z   4
loop_
 _symmetry_equiv_pos_site_id
 _symmetry_equiv_pos_as_xyz
  1  'x, y, z'
loop_
 _atom_site_type_symbol
 _atom_site_label
 _atom_site_symmetry_multiplicity
 _atom_site_fract_x
 _atom_site_fract_y
 _atom_site_fract_z
 _atom_site_occupancy
  K  K0  1  0.25000000  0.99115300  0.30660700  1
  K  K1  1  0.25000000  0.49115300  0.19339300  1
  K  K2  1  0.75000000  0.33644300  0.41167800  1
  K  K3  1  0.25000000  0.16355700  0.91167800  1
  K  K4  1  0.75000000  0.00884700  0.69339300  1
  K  K5  1  0.75000000  0.50884700  0.80660700  1
  K  K6  1  0.25000000  0.66355700  0.58832200  1
  K  K7  1  0.75000000  0.83644300  0.08832200  1
  N  N8  1  0.75000000  0.46219800  0.08781800  1
  N  N9  1  0.25000000  0.03780200  0.58781800  1
  N  N10  1  0.25000000  0.53780200  0.91218200  1
  N  N11  1  0.75000000  0.96219800  0.41218200  1
  Cl  Cl12  1  0.25000000  0.22363600  0.58244100  1
  Cl  Cl13  1  0.25000000  0.72363600  0.91755900  1
  Cl  Cl14  1  0.75000000  0.27636400  0.08244100  1
  Cl  Cl15  1  0.75000000  0.77636400  0.41755900  1
  O  O16  1  0.75000000  0.69521300  0.55456200  1
  O  O17  1  0.45809100  0.81107300  0.85293800  1
  O  O18  1  0.04190900  0.31107300  0.64706200  1
  O  O19  1  0.25000000  0.30478700  0.44543800  1
  O  O20  1  0.54190900  0.18892700  0.14706200  1
  O  O21  1  0.25000000  0.80478700  0.05456200  1
  O  O22  1  0.54190900  0.68892700  0.35293800  1
  O  O23  1  0.95809100  0.18892700  0.14706200  1
  O  O24  1  0.75000000  0.19521300  0.94543800  1
  O  O25  1  0.45809100  0.31107300  0.64706200  1
  O  O26  1  0.95809100  0.68892700  0.35293800  1
  O  O27  1  0.04190900  0.81107300  0.85293800  1
