# generated using pymatgen
data_V9O17
_symmetry_space_group_name_H-M   'P 1'
_cell_length_a   5.56470467
_cell_length_b   7.11667897
_cell_length_c   14.73043698
_cell_angle_alpha   83.70899207
_cell_angle_beta   90.45317811
_cell_angle_gamma   71.76294715
_symmetry_Int_Tables_number   1
_chemical_formula_structural   V9O17
_chemical_formula_sum   'V18 O34'
_cell_volume   550.16883633
_cell_formula_units_Z   2
loop_
 _symmetry_equiv_pos_site_id
 _symmetry_equiv_pos_as_xyz
  1  'x, y, z'
loop_
 _atom_site_type_symbol
 _atom_site_label
 _atom_site_symmetry_multiplicity
 _atom_site_fract_x
 _atom_site_fract_y
 _atom_site_fract_z
 _atom_site_occupancy
  V  V0  1  0.32542100  0.91059900  0.72945700  1
  V  V1  1  0.67404700  0.08901300  0.27026800  1
  V  V2  1  0.74340000  0.10988800  0.84286300  1
  V  V3  1  0.25664900  0.89005800  0.15733900  1
  V  V4  1  0.34201500  0.41111800  0.72597800  1
  V  V5  1  0.65772600  0.58794300  0.27436500  1
  V  V6  1  0.91610400  0.20134000  0.61801500  1
  V  V7  1  0.08425000  0.79827700  0.38189000  1
  V  V8  1  0.24962300  0.38684400  0.16209600  1
  V  V9  1  0.74929600  0.61302900  0.83802900  1
  V  V10  1  0.80966700  0.68610600  0.04466800  1
  V  V11  1  0.19097900  0.31542600  0.95511900  1
  V  V12  1  0.92918000  0.69864900  0.61027600  1
  V  V13  1  0.07141000  0.30069900  0.38978000  1
  V  V14  1  0.80729200  0.18977000  0.04165700  1
  V  V15  1  0.19303000  0.81216300  0.95838300  1
  V  V16  1  0.50082700  0.99964600  0.49989200  1
  V  V17  1  0.50005700  0.49964100  0.50023700  1
  O  O18  1  0.15194500  0.18422400  0.09616200  1
  O  O19  1  0.84818700  0.81694800  0.90430500  1
  O  O20  1  0.97372400  0.06123900  0.75003300  1
  O  O21  1  0.02557300  0.93906500  0.24990300  1
  O  O22  1  0.20212600  0.02134300  0.41935300  1
  O  O23  1  0.79852100  0.97834500  0.58035500  1
  O  O24  1  0.20939200  0.52582600  0.02410400  1
  O  O25  1  0.79148600  0.47492900  0.97553800  1
  O  O26  1  0.70506800  0.97269100  0.39186900  1
  O  O27  1  0.29561100  0.02637400  0.60818300  1
  O  O28  1  0.55003500  0.36966800  0.62812400  1
  O  O29  1  0.45038200  0.62994600  0.37212200  1
  O  O30  1  0.79183400  0.30251500  0.30706900  1
  O  O31  1  0.20821200  0.69674800  0.69311400  1
  O  O32  1  0.62981800  0.39462900  0.80671700  1
  O  O33  1  0.36889200  0.60548700  0.19359300  1
  O  O34  1  0.14672800  0.66730400  0.50895200  1
  O  O35  1  0.85357300  0.33267800  0.49112900  1
  O  O36  1  0.46100700  0.81987500  0.04771400  1
  O  O37  1  0.53902400  0.18191500  0.95237900  1
  O  O38  1  0.03493300  0.11799300  0.93037400  1
  O  O39  1  0.96439500  0.88451200  0.06949200  1
  O  O40  1  0.44886000  0.12255100  0.77198600  1
  O  O41  1  0.55126900  0.87657000  0.22819700  1
  O  O42  1  0.39260100  0.77184500  0.85347800  1
  O  O43  1  0.60644300  0.22684900  0.14658400  1
  O  O44  1  0.03078900  0.42472300  0.65286800  1
  O  O45  1  0.96988300  0.57477000  0.34653900  1
  O  O46  1  0.37603600  0.29098500  0.46650700  1
  O  O47  1  0.62441000  0.70854700  0.53363100  1
  O  O48  1  0.30184600  0.26003500  0.27549600  1
  O  O49  1  0.69852000  0.74028200  0.72494600  1
  O  O50  1  0.11436100  0.45244300  0.83758300  1
  O  O51  1  0.88354200  0.54593300  0.16128600  1
