# generated using pymatgen
data_RbMgF3
_symmetry_space_group_name_H-M   'P 1'
_cell_length_a   6.90687593
_cell_length_b   6.90687593
_cell_length_c   14.35836500
_cell_angle_alpha   90.00000000
_cell_angle_beta   90.00000000
_cell_angle_gamma   119.99999936
_symmetry_Int_Tables_number   1
_chemical_formula_structural   RbMgF3
_chemical_formula_sum   'Rb6 Mg6 F18'
_cell_volume   593.19698309
_cell_formula_units_Z   6
loop_
 _symmetry_equiv_pos_site_id
 _symmetry_equiv_pos_as_xyz
  1  'x, y, z'
loop_
 _atom_site_type_symbol
 _atom_site_label
 _atom_site_symmetry_multiplicity
 _atom_site_fract_x
 _atom_site_fract_y
 _atom_site_fract_z
 _atom_site_occupancy
  Rb  Rb0  1  0.33333300  0.66666700  0.13783700  1
  Rb  Rb1  1  0.33333300  0.66666700  0.36216300  1
  Rb  Rb2  1  0.66666700  0.33333300  0.86216300  1
  Rb  Rb3  1  0.66666700  0.33333300  0.63783700  1
  Rb  Rb4  1  0.00000000  0.00000000  0.25000000  1
  Rb  Rb5  1  0.00000000  0.00000000  0.75000000  1
  Mg  Mg6  1  0.33333300  0.66666700  0.65949500  1
  Mg  Mg7  1  0.66666700  0.33333300  0.15949500  1
  Mg  Mg8  1  0.66666700  0.33333300  0.34050500  1
  Mg  Mg9  1  0.00000000  0.00000000  0.50000000  1
  Mg  Mg10  1  0.33333300  0.66666700  0.84050500  1
  Mg  Mg11  1  0.00000000  0.00000000  0.00000000  1
  F  F12  1  0.54415300  0.45584700  0.25000000  1
  F  F13  1  0.73079000  0.86539500  0.08481200  1
  F  F14  1  0.73079000  0.86539500  0.41518800  1
  F  F15  1  0.26921000  0.13460500  0.91518800  1
  F  F16  1  0.13460500  0.86539500  0.08481200  1
  F  F17  1  0.86539500  0.13460500  0.58481200  1
  F  F18  1  0.45584700  0.91169400  0.75000000  1
  F  F19  1  0.13460500  0.86539500  0.41518800  1
  F  F20  1  0.13460500  0.26921000  0.41518800  1
  F  F21  1  0.54415300  0.08830600  0.25000000  1
  F  F22  1  0.26921000  0.13460500  0.58481200  1
  F  F23  1  0.13460500  0.26921000  0.08481200  1
  F  F24  1  0.86539500  0.13460500  0.91518800  1
  F  F25  1  0.08830600  0.54415300  0.75000000  1
  F  F26  1  0.45584700  0.54415300  0.75000000  1
  F  F27  1  0.91169400  0.45584700  0.25000000  1
  F  F28  1  0.86539500  0.73079000  0.91518800  1
  F  F29  1  0.86539500  0.73079000  0.58481200  1
