# generated using pymatgen
data_YSiNO2
_symmetry_space_group_name_H-M   'P 1'
_cell_length_a   7.08849051
_cell_length_b   7.08849051
_cell_length_c   27.54912700
_cell_angle_alpha   90.00000000
_cell_angle_beta   90.00000000
_cell_angle_gamma   120.00000473
_symmetry_Int_Tables_number   1
_chemical_formula_structural   YSiNO2
_chemical_formula_sum   'Y18 Si18 N18 O36'
_cell_volume   1198.79790767
_cell_formula_units_Z   18
loop_
 _symmetry_equiv_pos_site_id
 _symmetry_equiv_pos_as_xyz
  1  'x, y, z'
loop_
 _atom_site_type_symbol
 _atom_site_label
 _atom_site_symmetry_multiplicity
 _atom_site_fract_x
 _atom_site_fract_y
 _atom_site_fract_z
 _atom_site_occupancy
  Y  Y0  1  0.98860900  0.97721900  0.25000000  1
  Y  Y1  1  0.02278100  0.01139100  0.58333300  1
  Y  Y2  1  0.01139100  0.02278100  0.75000000  1
  Y  Y3  1  0.98860900  0.01139100  0.91666700  1
  Y  Y4  1  0.34143600  0.65856400  0.91666700  1
  Y  Y5  1  0.65856400  0.31712900  0.75000000  1
  Y  Y6  1  0.65856400  0.34143600  0.41666700  1
  Y  Y7  1  0.66089500  0.33910500  0.91666700  1
  Y  Y8  1  0.68287100  0.34143600  0.08333300  1
  Y  Y9  1  0.32179000  0.66089500  0.08333300  1
  Y  Y10  1  0.31712900  0.65856400  0.58333300  1
  Y  Y11  1  0.66089500  0.32179000  0.25000000  1
  Y  Y12  1  0.67821000  0.33910500  0.58333300  1
  Y  Y13  1  0.33910500  0.67821000  0.75000000  1
  Y  Y14  1  0.33910500  0.66089500  0.41666700  1
  Y  Y15  1  0.97721900  0.98860900  0.08333300  1
  Y  Y16  1  0.01139100  0.98860900  0.41666700  1
  Y  Y17  1  0.34143600  0.68287100  0.25000000  1
  Si  Si18  1  0.32844400  0.24562000  0.00189200  1
  Si  Si19  1  0.42680500  0.42680500  0.66666700  1
  Si  Si20  1  0.75438000  0.08282400  0.33522500  1
  Si  Si21  1  0.67155600  0.75438000  0.50189200  1
  Si  Si22  1  0.24562000  0.91717600  0.83522500  1
  Si  Si23  1  0.91717600  0.24562000  0.49810800  1
  Si  Si24  1  0.08282400  0.32844400  0.16855900  1
  Si  Si25  1  0.57319500  0.00000000  0.00000000  1
  Si  Si26  1  0.00000000  0.42680500  0.83333300  1
  Si  Si27  1  0.08282400  0.75438000  0.99810800  1
  Si  Si28  1  0.00000000  0.57319500  0.33333300  1
  Si  Si29  1  0.75438000  0.67155600  0.83144100  1
  Si  Si30  1  0.67155600  0.91717600  0.66477500  1
  Si  Si31  1  0.42680500  0.00000000  0.50000000  1
  Si  Si32  1  0.91717600  0.67155600  0.66855900  1
  Si  Si33  1  0.24562000  0.32844400  0.33144100  1
  Si  Si34  1  0.57319500  0.57319500  0.16666700  1
  Si  Si35  1  0.32844400  0.08282400  0.16477500  1
  N  N36  1  0.43429300  0.76258500  0.50125400  1
  N  N37  1  0.67170800  0.43429300  0.66792000  1
  N  N38  1  0.90898400  0.00000000  0.50000000  1
  N  N39  1  0.09101600  0.00000000  0.00000000  1
  N  N40  1  0.00000000  0.90898400  0.83333300  1
  N  N41  1  0.56570700  0.23741500  0.00125400  1
  N  N42  1  0.32829200  0.56570700  0.16792000  1
  N  N43  1  0.23741500  0.67170800  0.83458700  1
  N  N44  1  0.43429300  0.67170800  0.66541300  1
  N  N45  1  0.90898400  0.90898400  0.66666700  1
  N  N46  1  0.67170800  0.23741500  0.49874600  1
  N  N47  1  0.09101600  0.09101600  0.16666700  1
  N  N48  1  0.56570700  0.32829200  0.16541300  1
  N  N49  1  0.00000000  0.09101600  0.33333300  1
  N  N50  1  0.32829200  0.76258500  0.99874600  1
  N  N51  1  0.76258500  0.32829200  0.33458700  1
  N  N52  1  0.76258500  0.43429300  0.83208000  1
  N  N53  1  0.23741500  0.56570700  0.33208000  1
  O  O54  1  0.03061900  0.36385500  0.55042700  1
  O  O55  1  0.03061900  0.66676400  0.61624000  1
  O  O56  1  0.00182400  0.31140800  0.78137800  1
  O  O57  1  0.69041700  0.68859200  0.21862200  1
  O  O58  1  0.96938100  0.63614500  0.05042700  1
  O  O59  1  0.36385500  0.03061900  0.78290600  1
  O  O60  1  0.68859200  0.69041700  0.11471100  1
  O  O61  1  0.00182400  0.69041700  0.38528900  1
  O  O62  1  0.64171400  0.96609100  0.38761800  1
  O  O63  1  0.30958300  0.99817600  0.44804400  1
  O  O64  1  0.35828600  0.32437800  0.27904800  1
  O  O65  1  0.63614500  0.66676400  0.88376000  1
  O  O66  1  0.03390900  0.35828600  0.44571500  1
  O  O67  1  0.96938100  0.33323600  0.11624000  1
  O  O68  1  0.99817600  0.68859200  0.28137800  1
  O  O69  1  0.31140800  0.00182400  0.55195600  1
  O  O70  1  0.68859200  0.99817600  0.05195600  1
  O  O71  1  0.30958300  0.31140800  0.71862200  1
  O  O72  1  0.03390900  0.67562200  0.72095200  1
  O  O73  1  0.33323600  0.36385500  0.94957300  1
  O  O74  1  0.66676400  0.03061900  0.71709400  1
  O  O75  1  0.63614500  0.96938100  0.28290600  1
  O  O76  1  0.69041700  0.00182400  0.94804400  1
  O  O77  1  0.99817600  0.30958300  0.88528900  1
  O  O78  1  0.67562200  0.64171400  0.55428500  1
  O  O79  1  0.35828600  0.03390900  0.88761800  1
  O  O80  1  0.36385500  0.33323600  0.38376000  1
  O  O81  1  0.64171400  0.67562200  0.77904800  1
  O  O82  1  0.31140800  0.30958300  0.61471100  1
  O  O83  1  0.33323600  0.96938100  0.21709400  1
  O  O84  1  0.96609100  0.32437800  0.22095200  1
  O  O85  1  0.96609100  0.64171400  0.94571500  1
  O  O86  1  0.67562200  0.03390900  0.61238200  1
  O  O87  1  0.32437800  0.35828600  0.05428500  1
  O  O88  1  0.32437800  0.96609100  0.11238200  1
  O  O89  1  0.66676400  0.63614500  0.44957300  1
