# generated using pymatgen
data_Na10U8W5O44
_symmetry_space_group_name_H-M   'P 1'
_cell_length_a   17.29750284
_cell_length_b   17.29750284
_cell_length_c   6.83892504
_cell_angle_alpha   86.59817824
_cell_angle_beta   86.59817824
_cell_angle_gamma   87.28333069
_symmetry_Int_Tables_number   1
_chemical_formula_structural   Na10U8W5O44
_chemical_formula_sum   'Na20 U16 W10 O88'
_cell_volume   2037.04869230
_cell_formula_units_Z   2
loop_
 _symmetry_equiv_pos_site_id
 _symmetry_equiv_pos_as_xyz
  1  'x, y, z'
loop_
 _atom_site_type_symbol
 _atom_site_label
 _atom_site_symmetry_multiplicity
 _atom_site_fract_x
 _atom_site_fract_y
 _atom_site_fract_z
 _atom_site_occupancy
  Na  Na0  1  0.87212100  0.62746600  0.31697400  1
  Na  Na1  1  0.95770600  0.54682200  0.79399000  1
  Na  Na2  1  0.95285600  0.04714400  0.25000000  1
  Na  Na3  1  0.12787900  0.37253400  0.68302600  1
  Na  Na4  1  0.78899600  0.70489500  0.82733800  1
  Na  Na5  1  0.62746600  0.87212100  0.81697400  1
  Na  Na6  1  0.39261100  0.60738900  0.25000000  1
  Na  Na7  1  0.54682200  0.95770600  0.29399000  1
  Na  Na8  1  0.89379600  0.10620400  0.75000000  1
  Na  Na9  1  0.70489500  0.78899600  0.32733800  1
  Na  Na10  1  0.10620400  0.89379600  0.25000000  1
  Na  Na11  1  0.04229400  0.45317800  0.20601000  1
  Na  Na12  1  0.37253400  0.12787900  0.18302600  1
  Na  Na13  1  0.54741600  0.45258400  0.25000000  1
  Na  Na14  1  0.21100400  0.29510500  0.17266200  1
  Na  Na15  1  0.04714400  0.95285600  0.75000000  1
  Na  Na16  1  0.45317800  0.04229400  0.70601000  1
  Na  Na17  1  0.60738900  0.39261100  0.75000000  1
  Na  Na18  1  0.45258400  0.54741600  0.75000000  1
  Na  Na19  1  0.29510500  0.21100400  0.67266200  1
  U  U20  1  0.50213700  0.25067900  0.48418500  1
  U  U21  1  0.59251800  0.66115400  0.04525500  1
  U  U22  1  0.25068700  0.99827800  0.90495800  1
  U  U23  1  0.00172200  0.74931300  0.59504200  1
  U  U24  1  0.99827800  0.25068700  0.40495800  1
  U  U25  1  0.74931300  0.00172200  0.09504200  1
  U  U26  1  0.83859000  0.90632100  0.62633500  1
  U  U27  1  0.66115400  0.59251800  0.54525500  1
  U  U28  1  0.40748200  0.33884600  0.95474500  1
  U  U29  1  0.74932100  0.49786300  0.01581500  1
  U  U30  1  0.90632100  0.83859000  0.12633500  1
  U  U31  1  0.49786300  0.74932100  0.51581500  1
  U  U32  1  0.09367900  0.16141000  0.87366500  1
  U  U33  1  0.16141000  0.09367900  0.37366500  1
  U  U34  1  0.33884600  0.40748200  0.45474500  1
  U  U35  1  0.25067900  0.50213700  0.98418500  1
  W  W36  1  0.66241100  0.06737300  0.62213600  1
  W  W37  1  0.56954100  0.16898800  0.96381900  1
  W  W38  1  0.93262700  0.33758900  0.87786400  1
  W  W39  1  0.43045900  0.83101200  0.03618100  1
  W  W40  1  0.33758900  0.93262700  0.37786400  1
  W  W41  1  0.16898800  0.56954100  0.46381900  1
  W  W42  1  0.83101200  0.43045900  0.53618100  1
  W  W43  1  0.24638400  0.75361600  0.25000000  1
  W  W44  1  0.06737300  0.66241100  0.12213600  1
  W  W45  1  0.75361600  0.24638400  0.75000000  1
  O  O46  1  0.66757800  0.25064300  0.91437900  1
  O  O47  1  0.74263400  0.00016400  0.72328200  1
  O  O48  1  0.67088700  0.93029100  0.12587400  1
  O  O49  1  0.99983600  0.25736600  0.77671800  1
  O  O50  1  0.80574300  0.43115600  0.28045100  1
  O  O51  1  0.65465000  0.09021100  0.93293000  1
  O  O52  1  0.15903900  0.59225100  0.14726400  1
  O  O53  1  0.92812200  0.17218200  0.44294600  1
  O  O54  1  0.59352500  0.68029500  0.36516000  1
  O  O55  1  0.98168100  0.91500800  0.10925400  1
  O  O56  1  0.81420600  0.93552200  0.32002900  1
  O  O57  1  0.06970900  0.32911300  0.37412600  1
  O  O58  1  0.08625700  0.17334100  0.55050300  1
  O  O59  1  0.57001000  0.33119500  0.47557200  1
  O  O60  1  0.06447800  0.18579400  0.17997100  1
  O  O61  1  0.15647600  0.75406100  0.12511900  1
  O  O62  1  0.74935700  0.33242200  0.58562100  1
  O  O63  1  0.68989500  0.06578600  0.35961000  1
  O  O64  1  0.75406100  0.15647600  0.62511900  1
  O  O65  1  0.40774900  0.84096100  0.35273600  1
  O  O66  1  0.24593900  0.84352400  0.37488100  1
  O  O67  1  0.40647500  0.31970500  0.63484000  1
  O  O68  1  0.89771200  0.50702900  0.51397000  1
  O  O69  1  0.51186700  0.25634000  0.85509900  1
  O  O70  1  0.41878500  0.47848000  0.42106600  1
  O  O71  1  0.49297100  0.10228800  0.98603000  1
  O  O72  1  0.93421400  0.31010500  0.14039000  1
  O  O73  1  0.43855000  0.31729600  0.25899100  1
  O  O74  1  0.59225100  0.15903900  0.64726400  1
  O  O75  1  0.68270400  0.56145000  0.24100900  1
  O  O76  1  0.82665900  0.91374300  0.94949700  1
  O  O77  1  0.31729600  0.43855000  0.75899100  1
  O  O78  1  0.76007700  0.83319000  0.64613100  1
  O  O79  1  0.10228800  0.49297100  0.48603000  1
  O  O80  1  0.07187800  0.82781800  0.55705400  1
  O  O81  1  0.17218200  0.92812200  0.94294600  1
  O  O82  1  0.09021100  0.65465000  0.43293000  1
  O  O83  1  0.83047400  0.56683400  0.00022100  1
  O  O84  1  0.33119500  0.57001000  0.97557200  1
  O  O85  1  0.74421800  0.66019700  0.51247500  1
  O  O86  1  0.23992300  0.16681000  0.35386900  1
  O  O87  1  0.84096100  0.40774900  0.85273600  1
  O  O88  1  0.84352400  0.24593900  0.87488100  1
  O  O89  1  0.93552200  0.81420600  0.82002900  1
  O  O90  1  0.31010500  0.93421400  0.64039000  1
  O  O91  1  0.43115600  0.80574300  0.78045100  1
  O  O92  1  0.82781800  0.07187800  0.05705400  1
  O  O93  1  0.93029100  0.67088700  0.62587400  1
  O  O94  1  0.66880500  0.42999000  0.02442800  1
  O  O95  1  0.47848000  0.41878500  0.92106600  1
  O  O96  1  0.90978900  0.34535000  0.56707000  1
  O  O97  1  0.00016400  0.74263400  0.22328200  1
  O  O98  1  0.08499200  0.01831900  0.39074600  1
  O  O99  1  0.06578600  0.68989500  0.85961000  1
  O  O100  1  0.25736600  0.99983600  0.27671800  1
  O  O101  1  0.48813300  0.74366000  0.14490100  1
  O  O102  1  0.32911300  0.06970900  0.87412600  1
  O  O103  1  0.25634000  0.51186700  0.35509900  1
  O  O104  1  0.18579400  0.06447800  0.67997100  1
  O  O105  1  0.58641500  0.99904900  0.63195600  1
  O  O106  1  0.56145000  0.68270400  0.74100900  1
  O  O107  1  0.33980300  0.25578200  0.98752500  1
  O  O108  1  0.01831900  0.08499200  0.89074600  1
  O  O109  1  0.00095100  0.41358500  0.86804400  1
  O  O110  1  0.99904900  0.58641500  0.13195600  1
  O  O111  1  0.19425700  0.56884400  0.71954900  1
  O  O112  1  0.52152000  0.58121500  0.07893400  1
  O  O113  1  0.43316600  0.16952600  0.49977900  1
  O  O114  1  0.16681000  0.23992300  0.85386900  1
  O  O115  1  0.74366000  0.48813300  0.64490100  1
  O  O116  1  0.58121500  0.52152000  0.57893400  1
  O  O117  1  0.16952600  0.43316600  0.99977900  1
  O  O118  1  0.91374300  0.82665900  0.44949700  1
  O  O119  1  0.42999000  0.66880500  0.52442800  1
  O  O120  1  0.68029500  0.59352500  0.86516000  1
  O  O121  1  0.91500800  0.98168100  0.60925400  1
  O  O122  1  0.33242200  0.74935700  0.08562100  1
  O  O123  1  0.56884400  0.19425700  0.21954900  1
  O  O124  1  0.25578200  0.33980300  0.48752500  1
  O  O125  1  0.56683400  0.83047400  0.50022100  1
  O  O126  1  0.83319000  0.76007700  0.14613100  1
  O  O127  1  0.41358500  0.00095100  0.36804400  1
  O  O128  1  0.31970500  0.40647500  0.13484000  1
  O  O129  1  0.25064300  0.66757800  0.41437900  1
  O  O130  1  0.17334100  0.08625700  0.05050300  1
  O  O131  1  0.50702900  0.89771200  0.01397000  1
  O  O132  1  0.34535000  0.90978900  0.06707000  1
  O  O133  1  0.66019700  0.74421800  0.01247500  1
