# generated using pymatgen
data_PS3N5F2
_symmetry_space_group_name_H-M   'P 1'
_cell_length_a   11.52852389
_cell_length_b   11.52852389
_cell_length_c   11.52852400
_cell_angle_alpha   117.55470367
_cell_angle_beta   117.55470367
_cell_angle_gamma   117.55470632
_symmetry_Int_Tables_number   1
_chemical_formula_structural   PS3N5F2
_chemical_formula_sum   'P3 S9 N15 F6'
_cell_volume   612.94765277
_cell_formula_units_Z   3
loop_
 _symmetry_equiv_pos_site_id
 _symmetry_equiv_pos_as_xyz
  1  'x, y, z'
loop_
 _atom_site_type_symbol
 _atom_site_label
 _atom_site_symmetry_multiplicity
 _atom_site_fract_x
 _atom_site_fract_y
 _atom_site_fract_z
 _atom_site_occupancy
  P  P0  1  0.42513600  0.42513600  0.70294700  1
  P  P1  1  0.70294700  0.42513600  0.42513600  1
  P  P2  1  0.42513600  0.70294700  0.42513600  1
  S  S3  1  0.13258100  0.13258100  0.74465100  1
  S  S4  1  0.13258100  0.74465100  0.13258100  1
  S  S5  1  0.00852800  0.60716900  0.46615600  1
  S  S6  1  0.74465100  0.13258100  0.13258100  1
  S  S7  1  0.46615600  0.00852800  0.60716900  1
  S  S8  1  0.00852800  0.46615600  0.60716900  1
  S  S9  1  0.60716900  0.00852800  0.46615600  1
  S  S10  1  0.60716900  0.46615600  0.00852800  1
  S  S11  1  0.46615600  0.60716900  0.00852800  1
  N  N12  1  0.80477900  0.53401000  0.39426600  1
  N  N13  1  0.80477900  0.39426600  0.53401000  1
  N  N14  1  0.67408800  0.17312000  0.67408800  1
  N  N15  1  0.81342200  0.31845900  0.18167600  1
  N  N16  1  0.39426600  0.80477900  0.53401000  1
  N  N17  1  0.18167600  0.31845900  0.81342200  1
  N  N18  1  0.67408800  0.67408800  0.17312000  1
  N  N19  1  0.31845900  0.81342200  0.18167600  1
  N  N20  1  0.53401000  0.39426600  0.80477900  1
  N  N21  1  0.31845900  0.18167600  0.81342200  1
  N  N22  1  0.53401000  0.80477900  0.39426600  1
  N  N23  1  0.18167600  0.81342200  0.31845900  1
  N  N24  1  0.39426600  0.53401000  0.80477900  1
  N  N25  1  0.81342200  0.18167600  0.31845900  1
  N  N26  1  0.17312000  0.67408800  0.67408800  1
  F  F27  1  0.74767100  0.59288800  0.59288800  1
  F  F28  1  0.40132900  0.16913400  0.16913400  1
  F  F29  1  0.59288800  0.59288800  0.74767100  1
  F  F30  1  0.16913400  0.16913400  0.40132900  1
  F  F31  1  0.16913400  0.40132900  0.16913400  1
  F  F32  1  0.59288800  0.74767100  0.59288800  1
