# generated using pymatgen
data_MnC5(O2F)2
_symmetry_space_group_name_H-M   'P 1'
_cell_length_a   10.95932500
_cell_length_b   8.22320200
_cell_length_c   11.88988871
_cell_angle_alpha   46.35297308
_cell_angle_beta   90.00000000
_cell_angle_gamma   90.00000000
_symmetry_Int_Tables_number   1
_chemical_formula_structural   MnC5(O2F)2
_chemical_formula_sum   'Mn4 C20 O16 F8'
_cell_volume   775.36192549
_cell_formula_units_Z   4
loop_
 _symmetry_equiv_pos_site_id
 _symmetry_equiv_pos_as_xyz
  1  'x, y, z'
loop_
 _atom_site_type_symbol
 _atom_site_label
 _atom_site_symmetry_multiplicity
 _atom_site_fract_x
 _atom_site_fract_y
 _atom_site_fract_z
 _atom_site_occupancy
  Mn  Mn0  1  0.41159200  0.36072800  0.60435200  1
  Mn  Mn1  1  0.08840800  0.36072800  0.10435200  1
  Mn  Mn2  1  0.91159200  0.63927200  0.89564800  1
  Mn  Mn3  1  0.58840800  0.63927200  0.39564800  1
  C  C4  1  0.91590500  0.51931900  0.80706700  1
  C  C5  1  0.07898400  0.08096800  0.30218200  1
  C  C6  1  0.89968600  0.32174200  0.11727800  1
  C  C7  1  0.11126700  0.22093900  0.03132300  1
  C  C8  1  0.75553200  0.61822700  0.39831200  1
  C  C9  1  0.42101600  0.08096800  0.80218200  1
  C  C10  1  0.74446800  0.61822700  0.89831200  1
  C  C11  1  0.88873300  0.77906100  0.96867700  1
  C  C12  1  0.10031400  0.67825800  0.88272200  1
  C  C13  1  0.38873300  0.22093900  0.53132300  1
  C  C14  1  0.25553200  0.38177300  0.10168800  1
  C  C15  1  0.08409500  0.48068100  0.19293300  1
  C  C16  1  0.39968600  0.67825800  0.38272200  1
  C  C17  1  0.41590500  0.48068100  0.69293300  1
  C  C18  1  0.24446800  0.38177300  0.60168800  1
  C  C19  1  0.61126700  0.77906100  0.46867700  1
  C  C20  1  0.58409500  0.51931900  0.30706700  1
  C  C21  1  0.92101600  0.91903200  0.69781800  1
  C  C22  1  0.60031400  0.32174200  0.61727800  1
  C  C23  1  0.57898400  0.91903200  0.19781800  1
  O  O24  1  0.86527500  0.87347300  0.00562400  1
  O  O25  1  0.58942100  0.45638200  0.24552400  1
  O  O26  1  0.57074600  0.09410600  0.07255100  1
  O  O27  1  0.42925400  0.90589400  0.92744900  1
  O  O28  1  0.13472500  0.12652700  0.99437600  1
  O  O29  1  0.92925400  0.09410600  0.57255100  1
  O  O30  1  0.63472500  0.87347300  0.50562400  1
  O  O31  1  0.08942100  0.54361800  0.25447600  1
  O  O32  1  0.86070400  0.60488800  0.40070500  1
  O  O33  1  0.07074600  0.90589400  0.42744900  1
  O  O34  1  0.36527500  0.12652700  0.49437600  1
  O  O35  1  0.91057900  0.45638200  0.74552400  1
  O  O36  1  0.63929600  0.60488800  0.90070500  1
  O  O37  1  0.41057900  0.54361800  0.75447600  1
  O  O38  1  0.13929600  0.39511200  0.59929500  1
  O  O39  1  0.36070400  0.39511200  0.09929500  1
  F  F40  1  0.66119700  0.29786100  0.72894200  1
  F  F41  1  0.35416900  0.84931200  0.36681800  1
  F  F42  1  0.16119700  0.70213900  0.77105800  1
  F  F43  1  0.85416900  0.15068800  0.13318200  1
  F  F44  1  0.33880300  0.70213900  0.27105800  1
  F  F45  1  0.14583100  0.84931200  0.86681800  1
  F  F46  1  0.83880300  0.29786100  0.22894200  1
  F  F47  1  0.64583100  0.15068800  0.63318200  1
