# generated using pymatgen
data_Yb4Ge3(O3F2)3
_symmetry_space_group_name_H-M   'P 1'
_cell_length_a   9.37337054
_cell_length_b   9.37337054
_cell_length_c   7.09978100
_cell_angle_alpha   90.00000000
_cell_angle_beta   90.00000000
_cell_angle_gamma   108.62254947
_symmetry_Int_Tables_number   1
_chemical_formula_structural   Yb4Ge3(O3F2)3
_chemical_formula_sum   'Yb8 Ge6 O18 F12'
_cell_volume   591.12754039
_cell_formula_units_Z   2
loop_
 _symmetry_equiv_pos_site_id
 _symmetry_equiv_pos_as_xyz
  1  'x, y, z'
loop_
 _atom_site_type_symbol
 _atom_site_label
 _atom_site_symmetry_multiplicity
 _atom_site_fract_x
 _atom_site_fract_y
 _atom_site_fract_z
 _atom_site_occupancy
  Yb  Yb0  1  0.91110800  0.18001700  0.25000000  1
  Yb  Yb1  1  0.85004600  0.60606200  0.25000000  1
  Yb  Yb2  1  0.39393800  0.14995400  0.75000000  1
  Yb  Yb3  1  0.60606200  0.85004600  0.25000000  1
  Yb  Yb4  1  0.81998300  0.08889200  0.75000000  1
  Yb  Yb5  1  0.18001700  0.91110800  0.25000000  1
  Yb  Yb6  1  0.14995400  0.39393800  0.75000000  1
  Yb  Yb7  1  0.08889200  0.81998300  0.75000000  1
  Ge  Ge8  1  0.76819600  0.46548600  0.75000000  1
  Ge  Ge9  1  0.46548600  0.76819600  0.75000000  1
  Ge  Ge10  1  0.50000000  0.50000000  0.50000000  1
  Ge  Ge11  1  0.53451400  0.23180400  0.25000000  1
  Ge  Ge12  1  0.50000000  0.50000000  0.00000000  1
  Ge  Ge13  1  0.23180400  0.53451400  0.25000000  1
  O  O14  1  0.55794600  0.55794600  0.25000000  1
  O  O15  1  0.03161000  0.45556500  0.25000000  1
  O  O16  1  0.71096700  0.53578800  0.54046600  1
  O  O17  1  0.45556500  0.03161000  0.25000000  1
  O  O18  1  0.53578800  0.71096700  0.54046600  1
  O  O19  1  0.67662500  0.26853400  0.75000000  1
  O  O20  1  0.54443500  0.96839000  0.75000000  1
  O  O21  1  0.46421200  0.28903300  0.45953400  1
  O  O22  1  0.46421200  0.28903300  0.04046600  1
  O  O23  1  0.44205400  0.44205400  0.75000000  1
  O  O24  1  0.73146600  0.32337500  0.25000000  1
  O  O25  1  0.26853400  0.67662500  0.75000000  1
  O  O26  1  0.32337500  0.73146600  0.25000000  1
  O  O27  1  0.96839000  0.54443500  0.75000000  1
  O  O28  1  0.28903300  0.46421200  0.45953400  1
  O  O29  1  0.71096700  0.53578800  0.95953400  1
  O  O30  1  0.28903300  0.46421200  0.04046600  1
  O  O31  1  0.53578800  0.71096700  0.95953400  1
  F  F32  1  0.17292000  0.17292000  0.75000000  1
  F  F33  1  0.27507300  0.96269500  0.94969300  1
  F  F34  1  0.82708000  0.82708000  0.25000000  1
  F  F35  1  0.03730500  0.72492700  0.44969300  1
  F  F36  1  0.03730500  0.72492700  0.05030700  1
  F  F37  1  0.96269500  0.27507300  0.94969300  1
  F  F38  1  0.27507300  0.96269500  0.55030700  1
  F  F39  1  0.96269500  0.27507300  0.55030700  1
  F  F40  1  0.72492700  0.03730500  0.44969300  1
  F  F41  1  0.89662400  0.89662400  0.75000000  1
  F  F42  1  0.10337600  0.10337600  0.25000000  1
  F  F43  1  0.72492700  0.03730500  0.05030700  1
