# generated using pymatgen
data_Fe(SbO2)2
_symmetry_space_group_name_H-M   'P 1'
_cell_length_a   8.80255400
_cell_length_b   5.87809200
_cell_length_c   8.76092153
_cell_angle_alpha   88.30695915
_cell_angle_beta   90.00000000
_cell_angle_gamma   90.00000000
_symmetry_Int_Tables_number   1
_chemical_formula_structural   Fe(SbO2)2
_chemical_formula_sum   'Fe4 Sb8 O16'
_cell_volume   453.11165921
_cell_formula_units_Z   4
loop_
 _symmetry_equiv_pos_site_id
 _symmetry_equiv_pos_as_xyz
  1  'x, y, z'
loop_
 _atom_site_type_symbol
 _atom_site_label
 _atom_site_symmetry_multiplicity
 _atom_site_fract_x
 _atom_site_fract_y
 _atom_site_fract_z
 _atom_site_occupancy
  Fe  Fe0  1  0.99948900  0.22703300  0.50262700  1
  Fe  Fe1  1  0.49948900  0.77296700  0.99737300  1
  Fe  Fe2  1  0.50051100  0.22703300  0.00262700  1
  Fe  Fe3  1  0.00051100  0.77296700  0.49737300  1
  Sb  Sb4  1  0.32788500  0.98270400  0.33455100  1
  Sb  Sb5  1  0.82788500  0.01729600  0.16544900  1
  Sb  Sb6  1  0.83158500  0.51205000  0.81929300  1
  Sb  Sb7  1  0.33158500  0.48795000  0.68070700  1
  Sb  Sb8  1  0.17211500  0.98270400  0.83455100  1
  Sb  Sb9  1  0.66841500  0.51205000  0.31929300  1
  Sb  Sb10  1  0.67211500  0.01729600  0.66544900  1
  Sb  Sb11  1  0.16841500  0.48795000  0.18070700  1
  O  O12  1  0.35988700  0.50308700  0.90251400  1
  O  O13  1  0.68414800  0.24436600  0.83316500  1
  O  O14  1  0.10478000  0.01265800  0.34801700  1
  O  O15  1  0.16095600  0.25401900  0.68877200  1
  O  O16  1  0.14011300  0.50308700  0.40251400  1
  O  O17  1  0.89522000  0.98734200  0.65198300  1
  O  O18  1  0.81585200  0.24436600  0.33316500  1
  O  O19  1  0.66095600  0.74598100  0.81122800  1
  O  O20  1  0.33904400  0.25401900  0.18877200  1
  O  O21  1  0.60478000  0.98734200  0.15198300  1
  O  O22  1  0.83904400  0.74598100  0.31122800  1
  O  O23  1  0.39522000  0.01265800  0.84801700  1
  O  O24  1  0.64011300  0.49691300  0.09748600  1
  O  O25  1  0.31585200  0.75563400  0.16683500  1
  O  O26  1  0.85988700  0.49691300  0.59748600  1
  O  O27  1  0.18414800  0.75563400  0.66683500  1
