# generated using pymatgen
data_KBC4NF9
_symmetry_space_group_name_H-M   'P 1'
_cell_length_a   9.48766600
_cell_length_b   9.77400400
_cell_length_c   10.69366100
_cell_angle_alpha   90.00000000
_cell_angle_beta   90.00000000
_cell_angle_gamma   90.00000000
_symmetry_Int_Tables_number   1
_chemical_formula_structural   KBC4NF9
_chemical_formula_sum   'K4 B4 C16 N4 F36'
_cell_volume   991.64976293
_cell_formula_units_Z   4
loop_
 _symmetry_equiv_pos_site_id
 _symmetry_equiv_pos_as_xyz
  1  'x, y, z'
loop_
 _atom_site_type_symbol
 _atom_site_label
 _atom_site_symmetry_multiplicity
 _atom_site_fract_x
 _atom_site_fract_y
 _atom_site_fract_z
 _atom_site_occupancy
  K  K0  1  0.49107400  0.72285400  0.25000000  1
  K  K1  1  0.50892600  0.27714600  0.75000000  1
  K  K2  1  0.00892600  0.22285400  0.25000000  1
  K  K3  1  0.99107400  0.77714600  0.75000000  1
  B  B4  1  0.97966300  0.21582500  0.75000000  1
  B  B5  1  0.02033700  0.78417500  0.25000000  1
  B  B6  1  0.52033700  0.71582500  0.75000000  1
  B  B7  1  0.47966300  0.28417500  0.25000000  1
  C  C8  1  0.98499900  0.37678000  0.75000000  1
  C  C9  1  0.60498400  0.66505500  0.87589800  1
  C  C10  1  0.64184400  0.34355800  0.25000000  1
  C  C11  1  0.10498400  0.83494500  0.12410200  1
  C  C12  1  0.89501600  0.16505500  0.62410200  1
  C  C13  1  0.10498400  0.83494500  0.37589800  1
  C  C14  1  0.39501600  0.33494500  0.12410200  1
  C  C15  1  0.85815600  0.84355800  0.25000000  1
  C  C16  1  0.01500100  0.62322000  0.25000000  1
  C  C17  1  0.48499900  0.12322000  0.25000000  1
  C  C18  1  0.39501600  0.33494500  0.37589800  1
  C  C19  1  0.14184400  0.15644200  0.75000000  1
  C  C20  1  0.89501600  0.16505500  0.87589800  1
  C  C21  1  0.60498400  0.66505500  0.62410200  1
  C  C22  1  0.51500100  0.87678000  0.75000000  1
  C  C23  1  0.35815600  0.65644200  0.75000000  1
  N  N24  1  0.98802600  0.49591400  0.75000000  1
  N  N25  1  0.48802600  0.00408600  0.25000000  1
  N  N26  1  0.51197400  0.99591400  0.75000000  1
  N  N27  1  0.01197400  0.50408600  0.25000000  1
  F  F28  1  0.28048400  0.69719400  0.64784700  1
  F  F29  1  0.04049200  0.79405400  0.01464000  1
  F  F30  1  0.88078400  0.02499500  0.88561800  1
  F  F31  1  0.74045600  0.71610900  0.88334600  1
  F  F32  1  0.25954400  0.28389100  0.11665400  1
  F  F33  1  0.75954400  0.21610900  0.88334600  1
  F  F34  1  0.45950800  0.29405400  0.01464000  1
  F  F35  1  0.78048400  0.80280600  0.35215300  1
  F  F36  1  0.25954400  0.28389100  0.38334600  1
  F  F37  1  0.54049200  0.70594600  0.51464000  1
  F  F38  1  0.04049200  0.79405400  0.48536000  1
  F  F39  1  0.61921600  0.52499500  0.88561800  1
  F  F40  1  0.85070000  0.98544100  0.25000000  1
  F  F41  1  0.95950800  0.20594600  0.98536000  1
  F  F42  1  0.64930000  0.48544100  0.25000000  1
  F  F43  1  0.21951600  0.19719400  0.64784700  1
  F  F44  1  0.38078400  0.47500500  0.38561800  1
  F  F45  1  0.24045600  0.78389100  0.38334600  1
  F  F46  1  0.38078400  0.47500500  0.11438200  1
  F  F47  1  0.45950800  0.29405400  0.48536000  1
  F  F48  1  0.11921600  0.97500500  0.11438200  1
  F  F49  1  0.95950800  0.20594600  0.51464000  1
  F  F50  1  0.54049200  0.70594600  0.98536000  1
  F  F51  1  0.71951600  0.30280600  0.14784700  1
  F  F52  1  0.61921600  0.52499500  0.61438200  1
  F  F53  1  0.24045600  0.78389100  0.11665400  1
  F  F54  1  0.14930000  0.01455900  0.75000000  1
  F  F55  1  0.21951600  0.19719400  0.85215300  1
  F  F56  1  0.71951600  0.30280600  0.35215300  1
  F  F57  1  0.88078400  0.02499500  0.61438200  1
  F  F58  1  0.75954400  0.21610900  0.61665400  1
  F  F59  1  0.74045600  0.71610900  0.61665400  1
  F  F60  1  0.11921600  0.97500500  0.38561800  1
  F  F61  1  0.78048400  0.80280600  0.14784700  1
  F  F62  1  0.35070000  0.51455900  0.75000000  1
  F  F63  1  0.28048400  0.69719400  0.85215300  1
