# generated using pymatgen
data_V2P2O9
_symmetry_space_group_name_H-M   'P 1'
_cell_length_a   7.63172000
_cell_length_b   9.74528200
_cell_length_c   16.98002200
_cell_angle_alpha   90.00000000
_cell_angle_beta   90.00000000
_cell_angle_gamma   90.00000000
_symmetry_Int_Tables_number   1
_chemical_formula_structural   V2P2O9
_chemical_formula_sum   'V16 P16 O72'
_cell_volume   1262.85965121
_cell_formula_units_Z   8
loop_
 _symmetry_equiv_pos_site_id
 _symmetry_equiv_pos_as_xyz
  1  'x, y, z'
loop_
 _atom_site_type_symbol
 _atom_site_label
 _atom_site_symmetry_multiplicity
 _atom_site_fract_x
 _atom_site_fract_y
 _atom_site_fract_z
 _atom_site_occupancy
  V  V0  1  0.71441400  0.49915700  0.42860600  1
  V  V1  1  0.71242800  0.99374400  0.67820000  1
  V  V2  1  0.21592500  0.50105000  0.11993300  1
  V  V3  1  0.21534100  0.99895400  0.37034200  1
  V  V4  1  0.71592500  0.49895000  0.11993300  1
  V  V5  1  0.28465900  0.99895400  0.87034200  1
  V  V6  1  0.28407500  0.50105000  0.61993300  1
  V  V7  1  0.78558600  0.49915700  0.92860600  1
  V  V8  1  0.78465900  0.00104600  0.87034200  1
  V  V9  1  0.21441400  0.50084300  0.42860600  1
  V  V10  1  0.78757200  0.99374400  0.17820000  1
  V  V11  1  0.28558600  0.50084300  0.92860600  1
  V  V12  1  0.71534100  0.00104600  0.37034200  1
  V  V13  1  0.21242800  0.00625600  0.67820000  1
  V  V14  1  0.78407500  0.49895000  0.61993300  1
  V  V15  1  0.28757200  0.00625600  0.17820000  1
  P  P16  1  0.30477200  0.79371100  0.01973100  1
  P  P17  1  0.29240800  0.70724200  0.27470200  1
  P  P18  1  0.20054700  0.29833200  0.27409300  1
  P  P19  1  0.20759200  0.70724200  0.77470200  1
  P  P20  1  0.20426000  0.20994600  0.01889700  1
  P  P21  1  0.80477200  0.20628900  0.01973100  1
  P  P22  1  0.70426000  0.79005400  0.01889700  1
  P  P23  1  0.29945300  0.29833200  0.77409300  1
  P  P24  1  0.79574000  0.79005400  0.51889700  1
  P  P25  1  0.29574000  0.20994600  0.51889700  1
  P  P26  1  0.79240800  0.29275800  0.27470200  1
  P  P27  1  0.79945300  0.70166800  0.77409300  1
  P  P28  1  0.19522800  0.79371100  0.51973100  1
  P  P29  1  0.70759200  0.29275800  0.77470200  1
  P  P30  1  0.69522800  0.20628900  0.51973100  1
  P  P31  1  0.70054700  0.70166800  0.27409300  1
  O  O32  1  0.00213300  0.51542200  0.61549800  1
  O  O33  1  0.99573100  0.78979700  0.49253200  1
  O  O34  1  0.28905200  0.85711700  0.10026300  1
  O  O35  1  0.00370000  0.51226300  0.93239900  1
  O  O36  1  0.28913200  0.86837900  0.45363900  1
  O  O37  1  0.22493300  0.86762900  0.77402100  1
  O  O38  1  0.72668800  0.63949000  0.84894400  1
  O  O39  1  0.49573100  0.21020300  0.49253200  1
  O  O40  1  0.72754100  0.86116600  0.27408000  1
  O  O41  1  0.25188000  0.63897900  0.52343600  1
  O  O42  1  0.49646600  0.97119200  0.68275900  1
  O  O43  1  0.78275400  0.35340600  0.70033300  1
  O  O44  1  0.21840900  0.65164000  0.35072500  1
  O  O45  1  0.77317700  0.64050900  0.19894400  1
  O  O46  1  0.49597100  0.67272900  0.27433400  1
  O  O47  1  0.71724600  0.35340600  0.20033300  1
  O  O48  1  0.28198900  0.14185200  0.59837100  1
  O  O49  1  0.49786700  0.51542200  0.11549800  1
  O  O50  1  0.78905200  0.14288300  0.10026300  1
  O  O51  1  0.22754100  0.13883400  0.27408000  1
  O  O52  1  0.21086800  0.86837900  0.95363900  1
  O  O53  1  0.21724600  0.64659400  0.20033300  1
  O  O54  1  0.30272200  0.14377300  0.95168700  1
  O  O55  1  0.28275400  0.64659400  0.70033300  1
  O  O56  1  0.21801100  0.14185200  0.09837100  1
  O  O57  1  0.71094800  0.14288300  0.60026300  1
  O  O58  1  0.49980000  0.02816100  0.36458900  1
  O  O59  1  0.00426900  0.21020300  0.99253200  1
  O  O60  1  0.77245900  0.86116600  0.77408000  1
  O  O61  1  0.50370000  0.48773700  0.93239900  1
  O  O62  1  0.99980000  0.97183900  0.36458900  1
  O  O63  1  0.25534700  0.36535900  0.02476100  1
  O  O64  1  0.99646600  0.02880800  0.68275900  1
  O  O65  1  0.78913200  0.13162100  0.45363900  1
  O  O66  1  0.72493300  0.13237100  0.77402100  1
  O  O67  1  0.28159100  0.65164000  0.85072500  1
  O  O68  1  0.49630000  0.51226300  0.43239900  1
  O  O69  1  0.74465300  0.63464100  0.52476100  1
  O  O70  1  0.80272200  0.85622700  0.95168700  1
  O  O71  1  0.00353400  0.97119200  0.18275900  1
  O  O72  1  0.27331200  0.36051000  0.34894400  1
  O  O73  1  0.50402900  0.32727100  0.77433400  1
  O  O74  1  0.19727800  0.14377300  0.45168700  1
  O  O75  1  0.50353400  0.02880800  0.18275900  1
  O  O76  1  0.50426900  0.78979700  0.99253200  1
  O  O77  1  0.24465300  0.36535900  0.52476100  1
  O  O78  1  0.71086800  0.13162100  0.95363900  1
  O  O79  1  0.50213300  0.48457800  0.61549800  1
  O  O80  1  0.78198900  0.85814800  0.59837100  1
  O  O81  1  0.77331200  0.63949000  0.34894400  1
  O  O82  1  0.27506700  0.86762900  0.27402100  1
  O  O83  1  0.22668800  0.36051000  0.84894400  1
  O  O84  1  0.27245900  0.13883400  0.77408000  1
  O  O85  1  0.22682300  0.35949100  0.69894400  1
  O  O86  1  0.27317700  0.35949100  0.19894400  1
  O  O87  1  0.99597100  0.32727100  0.27433400  1
  O  O88  1  0.00402900  0.67272900  0.77433400  1
  O  O89  1  0.71801100  0.85814800  0.09837100  1
  O  O90  1  0.71840900  0.34836000  0.35072500  1
  O  O91  1  0.99786700  0.48457800  0.11549800  1
  O  O92  1  0.72682300  0.64050900  0.69894400  1
  O  O93  1  0.75188000  0.36102100  0.52343600  1
  O  O94  1  0.78159100  0.34836000  0.85072500  1
  O  O95  1  0.50020000  0.97183900  0.86458900  1
  O  O96  1  0.69727800  0.85622700  0.45168700  1
  O  O97  1  0.74812000  0.36102100  0.02343600  1
  O  O98  1  0.99630000  0.48773700  0.43239900  1
  O  O99  1  0.24812000  0.63897900  0.02343600  1
  O  O100  1  0.77506700  0.13237100  0.27402100  1
  O  O101  1  0.75534700  0.63464100  0.02476100  1
  O  O102  1  0.21094800  0.85711700  0.60026300  1
  O  O103  1  0.00020000  0.02816100  0.86458900  1
