# generated using pymatgen
data_KBCF6
_symmetry_space_group_name_H-M   'P 1'
_cell_length_a   16.58957900
_cell_length_b   4.91412900
_cell_length_c   6.43816733
_cell_angle_alpha   78.01259395
_cell_angle_beta   90.00000000
_cell_angle_gamma   90.00000000
_symmetry_Int_Tables_number   1
_chemical_formula_structural   KBCF6
_chemical_formula_sum   'K4 B4 C4 F24'
_cell_volume   513.41535297
_cell_formula_units_Z   4
loop_
 _symmetry_equiv_pos_site_id
 _symmetry_equiv_pos_as_xyz
  1  'x, y, z'
loop_
 _atom_site_type_symbol
 _atom_site_label
 _atom_site_symmetry_multiplicity
 _atom_site_fract_x
 _atom_site_fract_y
 _atom_site_fract_z
 _atom_site_occupancy
  K  K0  1  0.65516300  0.18050000  0.27992000  1
  K  K1  1  0.15516300  0.81950000  0.22008000  1
  K  K2  1  0.34483700  0.81950000  0.72008000  1
  K  K3  1  0.84483700  0.18050000  0.77992000  1
  B  B4  1  0.33891600  0.28563100  0.15246700  1
  B  B5  1  0.66108400  0.71436900  0.84753300  1
  B  B6  1  0.16108400  0.28563100  0.65246700  1
  B  B7  1  0.83891600  0.71436900  0.34753300  1
  C  C8  1  0.58227300  0.61406800  0.72655100  1
  C  C9  1  0.41772700  0.38593200  0.27344900  1
  C  C10  1  0.91772700  0.61406800  0.22655100  1
  C  C11  1  0.08227300  0.38593200  0.77344900  1
  F  F12  1  0.40010200  0.41379100  0.48014900  1
  F  F13  1  0.59989800  0.58620900  0.51985100  1
  F  F14  1  0.28169200  0.50604700  0.10968200  1
  F  F15  1  0.09989800  0.41379100  0.98014900  1
  F  F16  1  0.48122200  0.19903100  0.29695500  1
  F  F17  1  0.55101400  0.36324100  0.82689600  1
  F  F18  1  0.94898600  0.36324100  0.32689600  1
  F  F19  1  0.71830800  0.49395300  0.89031800  1
  F  F20  1  0.19610700  0.04775300  0.78527000  1
  F  F21  1  0.36355200  0.22422900  0.95628900  1
  F  F22  1  0.86355200  0.77577100  0.54371100  1
  F  F23  1  0.44898600  0.63675900  0.17310400  1
  F  F24  1  0.80389300  0.95224700  0.21473000  1
  F  F25  1  0.01877800  0.19903100  0.79695500  1
  F  F26  1  0.63644800  0.77577100  0.04371100  1
  F  F27  1  0.90010200  0.58620900  0.01985100  1
  F  F28  1  0.13644800  0.22422900  0.45628900  1
  F  F29  1  0.78169200  0.49395300  0.39031800  1
  F  F30  1  0.69610700  0.95224700  0.71473000  1
  F  F31  1  0.30389300  0.04775300  0.28527000  1
  F  F32  1  0.51877800  0.80096900  0.70304500  1
  F  F33  1  0.05101400  0.63675900  0.67310400  1
  F  F34  1  0.21830800  0.50604700  0.60968200  1
  F  F35  1  0.98122200  0.80096900  0.20304500  1
