# generated using pymatgen
data_CeTl5Ni2(NO2)12
_symmetry_space_group_name_H-M   'P 1'
_cell_length_a   10.93336200
_cell_length_b   10.93336200
_cell_length_c   10.93336200
_cell_angle_alpha   90.00000000
_cell_angle_beta   90.00000000
_cell_angle_gamma   90.00000000
_symmetry_Int_Tables_number   1
_chemical_formula_structural   CeTl5Ni2(NO2)12
_chemical_formula_sum   'Ce2 Tl10 Ni4 N24 O48'
_cell_volume   1306.95665065
_cell_formula_units_Z   2
loop_
 _symmetry_equiv_pos_site_id
 _symmetry_equiv_pos_as_xyz
  1  'x, y, z'
loop_
 _atom_site_type_symbol
 _atom_site_label
 _atom_site_symmetry_multiplicity
 _atom_site_fract_x
 _atom_site_fract_y
 _atom_site_fract_z
 _atom_site_occupancy
  Ce  Ce0  1  0.00000000  0.00000000  0.00000000  1
  Ce  Ce1  1  0.50000000  0.50000000  0.50000000  1
  Tl  Tl2  1  0.25000000  0.25000000  0.75000000  1
  Tl  Tl3  1  0.25000000  0.75000000  0.25000000  1
  Tl  Tl4  1  0.00000000  0.50000000  0.50000000  1
  Tl  Tl5  1  0.50000000  0.00000000  0.00000000  1
  Tl  Tl6  1  0.50000000  0.00000000  0.50000000  1
  Tl  Tl7  1  0.75000000  0.75000000  0.75000000  1
  Tl  Tl8  1  0.50000000  0.50000000  0.00000000  1
  Tl  Tl9  1  0.00000000  0.50000000  0.00000000  1
  Tl  Tl10  1  0.75000000  0.25000000  0.25000000  1
  Tl  Tl11  1  0.00000000  0.00000000  0.50000000  1
  Ni  Ni12  1  0.75000000  0.75000000  0.25000000  1
  Ni  Ni13  1  0.25000000  0.75000000  0.75000000  1
  Ni  Ni14  1  0.75000000  0.25000000  0.75000000  1
  Ni  Ni15  1  0.25000000  0.25000000  0.25000000  1
  N  N16  1  0.25500100  0.25939700  0.44191900  1
  N  N17  1  0.55808100  0.74499900  0.25939700  1
  N  N18  1  0.44191900  0.74499900  0.74060300  1
  N  N19  1  0.25939700  0.55808100  0.74499900  1
  N  N20  1  0.74499900  0.74060300  0.44191900  1
  N  N21  1  0.75939700  0.05808100  0.75500100  1
  N  N22  1  0.05808100  0.75500100  0.75939700  1
  N  N23  1  0.55808100  0.25500100  0.74060300  1
  N  N24  1  0.25939700  0.44191900  0.25500100  1
  N  N25  1  0.75500100  0.24060300  0.94191900  1
  N  N26  1  0.74060300  0.55808100  0.25500100  1
  N  N27  1  0.24499900  0.24060300  0.05808100  1
  N  N28  1  0.25500100  0.74060300  0.55808100  1
  N  N29  1  0.75939700  0.94191900  0.24499900  1
  N  N30  1  0.44191900  0.25500100  0.25939700  1
  N  N31  1  0.24060300  0.94191900  0.75500100  1
  N  N32  1  0.24060300  0.05808100  0.24499900  1
  N  N33  1  0.94191900  0.75500100  0.24060300  1
  N  N34  1  0.74060300  0.44191900  0.74499900  1
  N  N35  1  0.74499900  0.25939700  0.55808100  1
  N  N36  1  0.24499900  0.75939700  0.94191900  1
  N  N37  1  0.75500100  0.75939700  0.05808100  1
  N  N38  1  0.94191900  0.24499900  0.75939700  1
  N  N39  1  0.05808100  0.24499900  0.24060300  1
  O  O40  1  0.25504200  0.99990300  0.65710900  1
  O  O41  1  0.75504200  0.49990300  0.84289100  1
  O  O42  1  0.15710900  0.75504200  0.50009700  1
  O  O43  1  0.00009700  0.34289100  0.25504200  1
  O  O44  1  0.65710900  0.25504200  0.99990300  1
  O  O45  1  0.00210400  0.84966600  0.20982700  1
  O  O46  1  0.15033400  0.20982700  0.99789600  1
  O  O47  1  0.70982700  0.49789600  0.34966600  1
  O  O48  1  0.34289100  0.74495800  0.99990300  1
  O  O49  1  0.79017300  0.00210400  0.15033400  1
  O  O50  1  0.84289100  0.75504200  0.49990300  1
  O  O51  1  0.15033400  0.79017300  0.00210400  1
  O  O52  1  0.50009700  0.15710900  0.75504200  1
  O  O53  1  0.65033400  0.70982700  0.50210400  1
  O  O54  1  0.79017300  0.99789600  0.84966600  1
  O  O55  1  0.65710900  0.74495800  0.00009700  1
  O  O56  1  0.65033400  0.29017300  0.49789600  1
  O  O57  1  0.99990300  0.65710900  0.25504200  1
  O  O58  1  0.84289100  0.24495800  0.50009700  1
  O  O59  1  0.84966600  0.79017300  0.99789600  1
  O  O60  1  0.29017300  0.49789600  0.65033400  1
  O  O61  1  0.99990300  0.34289100  0.74495800  1
  O  O62  1  0.00210400  0.15033400  0.79017300  1
  O  O63  1  0.50009700  0.84289100  0.24495800  1
  O  O64  1  0.75504200  0.50009700  0.15710900  1
  O  O65  1  0.99789600  0.15033400  0.20982700  1
  O  O66  1  0.15710900  0.24495800  0.49990300  1
  O  O67  1  0.74495800  0.99990300  0.34289100  1
  O  O68  1  0.34289100  0.25504200  0.00009700  1
  O  O69  1  0.29017300  0.50210400  0.34966600  1
  O  O70  1  0.49789600  0.34966600  0.70982700  1
  O  O71  1  0.34966600  0.70982700  0.49789600  1
  O  O72  1  0.00009700  0.65710900  0.74495800  1
  O  O73  1  0.50210400  0.65033400  0.70982700  1
  O  O74  1  0.49990300  0.84289100  0.75504200  1
  O  O75  1  0.25504200  0.00009700  0.34289100  1
  O  O76  1  0.49789600  0.65033400  0.29017300  1
  O  O77  1  0.49990300  0.15710900  0.24495800  1
  O  O78  1  0.74495800  0.00009700  0.65710900  1
  O  O79  1  0.24495800  0.50009700  0.84289100  1
  O  O80  1  0.84966600  0.20982700  0.00210400  1
  O  O81  1  0.99789600  0.84966600  0.79017300  1
  O  O82  1  0.20982700  0.99789600  0.15033400  1
  O  O83  1  0.34966600  0.29017300  0.50210400  1
  O  O84  1  0.24495800  0.49990300  0.15710900  1
  O  O85  1  0.70982700  0.50210400  0.65033400  1
  O  O86  1  0.50210400  0.34966600  0.29017300  1
  O  O87  1  0.20982700  0.00210400  0.84966600  1
