# generated using pymatgen
data_UOF4
_symmetry_space_group_name_H-M   'P 1'
_cell_length_a   8.03099111
_cell_length_b   8.03099111
_cell_length_c   8.03099147
_cell_angle_alpha   114.43791264
_cell_angle_beta   114.43791264
_cell_angle_gamma   114.43791523
_symmetry_Int_Tables_number   1
_chemical_formula_structural   UOF4
_chemical_formula_sum   'U3 O3 F12'
_cell_volume   304.20738277
_cell_formula_units_Z   3
loop_
 _symmetry_equiv_pos_site_id
 _symmetry_equiv_pos_as_xyz
  1  'x, y, z'
loop_
 _atom_site_type_symbol
 _atom_site_label
 _atom_site_symmetry_multiplicity
 _atom_site_fract_x
 _atom_site_fract_y
 _atom_site_fract_z
 _atom_site_occupancy
  U  U0  1  0.27266500  0.85539900  0.85539900  1
  U  U1  1  0.85539900  0.27266500  0.85539900  1
  U  U2  1  0.85539900  0.85539900  0.27266500  1
  O  O3  1  0.59836400  0.19365000  0.59836400  1
  O  O4  1  0.59836400  0.59836400  0.19365000  1
  O  O5  1  0.19365000  0.59836400  0.59836400  1
  F  F6  1  0.15199500  0.95367100  0.62358500  1
  F  F7  1  0.95367100  0.62358500  0.15199500  1
  F  F8  1  0.62358500  0.15199500  0.95367100  1
  F  F9  1  0.14028800  0.14028800  0.36473500  1
  F  F10  1  0.14028800  0.36473500  0.14028800  1
  F  F11  1  0.89039500  0.64647500  0.64647500  1
  F  F12  1  0.15199500  0.62358500  0.95367100  1
  F  F13  1  0.95367100  0.15199500  0.62358500  1
  F  F14  1  0.36473500  0.14028800  0.14028800  1
  F  F15  1  0.64647500  0.89039500  0.64647500  1
  F  F16  1  0.64647500  0.64647500  0.89039500  1
  F  F17  1  0.62358500  0.95367100  0.15199500  1
