# generated using pymatgen
data_CrHg3O5
_symmetry_space_group_name_H-M   'P 1'
_cell_length_a   9.63826800
_cell_length_b   10.68019500
_cell_length_c   11.81986500
_cell_angle_alpha   90.00000000
_cell_angle_beta   90.00000000
_cell_angle_gamma   90.00000000
_symmetry_Int_Tables_number   1
_chemical_formula_structural   CrHg3O5
_chemical_formula_sum   'Cr8 Hg24 O40'
_cell_volume   1216.72013901
_cell_formula_units_Z   8
loop_
 _symmetry_equiv_pos_site_id
 _symmetry_equiv_pos_as_xyz
  1  'x, y, z'
loop_
 _atom_site_type_symbol
 _atom_site_label
 _atom_site_symmetry_multiplicity
 _atom_site_fract_x
 _atom_site_fract_y
 _atom_site_fract_z
 _atom_site_occupancy
  Cr  Cr0  1  0.94747900  0.57878700  0.86366900  1
  Cr  Cr1  1  0.44838500  0.57923500  0.85643000  1
  Cr  Cr2  1  0.55161500  0.07923500  0.14357000  1
  Cr  Cr3  1  0.44838500  0.07923500  0.64357000  1
  Cr  Cr4  1  0.05252100  0.07878700  0.13633100  1
  Cr  Cr5  1  0.55161500  0.57923500  0.35643000  1
  Cr  Cr6  1  0.94747900  0.07878700  0.63633100  1
  Cr  Cr7  1  0.05252100  0.57878700  0.36366900  1
  Hg  Hg8  1  0.26470100  0.82888500  0.25236400  1
  Hg  Hg9  1  0.73529900  0.32888500  0.74763600  1
  Hg  Hg10  1  0.42539200  0.91083700  0.90610800  1
  Hg  Hg11  1  0.73529900  0.82888500  0.75236400  1
  Hg  Hg12  1  0.24517400  0.57848400  0.09037400  1
  Hg  Hg13  1  0.06819900  0.25988500  0.87854500  1
  Hg  Hg14  1  0.75482600  0.07848400  0.90962600  1
  Hg  Hg15  1  0.33898300  0.24762700  0.90256100  1
  Hg  Hg16  1  0.15532600  0.40266800  0.61454000  1
  Hg  Hg17  1  0.42539200  0.41083700  0.59389200  1
  Hg  Hg18  1  0.84467400  0.90266800  0.38546000  1
  Hg  Hg19  1  0.66101700  0.74762700  0.09743900  1
  Hg  Hg20  1  0.75482600  0.57848400  0.59037400  1
  Hg  Hg21  1  0.57460800  0.91083700  0.40610800  1
  Hg  Hg22  1  0.26470100  0.32888500  0.24763600  1
  Hg  Hg23  1  0.24517400  0.07848400  0.40962600  1
  Hg  Hg24  1  0.93180100  0.75988500  0.12145500  1
  Hg  Hg25  1  0.93180100  0.25988500  0.37854500  1
  Hg  Hg26  1  0.06819900  0.75988500  0.62145500  1
  Hg  Hg27  1  0.33898300  0.74762700  0.59743900  1
  Hg  Hg28  1  0.15532600  0.90266800  0.88546000  1
  Hg  Hg29  1  0.57460800  0.41083700  0.09389200  1
  Hg  Hg30  1  0.84467400  0.40266800  0.11454000  1
  Hg  Hg31  1  0.66101700  0.24762700  0.40256100  1
  O  O32  1  0.99854600  0.72970400  0.86029200  1
  O  O33  1  0.99482100  0.00492500  0.01849500  1
  O  O34  1  0.16368800  0.25844700  0.39089800  1
  O  O35  1  0.65784800  0.40257900  0.59660200  1
  O  O36  1  0.50117800  0.42792400  0.86254400  1
  O  O37  1  0.99482100  0.50492500  0.48150500  1
  O  O38  1  0.49882200  0.42792400  0.36254400  1
  O  O39  1  0.00517900  0.00492500  0.51849500  1
  O  O40  1  0.34215200  0.90257900  0.40339800  1
  O  O41  1  0.83631200  0.75844700  0.60910200  1
  O  O42  1  0.00145400  0.72970400  0.36029200  1
  O  O43  1  0.22248800  0.57823700  0.36625300  1
  O  O44  1  0.99854600  0.22970400  0.63970800  1
  O  O45  1  0.00517900  0.50492500  0.98150500  1
  O  O46  1  0.50117800  0.92792400  0.63745600  1
  O  O47  1  0.49363600  0.65045100  0.23855500  1
  O  O48  1  0.77751200  0.57823700  0.86625300  1
  O  O49  1  0.72066900  0.07974100  0.14774400  1
  O  O50  1  0.49882200  0.92792400  0.13745600  1
  O  O51  1  0.65784800  0.90257900  0.90339800  1
  O  O52  1  0.49466000  0.65866000  0.97533900  1
  O  O53  1  0.27933100  0.07974100  0.64774400  1
  O  O54  1  0.34215200  0.40257900  0.09660200  1
  O  O55  1  0.72066900  0.57974100  0.35225600  1
  O  O56  1  0.50534000  0.15866000  0.02466100  1
  O  O57  1  0.50636400  0.65045100  0.73855500  1
  O  O58  1  0.99497900  0.50095400  0.74592000  1
  O  O59  1  0.00502100  0.50095400  0.24592000  1
  O  O60  1  0.99497900  0.00095400  0.75408000  1
  O  O61  1  0.49363600  0.15045100  0.26144500  1
  O  O62  1  0.00502100  0.00095400  0.25408000  1
  O  O63  1  0.50534000  0.65866000  0.47533900  1
  O  O64  1  0.00145400  0.22970400  0.13970800  1
  O  O65  1  0.27933100  0.57974100  0.85225600  1
  O  O66  1  0.22248800  0.07823700  0.13374700  1
  O  O67  1  0.16368800  0.75844700  0.10910200  1
  O  O68  1  0.77751200  0.07823700  0.63374700  1
  O  O69  1  0.83631200  0.25844700  0.89089800  1
  O  O70  1  0.49466000  0.15866000  0.52466100  1
  O  O71  1  0.50636400  0.15045100  0.76144500  1
