# generated using pymatgen
data_Lu5Ga3
_symmetry_space_group_name_H-M   'P 1'
_cell_length_a   8.42959403
_cell_length_b   8.42959403
_cell_length_c   6.34758746
_cell_angle_alpha   89.26324581
_cell_angle_beta   89.26324581
_cell_angle_gamma   119.98579395
_symmetry_Int_Tables_number   1
_chemical_formula_structural   Lu5Ga3
_chemical_formula_sum   'Lu10 Ga6'
_cell_volume   390.54510337
_cell_formula_units_Z   2
loop_
 _symmetry_equiv_pos_site_id
 _symmetry_equiv_pos_as_xyz
  1  'x, y, z'
loop_
 _atom_site_type_symbol
 _atom_site_label
 _atom_site_symmetry_multiplicity
 _atom_site_fract_x
 _atom_site_fract_y
 _atom_site_fract_z
 _atom_site_occupancy
  Lu  Lu0  1  0.49980400  0.74323100  0.26256400  1
  Lu  Lu1  1  0.50019600  0.25676900  0.73743600  1
  Lu  Lu2  1  0.25676900  0.50019600  0.73743600  1
  Lu  Lu3  1  0.74323100  0.49980400  0.26256400  1
  Lu  Lu4  1  0.26649900  0.26649900  0.22804800  1
  Lu  Lu5  1  0.73350100  0.73350100  0.77195200  1
  Lu  Lu6  1  0.85140000  0.14860000  0.50000000  1
  Lu  Lu7  1  0.14860000  0.85140000  0.50000000  1
  Lu  Lu8  1  0.81828100  0.18171900  0.00000000  1
  Lu  Lu9  1  0.18171900  0.81828100  0.00000000  1
  Ga  Ga10  1  0.50006600  0.09750700  0.28427100  1
  Ga  Ga11  1  0.49993400  0.90249300  0.71572900  1
  Ga  Ga12  1  0.90249300  0.49993400  0.71572900  1
  Ga  Ga13  1  0.09750700  0.50006600  0.28427100  1
  Ga  Ga14  1  0.90325500  0.90325500  0.19431600  1
  Ga  Ga15  1  0.09674500  0.09674500  0.80568400  1
