# generated using pymatgen
data_Bi2Te2WO10
_symmetry_space_group_name_H-M   'P 1'
_cell_length_a   6.95563612
_cell_length_b   6.95563612
_cell_length_c   12.48141853
_cell_angle_alpha   88.87042757
_cell_angle_beta   88.87042757
_cell_angle_gamma   48.44670410
_symmetry_Int_Tables_number   1
_chemical_formula_structural   Bi2Te2WO10
_chemical_formula_sum   'Bi4 Te4 W2 O20'
_cell_volume   451.78786342
_cell_formula_units_Z   2
loop_
 _symmetry_equiv_pos_site_id
 _symmetry_equiv_pos_as_xyz
  1  'x, y, z'
loop_
 _atom_site_type_symbol
 _atom_site_label
 _atom_site_symmetry_multiplicity
 _atom_site_fract_x
 _atom_site_fract_y
 _atom_site_fract_z
 _atom_site_occupancy
  Bi  Bi0  1  0.33296800  0.84909600  0.45672900  1
  Bi  Bi1  1  0.84909600  0.33296800  0.95672900  1
  Bi  Bi2  1  0.15090400  0.66703200  0.04327100  1
  Bi  Bi3  1  0.66703200  0.15090400  0.54327100  1
  Te  Te4  1  0.07620100  0.54231000  0.35910900  1
  Te  Te5  1  0.92379900  0.45769000  0.64089100  1
  Te  Te6  1  0.54231000  0.07620100  0.85910900  1
  Te  Te7  1  0.45769000  0.92379900  0.14089100  1
  W  W8  1  0.17654700  0.82345300  0.75000000  1
  W  W9  1  0.82345300  0.17654700  0.25000000  1
  O  O10  1  0.47098600  0.67942900  0.06136400  1
  O  O11  1  0.67942900  0.47098600  0.56136400  1
  O  O12  1  0.90826200  0.09325700  0.09897000  1
  O  O13  1  0.99807000  0.77242000  0.24475700  1
  O  O14  1  0.78313800  0.78261100  0.45124300  1
  O  O15  1  0.00193000  0.22758000  0.75524300  1
  O  O16  1  0.09173800  0.90674300  0.90103000  1
  O  O17  1  0.09325700  0.90826200  0.59897000  1
  O  O18  1  0.21686200  0.21738900  0.54875700  1
  O  O19  1  0.77242000  0.99807000  0.74475700  1
  O  O20  1  0.26564800  0.51259900  0.74396300  1
  O  O21  1  0.73435200  0.48740100  0.25603700  1
  O  O22  1  0.52901400  0.32057100  0.93863600  1
  O  O23  1  0.78261100  0.78313800  0.95124300  1
  O  O24  1  0.22758000  0.00193000  0.25524300  1
  O  O25  1  0.48740100  0.73435200  0.75603700  1
  O  O26  1  0.21738900  0.21686200  0.04875700  1
  O  O27  1  0.90674300  0.09173800  0.40103000  1
  O  O28  1  0.32057100  0.52901400  0.43863600  1
  O  O29  1  0.51259900  0.26564800  0.24396300  1
