# generated using pymatgen
data_La8Ru4O21
_symmetry_space_group_name_H-M   'P 1'
_cell_length_a   9.94782015
_cell_length_b   9.94782015
_cell_length_c   10.91829100
_cell_angle_alpha   90.00000000
_cell_angle_beta   90.00000000
_cell_angle_gamma   120.00000097
_symmetry_Int_Tables_number   1
_chemical_formula_structural   La8Ru4O21
_chemical_formula_sum   'La16 Ru8 O42'
_cell_volume   935.70972251
_cell_formula_units_Z   2
loop_
 _symmetry_equiv_pos_site_id
 _symmetry_equiv_pos_as_xyz
  1  'x, y, z'
loop_
 _atom_site_type_symbol
 _atom_site_label
 _atom_site_symmetry_multiplicity
 _atom_site_fract_x
 _atom_site_fract_y
 _atom_site_fract_z
 _atom_site_occupancy
  La  La0  1  0.60487100  0.00000000  0.09125500  1
  La  La1  1  0.39512900  0.00000000  0.59125500  1
  La  La2  1  0.00000000  0.24266800  0.23006800  1
  La  La3  1  0.24266800  0.24266800  0.73006800  1
  La  La4  1  0.00000000  0.60487100  0.09125500  1
  La  La5  1  0.75733200  0.75733200  0.23006800  1
  La  La6  1  0.24266800  0.00000000  0.23006800  1
  La  La7  1  0.33333300  0.66666700  0.88384100  1
  La  La8  1  0.33333300  0.66666700  0.38384100  1
  La  La9  1  0.66666700  0.33333300  0.88384100  1
  La  La10  1  0.60487100  0.60487100  0.59125500  1
  La  La11  1  0.00000000  0.39512900  0.59125500  1
  La  La12  1  0.39512900  0.39512900  0.09125500  1
  La  La13  1  0.66666700  0.33333300  0.38384100  1
  La  La14  1  0.00000000  0.75733200  0.73006800  1
  La  La15  1  0.75733200  0.00000000  0.73006800  1
  Ru  Ru16  1  0.35543800  0.00000000  0.90009400  1
  Ru  Ru17  1  0.00000000  0.35543800  0.90009400  1
  Ru  Ru18  1  0.64456200  0.64456200  0.90009400  1
  Ru  Ru19  1  0.00000000  0.64456200  0.40009400  1
  Ru  Ru20  1  0.00000000  0.00000000  0.99846600  1
  Ru  Ru21  1  0.64456200  0.00000000  0.40009400  1
  Ru  Ru22  1  0.00000000  0.00000000  0.49846600  1
  Ru  Ru23  1  0.35543800  0.35543800  0.40009400  1
  O  O24  1  0.72590300  0.16318600  0.26859500  1
  O  O25  1  0.54238600  0.70043900  0.03298700  1
  O  O26  1  0.43900400  0.43900400  0.87821800  1
  O  O27  1  0.56271700  0.72590300  0.76859500  1
  O  O28  1  0.84053800  0.84053800  0.88950400  1
  O  O29  1  0.15817800  0.15817800  0.11301500  1
  O  O30  1  0.43728300  0.27409700  0.26859500  1
  O  O31  1  0.15805300  0.45761400  0.03298700  1
  O  O32  1  0.56099600  0.56099600  0.37821800  1
  O  O33  1  0.27409700  0.43728300  0.26859500  1
  O  O34  1  0.16318600  0.43728300  0.76859500  1
  O  O35  1  0.45761400  0.29956100  0.53298700  1
  O  O36  1  0.70043900  0.54238600  0.03298700  1
  O  O37  1  0.84182200  0.84182200  0.61301500  1
  O  O38  1  0.29956100  0.45761400  0.53298700  1
  O  O39  1  0.83681400  0.56271700  0.26859500  1
  O  O40  1  0.84194700  0.54238600  0.53298700  1
  O  O41  1  0.43728300  0.16318600  0.76859500  1
  O  O42  1  0.15946200  0.15946200  0.38950400  1
  O  O43  1  0.00000000  0.15946200  0.88950400  1
  O  O44  1  0.54238600  0.84194700  0.53298700  1
  O  O45  1  0.00000000  0.84053800  0.38950400  1
  O  O46  1  0.70043900  0.15805300  0.53298700  1
  O  O47  1  0.27409700  0.83681400  0.76859500  1
  O  O48  1  0.15805300  0.70043900  0.53298700  1
  O  O49  1  0.00000000  0.43900400  0.37821800  1
  O  O50  1  0.84194700  0.29956100  0.03298700  1
  O  O51  1  0.84182200  0.00000000  0.11301500  1
  O  O52  1  0.43900400  0.00000000  0.37821800  1
  O  O53  1  0.00000000  0.56099600  0.87821800  1
  O  O54  1  0.16318600  0.72590300  0.26859500  1
  O  O55  1  0.00000000  0.15817800  0.61301500  1
  O  O56  1  0.56271700  0.83681400  0.26859500  1
  O  O57  1  0.00000000  0.84182200  0.11301500  1
  O  O58  1  0.15817800  0.00000000  0.61301500  1
  O  O59  1  0.83681400  0.27409700  0.76859500  1
  O  O60  1  0.56099600  0.00000000  0.87821800  1
  O  O61  1  0.84053800  0.00000000  0.38950400  1
  O  O62  1  0.45761400  0.15805300  0.03298700  1
  O  O63  1  0.72590300  0.56271700  0.76859500  1
  O  O64  1  0.15946200  0.00000000  0.88950400  1
  O  O65  1  0.29956100  0.84194700  0.03298700  1
