# generated using pymatgen
data_Na2HoMoPO8
_symmetry_space_group_name_H-M   'P 1'
_cell_length_a   11.48085889
_cell_length_b   11.48085889
_cell_length_c   11.48085889
_cell_angle_alpha   144.85697008
_cell_angle_beta   115.88013907
_cell_angle_gamma   75.27336375
_symmetry_Int_Tables_number   1
_chemical_formula_structural   Na2HoMoPO8
_chemical_formula_sum   'Na8 Ho4 Mo4 P4 O32'
_cell_volume   768.14992717
_cell_formula_units_Z   4
loop_
 _symmetry_equiv_pos_site_id
 _symmetry_equiv_pos_as_xyz
  1  'x, y, z'
loop_
 _atom_site_type_symbol
 _atom_site_label
 _atom_site_symmetry_multiplicity
 _atom_site_fract_x
 _atom_site_fract_y
 _atom_site_fract_z
 _atom_site_occupancy
  Na  Na0  1  0.79060800  0.83597500  0.93287400  1
  Na  Na1  1  0.90310100  0.33597500  0.54536600  1
  Na  Na2  1  0.29060800  0.35773400  0.95463400  1
  Na  Na3  1  0.20939200  0.16402500  0.06712600  1
  Na  Na4  1  0.59689900  0.14226600  0.43287400  1
  Na  Na5  1  0.40310100  0.85773400  0.56712600  1
  Na  Na6  1  0.09689900  0.66402500  0.45463400  1
  Na  Na7  1  0.70939200  0.64226600  0.04536600  1
  Ho  Ho8  1  0.67798600  0.75000000  0.42798600  1
  Ho  Ho9  1  0.32201400  0.25000000  0.57201400  1
  Ho  Ho10  1  0.17798600  0.75000000  0.92798600  1
  Ho  Ho11  1  0.82201400  0.25000000  0.07201400  1
  Mo  Mo12  1  0.42785500  0.67785500  0.75000000  1
  Mo  Mo13  1  0.92785500  0.17785500  0.75000000  1
  Mo  Mo14  1  0.57214500  0.32214500  0.25000000  1
  Mo  Mo15  1  0.07214500  0.82214500  0.25000000  1
  P  P16  1  0.93092800  0.75000000  0.68092800  1
  P  P17  1  0.06907200  0.25000000  0.31907200  1
  P  P18  1  0.56907200  0.25000000  0.81907200  1
  P  P19  1  0.43092800  0.75000000  0.18092800  1
  O  O20  1  0.56108300  0.30521600  0.73022700  1
  O  O21  1  0.10437200  0.66916300  0.01498100  1
  O  O22  1  0.36196500  0.68963200  0.58793300  1
  O  O23  1  0.85939500  0.58314000  0.42646800  1
  O  O24  1  0.57498900  0.80521600  0.24413300  1
  O  O25  1  0.07498900  0.83085600  0.76977300  1
  O  O26  1  0.63803500  0.31036800  0.41206700  1
  O  O27  1  0.92501100  0.16914400  0.23022700  1
  O  O28  1  0.43891700  0.69478400  0.26977300  1
  O  O29  1  0.39562800  0.41060900  0.56479200  1
  O  O30  1  0.64060500  0.06707300  0.72374500  1
  O  O31  1  0.84332800  0.91686000  0.77625500  1
  O  O32  1  0.10170000  0.18963200  0.82766700  1
  O  O33  1  0.84581700  0.91060900  0.51498100  1
  O  O34  1  0.15667200  0.08314000  0.22374500  1
  O  O35  1  0.13803500  0.72596700  0.32766700  1
  O  O36  1  0.86196500  0.27403300  0.67233300  1
  O  O37  1  0.93891700  0.66914400  0.74413300  1
  O  O38  1  0.65667200  0.43292700  0.07353200  1
  O  O39  1  0.89830000  0.81036800  0.17233300  1
  O  O40  1  0.42501100  0.19478400  0.75586700  1
  O  O41  1  0.65418300  0.16916300  0.06479200  1
  O  O42  1  0.35939500  0.93292700  0.27625500  1
  O  O43  1  0.34332800  0.56707300  0.92646800  1
  O  O44  1  0.60437200  0.58939100  0.43520800  1
  O  O45  1  0.89562800  0.33083700  0.98501900  1
  O  O46  1  0.06108300  0.33085600  0.25586700  1
  O  O47  1  0.15418300  0.08939100  0.48501900  1
  O  O48  1  0.60170000  0.77403300  0.91206700  1
  O  O49  1  0.34581700  0.83083700  0.93520800  1
  O  O50  1  0.14060500  0.41686000  0.57353200  1
  O  O51  1  0.39830000  0.22596700  0.08793300  1
