# generated using pymatgen
data_Ti6O11
_symmetry_space_group_name_H-M   'P 1'
_cell_length_a   5.34422955
_cell_length_b   5.34422955
_cell_length_c   21.22273274
_cell_angle_alpha   86.65826041
_cell_angle_beta   86.65826041
_cell_angle_gamma   41.20585196
_symmetry_Int_Tables_number   1
_chemical_formula_structural   Ti6O11
_chemical_formula_sum   'Ti12 O22'
_cell_volume   398.52827411
_cell_formula_units_Z   2
loop_
 _symmetry_equiv_pos_site_id
 _symmetry_equiv_pos_as_xyz
  1  'x, y, z'
loop_
 _atom_site_type_symbol
 _atom_site_label
 _atom_site_symmetry_multiplicity
 _atom_site_fract_x
 _atom_site_fract_y
 _atom_site_fract_z
 _atom_site_occupancy
  Ti  Ti0  1  0.03036400  0.03036400  0.35362400  1
  Ti  Ti1  1  0.86248300  0.86248300  0.47614200  1
  Ti  Ti2  1  0.13751700  0.13751700  0.52385800  1
  Ti  Ti3  1  0.78985500  0.78985500  0.11432900  1
  Ti  Ti4  1  0.90074500  0.90074500  0.79249900  1
  Ti  Ti5  1  0.93175100  0.93175100  0.93986000  1
  Ti  Ti6  1  0.06824900  0.06824900  0.06014000  1
  Ti  Ti7  1  0.96963600  0.96963600  0.64637600  1
  Ti  Ti8  1  0.21014500  0.21014500  0.88567100  1
  Ti  Ti9  1  0.09925500  0.09925500  0.20750100  1
  Ti  Ti10  1  0.76550800  0.76550800  0.30089900  1
  Ti  Ti11  1  0.23449200  0.23449200  0.69910100  1
  O  O12  1  0.32993000  0.32993000  0.79382600  1
  O  O13  1  0.76113900  0.76113900  0.87707500  1
  O  O14  1  0.57702300  0.57702300  0.34472700  1
  O  O15  1  0.61426600  0.61426600  0.06703100  1
  O  O16  1  0.38573400  0.38573400  0.93296900  1
  O  O17  1  0.15877200  0.15877200  0.61890300  1
  O  O18  1  0.67007000  0.67007000  0.20617400  1
  O  O19  1  0.11413400  0.11413400  0.96700000  1
  O  O20  1  0.84122800  0.84122800  0.38109700  1
  O  O21  1  0.88586600  0.88586600  0.03300000  1
  O  O22  1  0.21650100  0.21650100  0.29098900  1
  O  O23  1  0.67664400  0.67664400  0.51939800  1
  O  O24  1  0.78349900  0.78349900  0.70901100  1
  O  O25  1  0.05045200  0.05045200  0.44361100  1
  O  O26  1  0.23886100  0.23886100  0.12292500  1
  O  O27  1  0.05208200  0.05208200  0.73268800  1
  O  O28  1  0.94791800  0.94791800  0.26731200  1
  O  O29  1  0.32335600  0.32335600  0.48060200  1
  O  O30  1  0.94954800  0.94954800  0.55638900  1
  O  O31  1  0.03466600  0.03466600  0.85390400  1
  O  O32  1  0.42297700  0.42297700  0.65527300  1
  O  O33  1  0.96533400  0.96533400  0.14609600  1
