# generated using pymatgen
data_Zn3(BO3)2
_symmetry_space_group_name_H-M   'P 1'
_cell_length_a   12.53384555
_cell_length_b   12.53384555
_cell_length_c   8.48526126
_cell_angle_alpha   76.81228792
_cell_angle_beta   76.81228792
_cell_angle_gamma   23.40367264
_symmetry_Int_Tables_number   1
_chemical_formula_structural   Zn3(BO3)2
_chemical_formula_sum   'Zn12 B8 O24'
_cell_volume   514.91005985
_cell_formula_units_Z   4
loop_
 _symmetry_equiv_pos_site_id
 _symmetry_equiv_pos_as_xyz
  1  'x, y, z'
loop_
 _atom_site_type_symbol
 _atom_site_label
 _atom_site_symmetry_multiplicity
 _atom_site_fract_x
 _atom_site_fract_y
 _atom_site_fract_z
 _atom_site_occupancy
  Zn  Zn0  1  0.55516000  0.18929500  0.62939800  1
  Zn  Zn1  1  0.44284500  0.80927600  0.86966300  1
  Zn  Zn2  1  0.09882100  0.48065100  0.46196700  1
  Zn  Zn3  1  0.12767500  0.77218400  0.42420800  1
  Zn  Zn4  1  0.48065100  0.09882100  0.96196700  1
  Zn  Zn5  1  0.90022000  0.51678500  0.03773700  1
  Zn  Zn6  1  0.80927600  0.44284500  0.36966300  1
  Zn  Zn7  1  0.77218400  0.12767500  0.92420800  1
  Zn  Zn8  1  0.51678500  0.90022000  0.53773700  1
  Zn  Zn9  1  0.18929500  0.55516000  0.12939800  1
  Zn  Zn10  1  0.21995700  0.87518000  0.57465300  1
  Zn  Zn11  1  0.87518000  0.21995700  0.07465300  1
  B  B12  1  0.39210800  0.73610200  0.21176300  1
  B  B13  1  0.62693100  0.99673500  0.26984600  1
  B  B14  1  0.00041100  0.37269800  0.72969900  1
  B  B15  1  0.61298100  0.25401500  0.28682600  1
  B  B16  1  0.25401500  0.61298100  0.78682600  1
  B  B17  1  0.99673500  0.62693100  0.76984600  1
  B  B18  1  0.37269800  0.00041100  0.22969900  1
  B  B19  1  0.73610200  0.39210800  0.71176300  1
  O  O20  1  0.49053600  0.67034200  0.70818400  1
  O  O21  1  0.89364300  0.26309300  0.56911300  1
  O  O22  1  0.83645900  0.48925100  0.86990500  1
  O  O23  1  0.33447100  0.50171000  0.28903100  1
  O  O24  1  0.09686100  0.46980400  0.90929300  1
  O  O25  1  0.82876500  0.24100200  0.85068900  1
  O  O26  1  0.24100200  0.82876500  0.35068900  1
  O  O27  1  0.09694800  0.26844300  0.22938600  1
  O  O28  1  0.16066700  0.51043900  0.62941800  1
  O  O29  1  0.52926300  0.90076300  0.09008500  1
  O  O30  1  0.51043900  0.16066700  0.12941800  1
  O  O31  1  0.67034200  0.49053600  0.20818400  1
  O  O32  1  0.26309300  0.89364300  0.06911300  1
  O  O33  1  0.50171000  0.33447100  0.78903100  1
  O  O34  1  0.90253900  0.72881600  0.27036600  1
  O  O35  1  0.48925100  0.83645900  0.36990500  1
  O  O36  1  0.09695500  0.73988000  0.92960400  1
  O  O37  1  0.76698500  0.15827600  0.14891500  1
  O  O38  1  0.72881600  0.90253900  0.77036600  1
  O  O39  1  0.26844300  0.09694800  0.72938600  1
  O  O40  1  0.15827600  0.76698500  0.64891500  1
  O  O41  1  0.46980400  0.09686100  0.40929300  1
  O  O42  1  0.90076300  0.52926300  0.59008500  1
  O  O43  1  0.73988000  0.09695500  0.42960400  1
