# generated using pymatgen
data_CaP4O11
_symmetry_space_group_name_H-M   'P 1'
_cell_length_a   8.90629139
_cell_length_b   8.90629139
_cell_length_c   12.94889500
_cell_angle_alpha   90.00000000
_cell_angle_beta   90.00000000
_cell_angle_gamma   92.08760837
_symmetry_Int_Tables_number   1
_chemical_formula_structural   CaP4O11
_chemical_formula_sum   'Ca4 P16 O44'
_cell_volume   1026.45087832
_cell_formula_units_Z   4
loop_
 _symmetry_equiv_pos_site_id
 _symmetry_equiv_pos_as_xyz
  1  'x, y, z'
loop_
 _atom_site_type_symbol
 _atom_site_label
 _atom_site_symmetry_multiplicity
 _atom_site_fract_x
 _atom_site_fract_y
 _atom_site_fract_z
 _atom_site_occupancy
  Ca  Ca0  1  0.73289100  0.73289100  0.96950800  1
  Ca  Ca1  1  0.76710900  0.76710900  0.46950800  1
  Ca  Ca2  1  0.23289100  0.23289100  0.53049200  1
  Ca  Ca3  1  0.26710900  0.26710900  0.03049200  1
  P  P4  1  0.40443900  0.40443900  0.28891200  1
  P  P5  1  0.67848300  0.32151700  0.00000000  1
  P  P6  1  0.26550000  0.61298500  0.66234200  1
  P  P7  1  0.76550000  0.11298500  0.83765800  1
  P  P8  1  0.38701500  0.73450000  0.33765800  1
  P  P9  1  0.73450000  0.38701500  0.33765800  1
  P  P10  1  0.32151700  0.67848300  0.00000000  1
  P  P11  1  0.61298500  0.26550000  0.66234200  1
  P  P12  1  0.59556100  0.59556100  0.71108800  1
  P  P13  1  0.11298500  0.76550000  0.83765800  1
  P  P14  1  0.88701500  0.23450000  0.16234200  1
  P  P15  1  0.17848300  0.82151700  0.50000000  1
  P  P16  1  0.23450000  0.88701500  0.16234200  1
  P  P17  1  0.90443900  0.90443900  0.21108800  1
  P  P18  1  0.82151700  0.17848300  0.50000000  1
  P  P19  1  0.09556100  0.09556100  0.78891200  1
  O  O20  1  0.76941300  0.02096100  0.51875200  1
  O  O21  1  0.97903900  0.23058700  0.48124800  1
  O  O22  1  0.22420700  0.47581000  0.60456700  1
  O  O23  1  0.38812400  0.58624900  0.27204600  1
  O  O24  1  0.78344800  0.26191400  0.90371800  1
  O  O25  1  0.77579300  0.52419000  0.39543300  1
  O  O26  1  0.36138100  0.36138100  0.39581200  1
  O  O27  1  0.35594400  0.85594400  0.25000000  1
  O  O28  1  0.72420700  0.97581000  0.89543300  1
  O  O29  1  0.73058700  0.47903900  0.01875200  1
  O  O30  1  0.28344800  0.76191400  0.59628200  1
  O  O31  1  0.13861900  0.13861900  0.89581200  1
  O  O32  1  0.86138100  0.86138100  0.10418800  1
  O  O33  1  0.26941300  0.52096100  0.98124800  1
  O  O34  1  0.47903900  0.73058700  0.01875200  1
  O  O35  1  0.83610700  0.83610700  0.30474200  1
  O  O36  1  0.64405600  0.14405600  0.75000000  1
  O  O37  1  0.63861900  0.63861900  0.60418800  1
  O  O38  1  0.61187600  0.41375100  0.72795400  1
  O  O39  1  0.58624900  0.38812400  0.27204600  1
  O  O40  1  0.91375100  0.11187600  0.77204600  1
  O  O41  1  0.33610700  0.33610700  0.19525800  1
  O  O42  1  0.97581000  0.72420700  0.89543300  1
  O  O43  1  0.16389300  0.16389300  0.69525800  1
  O  O44  1  0.71655200  0.23808600  0.40371800  1
  O  O45  1  0.27579300  0.02419000  0.10456700  1
  O  O46  1  0.76191400  0.28344800  0.59628200  1
  O  O47  1  0.73808600  0.21655200  0.09628200  1
  O  O48  1  0.66389300  0.66389300  0.80474200  1
  O  O49  1  0.02096100  0.76941300  0.51875200  1
  O  O50  1  0.21655200  0.73808600  0.09628200  1
  O  O51  1  0.14405600  0.64405600  0.75000000  1
  O  O52  1  0.11187600  0.91375100  0.77204600  1
  O  O53  1  0.52419000  0.77579300  0.39543300  1
  O  O54  1  0.23058700  0.97903900  0.48124800  1
  O  O55  1  0.26191400  0.78344800  0.90371800  1
  O  O56  1  0.85594400  0.35594400  0.25000000  1
  O  O57  1  0.52096100  0.26941300  0.98124800  1
  O  O58  1  0.47581000  0.22420700  0.60456700  1
  O  O59  1  0.23808600  0.71655200  0.40371800  1
  O  O60  1  0.02419000  0.27579300  0.10456700  1
  O  O61  1  0.41375100  0.61187600  0.72795400  1
  O  O62  1  0.08624900  0.88812400  0.22795400  1
  O  O63  1  0.88812400  0.08624900  0.22795400  1
