# generated using pymatgen
data_Sr10Sm6Al6Si30N54O7
_symmetry_space_group_name_H-M   'P 1'
_cell_length_a   18.81904511
_cell_length_b   17.49616689
_cell_length_c   9.88566731
_cell_angle_alpha   81.74188637
_cell_angle_beta   66.93562823
_cell_angle_gamma   31.32248540
_symmetry_Int_Tables_number   1
_chemical_formula_structural   Sr10Sm6Al6Si30N54O7
_chemical_formula_sum   'Sr10 Sm6 Al6 Si30 N54 O7'
_cell_volume   1427.28214127
_cell_formula_units_Z   1
loop_
 _symmetry_equiv_pos_site_id
 _symmetry_equiv_pos_as_xyz
  1  'x, y, z'
loop_
 _atom_site_type_symbol
 _atom_site_label
 _atom_site_symmetry_multiplicity
 _atom_site_fract_x
 _atom_site_fract_y
 _atom_site_fract_z
 _atom_site_occupancy
  Sr  Sr0  1  0.33905300  0.66094700  0.98266200  1
  Sr  Sr1  1  0.01733800  0.98266200  0.66094700  1
  Sr  Sr2  1  0.65827000  0.64444600  0.01278200  1
  Sr  Sr3  1  0.02705000  0.67892300  0.97295000  1
  Sr  Sr4  1  0.86304900  0.13695100  0.13695100  1
  Sr  Sr5  1  0.35555400  0.34173000  0.31549800  1
  Sr  Sr6  1  0.32107700  0.97295000  0.67892300  1
  Sr  Sr7  1  0.98721800  0.31549800  0.34173000  1
  Sr  Sr8  1  0.68450200  0.01278200  0.64444600  1
  Sr  Sr9  1  0.49181700  0.50818300  0.50818300  1
  Sm  Sm10  1  0.28967200  0.31797000  0.71032800  1
  Sm  Sm11  1  0.05066300  0.33546900  0.94933700  1
  Sm  Sm12  1  0.68203000  0.71032800  0.31797000  1
  Sm  Sm13  1  0.94156900  0.55843100  0.55843100  1
  Sm  Sm14  1  0.66453100  0.94933700  0.33546900  1
  Sm  Sm15  1  0.44156900  0.05843100  0.05843100  1
  Al  Al16  1  0.26227300  0.55818300  0.09078500  1
  Al  Al17  1  0.44181700  0.73772700  0.91124100  1
  Al  Al18  1  0.13207900  0.76018800  0.86792100  1
  Al  Al19  1  0.90921500  0.91124100  0.73772700  1
  Al  Al20  1  0.23981200  0.86792100  0.76018800  1
  Al  Al21  1  0.08875900  0.09078500  0.55818300  1
  Si  Si22  1  0.57025900  0.52498700  0.12132300  1
  Si  Si23  1  0.51541800  0.95618600  0.66674300  1
  Si  Si24  1  0.87867700  0.21656900  0.42974100  1
  Si  Si25  1  0.22431100  0.87284800  0.28197200  1
  Si  Si26  1  0.92938200  0.24993400  0.89386600  1
  Si  Si27  1  0.62087000  0.28197200  0.87284800  1
  Si  Si28  1  0.01018400  0.65273200  0.31001800  1
  Si  Si29  1  0.75006600  0.07061800  0.07318200  1
  Si  Si30  1  0.33736500  0.32085500  0.00943700  1
  Si  Si31  1  0.86165300  0.66674300  0.95618600  1
  Si  Si32  1  0.47501300  0.42974100  0.21656900  1
  Si  Si33  1  0.12715200  0.77568900  0.37913000  1
  Si  Si34  1  0.34726800  0.98981600  0.97293400  1
  Si  Si35  1  0.24297300  0.56635500  0.57883000  1
  Si  Si36  1  0.99056300  0.66765600  0.66263500  1
  Si  Si37  1  0.33234400  0.00943700  0.32085500  1
  Si  Si38  1  0.58269900  0.22424400  0.41730100  1
  Si  Si39  1  0.78343100  0.12132300  0.52498700  1
  Si  Si40  1  0.10613400  0.07318200  0.07061800  1
  Si  Si41  1  0.68998200  0.97293400  0.98981600  1
  Si  Si42  1  0.71802800  0.37913000  0.77568900  1
  Si  Si43  1  0.42117000  0.38815800  0.75702700  1
  Si  Si44  1  0.02706600  0.31001800  0.65273200  1
  Si  Si45  1  0.04381400  0.48458200  0.13834700  1
  Si  Si46  1  0.92681800  0.89386600  0.24993400  1
  Si  Si47  1  0.33325700  0.13834700  0.48458200  1
  Si  Si48  1  0.43364500  0.75702700  0.38815800  1
  Si  Si49  1  0.77575600  0.41730100  0.22424400  1
  Si  Si50  1  0.67914500  0.66263500  0.66765600  1
  Si  Si51  1  0.61184200  0.57883000  0.56635500  1
  N  N52  1  0.86371200  0.48483300  0.64477700  1
  N  N53  1  0.07068000  0.06847900  0.75617500  1
  N  N54  1  0.92970100  0.64362700  0.28698000  1
  N  N55  1  0.35522300  0.99332200  0.13628800  1
  N  N56  1  0.48449800  0.96504400  0.51550200  1
  N  N57  1  0.29364300  0.58882300  0.21962900  1
  N  N58  1  0.43401300  0.72410800  0.56598700  1
  N  N59  1  0.63224700  0.36775300  0.85677900  1
  N  N60  1  0.51516700  0.13628800  0.99332200  1
  N  N61  1  0.41117700  0.70635700  0.10209500  1
  N  N62  1  0.14322100  0.85677900  0.36775300  1
  N  N63  1  0.76421600  0.08272500  0.23578400  1
  N  N64  1  0.17522100  0.53098900  0.63379900  1
  N  N65  1  0.50330600  0.78775300  0.85810600  1
  N  N66  1  0.36657400  0.07502600  0.31686800  1
  N  N67  1  0.46901100  0.82477900  0.34000900  1
  N  N68  1  0.35637300  0.07029900  0.86030900  1
  N  N69  1  0.07445600  0.06047500  0.25854200  1
  N  N70  1  0.92497400  0.63342600  0.75846800  1
  N  N71  1  0.97725600  0.30355000  0.83685200  1
  N  N72  1  0.60652800  0.25854200  0.06047500  1
  N  N73  1  0.13969100  0.28698000  0.64362700  1
  N  N74  1  0.10466600  0.75617500  0.06847900  1
  N  N75  1  0.14189400  0.14916500  0.49669400  1
  N  N76  1  0.16314800  0.11765800  0.02274400  1
  N  N77  1  0.43382500  0.40603800  0.39699400  1
  N  N78  1  0.68313200  0.75846800  0.63342600  1
  N  N79  1  0.11339800  0.74517500  0.55686600  1
  N  N80  1  0.59396200  0.56617500  0.23685700  1
  N  N81  1  0.76314300  0.39699400  0.40603800  1
  N  N82  1  0.55290800  0.44709200  0.21714500  1
  N  N83  1  0.44313400  0.41543900  0.88660200  1
  N  N84  1  0.21224700  0.49669400  0.14916500  1
  N  N85  1  0.25482500  0.88660200  0.41543900  1
  N  N86  1  0.65999100  0.63379900  0.53098900  1
  N  N87  1  0.89790500  0.21962900  0.58882300  1
  N  N88  1  0.85083500  0.85810600  0.78775300  1
  N  N89  1  0.74145800  0.39347200  0.92554400  1
  N  N90  1  0.27589200  0.56598700  0.72410800  1
  N  N91  1  0.88234200  0.83685200  0.30355000  1
  N  N92  1  0.24153200  0.31686800  0.07502600  1
  N  N93  1  0.58456100  0.55686600  0.74517500  1
  N  N94  1  0.00667800  0.64477700  0.48483300  1
  N  N95  1  0.69645000  0.02274400  0.11765800  1
  N  N96  1  0.78285500  0.21714500  0.44709200  1
  N  N97  1  0.36620100  0.34000900  0.82477900  1
  N  N98  1  0.24382500  0.89533400  0.92932000  1
  N  N99  1  0.78037100  0.10209500  0.70635700  1
  N  N100  1  0.93952500  0.92554400  0.39347200  1
  N  N101  1  0.60300600  0.23685700  0.56617500  1
  N  N102  1  0.91727500  0.23578400  0.08272500  1
  N  N103  1  0.93152100  0.92932000  0.89533400  1
  N  N104  1  0.03495600  0.51550200  0.96504400  1
  N  N105  1  0.71302000  0.86030900  0.07029900  1
  O  O106  1  0.79259700  0.63619300  0.02747800  1
  O  O107  1  0.52979200  0.17965800  0.47020800  1
  O  O108  1  0.36380700  0.20740300  0.45626700  1
  O  O109  1  0.21535700  0.78464300  0.78464300  1
  O  O110  1  0.54373300  0.02747800  0.63619300  1
  O  O111  1  0.97252200  0.45626700  0.20740300  1
  O  O112  1  0.82034200  0.47020800  0.17965800  1
