# generated using pymatgen
data_C(SN)2
_symmetry_space_group_name_H-M   'P 1'
_cell_length_a   12.12269800
_cell_length_b   7.11877600
_cell_length_c   9.49483021
_cell_angle_alpha   60.49793451
_cell_angle_beta   90.00000000
_cell_angle_gamma   90.00000000
_symmetry_Int_Tables_number   1
_chemical_formula_structural   C(SN)2
_chemical_formula_sum   'C8 S16 N16'
_cell_volume   713.14810797
_cell_formula_units_Z   8
loop_
 _symmetry_equiv_pos_site_id
 _symmetry_equiv_pos_as_xyz
  1  'x, y, z'
loop_
 _atom_site_type_symbol
 _atom_site_label
 _atom_site_symmetry_multiplicity
 _atom_site_fract_x
 _atom_site_fract_y
 _atom_site_fract_z
 _atom_site_occupancy
  C  C0  1  0.97083900  0.31011200  0.92300900  1
  C  C1  1  0.02916100  0.68988800  0.07699100  1
  C  C2  1  0.47083900  0.68988800  0.57699100  1
  C  C3  1  0.94851500  0.76578300  0.94433700  1
  C  C4  1  0.55148500  0.76578300  0.44433700  1
  C  C5  1  0.05148500  0.23421700  0.05566300  1
  C  C6  1  0.52916100  0.31011200  0.42300900  1
  C  C7  1  0.44851500  0.23421700  0.55566300  1
  S  S8  1  0.77439000  0.38518800  0.82560900  1
  S  S9  1  0.22561000  0.61481200  0.17439100  1
  S  S10  1  0.90012500  0.50336900  0.63892700  1
  S  S11  1  0.40012500  0.49663100  0.86107300  1
  S  S12  1  0.50017600  0.12153900  0.75376700  1
  S  S13  1  0.00017600  0.87846100  0.74623300  1
  S  S14  1  0.27835700  0.16962200  0.71464900  1
  S  S15  1  0.72164300  0.83037800  0.28535100  1
  S  S16  1  0.22164300  0.16962200  0.21464900  1
  S  S17  1  0.72561000  0.38518800  0.32560900  1
  S  S18  1  0.27439000  0.61481200  0.67439100  1
  S  S19  1  0.99982400  0.12153900  0.25376700  1
  S  S20  1  0.49982400  0.87846100  0.24623300  1
  S  S21  1  0.77835700  0.83037800  0.78535100  1
  S  S22  1  0.59987500  0.50336900  0.13892700  1
  S  S23  1  0.09987500  0.49663100  0.36107300  1
  N  N24  1  0.62070100  0.92008500  0.15468500  1
  N  N25  1  0.49741200  0.42109100  0.26834000  1
  N  N26  1  0.36490400  0.72948700  0.52991000  1
  N  N27  1  0.12070100  0.07991500  0.34531500  1
  N  N28  1  0.86490400  0.27051300  0.97009000  1
  N  N29  1  0.13509600  0.72948700  0.02991000  1
  N  N30  1  0.63509600  0.27051300  0.47009000  1
  N  N31  1  0.50258800  0.57890900  0.73166000  1
  N  N32  1  0.99741200  0.57890900  0.23166000  1
  N  N33  1  0.34169100  0.25601200  0.53912300  1
  N  N34  1  0.15830900  0.25601200  0.03912300  1
  N  N35  1  0.84169100  0.74398800  0.96087700  1
  N  N36  1  0.65830900  0.74398800  0.46087700  1
  N  N37  1  0.37929900  0.07991500  0.84531500  1
  N  N38  1  0.87929900  0.92008500  0.65468500  1
  N  N39  1  0.00258800  0.42109100  0.76834000  1
