# generated using pymatgen
data_B6H21C5N2O
_symmetry_space_group_name_H-M   'P 1'
_cell_length_a   8.72880500
_cell_length_b   8.89401959
_cell_length_c   9.46151791
_cell_angle_alpha   65.52110726
_cell_angle_beta   80.41703340
_cell_angle_gamma   68.11980481
_symmetry_Int_Tables_number   1
_chemical_formula_structural   B6H21C5N2O
_chemical_formula_sum   'B12 H42 C10 N4 O2'
_cell_volume   620.29297051
_cell_formula_units_Z   2
loop_
 _symmetry_equiv_pos_site_id
 _symmetry_equiv_pos_as_xyz
  1  'x, y, z'
loop_
 _atom_site_type_symbol
 _atom_site_label
 _atom_site_symmetry_multiplicity
 _atom_site_fract_x
 _atom_site_fract_y
 _atom_site_fract_z
 _atom_site_occupancy
  B  B0  1  0.83182000  0.68386800  0.43961700  1
  B  B1  1  0.02537500  0.66942600  0.33958500  1
  B  B2  1  0.81510700  0.47036500  0.52174900  1
  B  B3  1  0.91060900  0.54221300  0.33604800  1
  B  B4  1  0.16818000  0.31613200  0.56038300  1
  B  B5  1  0.08939100  0.45778700  0.66395200  1
  B  B6  1  0.87139200  0.55291400  0.64041500  1
  B  B7  1  0.18489300  0.52963500  0.47825100  1
  B  B8  1  0.00128800  0.67630100  0.52759100  1
  B  B9  1  0.12860800  0.44708600  0.35958500  1
  B  B10  1  0.97462500  0.33057400  0.66041500  1
  B  B11  1  0.99871200  0.32369900  0.47240900  1
  H  H12  1  0.37052600  0.52888400  0.89014100  1
  H  H13  1  0.32328900  0.99473800  0.90708000  1
  H  H14  1  0.31680000  0.54986700  0.46319800  1
  H  H15  1  0.54050200  0.68888800  0.27118000  1
  H  H16  1  0.20015200  0.96619700  0.32726800  1
  H  H17  1  0.22073100  0.15696300  0.98611800  1
  H  H18  1  0.08065300  0.67580000  0.82821700  1
  H  H19  1  0.99784000  0.19804700  0.45367100  1
  H  H20  1  0.77926900  0.84303700  0.01388200  1
  H  H21  1  0.71206000  0.81497400  0.39628400  1
  H  H22  1  0.31425600  0.11202800  0.22732600  1
  H  H23  1  0.62947400  0.47111600  0.10985900  1
  H  H24  1  0.91934700  0.32420000  0.17178300  1
  H  H25  1  0.45949800  0.31111200  0.72882000  1
  H  H26  1  0.11781500  0.65796300  0.01749500  1
  H  H27  1  0.49926500  0.71087400  0.68216800  1
  H  H28  1  0.08846500  0.86211700  0.85272400  1
  H  H29  1  0.79984800  0.03380300  0.67273200  1
  H  H30  1  0.67671100  0.00526200  0.09292000  1
  H  H31  1  0.28794000  0.18502600  0.60371600  1
  H  H32  1  0.88218500  0.34203700  0.98250500  1
  H  H33  1  0.14205400  0.98455300  0.02548500  1
  H  H34  1  0.84681100  0.57269500  0.21886900  1
  H  H35  1  0.58302600  0.10601700  0.64075000  1
  H  H36  1  0.41697400  0.89398300  0.35925000  1
  H  H37  1  0.15318900  0.42730500  0.78113100  1
  H  H38  1  0.85794600  0.01544700  0.97451500  1
  H  H39  1  0.21986600  0.40998700  0.25908500  1
  H  H40  1  0.62316700  0.30690500  0.06984600  1
  H  H41  1  0.68574400  0.88797200  0.77267400  1
  H  H42  1  0.91153500  0.13788300  0.14727600  1
  H  H43  1  0.68933300  0.10505500  0.34198100  1
  H  H44  1  0.78013400  0.59001300  0.74091500  1
  H  H45  1  0.95704600  0.20956300  0.77464700  1
  H  H46  1  0.00216000  0.80195300  0.54632900  1
  H  H47  1  0.04295400  0.79043700  0.22535300  1
  H  H48  1  0.31066700  0.89494500  0.65801900  1
  H  H49  1  0.37683300  0.69309500  0.93015400  1
  H  H50  1  0.68320000  0.45013300  0.53680200  1
  H  H51  1  0.31458900  0.71034900  0.62232600  1
  H  H52  1  0.68541100  0.28965100  0.37767400  1
  H  H53  1  0.50073500  0.28912600  0.31783200  1
  C  C54  1  0.36419400  0.75196700  0.69347500  1
  C  C55  1  0.13835100  0.71877400  0.89205100  1
  C  C56  1  0.31967900  0.97478200  0.27239800  1
  C  C57  1  0.52983400  0.24366500  0.83730900  1
  C  C58  1  0.86164900  0.28122600  0.10794900  1
  C  C59  1  0.25513200  0.01749700  0.00851900  1
  C  C60  1  0.47016600  0.75633500  0.16269100  1
  C  C61  1  0.74486800  0.98250300  0.99148100  1
  C  C62  1  0.68032100  0.02521800  0.72760200  1
  C  C63  1  0.63580600  0.24803300  0.30652500  1
  N  N64  1  0.68071900  0.33415200  0.14081400  1
  N  N65  1  0.31928100  0.66584800  0.85918600  1
  N  N66  1  0.35745000  0.91229000  0.14602900  1
  N  N67  1  0.64255000  0.08771000  0.85397100  1
  O  O68  1  0.49908200  0.31182800  0.93725500  1
  O  O69  1  0.50091800  0.68817200  0.06274500  1
