# generated using pymatgen
data_Sr5B3BrO9
_symmetry_space_group_name_H-M   'P 1'
_cell_length_a   8.81192917
_cell_length_b   8.81192917
_cell_length_c   7.61403800
_cell_angle_alpha   90.00000000
_cell_angle_beta   90.00000000
_cell_angle_gamma   109.79250639
_symmetry_Int_Tables_number   1
_chemical_formula_structural   Sr5B3BrO9
_chemical_formula_sum   'Sr10 B6 Br2 O18'
_cell_volume   556.30385887
_cell_formula_units_Z   2
loop_
 _symmetry_equiv_pos_site_id
 _symmetry_equiv_pos_as_xyz
  1  'x, y, z'
loop_
 _atom_site_type_symbol
 _atom_site_label
 _atom_site_symmetry_multiplicity
 _atom_site_fract_x
 _atom_site_fract_y
 _atom_site_fract_z
 _atom_site_occupancy
  Sr  Sr0  1  0.75709200  0.75709200  0.50000000  1
  Sr  Sr1  1  0.00579600  0.26646700  0.42727100  1
  Sr  Sr2  1  0.63618900  0.36381100  0.25000000  1
  Sr  Sr3  1  0.36337600  0.63662400  0.25000000  1
  Sr  Sr4  1  0.99420400  0.73353300  0.92727100  1
  Sr  Sr5  1  0.24290800  0.24290800  0.00000000  1
  Sr  Sr6  1  0.73353300  0.99420400  0.07272900  1
  Sr  Sr7  1  0.36381100  0.63618900  0.75000000  1
  Sr  Sr8  1  0.63662400  0.36337600  0.75000000  1
  Sr  Sr9  1  0.26646700  0.00579600  0.57272900  1
  B  B10  1  0.37254500  0.37254500  0.50000000  1
  B  B11  1  0.62745500  0.62745500  0.00000000  1
  B  B12  1  0.01386100  0.58995200  0.52752300  1
  B  B13  1  0.58995200  0.01386100  0.47247700  1
  B  B14  1  0.98613900  0.41004800  0.02752300  1
  B  B15  1  0.41004800  0.98613900  0.97247700  1
  Br  Br16  1  0.94130900  0.05869100  0.75000000  1
  Br  Br17  1  0.05869100  0.94130900  0.25000000  1
  O  O18  1  0.48888800  0.48888800  0.00000000  1
  O  O19  1  0.69491800  0.68949700  0.83945300  1
  O  O20  1  0.52164100  0.13920500  0.01319000  1
  O  O21  1  0.47835900  0.86079500  0.51319000  1
  O  O22  1  0.86079500  0.47835900  0.48681000  1
  O  O23  1  0.55581400  0.15289500  0.51315100  1
  O  O24  1  0.15289500  0.55581400  0.48684900  1
  O  O25  1  0.44418600  0.84710500  0.01315100  1
  O  O26  1  0.51111200  0.51111200  0.50000000  1
  O  O27  1  0.26781300  0.97422800  0.88662500  1
  O  O28  1  0.84710500  0.44418600  0.98684900  1
  O  O29  1  0.30508200  0.31050300  0.33945300  1
  O  O30  1  0.97422800  0.26781300  0.11337500  1
  O  O31  1  0.31050300  0.30508200  0.66054700  1
  O  O32  1  0.02577200  0.73218700  0.61337500  1
  O  O33  1  0.13920500  0.52164100  0.98681000  1
  O  O34  1  0.68949700  0.69491800  0.16054700  1
  O  O35  1  0.73218700  0.02577200  0.38662500  1
