# generated using pymatgen
data_Cr3N4
_symmetry_space_group_name_H-M   'P 1'
_cell_length_a   8.07430367
_cell_length_b   8.07430367
_cell_length_c   3.11874000
_cell_angle_alpha   90.00000000
_cell_angle_beta   90.00000000
_cell_angle_gamma   119.99999729
_symmetry_Int_Tables_number   1
_chemical_formula_structural   Cr3N4
_chemical_formula_sum   'Cr6 N8'
_cell_volume   176.08403103
_cell_formula_units_Z   2
loop_
 _symmetry_equiv_pos_site_id
 _symmetry_equiv_pos_as_xyz
  1  'x, y, z'
loop_
 _atom_site_type_symbol
 _atom_site_label
 _atom_site_symmetry_multiplicity
 _atom_site_fract_x
 _atom_site_fract_y
 _atom_site_fract_z
 _atom_site_occupancy
  Cr  Cr0  1  0.59605200  0.81833700  0.75000000  1
  Cr  Cr1  1  0.22228400  0.40394800  0.75000000  1
  Cr  Cr2  1  0.18166300  0.77771600  0.75000000  1
  Cr  Cr3  1  0.40394800  0.18166300  0.25000000  1
  Cr  Cr4  1  0.77771600  0.59605200  0.25000000  1
  Cr  Cr5  1  0.81833700  0.22228400  0.25000000  1
  N  N6  1  0.33333300  0.66666700  0.75000000  1
  N  N7  1  0.66666700  0.33333300  0.25000000  1
  N  N8  1  0.70628400  0.66861600  0.75000000  1
  N  N9  1  0.96233200  0.29371600  0.75000000  1
  N  N10  1  0.33138400  0.03766800  0.75000000  1
  N  N11  1  0.29371600  0.33138400  0.25000000  1
  N  N12  1  0.03766800  0.70628400  0.25000000  1
  N  N13  1  0.66861600  0.96233200  0.25000000  1
