# generated using pymatgen
data_BaCa2C2(O3F)2
_symmetry_space_group_name_H-M   'P 1'
_cell_length_a   6.98604127
_cell_length_b   6.98604127
_cell_length_c   9.55977800
_cell_angle_alpha   90.00000000
_cell_angle_beta   90.00000000
_cell_angle_gamma   129.69353655
_symmetry_Int_Tables_number   1
_chemical_formula_structural   BaCa2C2(O3F)2
_chemical_formula_sum   'Ba2 Ca4 C4 O12 F4'
_cell_volume   359.00682167
_cell_formula_units_Z   2
loop_
 _symmetry_equiv_pos_site_id
 _symmetry_equiv_pos_as_xyz
  1  'x, y, z'
loop_
 _atom_site_type_symbol
 _atom_site_label
 _atom_site_symmetry_multiplicity
 _atom_site_fract_x
 _atom_site_fract_y
 _atom_site_fract_z
 _atom_site_occupancy
  Ba  Ba0  1  0.00121400  0.00121400  0.75000000  1
  Ba  Ba1  1  0.99878600  0.99878600  0.25000000  1
  Ca  Ca2  1  0.64637500  0.35362500  0.00000000  1
  Ca  Ca3  1  0.64637500  0.35362500  0.50000000  1
  Ca  Ca4  1  0.35362500  0.64637500  0.50000000  1
  Ca  Ca5  1  0.35362500  0.64637500  0.00000000  1
  C  C6  1  0.90202300  0.40869000  0.75000000  1
  C  C7  1  0.59131000  0.09797700  0.25000000  1
  C  C8  1  0.40869000  0.90202300  0.75000000  1
  C  C9  1  0.09797700  0.59131000  0.25000000  1
  O  O10  1  0.04253600  0.63714500  0.13223800  1
  O  O11  1  0.63714500  0.04253600  0.36776200  1
  O  O12  1  0.36285500  0.95746400  0.63223800  1
  O  O13  1  0.36285500  0.95746400  0.86776200  1
  O  O14  1  0.95746400  0.36285500  0.63223800  1
  O  O15  1  0.22231100  0.50967900  0.25000000  1
  O  O16  1  0.77768900  0.49032100  0.75000000  1
  O  O17  1  0.50967900  0.22231100  0.25000000  1
  O  O18  1  0.63714500  0.04253600  0.13223800  1
  O  O19  1  0.95746400  0.36285500  0.86776200  1
  O  O20  1  0.04253600  0.63714500  0.36776200  1
  O  O21  1  0.49032100  0.77768900  0.75000000  1
  F  F22  1  0.73514900  0.73514900  0.00607600  1
  F  F23  1  0.73514900  0.73514900  0.49392400  1
  F  F24  1  0.26485100  0.26485100  0.50607600  1
  F  F25  1  0.26485100  0.26485100  0.99392400  1
