# generated using pymatgen
data_Hg3SO6
_symmetry_space_group_name_H-M   'P 1'
_cell_length_a   7.17914033
_cell_length_b   7.17914033
_cell_length_c   10.64478000
_cell_angle_alpha   90.00000000
_cell_angle_beta   90.00000000
_cell_angle_gamma   120.00000305
_symmetry_Int_Tables_number   1
_chemical_formula_structural   Hg3SO6
_chemical_formula_sum   'Hg9 S3 O18'
_cell_volume   475.12971641
_cell_formula_units_Z   3
loop_
 _symmetry_equiv_pos_site_id
 _symmetry_equiv_pos_as_xyz
  1  'x, y, z'
loop_
 _atom_site_type_symbol
 _atom_site_label
 _atom_site_symmetry_multiplicity
 _atom_site_fract_x
 _atom_site_fract_y
 _atom_site_fract_z
 _atom_site_occupancy
  Hg  Hg0  1  0.49892500  0.19359300  0.67349200  1
  Hg  Hg1  1  0.50107500  0.69466800  0.65984100  1
  Hg  Hg2  1  0.30533200  0.80640700  0.99317500  1
  Hg  Hg3  1  0.70333800  0.00000000  0.33333300  1
  Hg  Hg4  1  0.69466800  0.50107500  0.34015900  1
  Hg  Hg5  1  0.80640700  0.30533200  0.00682500  1
  Hg  Hg6  1  0.29666200  0.29666200  0.00000000  1
  Hg  Hg7  1  0.00000000  0.70333800  0.66666700  1
  Hg  Hg8  1  0.19359300  0.49892500  0.32650800  1
  S  S9  1  0.00000000  0.22833700  0.66666700  1
  S  S10  1  0.77166300  0.77166300  0.00000000  1
  S  S11  1  0.22833700  0.00000000  0.33333300  1
  O  O12  1  0.12135800  0.41175800  0.57631300  1
  O  O13  1  0.14375600  0.47286000  0.04546400  1
  O  O14  1  0.70960000  0.58824200  0.09035300  1
  O  O15  1  0.15336600  0.18812600  0.73988000  1
  O  O16  1  0.29040000  0.87864200  0.24298000  1
  O  O17  1  0.85624400  0.32910400  0.28787000  1
  O  O18  1  0.52714000  0.67089600  0.37879700  1
  O  O19  1  0.67089600  0.52714000  0.62120300  1
  O  O20  1  0.03475900  0.84663400  0.40654600  1
  O  O21  1  0.81187400  0.96524100  0.07321300  1
  O  O22  1  0.58824200  0.70960000  0.90964700  1
  O  O23  1  0.96524100  0.81187400  0.92678700  1
  O  O24  1  0.84663400  0.03475900  0.59345400  1
  O  O25  1  0.32910400  0.85624400  0.71213000  1
  O  O26  1  0.47286000  0.14375600  0.95453600  1
  O  O27  1  0.41175800  0.12135800  0.42368700  1
  O  O28  1  0.18812600  0.15336600  0.26012000  1
  O  O29  1  0.87864200  0.29040000  0.75702000  1
