# generated using pymatgen
data_Te4Mo(OF4)5
_symmetry_space_group_name_H-M   'P 1'
_cell_length_a   11.73639300
_cell_length_b   9.45279600
_cell_length_c   20.80231633
_cell_angle_alpha   77.20587749
_cell_angle_beta   90.00000000
_cell_angle_gamma   90.00000000
_symmetry_Int_Tables_number   1
_chemical_formula_structural   Te4Mo(OF4)5
_chemical_formula_sum   'Te16 Mo4 O20 F80'
_cell_volume   2250.54593797
_cell_formula_units_Z   4
loop_
 _symmetry_equiv_pos_site_id
 _symmetry_equiv_pos_as_xyz
  1  'x, y, z'
loop_
 _atom_site_type_symbol
 _atom_site_label
 _atom_site_symmetry_multiplicity
 _atom_site_fract_x
 _atom_site_fract_y
 _atom_site_fract_z
 _atom_site_occupancy
  Te  Te0  1  0.86749200  0.30225900  0.95838200  1
  Te  Te1  1  0.53089400  0.47176800  0.76826300  1
  Te  Te2  1  0.86633300  0.78554200  0.46159100  1
  Te  Te3  1  0.13366700  0.21445800  0.53840900  1
  Te  Te4  1  0.03089400  0.52823200  0.73173700  1
  Te  Te5  1  0.46910600  0.52823200  0.23173700  1
  Te  Te6  1  0.13250800  0.69774100  0.04161800  1
  Te  Te7  1  0.74153300  0.98034400  0.20668200  1
  Te  Te8  1  0.24153300  0.01965600  0.29331800  1
  Te  Te9  1  0.63250800  0.30225900  0.45838200  1
  Te  Te10  1  0.36633300  0.21445800  0.03840900  1
  Te  Te11  1  0.63366700  0.78554200  0.96159100  1
  Te  Te12  1  0.96910600  0.47176800  0.26826300  1
  Te  Te13  1  0.25846700  0.01965600  0.79331800  1
  Te  Te14  1  0.75846700  0.98034400  0.70668200  1
  Te  Te15  1  0.36749200  0.69774100  0.54161800  1
  Mo  Mo16  1  0.33558100  0.32956300  0.65864900  1
  Mo  Mo17  1  0.16441900  0.32956300  0.15864900  1
  Mo  Mo18  1  0.83558100  0.67043700  0.84135100  1
  Mo  Mo19  1  0.66441900  0.67043700  0.34135100  1
  O  O20  1  0.35504600  0.50679400  0.59345300  1
  O  O21  1  0.59898300  0.56802700  0.27711600  1
  O  O22  1  0.73478100  0.79638400  0.26618900  1
  O  O23  1  0.78256700  0.72430000  0.39472500  1
  O  O24  1  0.85504600  0.49320600  0.90654700  1
  O  O25  1  0.76521900  0.79638400  0.76618900  1
  O  O26  1  0.90101700  0.56802700  0.77711600  1
  O  O27  1  0.09898300  0.43197300  0.22288400  1
  O  O28  1  0.64495400  0.49320600  0.40654700  1
  O  O29  1  0.44725800  0.23073100  0.64266900  1
  O  O30  1  0.14495400  0.50679400  0.09345300  1
  O  O31  1  0.40101700  0.43197300  0.72288400  1
  O  O32  1  0.26521900  0.20361600  0.73381100  1
  O  O33  1  0.05274200  0.23073100  0.14266900  1
  O  O34  1  0.21743300  0.27570000  0.60527500  1
  O  O35  1  0.71743300  0.72430000  0.89472500  1
  O  O36  1  0.28256700  0.27570000  0.10527500  1
  O  O37  1  0.55274200  0.76926900  0.35733100  1
  O  O38  1  0.23478100  0.20361600  0.23381100  1
  O  O39  1  0.94725800  0.76926900  0.85733100  1
  F  F40  1  0.05024900  0.44766800  0.34707700  1
  F  F41  1  0.24847400  0.84011400  0.85265000  1
  F  F42  1  0.37827300  0.62235300  0.46593800  1
  F  F43  1  0.87547900  0.50054900  0.19354800  1
  F  F44  1  0.69748900  0.07580100  0.27260200  1
  F  F45  1  0.52600000  0.68867200  0.55061400  1
  F  F46  1  0.35743600  0.77737000  0.61613200  1
  F  F47  1  0.37547900  0.49945100  0.30645200  1
  F  F48  1  0.55024900  0.55233200  0.15292300  1
  F  F49  1  0.12767200  0.02573000  0.59017300  1
  F  F50  1  0.63880900  0.59764100  0.01434500  1
  F  F51  1  0.29068000  0.71221000  0.03157800  1
  F  F52  1  0.11777700  0.88431300  0.98887300  1
  F  F53  1  0.61777700  0.11568700  0.51112700  1
  F  F54  1  0.58873600  0.96759400  0.18290600  1
  F  F55  1  0.95009300  0.84538700  0.52710900  1
  F  F56  1  0.66071400  0.51356000  0.81615900  1
  F  F57  1  0.91126400  0.96759400  0.68290600  1
  F  F58  1  0.41126400  0.03240600  0.81709400  1
  F  F59  1  0.08873600  0.03240600  0.31709400  1
  F  F60  1  0.54990700  0.84538700  0.02710900  1
  F  F61  1  0.14256400  0.77737000  0.11613200  1
  F  F62  1  0.25152600  0.84011400  0.35265000  1
  F  F63  1  0.71475000  0.88898300  0.63962400  1
  F  F64  1  0.49810600  0.67001700  0.74993200  1
  F  F65  1  0.88222300  0.11568700  0.01112700  1
  F  F66  1  0.16071400  0.48644000  0.68384100  1
  F  F67  1  0.76796500  0.83217000  0.00053600  1
  F  F68  1  0.30251100  0.92419900  0.72739800  1
  F  F69  1  0.62452100  0.50054900  0.69354800  1
  F  F70  1  0.12452100  0.49945100  0.80645200  1
  F  F71  1  0.07769800  0.72200600  0.70893500  1
  F  F72  1  0.47400000  0.31132800  0.44938600  1
  F  F73  1  0.87232800  0.97427000  0.40982700  1
  F  F74  1  0.44975100  0.44766800  0.84707700  1
  F  F75  1  0.85743600  0.22263000  0.88386800  1
  F  F76  1  0.80251100  0.07580100  0.77260200  1
  F  F77  1  0.75152600  0.15988600  0.14735000  1
  F  F78  1  0.20932000  0.71221000  0.53157800  1
  F  F79  1  0.04990700  0.15461300  0.47289100  1
  F  F80  1  0.87827300  0.37764700  0.03406200  1
  F  F81  1  0.99810600  0.32998300  0.75006800  1
  F  F82  1  0.02600000  0.31132800  0.94938600  1
  F  F83  1  0.73203500  0.83217000  0.50053600  1
  F  F84  1  0.83928600  0.51356000  0.31615900  1
  F  F85  1  0.74847400  0.15988600  0.64735000  1
  F  F86  1  0.10548200  0.00239700  0.77129800  1
  F  F87  1  0.97400000  0.68867200  0.05061400  1
  F  F88  1  0.94975100  0.55233200  0.65292300  1
  F  F89  1  0.45009300  0.15461300  0.97289100  1
  F  F90  1  0.23203500  0.16783000  0.99946400  1
  F  F91  1  0.38222300  0.88431300  0.48887300  1
  F  F92  1  0.26796500  0.16783000  0.49946400  1
  F  F93  1  0.33928600  0.48644000  0.18384100  1
  F  F94  1  0.42230200  0.72200600  0.20893500  1
  F  F95  1  0.19748900  0.92419900  0.22739800  1
  F  F96  1  0.89451800  0.99760300  0.22870200  1
  F  F97  1  0.86119100  0.59764100  0.51434500  1
  F  F98  1  0.00189400  0.67001700  0.24993200  1
  F  F99  1  0.49768600  0.74070100  0.92385800  1
  F  F100  1  0.79068000  0.28779000  0.46842200  1
  F  F101  1  0.50189400  0.32998300  0.25006800  1
  F  F102  1  0.57769800  0.27799400  0.79106500  1
  F  F103  1  0.92230200  0.27799400  0.29106500  1
  F  F104  1  0.37232800  0.02573000  0.09017300  1
  F  F105  1  0.64256400  0.22263000  0.38386800  1
  F  F106  1  0.13880900  0.40235900  0.48565500  1
  F  F107  1  0.99768600  0.25929900  0.57614200  1
  F  F108  1  0.62172700  0.37764700  0.53406200  1
  F  F109  1  0.21475000  0.11101700  0.86037600  1
  F  F110  1  0.28525000  0.11101700  0.36037600  1
  F  F111  1  0.36119100  0.40235900  0.98565500  1
  F  F112  1  0.12172700  0.62235300  0.96593800  1
  F  F113  1  0.00231400  0.74070100  0.42385800  1
  F  F114  1  0.60548200  0.99760300  0.72870200  1
  F  F115  1  0.70932000  0.28779000  0.96842200  1
  F  F116  1  0.50231400  0.25929900  0.07614200  1
  F  F117  1  0.78525000  0.88898300  0.13962400  1
  F  F118  1  0.62767200  0.97427000  0.90982700  1
  F  F119  1  0.39451800  0.00239700  0.27129800  1
