# generated using pymatgen
data_La3Mg
_symmetry_space_group_name_H-M   'P 1'
_cell_length_a   6.87942673
_cell_length_b   6.87942673
_cell_length_c   6.87942673
_cell_angle_alpha   148.73803366
_cell_angle_beta   125.73204504
_cell_angle_gamma   63.97273400
_symmetry_Int_Tables_number   1
_chemical_formula_structural   La3Mg
_chemical_formula_sum   'La3 Mg1'
_cell_volume   135.73722349
_cell_formula_units_Z   1
loop_
 _symmetry_equiv_pos_site_id
 _symmetry_equiv_pos_as_xyz
  1  'x, y, z'
loop_
 _atom_site_type_symbol
 _atom_site_label
 _atom_site_symmetry_multiplicity
 _atom_site_fract_x
 _atom_site_fract_y
 _atom_site_fract_z
 _atom_site_occupancy
  La  La0  1  0.14951300  0.50000000  0.64951300  1
  La  La1  1  0.27391300  0.26660100  0.00731200  1
  La  La2  1  0.74071200  0.73339900  0.00731200  1
  Mg  Mg3  1  0.66919700  0.00000000  0.66919700  1
