# generated using pymatgen
data_Ba2V(CuS2)3
_symmetry_space_group_name_H-M   'P 1'
_cell_length_a   8.83402148
_cell_length_b   8.83402148
_cell_length_c   10.75884389
_cell_angle_alpha   53.75309796
_cell_angle_beta   53.75309796
_cell_angle_gamma   61.11204268
_symmetry_Int_Tables_number   1
_chemical_formula_structural   Ba2V(CuS2)3
_chemical_formula_sum   'Ba4 V2 Cu6 S12'
_cell_volume   534.46443920
_cell_formula_units_Z   2
loop_
 _symmetry_equiv_pos_site_id
 _symmetry_equiv_pos_as_xyz
  1  'x, y, z'
loop_
 _atom_site_type_symbol
 _atom_site_label
 _atom_site_symmetry_multiplicity
 _atom_site_fract_x
 _atom_site_fract_y
 _atom_site_fract_z
 _atom_site_occupancy
  Ba  Ba0  1  0.85485000  0.78511000  0.05556700  1
  Ba  Ba1  1  0.21489000  0.14515000  0.44443300  1
  Ba  Ba2  1  0.14515000  0.21489000  0.94443300  1
  Ba  Ba3  1  0.78511000  0.85485000  0.55556700  1
  V  V4  1  0.36138300  0.63861700  0.25000000  1
  V  V5  1  0.63861700  0.36138300  0.75000000  1
  Cu  Cu6  1  0.32318400  0.65365100  0.50761700  1
  Cu  Cu7  1  0.65365100  0.32318400  0.00761700  1
  Cu  Cu8  1  0.33409800  0.66590200  0.75000000  1
  Cu  Cu9  1  0.66590200  0.33409800  0.25000000  1
  Cu  Cu10  1  0.67681600  0.34634900  0.49238300  1
  Cu  Cu11  1  0.34634900  0.67681600  0.99238300  1
  S  S12  1  0.61581500  0.61550600  0.01795900  1
  S  S13  1  0.69545000  0.06442800  0.23787700  1
  S  S14  1  0.38418400  0.38449400  0.98204100  1
  S  S15  1  0.65196500  0.10487200  0.75657500  1
  S  S16  1  0.30455000  0.93557200  0.76212300  1
  S  S17  1  0.06442800  0.69545000  0.73787700  1
  S  S18  1  0.34803500  0.89512800  0.24342500  1
  S  S19  1  0.38449400  0.38418500  0.48204100  1
  S  S20  1  0.10487200  0.65196500  0.25657500  1
  S  S21  1  0.93557200  0.30455000  0.26212300  1
  S  S22  1  0.61550600  0.61581500  0.51795900  1
  S  S23  1  0.89512800  0.34803500  0.74342500  1
