# generated using pymatgen
data_K2Ce(PO4)2
_symmetry_space_group_name_H-M   'P 1'
_cell_length_a   10.16950817
_cell_length_b   10.16950817
_cell_length_c   10.16950817
_cell_angle_alpha   140.17377395
_cell_angle_beta   140.17377395
_cell_angle_gamma   57.58954255
_symmetry_Int_Tables_number   1
_chemical_formula_structural   K2Ce(PO4)2
_chemical_formula_sum   'K4 Ce2 P4 O16'
_cell_volume   427.67476357
_cell_formula_units_Z   2
loop_
 _symmetry_equiv_pos_site_id
 _symmetry_equiv_pos_as_xyz
  1  'x, y, z'
loop_
 _atom_site_type_symbol
 _atom_site_label
 _atom_site_symmetry_multiplicity
 _atom_site_fract_x
 _atom_site_fract_y
 _atom_site_fract_z
 _atom_site_occupancy
  K  K0  1  0.37500000  0.12500000  0.25000000  1
  K  K1  1  0.87500000  0.62500000  0.75000000  1
  K  K2  1  0.87500000  0.12500000  0.75000000  1
  K  K3  1  0.87500000  0.12500000  0.25000000  1
  Ce  Ce4  1  0.25000000  0.75000000  0.50000000  1
  Ce  Ce5  1  0.50000000  0.50000000  0.00000000  1
  P  P6  1  0.67722500  0.67722500  0.00000000  1
  P  P7  1  0.07277500  0.57277500  0.50000000  1
  P  P8  1  0.32277500  0.32277500  0.00000000  1
  P  P9  1  0.42722500  0.92722500  0.50000000  1
  O  O10  1  0.48042300  0.15825700  0.67783400  1
  O  O11  1  0.55417500  0.37469100  0.17948400  1
  O  O12  1  0.48042300  0.80258900  0.32216600  1
  O  O13  1  0.19520700  0.37469100  0.82051600  1
  O  O14  1  0.26957700  0.09174300  0.82216600  1
  O  O15  1  0.84174300  0.51957700  0.32216600  1
  O  O16  1  0.19582500  0.87530900  0.32051600  1
  O  O17  1  0.26957700  0.44741100  0.17783400  1
  O  O18  1  0.12469100  0.44520700  0.32051600  1
  O  O19  1  0.90825700  0.73042300  0.17783400  1
  O  O20  1  0.19741100  0.51957700  0.67783400  1
  O  O21  1  0.55258900  0.73042300  0.82216600  1
  O  O22  1  0.55479300  0.87530900  0.67948400  1
  O  O23  1  0.62530900  0.44582500  0.82051600  1
  O  O24  1  0.12469100  0.80417500  0.67948400  1
  O  O25  1  0.62530900  0.80479300  0.17948400  1
