# generated using pymatgen
data_V3H8C2NO7
_symmetry_space_group_name_H-M   'P 1'
_cell_length_a   6.75437100
_cell_length_b   7.92463300
_cell_length_c   8.74433367
_cell_angle_alpha   81.09366117
_cell_angle_beta   90.00000000
_cell_angle_gamma   90.00000000
_symmetry_Int_Tables_number   1
_chemical_formula_structural   V3H8C2NO7
_chemical_formula_sum   'V6 H16 C4 N2 O14'
_cell_volume   462.40504884
_cell_formula_units_Z   2
loop_
 _symmetry_equiv_pos_site_id
 _symmetry_equiv_pos_as_xyz
  1  'x, y, z'
loop_
 _atom_site_type_symbol
 _atom_site_label
 _atom_site_symmetry_multiplicity
 _atom_site_fract_x
 _atom_site_fract_y
 _atom_site_fract_z
 _atom_site_occupancy
  V  V0  1  0.31803500  0.71109700  0.65210900  1
  V  V1  1  0.09505800  0.98482800  0.42770300  1
  V  V2  1  0.82205700  0.61859400  0.56763500  1
  V  V3  1  0.59505800  0.01517200  0.57229700  1
  V  V4  1  0.32205700  0.38140600  0.43236500  1
  V  V5  1  0.81803500  0.28890300  0.34789100  1
  H  H6  1  0.03824400  0.31439100  0.00267100  1
  H  H7  1  0.53824400  0.68560900  0.99732900  1
  H  H8  1  0.59398200  0.97400200  0.01807800  1
  H  H9  1  0.09398200  0.02599800  0.98192200  1
  H  H10  1  0.64248400  0.61662400  0.16862400  1
  H  H11  1  0.96433200  0.13205300  0.81386100  1
  H  H12  1  0.14248400  0.38337600  0.83137600  1
  H  H13  1  0.36540000  0.41651600  0.04011700  1
  H  H14  1  0.46433200  0.86794700  0.18613900  1
  H  H15  1  0.46149200  0.27219000  0.91836400  1
  H  H16  1  0.34998700  0.19042100  0.10195500  1
  H  H17  1  0.72595800  0.91191300  0.19572600  1
  H  H18  1  0.22595800  0.08808700  0.80427400  1
  H  H19  1  0.86540000  0.58348400  0.95988300  1
  H  H20  1  0.84998700  0.80957900  0.89804500  1
  H  H21  1  0.96149200  0.72781000  0.08163600  1
  C  C22  1  0.84692700  0.70744900  0.99772300  1
  C  C23  1  0.34692700  0.29255100  0.00227700  1
  C  C24  1  0.10474000  0.12119500  0.87731800  1
  C  C25  1  0.60474000  0.87880500  0.12268200  1
  N  N26  1  0.14935000  0.28886200  0.92691200  1
  N  N27  1  0.64935000  0.71113800  0.07308800  1
  O  O28  1  0.65479600  0.05463300  0.74546400  1
  O  O29  1  0.15479600  0.94536700  0.25453600  1
  O  O30  1  0.81790800  0.04388300  0.43084800  1
  O  O31  1  0.81646600  0.31514000  0.15653300  1
  O  O32  1  0.31790800  0.95611700  0.56915200  1
  O  O33  1  0.80910400  0.52142200  0.40177200  1
  O  O34  1  0.60410800  0.75146700  0.58830100  1
  O  O35  1  0.84279400  0.46952600  0.71888100  1
  O  O36  1  0.54206000  0.24773800  0.43944900  1
  O  O37  1  0.10410800  0.24853300  0.41169900  1
  O  O38  1  0.30910400  0.47857800  0.59822800  1
  O  O39  1  0.04206000  0.75226200  0.56055100  1
  O  O40  1  0.34279400  0.53047400  0.28111900  1
  O  O41  1  0.31646600  0.68486000  0.84346700  1
