# generated using pymatgen
data_HfMg
_symmetry_space_group_name_H-M   'P 1'
_cell_length_a   5.75456514
_cell_length_b   5.75456514
_cell_length_c   5.75456490
_cell_angle_alpha   30.70167065
_cell_angle_beta   30.70167065
_cell_angle_gamma   30.70167479
_symmetry_Int_Tables_number   1
_chemical_formula_structural   HfMg
_chemical_formula_sum   'Hf1 Mg1'
_cell_volume   44.04820631
_cell_formula_units_Z   1
loop_
 _symmetry_equiv_pos_site_id
 _symmetry_equiv_pos_as_xyz
  1  'x, y, z'
loop_
 _atom_site_type_symbol
 _atom_site_label
 _atom_site_symmetry_multiplicity
 _atom_site_fract_x
 _atom_site_fract_y
 _atom_site_fract_z
 _atom_site_occupancy
  Hf  Hf0  1  0.00000000  0.00000000  0.00000000  1
  Mg  Mg1  1  0.50000000  0.50000000  0.50000000  1
