# generated using pymatgen
data_TeH12AuC4S3N
_symmetry_space_group_name_H-M   'P 1'
_cell_length_a   19.45886700
_cell_length_b   6.79445100
_cell_length_c   9.40777750
_cell_angle_alpha   79.11720956
_cell_angle_beta   90.00000000
_cell_angle_gamma   90.00000000
_symmetry_Int_Tables_number   1
_chemical_formula_structural   TeH12AuC4S3N
_chemical_formula_sum   'Te4 H48 Au4 C16 S12 N4'
_cell_volume   1221.45447667
_cell_formula_units_Z   4
loop_
 _symmetry_equiv_pos_site_id
 _symmetry_equiv_pos_as_xyz
  1  'x, y, z'
loop_
 _atom_site_type_symbol
 _atom_site_label
 _atom_site_symmetry_multiplicity
 _atom_site_fract_x
 _atom_site_fract_y
 _atom_site_fract_z
 _atom_site_occupancy
  Te  Te0  1  0.85636200  0.01052400  0.62832600  1
  Te  Te1  1  0.14363800  0.98947600  0.37167400  1
  Te  Te2  1  0.35636200  0.98947600  0.87167400  1
  Te  Te3  1  0.64363800  0.01052400  0.12832600  1
  H  H4  1  0.37430300  0.86150600  0.28672800  1
  H  H5  1  0.20397600  0.64728200  0.70625000  1
  H  H6  1  0.55253500  0.29249900  0.73512900  1
  H  H7  1  0.71898300  0.27209300  0.55957600  1
  H  H8  1  0.72145400  0.53627500  0.47841600  1
  H  H9  1  0.87430300  0.13849400  0.21327200  1
  H  H10  1  0.60964500  0.68096200  0.43993700  1
  H  H11  1  0.62569700  0.13849400  0.71327200  1
  H  H12  1  0.03940800  0.41968200  0.94528900  1
  H  H13  1  0.79252300  0.61682000  0.21653200  1
  H  H14  1  0.29602400  0.64728200  0.20625000  1
  H  H15  1  0.94746500  0.29249900  0.23512900  1
  H  H16  1  0.63564600  0.51885400  0.82690200  1
  H  H17  1  0.79602400  0.35271800  0.29375000  1
  H  H18  1  0.29252300  0.38318000  0.28346800  1
  H  H19  1  0.27854600  0.46372500  0.52158400  1
  H  H20  1  0.70397600  0.35271800  0.79375000  1
  H  H21  1  0.20747700  0.38318000  0.78346800  1
  H  H22  1  0.40014600  0.25741300  0.38447800  1
  H  H23  1  0.43030000  0.77642700  0.43724100  1
  H  H24  1  0.16164900  0.62869700  0.08643100  1
  H  H25  1  0.96059200  0.58031800  0.05471100  1
  H  H26  1  0.56970000  0.22357300  0.56275900  1
  H  H27  1  0.89035500  0.68096200  0.93993700  1
  H  H28  1  0.59985400  0.74258700  0.61552200  1
  H  H29  1  0.28101700  0.72790700  0.44042400  1
  H  H30  1  0.12569700  0.86150600  0.78672800  1
  H  H31  1  0.83835100  0.37130300  0.91356900  1
  H  H32  1  0.46059200  0.41968200  0.44528900  1
  H  H33  1  0.36435400  0.48114600  0.17309800  1
  H  H34  1  0.44746500  0.70750100  0.26487100  1
  H  H35  1  0.21898300  0.72790700  0.94042400  1
  H  H36  1  0.10964500  0.31903800  0.06006300  1
  H  H37  1  0.93030000  0.22357300  0.06275900  1
  H  H38  1  0.70747700  0.61682000  0.71653200  1
  H  H39  1  0.13564600  0.48114600  0.67309800  1
  H  H40  1  0.05253500  0.70750100  0.76487100  1
  H  H41  1  0.66164900  0.37130300  0.41356900  1
  H  H42  1  0.33835100  0.62869700  0.58643100  1
  H  H43  1  0.39035500  0.31903800  0.56006300  1
  H  H44  1  0.09985400  0.25741300  0.88447800  1
  H  H45  1  0.22145400  0.46372500  0.02158400  1
  H  H46  1  0.86435400  0.51885400  0.32690200  1
  H  H47  1  0.06970000  0.77642700  0.93724100  1
  H  H48  1  0.77854600  0.53627500  0.97841600  1
  H  H49  1  0.78101700  0.27209300  0.05957600  1
  H  H50  1  0.90014600  0.74258700  0.11552200  1
  H  H51  1  0.53940800  0.58031800  0.55471100  1
  Au  Au52  1  0.02467400  0.23616600  0.55984600  1
  Au  Au53  1  0.97532600  0.76383400  0.44015400  1
  Au  Au54  1  0.47532600  0.23616600  0.05984600  1
  Au  Au55  1  0.52467400  0.76383400  0.94015400  1
  C  C56  1  0.81104700  0.40314300  0.00862800  1
  C  C57  1  0.18895300  0.59685700  0.99137200  1
  C  C58  1  0.67380200  0.48640100  0.74857800  1
  C  C59  1  0.09264400  0.73832500  0.83950100  1
  C  C60  1  0.40661500  0.37482100  0.44839300  1
  C  C61  1  0.09338500  0.37482100  0.94839300  1
  C  C62  1  0.59338500  0.62517900  0.55160700  1
  C  C63  1  0.32619800  0.51359900  0.25142200  1
  C  C64  1  0.17380200  0.51359900  0.75142200  1
  C  C65  1  0.90735600  0.26167500  0.16049900  1
  C  C66  1  0.59264400  0.26167500  0.66049900  1
  C  C67  1  0.68895300  0.40314300  0.50862800  1
  C  C68  1  0.31104700  0.59685700  0.49137200  1
  C  C69  1  0.82619800  0.48640100  0.24857800  1
  C  C70  1  0.40735600  0.73832500  0.33950100  1
  C  C71  1  0.90661500  0.62517900  0.05160700  1
  S  S72  1  0.22838800  0.04201700  0.19681900  1
  S  S73  1  0.45093100  0.86061000  0.74634300  1
  S  S74  1  0.39556600  0.32820000  0.87628700  1
  S  S75  1  0.60443400  0.67180000  0.12371300  1
  S  S76  1  0.72838800  0.95798300  0.30318100  1
  S  S77  1  0.04906900  0.86061000  0.24634300  1
  S  S78  1  0.89556600  0.67180000  0.62371300  1
  S  S79  1  0.10443400  0.32820000  0.37628700  1
  S  S80  1  0.27161200  0.04201700  0.69681900  1
  S  S81  1  0.54906900  0.13939000  0.25365700  1
  S  S82  1  0.77161200  0.95798300  0.80318100  1
  S  S83  1  0.95093100  0.13939000  0.75365700  1
  N  N84  1  0.13685600  0.55497700  0.88288400  1
  N  N85  1  0.36314400  0.55497700  0.38288400  1
  N  N86  1  0.86314400  0.44502300  0.11711600  1
  N  N87  1  0.63685600  0.44502300  0.61711600  1
