# generated using pymatgen
data_Sm10S14O
_symmetry_space_group_name_H-M   'P 1'
_cell_length_a   14.49911326
_cell_length_b   14.49911326
_cell_length_c   14.49911326
_cell_angle_alpha   117.89433710
_cell_angle_beta   117.89433710
_cell_angle_gamma   93.68752738
_symmetry_Int_Tables_number   1
_chemical_formula_structural   Sm10S14O
_chemical_formula_sum   'Sm40 S56 O4'
_cell_volume   2218.93386432
_cell_formula_units_Z   4
loop_
 _symmetry_equiv_pos_site_id
 _symmetry_equiv_pos_as_xyz
  1  'x, y, z'
loop_
 _atom_site_type_symbol
 _atom_site_label
 _atom_site_symmetry_multiplicity
 _atom_site_fract_x
 _atom_site_fract_y
 _atom_site_fract_z
 _atom_site_occupancy
  Sm  Sm0  1  0.38509300  0.11490700  0.00000000  1
  Sm  Sm1  1  0.29423200  0.69912200  0.14976200  1
  Sm  Sm2  1  0.44927500  0.81092000  0.62539200  1
  Sm  Sm3  1  0.04936000  0.19912200  0.40489000  1
  Sm  Sm4  1  0.70064000  0.05087800  0.09511000  1
  Sm  Sm5  1  0.13509300  0.63509300  0.77018700  1
  Sm  Sm6  1  0.85553000  0.70576800  0.40489000  1
  Sm  Sm7  1  0.56447100  0.42611700  0.12539200  1
  Sm  Sm8  1  0.94912200  0.04423200  0.64976200  1
  Sm  Sm9  1  0.61490700  0.61490700  0.72981300  1
  Sm  Sm10  1  0.11490700  0.38509300  0.00000000  1
  Sm  Sm11  1  0.80072500  0.92611700  0.86164600  1
  Sm  Sm12  1  0.54936000  0.14447000  0.85023800  1
  Sm  Sm13  1  0.56092000  0.43552900  0.86164600  1
  Sm  Sm14  1  0.67611700  0.31447100  0.62539200  1
  Sm  Sm15  1  0.07388300  0.93552900  0.87460800  1
  Sm  Sm16  1  0.45576800  0.55087800  0.35023800  1
  Sm  Sm17  1  0.63509300  0.86490700  0.50000000  1
  Sm  Sm18  1  0.06092000  0.19927500  0.12539200  1
  Sm  Sm19  1  0.94927500  0.32388300  0.63835400  1
  Sm  Sm20  1  0.17611700  0.55072500  0.36164600  1
  Sm  Sm21  1  0.30072500  0.43908000  0.87460800  1
  Sm  Sm22  1  0.95576800  0.60553000  0.90489000  1
  Sm  Sm23  1  0.20064000  0.10553000  0.64976200  1
  Sm  Sm24  1  0.44912200  0.79936000  0.90489000  1
  Sm  Sm25  1  0.68552900  0.31092000  0.36164600  1
  Sm  Sm26  1  0.88509300  0.88509300  0.27018700  1
  Sm  Sm27  1  0.06447100  0.93908000  0.13835400  1
  Sm  Sm28  1  0.80087800  0.20576800  0.85023800  1
  Sm  Sm29  1  0.89447000  0.54423200  0.09511000  1
  Sm  Sm30  1  0.79423200  0.64447000  0.59511000  1
  Sm  Sm31  1  0.68908000  0.05072500  0.37460800  1
  Sm  Sm32  1  0.18552900  0.82388300  0.37460800  1
  Sm  Sm33  1  0.39447000  0.29936000  0.35023800  1
  Sm  Sm34  1  0.18908000  0.81447100  0.63835400  1
  Sm  Sm35  1  0.86490700  0.36490700  0.22981300  1
  Sm  Sm36  1  0.36490700  0.13509300  0.50000000  1
  Sm  Sm37  1  0.35553000  0.95064000  0.14976200  1
  Sm  Sm38  1  0.57388300  0.69927500  0.13835400  1
  Sm  Sm39  1  0.30087800  0.45064000  0.59511000  1
  S  S40  1  0.84613900  0.73827600  0.84244100  1
  S  S41  1  0.85416500  0.24630100  0.34244100  1
  S  S42  1  0.35416500  0.01172400  0.60786400  1
  S  S43  1  0.90386100  0.51172400  0.65755900  1
  S  S44  1  0.74163500  0.52380400  0.85848500  1
  S  S45  1  0.89583500  0.00369900  0.15755900  1
  S  S46  1  0.39533800  0.56262900  0.52113500  1
  S  S47  1  0.75369900  0.09613900  0.60786400  1
  S  S48  1  0.62500000  0.72648300  0.60148300  1
  S  S49  1  0.12500000  0.02351700  0.39851700  1
  S  S50  1  0.24163500  0.38315100  0.21783100  1
  S  S51  1  0.00836500  0.72619600  0.64151500  1
  S  S52  1  0.04149400  0.87420200  0.47886500  1
  S  S53  1  0.08468000  0.36685000  0.35848500  1
  S  S54  1  0.50836500  0.86685000  0.28216900  1
  S  S55  1  0.97648300  0.37500000  0.10148300  1
  S  S56  1  0.49630100  0.60416500  0.84244100  1
  S  S57  1  0.13315000  0.41532000  0.64151500  1
  S  S58  1  0.47619600  0.33468000  0.21783100  1
  S  S59  1  0.40386100  0.74630100  0.39213600  1
  S  S60  1  0.62500000  0.22648300  0.10148300  1
  S  S61  1  0.70850600  0.37579800  0.02113500  1
  S  S62  1  0.62420200  0.64533800  0.33270800  1
  S  S63  1  0.99630100  0.15386100  0.89213600  1
  S  S64  1  0.63315000  0.99163500  0.71783100  1
  S  S65  1  0.39583500  0.23827600  0.89213600  1
  S  S66  1  0.89533800  0.37420200  0.83270800  1
  S  S67  1  0.97619600  0.75836500  0.14151500  1
  S  S68  1  0.85466200  0.87579800  0.66729200  1
  S  S69  1  0.93737100  0.10466200  0.47886500  1
  S  S70  1  0.66532000  0.88315000  0.14151500  1
  S  S71  1  0.12420200  0.79149400  0.97886500  1
  S  S72  1  0.76172400  0.65386100  0.15755900  1
  S  S73  1  0.58468000  0.22619600  0.71783100  1
  S  S74  1  0.34613900  0.50369900  0.10786400  1
  S  S75  1  0.43737100  0.95850600  0.83270800  1
  S  S76  1  0.12500000  0.52351700  0.89851700  1
  S  S77  1  0.16532000  0.02380400  0.78216900  1
  S  S78  1  0.20850600  0.18737100  0.33270800  1
  S  S79  1  0.62579800  0.45850600  0.52113500  1
  S  S80  1  0.77380400  0.49163500  0.35848500  1
  S  S81  1  0.31262900  0.29149400  0.66729200  1
  S  S82  1  0.47648300  0.37500000  0.60148300  1
  S  S83  1  0.77351700  0.87500000  0.39851700  1
  S  S84  1  0.26172400  0.10416500  0.10786400  1
  S  S85  1  0.11684900  0.25836500  0.78216900  1
  S  S86  1  0.48827600  0.14583500  0.39213600  1
  S  S87  1  0.81262900  0.14533800  0.02113500  1
  S  S88  1  0.25369900  0.64583500  0.65755900  1
  S  S89  1  0.98827600  0.59613900  0.34244100  1
  S  S90  1  0.27351700  0.87500000  0.89851700  1
  S  S91  1  0.54149400  0.06262900  0.16729200  1
  S  S92  1  0.35466200  0.68737100  0.97886500  1
  S  S93  1  0.12579800  0.60466200  0.16729200  1
  S  S94  1  0.61685000  0.83468000  0.85848500  1
  S  S95  1  0.27380400  0.91532000  0.28216900  1
  O  O96  1  0.25000000  0.75000000  0.50000000  1
  O  O97  1  0.75000000  0.25000000  0.50000000  1
  O  O98  1  0.50000000  0.50000000  0.00000000  1
  O  O99  1  0.00000000  0.00000000  0.00000000  1
