# generated using pymatgen
data_U3Ag6Mo5O27
_symmetry_space_group_name_H-M   'P 1'
_cell_length_a   10.07175105
_cell_length_b   10.07175105
_cell_length_c   13.26348280
_cell_angle_alpha   82.28247175
_cell_angle_beta   82.28247175
_cell_angle_gamma   69.63590413
_symmetry_Int_Tables_number   1
_chemical_formula_structural   U3Ag6Mo5O27
_chemical_formula_sum   'U6 Ag12 Mo10 O54'
_cell_volume   1244.37048387
_cell_formula_units_Z   2
loop_
 _symmetry_equiv_pos_site_id
 _symmetry_equiv_pos_as_xyz
  1  'x, y, z'
loop_
 _atom_site_type_symbol
 _atom_site_label
 _atom_site_symmetry_multiplicity
 _atom_site_fract_x
 _atom_site_fract_y
 _atom_site_fract_z
 _atom_site_occupancy
  U  U0  1  0.63926000  0.36074000  0.25000000  1
  U  U1  1  0.50762500  0.75320000  0.27739900  1
  U  U2  1  0.75320000  0.50762500  0.77739900  1
  U  U3  1  0.36074000  0.63926000  0.75000000  1
  U  U4  1  0.24680000  0.49237500  0.22260100  1
  U  U5  1  0.49237500  0.24680000  0.72260100  1
  Ag  Ag6  1  0.66493700  0.89276300  0.90082800  1
  Ag  Ag7  1  0.55491200  0.29547300  0.97987600  1
  Ag  Ag8  1  0.10723700  0.33506300  0.59917200  1
  Ag  Ag9  1  0.29547300  0.55491200  0.47987600  1
  Ag  Ag10  1  0.44508800  0.70452700  0.02012400  1
  Ag  Ag11  1  0.82215900  0.02648900  0.45403100  1
  Ag  Ag12  1  0.89276300  0.66493700  0.40082800  1
  Ag  Ag13  1  0.33506300  0.10723700  0.09917200  1
  Ag  Ag14  1  0.97351100  0.17784100  0.04596900  1
  Ag  Ag15  1  0.02648900  0.82215900  0.95403100  1
  Ag  Ag16  1  0.70452700  0.44508800  0.52012400  1
  Ag  Ag17  1  0.17784100  0.97351100  0.54596900  1
  Mo  Mo18  1  0.86257400  0.57471600  0.10781900  1
  Mo  Mo19  1  0.98588400  0.72936700  0.66788900  1
  Mo  Mo20  1  0.72936700  0.98588400  0.16788900  1
  Mo  Mo21  1  0.01411600  0.27063300  0.33211100  1
  Mo  Mo22  1  0.57471600  0.86257400  0.60781900  1
  Mo  Mo23  1  0.42528400  0.13742600  0.39218100  1
  Mo  Mo24  1  0.13742600  0.42528400  0.89218100  1
  Mo  Mo25  1  0.86791400  0.13208600  0.75000000  1
  Mo  Mo26  1  0.13208600  0.86791400  0.25000000  1
  Mo  Mo27  1  0.27063300  0.01411600  0.83211100  1
  O  O28  1  0.09386900  0.57229100  0.96397300  1
  O  O29  1  0.11450800  0.70506800  0.75917300  1
  O  O30  1  0.73611200  0.80691300  0.52631300  1
  O  O31  1  0.43092300  0.33122400  0.59821200  1
  O  O32  1  0.29493200  0.88549200  0.74082700  1
  O  O33  1  0.03415700  0.12844300  0.68195000  1
  O  O34  1  0.88549200  0.29493200  0.24082700  1
  O  O35  1  0.10519900  0.03155500  0.90722300  1
  O  O36  1  0.42975500  0.29617400  0.30164200  1
  O  O37  1  0.89480100  0.96844500  0.09277700  1
  O  O38  1  0.56907700  0.66877600  0.40178800  1
  O  O39  1  0.96584300  0.87155700  0.31805000  1
  O  O40  1  0.44537800  0.55462200  0.25000000  1
  O  O41  1  0.73034500  0.18691900  0.66028700  1
  O  O42  1  0.64912800  0.36044100  0.38893600  1
  O  O43  1  0.57024500  0.70382600  0.69835800  1
  O  O44  1  0.36044100  0.64912800  0.88893600  1
  O  O45  1  0.81308100  0.26965500  0.83971300  1
  O  O46  1  0.05945800  0.58893400  0.58611500  1
  O  O47  1  0.96844500  0.89480100  0.59277700  1
  O  O48  1  0.44181000  0.99134700  0.31802100  1
  O  O49  1  0.41106600  0.94054200  0.91388500  1
  O  O50  1  0.63955900  0.35087200  0.11106400  1
  O  O51  1  0.16824700  0.55069700  0.35174700  1
  O  O52  1  0.90613100  0.42770900  0.03602700  1
  O  O53  1  0.35087200  0.63955900  0.61106400  1
  O  O54  1  0.66877600  0.56907700  0.90178800  1
  O  O55  1  0.70506800  0.11450800  0.25917300  1
  O  O56  1  0.80691300  0.73611200  0.02631300  1
  O  O57  1  0.55462200  0.44537800  0.75000000  1
  O  O58  1  0.28504200  0.17901700  0.76260100  1
  O  O59  1  0.99134700  0.44181000  0.81802100  1
  O  O60  1  0.29617400  0.42975500  0.80164200  1
  O  O61  1  0.19308700  0.26388800  0.97368700  1
  O  O62  1  0.94054200  0.41106600  0.41388500  1
  O  O63  1  0.03155500  0.10519900  0.40722300  1
  O  O64  1  0.26965500  0.81308100  0.33971300  1
  O  O65  1  0.55069700  0.16824700  0.85174700  1
  O  O66  1  0.42770900  0.90613100  0.53602700  1
  O  O67  1  0.83175300  0.44930300  0.64825300  1
  O  O68  1  0.00865300  0.55819000  0.18197900  1
  O  O69  1  0.58893400  0.05945800  0.08611500  1
  O  O70  1  0.33122400  0.43092300  0.09821200  1
  O  O71  1  0.12844300  0.03415700  0.18195000  1
  O  O72  1  0.71495800  0.82098300  0.23739900  1
  O  O73  1  0.18691900  0.73034500  0.16028700  1
  O  O74  1  0.44930300  0.83175300  0.14825300  1
  O  O75  1  0.17901700  0.28504200  0.26260100  1
  O  O76  1  0.26388800  0.19308700  0.47368700  1
  O  O77  1  0.87155700  0.96584300  0.81805000  1
  O  O78  1  0.57229100  0.09386900  0.46397300  1
  O  O79  1  0.70382600  0.57024500  0.19835800  1
  O  O80  1  0.55819000  0.00865300  0.68197900  1
  O  O81  1  0.82098300  0.71495800  0.73739900  1
