# generated using pymatgen
data_MgH8C4(N3O2)2
_symmetry_space_group_name_H-M   'P 1'
_cell_length_a   7.36761600
_cell_length_b   7.48492800
_cell_length_c   9.81698009
_cell_angle_alpha   80.82188980
_cell_angle_beta   90.00000000
_cell_angle_gamma   90.00000000
_symmetry_Int_Tables_number   1
_chemical_formula_structural   MgH8C4(N3O2)2
_chemical_formula_sum   'Mg2 H16 C8 N12 O8'
_cell_volume   534.43693889
_cell_formula_units_Z   2
loop_
 _symmetry_equiv_pos_site_id
 _symmetry_equiv_pos_as_xyz
  1  'x, y, z'
loop_
 _atom_site_type_symbol
 _atom_site_label
 _atom_site_symmetry_multiplicity
 _atom_site_fract_x
 _atom_site_fract_y
 _atom_site_fract_z
 _atom_site_occupancy
  Mg  Mg0  1  0.00000000  0.00000000  0.00000000  1
  Mg  Mg1  1  0.50000000  0.00000000  0.50000000  1
  H  H2  1  0.30803400  0.16857800  0.07566900  1
  H  H3  1  0.31082200  0.85061500  0.92258900  1
  H  H4  1  0.81082200  0.14938500  0.57741100  1
  H  H5  1  0.19196600  0.16857800  0.57566900  1
  H  H6  1  0.24393800  0.98597200  0.78874200  1
  H  H7  1  0.25606200  0.98597200  0.28874200  1
  H  H8  1  0.68917800  0.14938500  0.07741100  1
  H  H9  1  0.74393800  0.01402800  0.71125800  1
  H  H10  1  0.75606200  0.01402800  0.21125800  1
  H  H11  1  0.14042900  0.23412100  0.15442800  1
  H  H12  1  0.18917800  0.85061500  0.42258900  1
  H  H13  1  0.80803400  0.83142200  0.42433100  1
  H  H14  1  0.64042900  0.76587900  0.34557200  1
  H  H15  1  0.85957100  0.76587900  0.84557200  1
  H  H16  1  0.69196600  0.83142200  0.92433100  1
  H  H17  1  0.35957100  0.23412100  0.65442800  1
  C  C18  1  0.47717500  0.35230100  0.87163600  1
  C  C19  1  0.53817400  0.40301200  0.30618100  1
  C  C20  1  0.97717500  0.64769900  0.62836400  1
  C  C21  1  0.03817400  0.59698800  0.19381900  1
  C  C22  1  0.52282500  0.64769900  0.12836400  1
  C  C23  1  0.96182600  0.40301200  0.80618100  1
  C  C24  1  0.02282500  0.35230100  0.37163600  1
  C  C25  1  0.46182600  0.59698800  0.69381900  1
  N  N26  1  0.52681500  0.25437200  0.36600400  1
  N  N27  1  0.99961100  0.26499400  0.48168900  1
  N  N28  1  0.02681500  0.74562800  0.13399600  1
  N  N29  1  0.00038900  0.73500600  0.51831100  1
  N  N30  1  0.97318500  0.25437200  0.86600400  1
  N  N31  1  0.05699900  0.42744200  0.24617600  1
  N  N32  1  0.50038900  0.26499400  0.98168900  1
  N  N33  1  0.47318500  0.74562800  0.63399600  1
  N  N34  1  0.55699900  0.57255800  0.25382400  1
  N  N35  1  0.94300100  0.57255800  0.75382400  1
  N  N36  1  0.49961100  0.73500600  0.01831100  1
  N  N37  1  0.44300100  0.42744200  0.74617600  1
  O  O38  1  0.20492400  0.91970500  0.87935000  1
  O  O39  1  0.70492400  0.08029500  0.62065000  1
  O  O40  1  0.69300500  0.87513000  0.37553300  1
  O  O41  1  0.19300500  0.12487000  0.12446700  1
  O  O42  1  0.30699500  0.12487000  0.62446700  1
  O  O43  1  0.79507600  0.08029500  0.12065000  1
  O  O44  1  0.80699500  0.87513000  0.87553300  1
  O  O45  1  0.29507600  0.91970500  0.37935000  1
