# generated using pymatgen
data_Nd3Si2ClO8
_symmetry_space_group_name_H-M   'P 1'
_cell_length_a   7.84459235
_cell_length_b   7.84459235
_cell_length_c   8.82415589
_cell_angle_alpha   82.54192285
_cell_angle_beta   82.54192285
_cell_angle_gamma   48.60153243
_symmetry_Int_Tables_number   1
_chemical_formula_structural   Nd3Si2ClO8
_chemical_formula_sum   'Nd6 Si4 Cl2 O16'
_cell_volume   403.18095162
_cell_formula_units_Z   2
loop_
 _symmetry_equiv_pos_site_id
 _symmetry_equiv_pos_as_xyz
  1  'x, y, z'
loop_
 _atom_site_type_symbol
 _atom_site_label
 _atom_site_symmetry_multiplicity
 _atom_site_fract_x
 _atom_site_fract_y
 _atom_site_fract_z
 _atom_site_occupancy
  Nd  Nd0  1  0.41995500  0.21016700  0.17097000  1
  Nd  Nd1  1  0.78983300  0.58004500  0.32903000  1
  Nd  Nd2  1  0.21016700  0.41995500  0.67097000  1
  Nd  Nd3  1  0.92485700  0.07514300  0.75000000  1
  Nd  Nd4  1  0.58004500  0.78983300  0.82903000  1
  Nd  Nd5  1  0.07514300  0.92485700  0.25000000  1
  Si  Si6  1  0.89635200  0.78762800  0.02503900  1
  Si  Si7  1  0.78762800  0.89635200  0.52503900  1
  Si  Si8  1  0.21237200  0.10364800  0.47496100  1
  Si  Si9  1  0.10364800  0.21237200  0.97496100  1
  Cl  Cl10  1  0.47504300  0.52495700  0.75000000  1
  Cl  Cl11  1  0.52495700  0.47504300  0.25000000  1
  O  O12  1  0.26822000  0.04107900  0.65602200  1
  O  O13  1  0.38180900  0.90339700  0.35527300  1
  O  O14  1  0.73178000  0.95892100  0.34397800  1
  O  O15  1  0.79517300  0.68130500  0.58151800  1
  O  O16  1  0.79437600  0.05070600  0.03073400  1
  O  O17  1  0.68130500  0.79517300  0.08151800  1
  O  O18  1  0.20562400  0.94929400  0.96926600  1
  O  O19  1  0.09660300  0.61819100  0.14472700  1
  O  O20  1  0.95892100  0.73178000  0.84397800  1
  O  O21  1  0.90339700  0.38180900  0.85527300  1
  O  O22  1  0.94929400  0.20562400  0.46926600  1
  O  O23  1  0.31869500  0.20482700  0.91848200  1
  O  O24  1  0.61819100  0.09660300  0.64472700  1
  O  O25  1  0.20482700  0.31869500  0.41848200  1
  O  O26  1  0.04107900  0.26822000  0.15602200  1
  O  O27  1  0.05070600  0.79437600  0.53073400  1
