# generated using pymatgen
data_AgSbPbS3
_symmetry_space_group_name_H-M   'P 1'
_cell_length_a   12.90212900
_cell_length_b   6.07077800
_cell_length_c   7.69787311
_cell_angle_alpha   88.97986643
_cell_angle_beta   90.00000000
_cell_angle_gamma   90.00000000
_symmetry_Int_Tables_number   1
_chemical_formula_structural   AgSbPbS3
_chemical_formula_sum   'Ag4 Sb4 Pb4 S12'
_cell_volume   602.84774183
_cell_formula_units_Z   4
loop_
 _symmetry_equiv_pos_site_id
 _symmetry_equiv_pos_as_xyz
  1  'x, y, z'
loop_
 _atom_site_type_symbol
 _atom_site_label
 _atom_site_symmetry_multiplicity
 _atom_site_fract_x
 _atom_site_fract_y
 _atom_site_fract_z
 _atom_site_occupancy
  Ag  Ag0  1  0.73950300  0.78204300  0.87715000  1
  Ag  Ag1  1  0.26049700  0.21795700  0.12285000  1
  Ag  Ag2  1  0.23950300  0.21795700  0.62285000  1
  Ag  Ag3  1  0.76049700  0.78204300  0.37715000  1
  Sb  Sb4  1  0.91069400  0.26713500  0.63643000  1
  Sb  Sb5  1  0.41069400  0.73286500  0.86357000  1
  Sb  Sb6  1  0.08930600  0.73286500  0.36357000  1
  Sb  Sb7  1  0.58930600  0.26713500  0.13643000  1
  Pb  Pb8  1  0.58458500  0.25570000  0.64678500  1
  Pb  Pb9  1  0.91541500  0.25570000  0.14678500  1
  Pb  Pb10  1  0.08458500  0.74430000  0.85321500  1
  Pb  Pb11  1  0.41541500  0.74430000  0.35321500  1
  S  S12  1  0.55733900  0.73492400  0.64948200  1
  S  S13  1  0.62621900  0.86695700  0.13753100  1
  S  S14  1  0.94266100  0.73492400  0.14948200  1
  S  S15  1  0.44266100  0.26507600  0.35051800  1
  S  S16  1  0.87378100  0.86695700  0.63753100  1
  S  S17  1  0.37378100  0.13304300  0.86246900  1
  S  S18  1  0.05733900  0.26507600  0.85051800  1
  S  S19  1  0.27852400  0.64871000  0.63837800  1
  S  S20  1  0.22147600  0.64871000  0.13837800  1
  S  S21  1  0.77852400  0.35129000  0.86162200  1
  S  S22  1  0.12621900  0.13304300  0.36246900  1
  S  S23  1  0.72147600  0.35129000  0.36162200  1
