# generated using pymatgen
data_MgZn5
_symmetry_space_group_name_H-M   'P 1'
_cell_length_a   5.70376695
_cell_length_b   5.70376695
_cell_length_c   5.70376667
_cell_angle_alpha   48.86611267
_cell_angle_beta   48.86611267
_cell_angle_gamma   48.86611653
_symmetry_Int_Tables_number   1
_chemical_formula_structural   MgZn5
_chemical_formula_sum   'Mg1 Zn5'
_cell_volume   96.62167619
_cell_formula_units_Z   1
loop_
 _symmetry_equiv_pos_site_id
 _symmetry_equiv_pos_as_xyz
  1  'x, y, z'
loop_
 _atom_site_type_symbol
 _atom_site_label
 _atom_site_symmetry_multiplicity
 _atom_site_fract_x
 _atom_site_fract_y
 _atom_site_fract_z
 _atom_site_occupancy
  Mg  Mg0  1  0.50000000  0.50000000  0.50000000  1
  Zn  Zn1  1  0.00000000  0.67002000  0.32998000  1
  Zn  Zn2  1  0.83512700  0.83512700  0.83512700  1
  Zn  Zn3  1  0.67002000  0.32998000  0.00000000  1
  Zn  Zn4  1  0.32998000  0.00000000  0.67002000  1
  Zn  Zn5  1  0.16487300  0.16487300  0.16487300  1
