# generated using pymatgen
data_SINOF2
_symmetry_space_group_name_H-M   'P 1'
_cell_length_a   18.77271800
_cell_length_b   5.06503700
_cell_length_c   11.35227414
_cell_angle_alpha   80.44175386
_cell_angle_beta   90.00000000
_cell_angle_gamma   90.00000000
_symmetry_Int_Tables_number   1
_chemical_formula_structural   SINOF2
_chemical_formula_sum   'S8 I8 N8 O8 F16'
_cell_volume   1064.44010601
_cell_formula_units_Z   8
loop_
 _symmetry_equiv_pos_site_id
 _symmetry_equiv_pos_as_xyz
  1  'x, y, z'
loop_
 _atom_site_type_symbol
 _atom_site_label
 _atom_site_symmetry_multiplicity
 _atom_site_fract_x
 _atom_site_fract_y
 _atom_site_fract_z
 _atom_site_occupancy
  S  S0  1  0.90465500  0.70189200  0.16922700  1
  S  S1  1  0.90305800  0.08241300  0.60675000  1
  S  S2  1  0.59694200  0.08241300  0.10675000  1
  S  S3  1  0.40305800  0.91758700  0.89325000  1
  S  S4  1  0.09694200  0.91758700  0.39325000  1
  S  S5  1  0.59534500  0.70189200  0.66922700  1
  S  S6  1  0.40465500  0.29810800  0.33077300  1
  S  S7  1  0.09534500  0.29810800  0.83077300  1
  I  I8  1  0.85112500  0.87453500  0.89615500  1
  I  I9  1  0.24635100  0.62503100  0.35742000  1
  I  I10  1  0.74635100  0.37496900  0.14258000  1
  I  I11  1  0.64887500  0.87453500  0.39615500  1
  I  I12  1  0.25364900  0.62503100  0.85742000  1
  I  I13  1  0.35112500  0.12546500  0.60384500  1
  I  I14  1  0.75364900  0.37496900  0.64258000  1
  I  I15  1  0.14887500  0.12546500  0.10384500  1
  N  N16  1  0.84729200  0.66543900  0.08179900  1
  N  N17  1  0.34506100  0.88753100  0.80559700  1
  N  N18  1  0.65493900  0.11246900  0.19440300  1
  N  N19  1  0.34729200  0.33456100  0.41820100  1
  N  N20  1  0.15493900  0.88753100  0.30559700  1
  N  N21  1  0.84506100  0.11246900  0.69440300  1
  N  N22  1  0.15270800  0.33456100  0.91820100  1
  N  N23  1  0.65270800  0.66543900  0.58179900  1
  O  O24  1  0.40091000  0.41638200  0.20837500  1
  O  O25  1  0.09909000  0.41638200  0.70837500  1
  O  O26  1  0.46268100  0.08736800  0.86101900  1
  O  O27  1  0.90091000  0.58361800  0.29162500  1
  O  O28  1  0.03731900  0.08736800  0.36101900  1
  O  O29  1  0.96268100  0.91263200  0.63898100  1
  O  O30  1  0.59909000  0.58361800  0.79162500  1
  O  O31  1  0.53731900  0.91263200  0.13898100  1
  F  F32  1  0.56849200  0.36657500  0.04566800  1
  F  F33  1  0.06849200  0.63342500  0.45433200  1
  F  F34  1  0.57640300  0.01064900  0.66192100  1
  F  F35  1  0.37089500  0.98491200  0.01403500  1
  F  F36  1  0.62910500  0.01508800  0.98596500  1
  F  F37  1  0.93150800  0.36657500  0.54566800  1
  F  F38  1  0.48104000  0.36530500  0.37980500  1
  F  F39  1  0.51896000  0.63469500  0.62019500  1
  F  F40  1  0.07640300  0.98935100  0.83807900  1
  F  F41  1  0.42359700  0.98935100  0.33807900  1
  F  F42  1  0.87089500  0.01508800  0.48596500  1
  F  F43  1  0.43150800  0.63342500  0.95433200  1
  F  F44  1  0.98104000  0.63469500  0.12019500  1
  F  F45  1  0.12910500  0.98491200  0.51403500  1
  F  F46  1  0.01896000  0.36530500  0.87980500  1
  F  F47  1  0.92359700  0.01064900  0.16192100  1
