# generated using pymatgen
data_H11C10NO8
_symmetry_space_group_name_H-M   'P 1'
_cell_length_a   6.13664100
_cell_length_b   12.41297700
_cell_length_c   15.96027300
_cell_angle_alpha   90.00000000
_cell_angle_beta   90.00000000
_cell_angle_gamma   90.00000000
_symmetry_Int_Tables_number   1
_chemical_formula_structural   H11C10NO8
_chemical_formula_sum   'H44 C40 N4 O32'
_cell_volume   1215.75757360
_cell_formula_units_Z   4
loop_
 _symmetry_equiv_pos_site_id
 _symmetry_equiv_pos_as_xyz
  1  'x, y, z'
loop_
 _atom_site_type_symbol
 _atom_site_label
 _atom_site_symmetry_multiplicity
 _atom_site_fract_x
 _atom_site_fract_y
 _atom_site_fract_z
 _atom_site_occupancy
  H  H0  1  0.87863000  0.47095100  0.82509300  1
  H  H1  1  0.62137000  0.97095100  0.82509300  1
  H  H2  1  0.56358000  0.63740000  0.30430100  1
  H  H3  1  0.69833600  0.13872000  0.94563900  1
  H  H4  1  0.43642000  0.36260000  0.69569900  1
  H  H5  1  0.93642000  0.63740000  0.19569900  1
  H  H6  1  0.29840500  0.20255500  0.29851200  1
  H  H7  1  0.70159500  0.29744500  0.79851200  1
  H  H8  1  0.62137000  0.47095100  0.67490700  1
  H  H9  1  0.50089000  0.45786100  0.77725700  1
  H  H10  1  0.70159500  0.79744500  0.70148800  1
  H  H11  1  0.80166400  0.13872000  0.55436100  1
  H  H12  1  0.29840500  0.70255500  0.20148800  1
  H  H13  1  0.43642000  0.86260000  0.80430100  1
  H  H14  1  0.19833600  0.36128000  0.05436100  1
  H  H15  1  0.00089000  0.54213900  0.27725700  1
  H  H16  1  0.87863000  0.97095100  0.67490700  1
  H  H17  1  0.20159500  0.20255500  0.20148800  1
  H  H18  1  0.00089000  0.04213900  0.22274300  1
  H  H19  1  0.12137000  0.02904900  0.32509300  1
  H  H20  1  0.12137000  0.52904900  0.17490700  1
  H  H21  1  0.75000000  0.81502600  0.25000000  1
  H  H22  1  0.99911000  0.45786100  0.72274300  1
  H  H23  1  0.69833600  0.63872000  0.55436100  1
  H  H24  1  0.06358000  0.36260000  0.80430100  1
  H  H25  1  0.06358000  0.86260000  0.69569900  1
  H  H26  1  0.56358000  0.13740000  0.19569900  1
  H  H27  1  0.20159500  0.70255500  0.29851200  1
  H  H28  1  0.93642000  0.13740000  0.30430100  1
  H  H29  1  0.99911000  0.95786100  0.77725700  1
  H  H30  1  0.49911000  0.04213900  0.27725700  1
  H  H31  1  0.37863000  0.52904900  0.32509300  1
  H  H32  1  0.75000000  0.31502600  0.25000000  1
  H  H33  1  0.79840500  0.79744500  0.79851200  1
  H  H34  1  0.37863000  0.02904900  0.17490700  1
  H  H35  1  0.25000000  0.68497400  0.75000000  1
  H  H36  1  0.25000000  0.18497400  0.75000000  1
  H  H37  1  0.79840500  0.29744500  0.70148800  1
  H  H38  1  0.30166400  0.36128000  0.44563900  1
  H  H39  1  0.50089000  0.95786100  0.72274300  1
  H  H40  1  0.49911000  0.54213900  0.22274300  1
  H  H41  1  0.30166400  0.86128000  0.05436100  1
  H  H42  1  0.19833600  0.86128000  0.44563900  1
  H  H43  1  0.80166400  0.63872000  0.94563900  1
  C  C44  1  0.06223000  0.08534000  0.27761300  1
  C  C45  1  0.21328300  0.65867300  0.87994700  1
  C  C46  1  0.06223000  0.58534000  0.22238700  1
  C  C47  1  0.16204200  0.62246400  0.50102700  1
  C  C48  1  0.28671700  0.65867300  0.62005300  1
  C  C49  1  0.78671700  0.34132700  0.12005300  1
  C  C50  1  0.37865800  0.13236600  0.95972300  1
  C  C51  1  0.43777000  0.58534000  0.27761300  1
  C  C52  1  0.21328300  0.15867300  0.62005300  1
  C  C53  1  0.93463800  0.85099000  0.08547200  1
  C  C54  1  0.71328300  0.34132700  0.37994700  1
  C  C55  1  0.43463800  0.64901000  0.91452800  1
  C  C56  1  0.06536200  0.14901000  0.91452800  1
  C  C57  1  0.83795800  0.87753600  0.00102700  1
  C  C58  1  0.56536200  0.85099000  0.41452800  1
  C  C59  1  0.06536200  0.64901000  0.58547200  1
  C  C60  1  0.12134200  0.13236600  0.54027700  1
  C  C61  1  0.33795800  0.62246400  0.99897300  1
  C  C62  1  0.66204200  0.37753600  0.00102700  1
  C  C63  1  0.56223000  0.41466000  0.72238700  1
  C  C64  1  0.78671700  0.84132700  0.37994700  1
  C  C65  1  0.43777000  0.08534000  0.22238700  1
  C  C66  1  0.93777000  0.91466000  0.72238700  1
  C  C67  1  0.87865800  0.86763400  0.45972300  1
  C  C68  1  0.16204200  0.12246400  0.99897300  1
  C  C69  1  0.71328300  0.84132700  0.12005300  1
  C  C70  1  0.93777000  0.41466000  0.77761300  1
  C  C71  1  0.56223000  0.91466000  0.77761300  1
  C  C72  1  0.33795800  0.12246400  0.50102700  1
  C  C73  1  0.28671700  0.15867300  0.87994700  1
  C  C74  1  0.62134200  0.86763400  0.04027700  1
  C  C75  1  0.56536200  0.35099000  0.08547200  1
  C  C76  1  0.37865800  0.63236600  0.54027700  1
  C  C77  1  0.66204200  0.87753600  0.49897300  1
  C  C78  1  0.83795800  0.37753600  0.49897300  1
  C  C79  1  0.12134200  0.63236600  0.95972300  1
  C  C80  1  0.93463800  0.35099000  0.41452800  1
  C  C81  1  0.43463800  0.14901000  0.58547200  1
  C  C82  1  0.87865800  0.36763400  0.04027700  1
  C  C83  1  0.62134200  0.36763400  0.45972300  1
  N  N84  1  0.25000000  0.65283800  0.25000000  1
  N  N85  1  0.75000000  0.84716200  0.75000000  1
  N  N86  1  0.25000000  0.15283800  0.25000000  1
  N  N87  1  0.75000000  0.34716200  0.75000000  1
  O  O88  1  0.37647300  0.33794700  0.11387100  1
  O  O89  1  0.87325900  0.31685000  0.19101700  1
  O  O90  1  0.59023600  0.89455200  0.56994400  1
  O  O91  1  0.92602900  0.62307300  0.98993200  1
  O  O92  1  0.12352700  0.83794700  0.11387100  1
  O  O93  1  0.12674100  0.18315000  0.69101700  1
  O  O94  1  0.90976400  0.39455200  0.56994400  1
  O  O95  1  0.37325900  0.18315000  0.80898300  1
  O  O96  1  0.59023600  0.39455200  0.93005600  1
  O  O97  1  0.42602900  0.87692700  0.01006800  1
  O  O98  1  0.40976400  0.60544800  0.06994400  1
  O  O99  1  0.92602900  0.12307300  0.51006800  1
  O  O100  1  0.42602900  0.37692700  0.48993200  1
  O  O101  1  0.57397100  0.12307300  0.98993200  1
  O  O102  1  0.90976400  0.89455200  0.93005600  1
  O  O103  1  0.57397100  0.62307300  0.51006800  1
  O  O104  1  0.09023600  0.60544800  0.43005600  1
  O  O105  1  0.62352700  0.66205300  0.88612900  1
  O  O106  1  0.62674100  0.31685000  0.30898300  1
  O  O107  1  0.62352700  0.16205300  0.61387100  1
  O  O108  1  0.40976400  0.10544800  0.43005600  1
  O  O109  1  0.07397100  0.87692700  0.48993200  1
  O  O110  1  0.12674100  0.68315000  0.80898300  1
  O  O111  1  0.07397100  0.37692700  0.01006800  1
  O  O112  1  0.12352700  0.33794700  0.38612900  1
  O  O113  1  0.37647300  0.83794700  0.38612900  1
  O  O114  1  0.09023600  0.10544800  0.06994400  1
  O  O115  1  0.87325900  0.81685000  0.30898300  1
  O  O116  1  0.37325900  0.68315000  0.69101700  1
  O  O117  1  0.87647300  0.16205300  0.88612900  1
  O  O118  1  0.62674100  0.81685000  0.19101700  1
  O  O119  1  0.87647300  0.66205300  0.61387100  1
