# generated using pymatgen
data_CaSiO3
_symmetry_space_group_name_H-M   'P 1'
_cell_length_a   6.91711432
_cell_length_b   6.91711432
_cell_length_c   19.79627122
_cell_angle_alpha   89.67195844
_cell_angle_beta   89.67195844
_cell_angle_gamma   120.11036708
_symmetry_Int_Tables_number   1
_chemical_formula_structural   CaSiO3
_chemical_formula_sum   'Ca12 Si12 O36'
_cell_volume   819.31573722
_cell_formula_units_Z   12
loop_
 _symmetry_equiv_pos_site_id
 _symmetry_equiv_pos_as_xyz
  1  'x, y, z'
loop_
 _atom_site_type_symbol
 _atom_site_label
 _atom_site_symmetry_multiplicity
 _atom_site_fract_x
 _atom_site_fract_y
 _atom_site_fract_z
 _atom_site_occupancy
  Ca  Ca0  1  0.67117400  0.32882600  0.75000000  1
  Ca  Ca1  1  0.32882600  0.67117400  0.25000000  1
  Ca  Ca2  1  0.00547600  0.99452400  0.25000000  1
  Ca  Ca3  1  0.67666100  0.34845000  0.49956000  1
  Ca  Ca4  1  0.00000000  0.00000000  0.00000000  1
  Ca  Ca5  1  0.65683400  0.34316600  0.25000000  1
  Ca  Ca6  1  0.65155000  0.32333900  0.00044000  1
  Ca  Ca7  1  0.32333900  0.65155000  0.50044000  1
  Ca  Ca8  1  0.34316600  0.65683400  0.75000000  1
  Ca  Ca9  1  0.34845000  0.67666100  0.99956000  1
  Ca  Ca10  1  0.00000000  0.00000000  0.50000000  1
  Ca  Ca11  1  0.99452400  0.00547600  0.75000000  1
  Si  Si12  1  0.99914900  0.40468500  0.87781800  1
  Si  Si13  1  0.59531500  0.00085100  0.62218200  1
  Si  Si14  1  0.74573200  0.66805700  0.87506300  1
  Si  Si15  1  0.92263700  0.26334900  0.37210800  1
  Si  Si16  1  0.33194300  0.25426800  0.62493700  1
  Si  Si17  1  0.26334900  0.92263700  0.87210800  1
  Si  Si18  1  0.00085100  0.59531500  0.12218200  1
  Si  Si19  1  0.73665100  0.07736300  0.12789200  1
  Si  Si20  1  0.07736300  0.73665100  0.62789200  1
  Si  Si21  1  0.25426800  0.33194300  0.12493700  1
  Si  Si22  1  0.66805700  0.74573200  0.37506300  1
  Si  Si23  1  0.40468500  0.99914900  0.37781800  1
  O  O24  1  0.22562000  0.66250200  0.87487500  1
  O  O25  1  0.99761600  0.30664200  0.95197200  1
  O  O26  1  0.44216500  0.77688600  0.37629600  1
  O  O27  1  0.99411800  0.10900800  0.12614600  1
  O  O28  1  0.37084200  0.03039600  0.94344100  1
  O  O29  1  0.35652800  0.32707500  0.05250900  1
  O  O30  1  0.00346000  0.70510700  0.19353000  1
  O  O31  1  0.77688600  0.44216500  0.87629600  1
  O  O32  1  0.96960400  0.62915800  0.55655900  1
  O  O33  1  0.64347200  0.67292500  0.94749100  1
  O  O34  1  0.33749800  0.77438000  0.62512500  1
  O  O35  1  0.22311400  0.55783500  0.12370400  1
  O  O36  1  0.36363100  0.01903300  0.79792600  1
  O  O37  1  0.64267800  0.66693600  0.80263300  1
  O  O38  1  0.66693600  0.64267800  0.30263300  1
  O  O39  1  0.99654000  0.29489300  0.80647000  1
  O  O40  1  0.32707500  0.35652800  0.55250900  1
  O  O41  1  0.00238400  0.69335800  0.04802800  1
  O  O42  1  0.70510700  0.00346000  0.69353000  1
  O  O43  1  0.98096700  0.63636900  0.70207400  1
  O  O44  1  0.30664200  0.99761600  0.45197200  1
  O  O45  1  0.66250200  0.22562000  0.37487500  1
  O  O46  1  0.67292500  0.64347200  0.44749100  1
  O  O47  1  0.69335800  0.00238400  0.54802800  1
  O  O48  1  0.89099200  0.00588200  0.37385400  1
  O  O49  1  0.63636900  0.98096700  0.20207400  1
  O  O50  1  0.00588200  0.89099200  0.87385400  1
  O  O51  1  0.01903300  0.36363100  0.29792600  1
  O  O52  1  0.62915800  0.96960400  0.05655900  1
  O  O53  1  0.03039600  0.37084200  0.44344100  1
  O  O54  1  0.77438000  0.33749800  0.12512500  1
  O  O55  1  0.29489300  0.99654000  0.30647000  1
  O  O56  1  0.10900800  0.99411800  0.62614600  1
  O  O57  1  0.55783500  0.22311400  0.62370400  1
  O  O58  1  0.33306400  0.35732200  0.69736700  1
  O  O59  1  0.35732200  0.33306400  0.19736700  1
