# generated using pymatgen
data_Nd2Te4MoO14
_symmetry_space_group_name_H-M   'P 1'
_cell_length_a   7.04868900
_cell_length_b   10.18301618
_cell_length_c   10.27774618
_cell_angle_alpha   90.16707128
_cell_angle_beta   107.17827906
_cell_angle_gamma   93.24826662
_symmetry_Int_Tables_number   1
_chemical_formula_structural   Nd2Te4MoO14
_chemical_formula_sum   'Nd4 Te8 Mo2 O28'
_cell_volume   703.51450346
_cell_formula_units_Z   2
loop_
 _symmetry_equiv_pos_site_id
 _symmetry_equiv_pos_as_xyz
  1  'x, y, z'
loop_
 _atom_site_type_symbol
 _atom_site_label
 _atom_site_symmetry_multiplicity
 _atom_site_fract_x
 _atom_site_fract_y
 _atom_site_fract_z
 _atom_site_occupancy
  Nd  Nd0  1  0.64303600  0.30959400  0.08566900  1
  Nd  Nd1  1  0.35696400  0.69040600  0.91433100  1
  Nd  Nd2  1  0.22129700  0.46625700  0.21477300  1
  Nd  Nd3  1  0.77870300  0.53374300  0.78522700  1
  Te  Te4  1  0.74252300  0.60817400  0.27971700  1
  Te  Te5  1  0.25747700  0.39182600  0.72028300  1
  Te  Te6  1  0.05644100  0.21170900  0.95811600  1
  Te  Te7  1  0.07318300  0.16683100  0.36742600  1
  Te  Te8  1  0.36539700  0.72752200  0.54207600  1
  Te  Te9  1  0.92681700  0.83316900  0.63257400  1
  Te  Te10  1  0.94355900  0.78829100  0.04188400  1
  Te  Te11  1  0.63460300  0.27247800  0.45792400  1
  Mo  Mo12  1  0.47815100  0.96285600  0.23136500  1
  Mo  Mo13  1  0.52184900  0.03714400  0.76863500  1
  O  O14  1  0.89374900  0.35470600  0.94990800  1
  O  O15  1  0.70698200  0.70178300  0.93090800  1
  O  O16  1  0.29301800  0.29821700  0.06909200  1
  O  O17  1  0.62288600  0.11717300  0.23138600  1
  O  O18  1  0.58456500  0.39546500  0.31163500  1
  O  O19  1  0.07181300  0.72261000  0.54039100  1
  O  O20  1  0.25085300  0.99988200  0.26463800  1
  O  O21  1  0.41280100  0.87619100  0.06957600  1
  O  O22  1  0.74914700  0.00011800  0.73536200  1
  O  O23  1  0.68967700  0.39117400  0.60375100  1
  O  O24  1  0.28624300  0.29663600  0.39824600  1
  O  O25  1  0.02715800  0.77284300  0.81418500  1
  O  O26  1  0.58719900  0.12380900  0.93042400  1
  O  O27  1  0.61392200  0.86334500  0.36429800  1
  O  O28  1  0.13082400  0.23579300  0.79069800  1
  O  O29  1  0.88137400  0.49025800  0.20438300  1
  O  O30  1  0.92818700  0.27739000  0.45960900  1
  O  O31  1  0.97284200  0.22715700  0.18581500  1
  O  O32  1  0.41543500  0.60453500  0.68836500  1
  O  O33  1  0.31032300  0.60882600  0.39624900  1
  O  O34  1  0.49878300  0.41833300  0.86634100  1
  O  O35  1  0.10625100  0.64529400  0.05009200  1
  O  O36  1  0.11862600  0.50974200  0.79561700  1
  O  O37  1  0.50121700  0.58166700  0.13365900  1
  O  O38  1  0.37711400  0.88282700  0.76861400  1
  O  O39  1  0.86917600  0.76420700  0.20930200  1
  O  O40  1  0.38607800  0.13665500  0.63570200  1
  O  O41  1  0.71375700  0.70336400  0.60175400  1
