# generated using pymatgen
data_NdGa3(BO3)4
_symmetry_space_group_name_H-M   'P 1'
_cell_length_a   6.09527750
_cell_length_b   6.09527750
_cell_length_c   6.09527799
_cell_angle_alpha   103.84312179
_cell_angle_beta   103.84312179
_cell_angle_gamma   103.84311282
_symmetry_Int_Tables_number   1
_chemical_formula_structural   NdGa3(BO3)4
_chemical_formula_sum   'Nd1 Ga3 B4 O12'
_cell_volume   202.65611002
_cell_formula_units_Z   1
loop_
 _symmetry_equiv_pos_site_id
 _symmetry_equiv_pos_as_xyz
  1  'x, y, z'
loop_
 _atom_site_type_symbol
 _atom_site_label
 _atom_site_symmetry_multiplicity
 _atom_site_fract_x
 _atom_site_fract_y
 _atom_site_fract_z
 _atom_site_occupancy
  Nd  Nd0  1  0.00000000  0.00000000  0.00000000  1
  Ga  Ga1  1  0.00000000  0.44846500  0.55153500  1
  Ga  Ga2  1  0.55153500  0.00000000  0.44846500  1
  Ga  Ga3  1  0.44846500  0.55153500  0.00000000  1
  B  B4  1  0.50000000  0.05529800  0.94470200  1
  B  B5  1  0.50000000  0.50000000  0.50000000  1
  B  B6  1  0.94470200  0.50000000  0.05529800  1
  B  B7  1  0.05529800  0.94470200  0.50000000  1
  O  O8  1  0.78584400  0.62591100  0.02841900  1
  O  O9  1  0.09014100  0.50000000  0.90985900  1
  O  O10  1  0.90985900  0.09014100  0.50000000  1
  O  O11  1  0.50000000  0.90985900  0.09014100  1
  O  O12  1  0.37408900  0.21415600  0.97158100  1
  O  O13  1  0.97158100  0.37408900  0.21415600  1
  O  O14  1  0.62591100  0.02841900  0.78584400  1
  O  O15  1  0.50000000  0.64517700  0.35482300  1
  O  O16  1  0.35482300  0.50000000  0.64517700  1
  O  O17  1  0.64517700  0.35482300  0.50000000  1
  O  O18  1  0.21415600  0.97158100  0.37408900  1
  O  O19  1  0.02841900  0.78584400  0.62591100  1
