# generated using pymatgen
data_TeO2
_symmetry_space_group_name_H-M   'P 1'
_cell_length_a   4.89343200
_cell_length_b   5.04383700
_cell_length_c   7.64855600
_cell_angle_alpha   90.00000000
_cell_angle_beta   90.00000000
_cell_angle_gamma   90.00000000
_symmetry_Int_Tables_number   1
_chemical_formula_structural   TeO2
_chemical_formula_sum   'Te4 O8'
_cell_volume   188.77916101
_cell_formula_units_Z   4
loop_
 _symmetry_equiv_pos_site_id
 _symmetry_equiv_pos_as_xyz
  1  'x, y, z'
loop_
 _atom_site_type_symbol
 _atom_site_label
 _atom_site_symmetry_multiplicity
 _atom_site_fract_x
 _atom_site_fract_y
 _atom_site_fract_z
 _atom_site_occupancy
  Te  Te0  1  0.71441000  0.53057500  0.37818500  1
  Te  Te1  1  0.28559000  0.03057500  0.12181500  1
  Te  Te2  1  0.21441000  0.96942500  0.62181500  1
  Te  Te3  1  0.78559000  0.46942500  0.87818500  1
  O  O4  1  0.52945000  0.13374900  0.93877000  1
  O  O5  1  0.02945000  0.36625100  0.06123000  1
  O  O6  1  0.40697000  0.23500000  0.31764400  1
  O  O7  1  0.47055000  0.63374900  0.56123000  1
  O  O8  1  0.97055000  0.86625100  0.43877000  1
  O  O9  1  0.09303000  0.76500000  0.81764400  1
  O  O10  1  0.59303000  0.73500000  0.18235600  1
  O  O11  1  0.90697000  0.26500000  0.68235600  1
