# generated using pymatgen
data_K2Sr3Mn2(P2O7)3
_symmetry_space_group_name_H-M   'P 1'
_cell_length_a   5.41353300
_cell_length_b   13.43990200
_cell_length_c   14.01814227
_cell_angle_alpha   80.32863103
_cell_angle_beta   90.00000000
_cell_angle_gamma   90.00000000
_symmetry_Int_Tables_number   1
_chemical_formula_structural   K2Sr3Mn2(P2O7)3
_chemical_formula_sum   'K4 Sr6 Mn4 P12 O42'
_cell_volume   1005.42731286
_cell_formula_units_Z   2
loop_
 _symmetry_equiv_pos_site_id
 _symmetry_equiv_pos_as_xyz
  1  'x, y, z'
loop_
 _atom_site_type_symbol
 _atom_site_label
 _atom_site_symmetry_multiplicity
 _atom_site_fract_x
 _atom_site_fract_y
 _atom_site_fract_z
 _atom_site_occupancy
  K  K0  1  0.12696500  0.43367500  0.39850000  1
  K  K1  1  0.62696500  0.56632500  0.60150000  1
  K  K2  1  0.16803900  0.55921300  0.08542100  1
  K  K3  1  0.66803900  0.44078700  0.91457900  1
  Sr  Sr4  1  0.17314800  0.75408400  0.35311700  1
  Sr  Sr5  1  0.61788600  0.77741500  0.83627200  1
  Sr  Sr6  1  0.63910800  0.99102900  0.25118900  1
  Sr  Sr7  1  0.13910800  0.00897100  0.74881100  1
  Sr  Sr8  1  0.67314800  0.24591600  0.64688300  1
  Sr  Sr9  1  0.11788600  0.22258500  0.16372800  1
  Mn  Mn10  1  0.62299900  0.77341700  0.11739900  1
  Mn  Mn11  1  0.65959900  0.21238700  0.37489400  1
  Mn  Mn12  1  0.15959900  0.78761300  0.62510600  1
  Mn  Mn13  1  0.12299900  0.22658300  0.88260100  1
  P  P14  1  0.12337700  0.40748800  0.69151400  1
  P  P15  1  0.66095200  0.94108800  0.62424200  1
  P  P16  1  0.66547800  0.81042700  0.48016500  1
  P  P17  1  0.16095200  0.05891200  0.37575800  1
  P  P18  1  0.61841000  0.18865000  0.02777400  1
  P  P19  1  0.12035800  0.92394000  0.13105000  1
  P  P20  1  0.62035800  0.07606000  0.86895000  1
  P  P21  1  0.11841000  0.81135000  0.97222600  1
  P  P22  1  0.62337700  0.59251200  0.30848600  1
  P  P23  1  0.61471200  0.40565300  0.20753900  1
  P  P24  1  0.11471200  0.59434700  0.79246100  1
  P  P25  1  0.16547800  0.18957300  0.51983500  1
  O  O26  1  0.86271000  0.24326300  0.99655000  1
  O  O27  1  0.19096500  0.94790800  0.37284900  1
  O  O28  1  0.22416500  0.53405200  0.88368900  1
  O  O29  1  0.37196900  0.12327800  0.32155700  1
  O  O30  1  0.28116100  0.68372500  0.74515400  1
  O  O31  1  0.16838500  0.17006100  0.62973700  1
  O  O32  1  0.90394000  0.85897800  0.17917500  1
  O  O33  1  0.41312500  0.89696500  0.66694800  1
  O  O34  1  0.86652700  0.12370500  0.82839500  1
  O  O35  1  0.10592400  0.52643500  0.70426000  1
  O  O36  1  0.96880400  0.40351500  0.60100800  1
  O  O37  1  0.39817900  0.38446000  0.68385900  1
  O  O38  1  0.59346200  0.96630400  0.85891200  1
  O  O39  1  0.99651200  0.34470400  0.78124100  1
  O  O40  1  0.39820000  0.24771200  0.47882600  1
  O  O41  1  0.89820000  0.75228800  0.52117400  1
  O  O42  1  0.42600700  0.75929600  0.52124400  1
  O  O43  1  0.10478300  0.84351600  0.86334500  1
  O  O44  1  0.11460800  0.91682400  0.01652800  1
  O  O45  1  0.17415200  0.07726300  0.48729500  1
  O  O46  1  0.89029700  0.74926100  0.01135800  1
  O  O47  1  0.91312500  0.10303500  0.33305200  1
  O  O48  1  0.60478300  0.15648400  0.13665500  1
  O  O49  1  0.34549100  0.37316900  0.19834500  1
  O  O50  1  0.40394000  0.14102200  0.82082500  1
  O  O51  1  0.36271000  0.75673700  0.00345000  1
  O  O52  1  0.69096500  0.05209200  0.62715100  1
  O  O53  1  0.78116100  0.31627500  0.25484600  1
  O  O54  1  0.49651200  0.65529600  0.21875900  1
  O  O55  1  0.67415200  0.92273700  0.51270500  1
  O  O56  1  0.39029700  0.25073900  0.98864200  1
  O  O57  1  0.87196900  0.87672200  0.67844300  1
  O  O58  1  0.66838500  0.82993900  0.37026300  1
  O  O59  1  0.46880400  0.59648500  0.39899200  1
  O  O60  1  0.09346200  0.03369600  0.14108800  1
  O  O61  1  0.36652700  0.87629500  0.17160500  1
  O  O62  1  0.72416500  0.46594800  0.11631100  1
  O  O63  1  0.61460800  0.08317600  0.98347200  1
  O  O64  1  0.89817900  0.61554000  0.31614100  1
  O  O65  1  0.60592400  0.47356500  0.29574000  1
  O  O66  1  0.92600700  0.24070400  0.47875600  1
  O  O67  1  0.84549100  0.62683100  0.80165500  1
