# generated using pymatgen
data_BaZnSiO4
_symmetry_space_group_name_H-M   'P 1'
_cell_length_a   9.22598355
_cell_length_b   9.22598355
_cell_length_c   8.86855500
_cell_angle_alpha   90.00000000
_cell_angle_beta   90.00000000
_cell_angle_gamma   119.99999678
_symmetry_Int_Tables_number   1
_chemical_formula_structural   BaZnSiO4
_chemical_formula_sum   'Ba6 Zn6 Si6 O24'
_cell_volume   653.74572425
_cell_formula_units_Z   6
loop_
 _symmetry_equiv_pos_site_id
 _symmetry_equiv_pos_as_xyz
  1  'x, y, z'
loop_
 _atom_site_type_symbol
 _atom_site_label
 _atom_site_symmetry_multiplicity
 _atom_site_fract_x
 _atom_site_fract_y
 _atom_site_fract_z
 _atom_site_occupancy
  Ba  Ba0  1  0.66666700  0.33333300  0.22755700  1
  Ba  Ba1  1  0.66666700  0.33333300  0.73060100  1
  Ba  Ba2  1  0.33333300  0.66666700  0.23060100  1
  Ba  Ba3  1  0.00000000  0.00000000  0.24743300  1
  Ba  Ba4  1  0.33333300  0.66666700  0.72755700  1
  Ba  Ba5  1  0.00000000  0.00000000  0.74743300  1
  Zn  Zn6  1  0.67689000  0.66719800  0.53569900  1
  Zn  Zn7  1  0.32311000  0.33280200  0.03569900  1
  Zn  Zn8  1  0.66719800  0.99030900  0.03569900  1
  Zn  Zn9  1  0.33280200  0.00969100  0.53569900  1
  Zn  Zn10  1  0.99030900  0.32311000  0.53569900  1
  Zn  Zn11  1  0.00969100  0.67689000  0.03569900  1
  Si  Si12  1  0.66129600  0.98835800  0.43502700  1
  Si  Si13  1  0.01164200  0.67293800  0.43502700  1
  Si  Si14  1  0.98835800  0.32706200  0.93502700  1
  Si  Si15  1  0.33870400  0.01164200  0.93502700  1
  Si  Si16  1  0.32706200  0.33870400  0.43502700  1
  Si  Si17  1  0.67293800  0.66129600  0.93502700  1
  O  O18  1  0.28864300  0.34940900  0.25535700  1
  O  O19  1  0.53284400  0.09815700  0.99813900  1
  O  O20  1  0.23937800  0.80636600  0.95651900  1
  O  O21  1  0.09012600  0.85692900  0.51839600  1
  O  O22  1  0.76680300  0.90987400  0.51839600  1
  O  O23  1  0.85692900  0.76680300  0.01839600  1
  O  O24  1  0.80636600  0.56698900  0.45651900  1
  O  O25  1  0.56531300  0.46715600  0.99813900  1
  O  O26  1  0.14307100  0.23319700  0.51839600  1
  O  O27  1  0.09815700  0.56531300  0.49813900  1
  O  O28  1  0.90987400  0.14307100  0.01839600  1
  O  O29  1  0.06076600  0.71135700  0.25535700  1
  O  O30  1  0.19363400  0.43301100  0.95651900  1
  O  O31  1  0.71135700  0.65059100  0.75535700  1
  O  O32  1  0.76062200  0.19363400  0.45651900  1
  O  O33  1  0.43468700  0.53284400  0.49813900  1
  O  O34  1  0.34940900  0.06076600  0.75535700  1
  O  O35  1  0.43301100  0.23937800  0.45651900  1
  O  O36  1  0.23319700  0.09012600  0.01839600  1
  O  O37  1  0.46715600  0.90184300  0.49813900  1
  O  O38  1  0.93923400  0.28864300  0.75535700  1
  O  O39  1  0.56698900  0.76062200  0.95651900  1
  O  O40  1  0.65059100  0.93923400  0.25535700  1
  O  O41  1  0.90184300  0.43468700  0.99813900  1
