# generated using pymatgen
data_Hg2Mo2O7
_symmetry_space_group_name_H-M   'P 1'
_cell_length_a   7.31633220
_cell_length_b   7.31633220
_cell_length_c   14.93575713
_cell_angle_alpha   76.56903193
_cell_angle_beta   76.56903193
_cell_angle_gamma   65.27129311
_symmetry_Int_Tables_number   1
_chemical_formula_structural   Hg2Mo2O7
_chemical_formula_sum   'Hg8 Mo8 O28'
_cell_volume   698.00830766
_cell_formula_units_Z   4
loop_
 _symmetry_equiv_pos_site_id
 _symmetry_equiv_pos_as_xyz
  1  'x, y, z'
loop_
 _atom_site_type_symbol
 _atom_site_label
 _atom_site_symmetry_multiplicity
 _atom_site_fract_x
 _atom_site_fract_y
 _atom_site_fract_z
 _atom_site_occupancy
  Hg  Hg0  1  0.92646400  0.23904700  0.43401400  1
  Hg  Hg1  1  0.07353600  0.76095300  0.56598600  1
  Hg  Hg2  1  0.76095300  0.07353600  0.06598600  1
  Hg  Hg3  1  0.23904700  0.92646400  0.93401400  1
  Hg  Hg4  1  0.38614400  0.74228600  0.43749800  1
  Hg  Hg5  1  0.61385600  0.25771400  0.56250200  1
  Hg  Hg6  1  0.74228600  0.38614400  0.93749800  1
  Hg  Hg7  1  0.25771400  0.61385600  0.06250200  1
  Mo  Mo8  1  0.82601100  0.85709500  0.81582500  1
  Mo  Mo9  1  0.63023400  0.67423600  0.69026500  1
  Mo  Mo10  1  0.67423600  0.63023400  0.19026500  1
  Mo  Mo11  1  0.17398900  0.14290500  0.18417500  1
  Mo  Mo12  1  0.85709500  0.82601100  0.31582500  1
  Mo  Mo13  1  0.14290500  0.17398900  0.68417500  1
  Mo  Mo14  1  0.32576400  0.36976600  0.80973500  1
  Mo  Mo15  1  0.36976600  0.32576400  0.30973500  1
  O  O16  1  0.19241600  0.10585700  0.57423700  1
  O  O17  1  0.97697600  0.02302400  0.75000000  1
  O  O18  1  0.64181600  0.72323900  0.32936600  1
  O  O19  1  0.80111200  0.83344100  0.66995800  1
  O  O20  1  0.89414300  0.80758400  0.92576300  1
  O  O21  1  0.83344100  0.80111200  0.16995800  1
  O  O22  1  0.80758400  0.89414300  0.42576300  1
  O  O23  1  0.60617800  0.12584200  0.27680800  1
  O  O24  1  0.38053800  0.32602800  0.42483400  1
  O  O25  1  0.58197400  0.06282400  0.82694100  1
  O  O26  1  0.87415800  0.39382200  0.22319200  1
  O  O27  1  0.39382200  0.87415800  0.72319200  1
  O  O28  1  0.06282400  0.58197400  0.32694100  1
  O  O29  1  0.35818400  0.27676100  0.67063400  1
  O  O30  1  0.10585700  0.19241600  0.07423700  1
  O  O31  1  0.19888800  0.16655900  0.33004200  1
  O  O32  1  0.93717600  0.41802600  0.67305900  1
  O  O33  1  0.02302400  0.97697600  0.25000000  1
  O  O34  1  0.55300400  0.44699600  0.75000000  1
  O  O35  1  0.72323900  0.64181600  0.82936600  1
  O  O36  1  0.67397200  0.61946200  0.07516600  1
  O  O37  1  0.27676100  0.35818400  0.17063400  1
  O  O38  1  0.32602800  0.38053800  0.92483400  1
  O  O39  1  0.44699600  0.55300400  0.25000000  1
  O  O40  1  0.12584200  0.60617800  0.77680800  1
  O  O41  1  0.61946200  0.67397200  0.57516600  1
  O  O42  1  0.16655900  0.19888800  0.83004200  1
  O  O43  1  0.41802600  0.93717600  0.17305900  1
