# generated using pymatgen
data_SnH8(CO)4
_symmetry_space_group_name_H-M   'P 1'
_cell_length_a   6.12110900
_cell_length_b   9.39949200
_cell_length_c   12.98691700
_cell_angle_alpha   90.00000000
_cell_angle_beta   90.00000000
_cell_angle_gamma   90.00000000
_symmetry_Int_Tables_number   1
_chemical_formula_structural   SnH8(CO)4
_chemical_formula_sum   'Sn4 H32 C16 O16'
_cell_volume   747.20636147
_cell_formula_units_Z   4
loop_
 _symmetry_equiv_pos_site_id
 _symmetry_equiv_pos_as_xyz
  1  'x, y, z'
loop_
 _atom_site_type_symbol
 _atom_site_label
 _atom_site_symmetry_multiplicity
 _atom_site_fract_x
 _atom_site_fract_y
 _atom_site_fract_z
 _atom_site_occupancy
  Sn  Sn0  1  0.10591500  0.25000000  0.30106100  1
  Sn  Sn1  1  0.60591500  0.75000000  0.19893900  1
  Sn  Sn2  1  0.89408500  0.75000000  0.69893900  1
  Sn  Sn3  1  0.39408500  0.25000000  0.80106100  1
  H  H4  1  0.55855400  0.65394000  0.81171000  1
  H  H5  1  0.50438000  0.58148200  0.42133500  1
  H  H6  1  0.10077200  0.84570500  0.53035700  1
  H  H7  1  0.10077200  0.65429500  0.53035700  1
  H  H8  1  0.05855400  0.15394000  0.68829000  1
  H  H9  1  0.99562000  0.91851800  0.92133500  1
  H  H10  1  0.49562000  0.08148200  0.57866500  1
  H  H11  1  0.50438000  0.91851800  0.42133500  1
  H  H12  1  0.44144600  0.34606000  0.18829000  1
  H  H13  1  0.78989800  0.25000000  0.88928700  1
  H  H14  1  0.60077200  0.34570500  0.96964300  1
  H  H15  1  0.55855400  0.84606000  0.81171000  1
  H  H16  1  0.94144600  0.84606000  0.31171000  1
  H  H17  1  0.44144600  0.15394000  0.18829000  1
  H  H18  1  0.49562000  0.41851800  0.57866500  1
  H  H19  1  0.05855400  0.34606000  0.68829000  1
  H  H20  1  0.99562000  0.58148200  0.92133500  1
  H  H21  1  0.00438000  0.41851800  0.07866500  1
  H  H22  1  0.71010200  0.25000000  0.38928700  1
  H  H23  1  0.73846900  0.75000000  0.89544900  1
  H  H24  1  0.39922800  0.65429500  0.03035700  1
  H  H25  1  0.28989800  0.75000000  0.61071300  1
  H  H26  1  0.89922800  0.34570500  0.46964300  1
  H  H27  1  0.23846900  0.25000000  0.60455100  1
  H  H28  1  0.21010200  0.75000000  0.11071300  1
  H  H29  1  0.26153100  0.25000000  0.10455100  1
  H  H30  1  0.89922800  0.15429500  0.46964300  1
  H  H31  1  0.39922800  0.84570500  0.03035700  1
  H  H32  1  0.00438000  0.08148200  0.07866500  1
  H  H33  1  0.76153100  0.75000000  0.39544900  1
  H  H34  1  0.94144600  0.65394000  0.31171000  1
  H  H35  1  0.60077200  0.15429500  0.96964300  1
  C  C36  1  0.87380100  0.25000000  0.42312700  1
  C  C37  1  0.34232900  0.25000000  0.17977100  1
  C  C38  1  0.59702200  0.47410800  0.63689700  1
  C  C39  1  0.37380100  0.75000000  0.07687300  1
  C  C40  1  0.09702200  0.97410800  0.86310300  1
  C  C41  1  0.59702200  0.02589200  0.63689700  1
  C  C42  1  0.90297800  0.47410800  0.13689700  1
  C  C43  1  0.90297800  0.02589200  0.13689700  1
  C  C44  1  0.09702200  0.52589200  0.86310300  1
  C  C45  1  0.62619900  0.25000000  0.92312700  1
  C  C46  1  0.40297800  0.52589200  0.36310300  1
  C  C47  1  0.12619900  0.75000000  0.57687300  1
  C  C48  1  0.40297800  0.97410800  0.36310300  1
  C  C49  1  0.84232900  0.75000000  0.32022900  1
  C  C50  1  0.15767100  0.25000000  0.67977100  1
  C  C51  1  0.65767100  0.75000000  0.82022900  1
  O  O52  1  0.39385900  0.92454400  0.27219500  1
  O  O53  1  0.19729300  0.41584900  0.89474100  1
  O  O54  1  0.10614100  0.92454400  0.77219500  1
  O  O55  1  0.19729300  0.08415100  0.89474100  1
  O  O56  1  0.39385900  0.57545600  0.27219500  1
  O  O57  1  0.89385900  0.07545600  0.22780500  1
  O  O58  1  0.69729300  0.91584900  0.60525900  1
  O  O59  1  0.80270700  0.58415100  0.10525900  1
  O  O60  1  0.80270700  0.91584900  0.10525900  1
  O  O61  1  0.69729300  0.58415100  0.60525900  1
  O  O62  1  0.30270700  0.41584900  0.39474100  1
  O  O63  1  0.60614100  0.07545600  0.72780500  1
  O  O64  1  0.30270700  0.08415100  0.39474100  1
  O  O65  1  0.89385900  0.42454400  0.22780500  1
  O  O66  1  0.60614100  0.42454400  0.72780500  1
  O  O67  1  0.10614100  0.57545600  0.77219500  1
