# generated using pymatgen
data_SiO2
_symmetry_space_group_name_H-M   'P 1'
_cell_length_a   10.86160758
_cell_length_b   10.86160758
_cell_length_c   10.86160696
_cell_angle_alpha   115.17906249
_cell_angle_beta   115.17906249
_cell_angle_gamma   115.17906136
_symmetry_Int_Tables_number   1
_chemical_formula_structural   SiO2
_chemical_formula_sum   'Si12 O24'
_cell_volume   705.30463980
_cell_formula_units_Z   12
loop_
 _symmetry_equiv_pos_site_id
 _symmetry_equiv_pos_as_xyz
  1  'x, y, z'
loop_
 _atom_site_type_symbol
 _atom_site_label
 _atom_site_symmetry_multiplicity
 _atom_site_fract_x
 _atom_site_fract_y
 _atom_site_fract_z
 _atom_site_occupancy
  Si  Si0  1  0.62847100  0.78909400  0.22918400  1
  Si  Si1  1  0.78909400  0.22918400  0.62847100  1
  Si  Si2  1  0.78909400  0.62847100  0.22918400  1
  Si  Si3  1  0.37152900  0.77081600  0.21090600  1
  Si  Si4  1  0.22918400  0.78909400  0.62847100  1
  Si  Si5  1  0.77081600  0.37152900  0.21090600  1
  Si  Si6  1  0.22918400  0.62847100  0.78909400  1
  Si  Si7  1  0.21090600  0.77081600  0.37152900  1
  Si  Si8  1  0.77081600  0.21090600  0.37152900  1
  Si  Si9  1  0.62847100  0.22918400  0.78909400  1
  Si  Si10  1  0.37152900  0.21090600  0.77081600  1
  Si  Si11  1  0.21090600  0.37152900  0.77081600  1
  O  O12  1  0.18816600  0.67549600  0.18816600  1
  O  O13  1  0.28418300  0.71581700  0.00000000  1
  O  O14  1  0.00000000  0.28418300  0.71581700  1
  O  O15  1  0.43602500  0.56397500  0.00000000  1
  O  O16  1  0.71581700  0.00000000  0.28418300  1
  O  O17  1  0.67549600  0.18816600  0.18816600  1
  O  O18  1  0.32450400  0.81183400  0.81183400  1
  O  O19  1  0.27561100  0.72438900  0.50000000  1
  O  O20  1  0.72438900  0.50000000  0.27561100  1
  O  O21  1  0.81183400  0.81183400  0.32450400  1
  O  O22  1  0.81183400  0.32450400  0.81183400  1
  O  O23  1  0.00000000  0.56397500  0.43602500  1
  O  O24  1  0.56397500  0.43602500  0.00000000  1
  O  O25  1  0.72438900  0.27561100  0.50000000  1
  O  O26  1  0.43602500  0.00000000  0.56397500  1
  O  O27  1  0.28418300  0.00000000  0.71581700  1
  O  O28  1  0.50000000  0.72438900  0.27561100  1
  O  O29  1  0.56397500  0.00000000  0.43602500  1
  O  O30  1  0.50000000  0.27561100  0.72438900  1
  O  O31  1  0.18816600  0.18816600  0.67549600  1
  O  O32  1  0.71581700  0.28418300  0.00000000  1
  O  O33  1  0.00000000  0.71581700  0.28418300  1
  O  O34  1  0.27561100  0.50000000  0.72438900  1
  O  O35  1  0.00000000  0.43602500  0.56397500  1
