# generated using pymatgen
data_MgSn5
_symmetry_space_group_name_H-M   'P 1'
_cell_length_a   6.28715441
_cell_length_b   6.28715441
_cell_length_c   6.28715450
_cell_angle_alpha   56.33110706
_cell_angle_beta   56.33110706
_cell_angle_gamma   56.33110950
_symmetry_Int_Tables_number   1
_chemical_formula_structural   MgSn5
_chemical_formula_sum   'Mg1 Sn5'
_cell_volume   160.81661460
_cell_formula_units_Z   1
loop_
 _symmetry_equiv_pos_site_id
 _symmetry_equiv_pos_as_xyz
  1  'x, y, z'
loop_
 _atom_site_type_symbol
 _atom_site_label
 _atom_site_symmetry_multiplicity
 _atom_site_fract_x
 _atom_site_fract_y
 _atom_site_fract_z
 _atom_site_occupancy
  Mg  Mg0  1  0.50000000  0.50000000  0.50000000  1
  Sn  Sn1  1  0.00000000  0.66354400  0.33645600  1
  Sn  Sn2  1  0.16547000  0.16547000  0.16547000  1
  Sn  Sn3  1  0.33645600  0.00000000  0.66354400  1
  Sn  Sn4  1  0.66354400  0.33645600  0.00000000  1
  Sn  Sn5  1  0.83453000  0.83453000  0.83453000  1
