# generated using pymatgen
data_LaP5O14
_symmetry_space_group_name_H-M   'P 1'
_cell_length_a   9.27574400
_cell_length_b   8.92581000
_cell_length_c   13.25470037
_cell_angle_alpha   89.44476083
_cell_angle_beta   90.00000000
_cell_angle_gamma   90.00000000
_symmetry_Int_Tables_number   1
_chemical_formula_structural   LaP5O14
_chemical_formula_sum   'La4 P20 O56'
_cell_volume   1097.35188533
_cell_formula_units_Z   4
loop_
 _symmetry_equiv_pos_site_id
 _symmetry_equiv_pos_as_xyz
  1  'x, y, z'
loop_
 _atom_site_type_symbol
 _atom_site_label
 _atom_site_symmetry_multiplicity
 _atom_site_fract_x
 _atom_site_fract_y
 _atom_site_fract_z
 _atom_site_occupancy
  La  La0  1  0.68792200  0.77625700  0.00149800  1
  La  La1  1  0.18792200  0.22374300  0.49850200  1
  La  La2  1  0.31207800  0.22374300  0.99850200  1
  La  La3  1  0.81207800  0.77625700  0.50149800  1
  P  P4  1  0.05060500  0.72518400  0.83771400  1
  P  P5  1  0.00264600  0.49279500  0.67737500  1
  P  P6  1  0.49304100  0.99082600  0.20593500  1
  P  P7  1  0.45340700  0.74618600  0.66360400  1
  P  P8  1  0.50264600  0.50720500  0.82262500  1
  P  P9  1  0.54659300  0.25381400  0.33639600  1
  P  P10  1  0.99304100  0.00917400  0.29406500  1
  P  P11  1  0.94939500  0.27481600  0.16228600  1
  P  P12  1  0.49735400  0.49279500  0.17737500  1
  P  P13  1  0.04659300  0.74618600  0.16360400  1
  P  P14  1  0.25178700  0.81329100  0.99971300  1
  P  P15  1  0.95340700  0.25381400  0.83639600  1
  P  P16  1  0.44939500  0.72518400  0.33771400  1
  P  P17  1  0.74821300  0.18670900  0.00028700  1
  P  P18  1  0.75178700  0.18670900  0.50028700  1
  P  P19  1  0.24821300  0.81329100  0.49971300  1
  P  P20  1  0.00695900  0.99082600  0.70593500  1
  P  P21  1  0.99735400  0.50720500  0.32262500  1
  P  P22  1  0.55060500  0.27481600  0.66228600  1
  P  P23  1  0.50695900  0.00917400  0.79406500  1
  O  O24  1  0.62001600  0.57813500  0.88203100  1
  O  O25  1  0.88772100  0.91322300  0.65263700  1
  O  O26  1  0.11742300  0.08198100  0.65179900  1
  O  O27  1  0.31820400  0.70570300  0.41263700  1
  O  O28  1  0.59014300  0.21407800  0.00112300  1
  O  O29  1  0.92105700  0.36430400  0.74573800  1
  O  O30  1  0.81182000  0.03334900  0.00688300  1
  O  O31  1  0.58982300  0.72006900  0.60899800  1
  O  O32  1  0.68818000  0.03334900  0.50688300  1
  O  O33  1  0.06808900  0.90893700  0.20656600  1
  O  O34  1  0.81820400  0.29429700  0.08736300  1
  O  O35  1  0.08189000  0.58888600  0.76599900  1
  O  O36  1  0.42105700  0.63569600  0.75426200  1
  O  O37  1  0.91811000  0.41111400  0.23400100  1
  O  O38  1  0.61742300  0.91801900  0.84820100  1
  O  O39  1  0.59583500  0.13006800  0.72514100  1
  O  O40  1  0.57894300  0.36430400  0.24573800  1
  O  O41  1  0.09369500  0.27094500  0.11560600  1
  O  O42  1  0.18179600  0.70570300  0.91263700  1
  O  O43  1  0.11309100  0.41750800  0.37191700  1
  O  O44  1  0.40985700  0.78592200  0.99887700  1
  O  O45  1  0.93191100  0.09106300  0.79343400  1
  O  O46  1  0.90416500  0.13006800  0.22514100  1
  O  O47  1  0.91017700  0.72006900  0.10899800  1
  O  O48  1  0.59369500  0.72905500  0.38439400  1
  O  O49  1  0.68875900  0.27523400  0.40042800  1
  O  O50  1  0.38772100  0.08677700  0.84736300  1
  O  O51  1  0.31182000  0.96665100  0.49311700  1
  O  O52  1  0.90985700  0.21407800  0.50112300  1
  O  O53  1  0.90630500  0.72905500  0.88439400  1
  O  O54  1  0.43191100  0.90893700  0.70656600  1
  O  O55  1  0.61309100  0.58249200  0.12808300  1
  O  O56  1  0.81124100  0.27523400  0.90042800  1
  O  O57  1  0.18875900  0.72476600  0.09957200  1
  O  O58  1  0.09014300  0.78592200  0.49887700  1
  O  O59  1  0.09583500  0.86993200  0.77485900  1
  O  O60  1  0.37998400  0.42186500  0.11796900  1
  O  O61  1  0.41017700  0.27993100  0.39100200  1
  O  O62  1  0.88690900  0.58249200  0.62808300  1
  O  O63  1  0.07894300  0.63569600  0.25426200  1
  O  O64  1  0.68179600  0.29429700  0.58736300  1
  O  O65  1  0.18818000  0.96665100  0.99311700  1
  O  O66  1  0.38690900  0.41750800  0.87191700  1
  O  O67  1  0.61227900  0.91322300  0.15263700  1
  O  O68  1  0.38257700  0.08198100  0.15179900  1
  O  O69  1  0.11227900  0.08677700  0.34736300  1
  O  O70  1  0.41811000  0.58888600  0.26599900  1
  O  O71  1  0.58189000  0.41111400  0.73400100  1
  O  O72  1  0.40416500  0.86993200  0.27485900  1
  O  O73  1  0.88257700  0.91801900  0.34820100  1
  O  O74  1  0.08982300  0.27993100  0.89100200  1
  O  O75  1  0.12001600  0.42186500  0.61796900  1
  O  O76  1  0.31124100  0.72476600  0.59957200  1
  O  O77  1  0.56808900  0.09106300  0.29343400  1
  O  O78  1  0.40630500  0.27094500  0.61560600  1
  O  O79  1  0.87998400  0.57813500  0.38203100  1
