# generated using pymatgen
data_C3O2
_symmetry_space_group_name_H-M   'P 1'
_cell_length_a   5.38182900
_cell_length_b   10.28737100
_cell_length_c   12.72048700
_cell_angle_alpha   90.00000000
_cell_angle_beta   90.00000000
_cell_angle_gamma   90.00000000
_symmetry_Int_Tables_number   1
_chemical_formula_structural   C3O2
_chemical_formula_sum   'C24 O16'
_cell_volume   704.26812921
_cell_formula_units_Z   8
loop_
 _symmetry_equiv_pos_site_id
 _symmetry_equiv_pos_as_xyz
  1  'x, y, z'
loop_
 _atom_site_type_symbol
 _atom_site_label
 _atom_site_symmetry_multiplicity
 _atom_site_fract_x
 _atom_site_fract_y
 _atom_site_fract_z
 _atom_site_occupancy
  C  C0  1  0.19795300  0.36371000  0.75000000  1
  C  C1  1  0.68724300  0.92392200  0.50326000  1
  C  C2  1  0.18724300  0.57607800  0.49674000  1
  C  C3  1  0.31275700  0.07607800  0.49674000  1
  C  C4  1  0.69795300  0.13629000  0.25000000  1
  C  C5  1  0.32423800  0.28921400  0.25000000  1
  C  C6  1  0.81275700  0.42392200  0.99674000  1
  C  C7  1  0.67576200  0.71078600  0.75000000  1
  C  C8  1  0.30204700  0.86371000  0.75000000  1
  C  C9  1  0.51260600  0.21369400  0.25000000  1
  C  C10  1  0.01260600  0.28630600  0.75000000  1
  C  C11  1  0.48739400  0.78630600  0.75000000  1
  C  C12  1  0.80204700  0.63629000  0.25000000  1
  C  C13  1  0.00000000  0.50000000  0.50000000  1
  C  C14  1  0.68724300  0.92392200  0.99674000  1
  C  C15  1  0.81275700  0.42392200  0.50326000  1
  C  C16  1  0.17576200  0.78921400  0.25000000  1
  C  C17  1  0.82423800  0.21078600  0.75000000  1
  C  C18  1  0.00000000  0.50000000  0.00000000  1
  C  C19  1  0.31275700  0.07607800  0.00326000  1
  C  C20  1  0.50000000  0.00000000  0.50000000  1
  C  C21  1  0.98739400  0.71369400  0.25000000  1
  C  C22  1  0.50000000  0.00000000  0.00000000  1
  C  C23  1  0.18724300  0.57607800  0.00326000  1
  O  O24  1  0.86935200  0.06494900  0.25000000  1
  O  O25  1  0.14995200  0.35846800  0.25000000  1
  O  O26  1  0.86047100  0.85396600  0.50636400  1
  O  O27  1  0.36935200  0.43505100  0.75000000  1
  O  O28  1  0.13064800  0.93505100  0.75000000  1
  O  O29  1  0.36047100  0.64603400  0.49363600  1
  O  O30  1  0.63952900  0.35396600  0.99363600  1
  O  O31  1  0.35004800  0.85846800  0.25000000  1
  O  O32  1  0.86047100  0.85396600  0.99363600  1
  O  O33  1  0.64995200  0.14153200  0.75000000  1
  O  O34  1  0.13952900  0.14603400  0.49363600  1
  O  O35  1  0.36047100  0.64603400  0.00636400  1
  O  O36  1  0.63064800  0.56494900  0.25000000  1
  O  O37  1  0.85004800  0.64153200  0.75000000  1
  O  O38  1  0.13952900  0.14603400  0.00636400  1
  O  O39  1  0.63952900  0.35396600  0.50636400  1
