# generated using pymatgen
data_V2CoH4C4(NO3)2
_symmetry_space_group_name_H-M   'P 1'
_cell_length_a   7.63864400
_cell_length_b   10.50623300
_cell_length_c   11.69994000
_cell_angle_alpha   90.00000000
_cell_angle_beta   90.00000000
_cell_angle_gamma   90.00000000
_symmetry_Int_Tables_number   1
_chemical_formula_structural   V2CoH4C4(NO3)2
_chemical_formula_sum   'V8 Co4 H16 C16 N8 O24'
_cell_volume   938.95965671
_cell_formula_units_Z   4
loop_
 _symmetry_equiv_pos_site_id
 _symmetry_equiv_pos_as_xyz
  1  'x, y, z'
loop_
 _atom_site_type_symbol
 _atom_site_label
 _atom_site_symmetry_multiplicity
 _atom_site_fract_x
 _atom_site_fract_y
 _atom_site_fract_z
 _atom_site_occupancy
  V  V0  1  0.40423200  0.77207100  0.35215900  1
  V  V1  1  0.09576800  0.72792900  0.85215900  1
  V  V2  1  0.09576800  0.77207100  0.14784100  1
  V  V3  1  0.90423200  0.22792900  0.85215900  1
  V  V4  1  0.40423200  0.72792900  0.64784100  1
  V  V5  1  0.90423200  0.27207100  0.14784100  1
  V  V6  1  0.59576800  0.22792900  0.64784100  1
  V  V7  1  0.59576800  0.27207100  0.35215900  1
  Co  Co8  1  0.75000000  0.56711700  0.25000000  1
  Co  Co9  1  0.75000000  0.93288300  0.75000000  1
  Co  Co10  1  0.25000000  0.06711700  0.25000000  1
  Co  Co11  1  0.25000000  0.43288300  0.75000000  1
  H  H12  1  0.28161200  0.10676600  0.50928700  1
  H  H13  1  0.37380400  0.46626300  0.18784400  1
  H  H14  1  0.78161200  0.60676600  0.99071300  1
  H  H15  1  0.12619600  0.46626300  0.31215600  1
  H  H16  1  0.62619600  0.53373700  0.81215600  1
  H  H17  1  0.37380400  0.03373700  0.81215600  1
  H  H18  1  0.87380400  0.96626300  0.31215600  1
  H  H19  1  0.28161200  0.39323400  0.49071300  1
  H  H20  1  0.62619600  0.96626300  0.18784400  1
  H  H21  1  0.21838800  0.10676600  0.99071300  1
  H  H22  1  0.87380400  0.53373700  0.68784400  1
  H  H23  1  0.71838800  0.89323400  0.49071300  1
  H  H24  1  0.21838800  0.39323400  0.00928700  1
  H  H25  1  0.12619600  0.03373700  0.68784400  1
  H  H26  1  0.78161200  0.89323400  0.00928700  1
  H  H27  1  0.71838800  0.60676600  0.50928700  1
  C  C28  1  0.65527300  0.94085100  0.00512400  1
  C  C29  1  0.42982400  0.48202800  0.10367800  1
  C  C30  1  0.34472700  0.05914900  0.99487600  1
  C  C31  1  0.57017600  0.51797200  0.89632200  1
  C  C32  1  0.42982400  0.01797200  0.89632200  1
  C  C33  1  0.34472700  0.44085100  0.00512400  1
  C  C34  1  0.15527300  0.44085100  0.49487600  1
  C  C35  1  0.65527300  0.55914900  0.99487600  1
  C  C36  1  0.07017600  0.48202800  0.39632200  1
  C  C37  1  0.92982400  0.51797200  0.60367800  1
  C  C38  1  0.57017600  0.98202800  0.10367800  1
  C  C39  1  0.92982400  0.98202800  0.39632200  1
  C  C40  1  0.07017600  0.01797200  0.60367800  1
  C  C41  1  0.84472700  0.55914900  0.50512400  1
  C  C42  1  0.15527300  0.05914900  0.50512400  1
  C  C43  1  0.84472700  0.94085100  0.49487600  1
  N  N44  1  0.41427800  0.45878600  0.90102900  1
  N  N45  1  0.08572200  0.04121400  0.40102900  1
  N  N46  1  0.91427800  0.54121400  0.40102900  1
  N  N47  1  0.58572200  0.95878600  0.90102900  1
  N  N48  1  0.58572200  0.54121400  0.09897100  1
  N  N49  1  0.41427800  0.04121400  0.09897100  1
  N  N50  1  0.91427800  0.95878600  0.59897100  1
  N  N51  1  0.08572200  0.45878600  0.59897100  1
  O  O52  1  0.91090100  0.42972900  0.17416300  1
  O  O53  1  0.25000000  0.70499900  0.25000000  1
  O  O54  1  0.75000000  0.29500100  0.75000000  1
  O  O55  1  0.60311100  0.79264500  0.67069200  1
  O  O56  1  0.66426000  0.25000000  0.50000000  1
  O  O57  1  0.16426000  0.75000000  0.00000000  1
  O  O58  1  0.41090100  0.92972900  0.32583700  1
  O  O59  1  0.83574000  0.25000000  0.00000000  1
  O  O60  1  0.60311100  0.70735500  0.32930800  1
  O  O61  1  0.25000000  0.79500100  0.75000000  1
  O  O62  1  0.39688900  0.29264500  0.67069200  1
  O  O63  1  0.58909900  0.42972900  0.32583700  1
  O  O64  1  0.41090100  0.57027100  0.67416300  1
  O  O65  1  0.89688900  0.70735500  0.17069200  1
  O  O66  1  0.08909900  0.92972900  0.17416300  1
  O  O67  1  0.39688900  0.20735500  0.32930800  1
  O  O68  1  0.91090100  0.07027100  0.82583700  1
  O  O69  1  0.10311100  0.29264500  0.82930800  1
  O  O70  1  0.75000000  0.20499900  0.25000000  1
  O  O71  1  0.89688900  0.79264500  0.82930800  1
  O  O72  1  0.08909900  0.57027100  0.82583700  1
  O  O73  1  0.58909900  0.07027100  0.67416300  1
  O  O74  1  0.10311100  0.20735500  0.17069200  1
  O  O75  1  0.33574000  0.75000000  0.50000000  1
