# generated using pymatgen
data_Co4Sn(CO)16
_symmetry_space_group_name_H-M   'P 1'
_cell_length_a   12.47294077
_cell_length_b   12.47294077
_cell_length_c   12.47294077
_cell_angle_alpha   60.00000000
_cell_angle_beta   60.00000000
_cell_angle_gamma   60.00000000
_symmetry_Int_Tables_number   1
_chemical_formula_structural   Co4Sn(CO)16
_chemical_formula_sum   'Co8 Sn2 C32 O32'
_cell_volume   1372.11838117
_cell_formula_units_Z   2
loop_
 _symmetry_equiv_pos_site_id
 _symmetry_equiv_pos_as_xyz
  1  'x, y, z'
loop_
 _atom_site_type_symbol
 _atom_site_label
 _atom_site_symmetry_multiplicity
 _atom_site_fract_x
 _atom_site_fract_y
 _atom_site_fract_z
 _atom_site_occupancy
  Co  Co0  1  0.91102100  0.91102100  0.26693700  1
  Co  Co1  1  0.41102100  0.41102100  0.41102100  1
  Co  Co2  1  0.91102100  0.91102100  0.91102100  1
  Co  Co3  1  0.76693700  0.41102100  0.41102100  1
  Co  Co4  1  0.91102100  0.26693700  0.91102100  1
  Co  Co5  1  0.26693700  0.91102100  0.91102100  1
  Co  Co6  1  0.41102100  0.76693700  0.41102100  1
  Co  Co7  1  0.41102100  0.41102100  0.76693700  1
  Sn  Sn8  1  0.00000000  0.00000000  0.00000000  1
  Sn  Sn9  1  0.50000000  0.50000000  0.50000000  1
  C  C10  1  0.25458500  0.76209000  0.04162700  1
  C  C11  1  0.76209000  0.94169800  0.04162700  1
  C  C12  1  0.35318700  0.94044000  0.35318700  1
  C  C13  1  0.75458500  0.54162700  0.26209000  1
  C  C14  1  0.35318700  0.35318700  0.35318700  1
  C  C15  1  0.75458500  0.44169800  0.54162700  1
  C  C16  1  0.25458500  0.04162700  0.94169800  1
  C  C17  1  0.44044000  0.85318700  0.85318700  1
  C  C18  1  0.85318700  0.85318700  0.85318700  1
  C  C19  1  0.44169800  0.26209000  0.54162700  1
  C  C20  1  0.25458500  0.94169800  0.76209000  1
  C  C21  1  0.04162700  0.94169800  0.25458500  1
  C  C22  1  0.76209000  0.04162700  0.25458500  1
  C  C23  1  0.85318700  0.85318700  0.44044000  1
  C  C24  1  0.85318700  0.44044000  0.85318700  1
  C  C25  1  0.54162700  0.26209000  0.75458500  1
  C  C26  1  0.44169800  0.54162700  0.75458500  1
  C  C27  1  0.04162700  0.25458500  0.76209000  1
  C  C28  1  0.94044000  0.35318700  0.35318700  1
  C  C29  1  0.54162700  0.44169800  0.26209000  1
  C  C30  1  0.94169800  0.04162700  0.76209000  1
  C  C31  1  0.94169800  0.25458500  0.04162700  1
  C  C32  1  0.26209000  0.54162700  0.44169800  1
  C  C33  1  0.94169800  0.76209000  0.25458500  1
  C  C34  1  0.04162700  0.76209000  0.94169800  1
  C  C35  1  0.76209000  0.25458500  0.94169800  1
  C  C36  1  0.54162700  0.75458500  0.44169800  1
  C  C37  1  0.26209000  0.75458500  0.54162700  1
  C  C38  1  0.35318700  0.35318700  0.94044000  1
  C  C39  1  0.44169800  0.75458500  0.26209000  1
  C  C40  1  0.75458500  0.26209000  0.44169800  1
  C  C41  1  0.26209000  0.44169800  0.75458500  1
  O  O42  1  0.62360100  0.16037300  0.75939900  1
  O  O43  1  0.31542300  0.31542300  0.05373000  1
  O  O44  1  0.75939900  0.16037300  0.45662700  1
  O  O45  1  0.12360100  0.66037300  0.95662700  1
  O  O46  1  0.81542300  0.81542300  0.81542300  1
  O  O47  1  0.55373000  0.81542300  0.81542300  1
  O  O48  1  0.66037300  0.95662700  0.12360100  1
  O  O49  1  0.75939900  0.45662700  0.62360100  1
  O  O50  1  0.62360100  0.45662700  0.16037300  1
  O  O51  1  0.16037300  0.62360100  0.45662700  1
  O  O52  1  0.12360100  0.95662700  0.25939900  1
  O  O53  1  0.81542300  0.55373000  0.81542300  1
  O  O54  1  0.95662700  0.66037300  0.25939900  1
  O  O55  1  0.45662700  0.62360100  0.75939900  1
  O  O56  1  0.16037300  0.75939900  0.62360100  1
  O  O57  1  0.16037300  0.45662700  0.75939900  1
  O  O58  1  0.12360100  0.25939900  0.66037300  1
  O  O59  1  0.31542300  0.05373000  0.31542300  1
  O  O60  1  0.25939900  0.66037300  0.12360100  1
  O  O61  1  0.05373000  0.31542300  0.31542300  1
  O  O62  1  0.95662700  0.25939900  0.12360100  1
  O  O63  1  0.66037300  0.12360100  0.25939900  1
  O  O64  1  0.45662700  0.75939900  0.16037300  1
  O  O65  1  0.45662700  0.16037300  0.62360100  1
  O  O66  1  0.25939900  0.95662700  0.66037300  1
  O  O67  1  0.66037300  0.25939900  0.95662700  1
  O  O68  1  0.25939900  0.12360100  0.95662700  1
  O  O69  1  0.62360100  0.75939900  0.45662700  1
  O  O70  1  0.81542300  0.81542300  0.55373000  1
  O  O71  1  0.75939900  0.62360100  0.16037300  1
  O  O72  1  0.31542300  0.31542300  0.31542300  1
  O  O73  1  0.95662700  0.12360100  0.66037300  1
