# generated using pymatgen
data_NaCoPO4
_symmetry_space_group_name_H-M   'P 1'
_cell_length_a   11.14787400
_cell_length_b   5.86134700
_cell_length_c   10.03430636
_cell_angle_alpha   87.18719744
_cell_angle_beta   90.00000000
_cell_angle_gamma   90.00000000
_symmetry_Int_Tables_number   1
_chemical_formula_structural   NaCoPO4
_chemical_formula_sum   'Na8 Co8 P8 O32'
_cell_volume   654.86727165
_cell_formula_units_Z   8
loop_
 _symmetry_equiv_pos_site_id
 _symmetry_equiv_pos_as_xyz
  1  'x, y, z'
loop_
 _atom_site_type_symbol
 _atom_site_label
 _atom_site_symmetry_multiplicity
 _atom_site_fract_x
 _atom_site_fract_y
 _atom_site_fract_z
 _atom_site_occupancy
  Na  Na0  1  0.63204800  0.12525200  0.62459300  1
  Na  Na1  1  0.36795200  0.87474800  0.37540700  1
  Na  Na2  1  0.15349300  0.37935400  0.86885900  1
  Na  Na3  1  0.34650700  0.37935400  0.36885900  1
  Na  Na4  1  0.65349300  0.62064600  0.63114100  1
  Na  Na5  1  0.86795200  0.12525200  0.12459300  1
  Na  Na6  1  0.84650700  0.62064600  0.13114100  1
  Na  Na7  1  0.13204800  0.87474800  0.87540700  1
  Co  Co8  1  0.62194700  0.34756600  0.00070200  1
  Co  Co9  1  0.37805300  0.65243400  0.99929800  1
  Co  Co10  1  0.10453400  0.11024100  0.26620700  1
  Co  Co11  1  0.39546600  0.11024100  0.76620700  1
  Co  Co12  1  0.87805300  0.34756600  0.50070200  1
  Co  Co13  1  0.12194700  0.65243400  0.49929800  1
  Co  Co14  1  0.60453400  0.88975900  0.23379300  1
  Co  Co15  1  0.89546600  0.88975900  0.73379300  1
  P  P16  1  0.63671100  0.87526700  0.91404600  1
  P  P17  1  0.13671100  0.12473300  0.58595400  1
  P  P18  1  0.61502700  0.37558300  0.32799700  1
  P  P19  1  0.36328900  0.12473300  0.08595400  1
  P  P20  1  0.38497300  0.62441700  0.67200300  1
  P  P21  1  0.88497300  0.37558300  0.82799700  1
  P  P22  1  0.86328900  0.87526700  0.41404600  1
  P  P23  1  0.11502700  0.62441700  0.17200300  1
  O  O24  1  0.79821800  0.38225000  0.94901100  1
  O  O25  1  0.43961000  0.90560700  0.12346800  1
  O  O26  1  0.53525500  0.15518500  0.34664700  1
  O  O27  1  0.44315600  0.34260400  0.07568600  1
  O  O28  1  0.06039000  0.90560700  0.62346800  1
  O  O29  1  0.22868700  0.15117000  0.69792100  1
  O  O30  1  0.80294300  0.91179800  0.55123000  1
  O  O31  1  0.94315600  0.65739600  0.42431400  1
  O  O32  1  0.18669100  0.63535400  0.30528200  1
  O  O33  1  0.53304000  0.59237000  0.32609100  1
  O  O34  1  0.19705700  0.08820200  0.44877000  1
  O  O35  1  0.31330900  0.63535400  0.80528200  1
  O  O36  1  0.81330900  0.36464600  0.69471800  1
  O  O37  1  0.56039000  0.09439300  0.87653200  1
  O  O38  1  0.20178200  0.61775000  0.05098900  1
  O  O39  1  0.77131300  0.84883000  0.30207900  1
  O  O40  1  0.96696000  0.59237000  0.82609100  1
  O  O41  1  0.68669100  0.36464600  0.19471800  1
  O  O42  1  0.70178200  0.38225000  0.44901100  1
  O  O43  1  0.69705700  0.91179800  0.05123000  1
  O  O44  1  0.46696000  0.40763000  0.67390900  1
  O  O45  1  0.93961000  0.09439300  0.37653200  1
  O  O46  1  0.30294300  0.08820200  0.94877000  1
  O  O47  1  0.03525500  0.84481500  0.15335300  1
  O  O48  1  0.29821800  0.61775000  0.55098900  1
  O  O49  1  0.46474500  0.84481500  0.65335300  1
  O  O50  1  0.03304000  0.40763000  0.17390900  1
  O  O51  1  0.27131300  0.15117000  0.19792100  1
  O  O52  1  0.05684400  0.34260400  0.57568600  1
  O  O53  1  0.96474500  0.15518500  0.84664700  1
  O  O54  1  0.55684400  0.65739600  0.92431400  1
  O  O55  1  0.72868700  0.84883000  0.80207900  1
