# generated using pymatgen
data_MgSn2
_symmetry_space_group_name_H-M   'P 1'
_cell_length_a   8.70426965
_cell_length_b   8.70426965
_cell_length_c   5.42050900
_cell_angle_alpha   90.00000000
_cell_angle_beta   90.00000000
_cell_angle_gamma   157.76918421
_symmetry_Int_Tables_number   1
_chemical_formula_structural   MgSn2
_chemical_formula_sum   'Mg2 Sn4'
_cell_volume   155.37656280
_cell_formula_units_Z   2
loop_
 _symmetry_equiv_pos_site_id
 _symmetry_equiv_pos_as_xyz
  1  'x, y, z'
loop_
 _atom_site_type_symbol
 _atom_site_label
 _atom_site_symmetry_multiplicity
 _atom_site_fract_x
 _atom_site_fract_y
 _atom_site_fract_z
 _atom_site_occupancy
  Mg  Mg0  1  0.11134800  0.88865200  0.25000000  1
  Mg  Mg1  1  0.88865200  0.11134800  0.75000000  1
  Sn  Sn2  1  0.44321300  0.55678700  0.25000000  1
  Sn  Sn3  1  0.77611100  0.22388900  0.25000000  1
  Sn  Sn4  1  0.22388900  0.77611100  0.75000000  1
  Sn  Sn5  1  0.55678700  0.44321300  0.75000000  1
