# generated using pymatgen
data_CsU2O6
_symmetry_space_group_name_H-M   'P 1'
_cell_length_a   11.04877353
_cell_length_b   11.04877353
_cell_length_c   11.04877375
_cell_angle_alpha   89.36702723
_cell_angle_beta   89.36702723
_cell_angle_gamma   89.36703186
_symmetry_Int_Tables_number   1
_chemical_formula_structural   CsU2O6
_chemical_formula_sum   'Cs8 U16 O48'
_cell_volume   1348.53832325
_cell_formula_units_Z   8
loop_
 _symmetry_equiv_pos_site_id
 _symmetry_equiv_pos_as_xyz
  1  'x, y, z'
loop_
 _atom_site_type_symbol
 _atom_site_label
 _atom_site_symmetry_multiplicity
 _atom_site_fract_x
 _atom_site_fract_y
 _atom_site_fract_z
 _atom_site_occupancy
  Cs  Cs0  1  0.62642300  0.12508700  0.61336600  1
  Cs  Cs1  1  0.14529800  0.14529800  0.14529800  1
  Cs  Cs2  1  0.37357700  0.87491300  0.38663400  1
  Cs  Cs3  1  0.61336600  0.62642300  0.12508700  1
  Cs  Cs4  1  0.85470200  0.85470200  0.85470200  1
  Cs  Cs5  1  0.38663400  0.37357700  0.87491300  1
  Cs  Cs6  1  0.12508700  0.61336600  0.62642300  1
  Cs  Cs7  1  0.87491300  0.38663400  0.37357700  1
  U  U8  1  0.99721900  0.21537500  0.74580800  1
  U  U9  1  0.74101500  0.76194200  0.49355400  1
  U  U10  1  0.21537500  0.74580800  0.99721900  1
  U  U11  1  0.23805800  0.50644600  0.25898500  1
  U  U12  1  0.49355400  0.74101500  0.76194200  1
  U  U13  1  0.78462500  0.25419200  0.00278100  1
  U  U14  1  0.50000000  0.00000000  0.00000000  1
  U  U15  1  0.25898500  0.23805800  0.50644600  1
  U  U16  1  0.76194200  0.49355400  0.74101500  1
  U  U17  1  0.74580800  0.99721900  0.21537500  1
  U  U18  1  0.25419200  0.00278100  0.78462500  1
  U  U19  1  0.00000000  0.00000000  0.50000000  1
  U  U20  1  0.50644600  0.25898500  0.23805800  1
  U  U21  1  0.00278100  0.78462500  0.25419200  1
  U  U22  1  0.00000000  0.50000000  0.00000000  1
  U  U23  1  0.50000000  0.50000000  0.50000000  1
  O  O24  1  0.57033000  0.85362300  0.89190700  1
  O  O25  1  0.56000800  0.91822300  0.14969900  1
  O  O26  1  0.83184400  0.86611300  0.13529600  1
  O  O27  1  0.32318400  0.11525900  0.62448100  1
  O  O28  1  0.70097600  0.34095300  0.87108800  1
  O  O29  1  0.63332000  0.60375500  0.81481500  1
  O  O30  1  0.65904700  0.12891200  0.29902400  1
  O  O31  1  0.86470400  0.16815600  0.13388700  1
  O  O32  1  0.08202300  0.02007000  0.67795400  1
  O  O33  1  0.10809300  0.42967000  0.14637700  1
  O  O34  1  0.67795400  0.08202300  0.02007000  1
  O  O35  1  0.86611300  0.13529600  0.83184400  1
  O  O36  1  0.60375500  0.81481500  0.63332000  1
  O  O37  1  0.57122500  0.38383200  0.36412300  1
  O  O38  1  0.91822300  0.14969900  0.56000800  1
  O  O39  1  0.39624500  0.18518500  0.36668000  1
  O  O40  1  0.13529600  0.83184400  0.86611300  1
  O  O41  1  0.67681600  0.88474100  0.37551900  1
  O  O42  1  0.85362300  0.89190700  0.57033000  1
  O  O43  1  0.38383200  0.36412300  0.57122500  1
  O  O44  1  0.34095300  0.87108800  0.70097600  1
  O  O45  1  0.43999200  0.08177700  0.85030100  1
  O  O46  1  0.14637700  0.10809300  0.42967000  1
  O  O47  1  0.61616800  0.63587700  0.42877500  1
  O  O48  1  0.42877500  0.61616800  0.63587700  1
  O  O49  1  0.87108800  0.70097600  0.34095300  1
  O  O50  1  0.16815600  0.13388700  0.86470400  1
  O  O51  1  0.36668000  0.39624500  0.18518500  1
  O  O52  1  0.32204600  0.91797700  0.97993000  1
  O  O53  1  0.02007000  0.67795400  0.08202300  1
  O  O54  1  0.13388700  0.86470400  0.16815600  1
  O  O55  1  0.36412300  0.57122500  0.38383200  1
  O  O56  1  0.29902400  0.65904700  0.12891200  1
  O  O57  1  0.88474100  0.37551900  0.67681600  1
  O  O58  1  0.62448100  0.32318400  0.11525900  1
  O  O59  1  0.91797700  0.97993000  0.32204600  1
  O  O60  1  0.08177700  0.85030100  0.43999200  1
  O  O61  1  0.14969900  0.56000800  0.91822300  1
  O  O62  1  0.85030100  0.43999200  0.08177700  1
  O  O63  1  0.11525900  0.62448100  0.32318400  1
  O  O64  1  0.81481500  0.63332000  0.60375500  1
  O  O65  1  0.12891200  0.29902400  0.65904700  1
  O  O66  1  0.42967000  0.14637700  0.10809300  1
  O  O67  1  0.97993000  0.32204600  0.91797700  1
  O  O68  1  0.63587700  0.42877500  0.61616800  1
  O  O69  1  0.18518500  0.36668000  0.39624500  1
  O  O70  1  0.37551900  0.67681600  0.88474100  1
  O  O71  1  0.89190700  0.57033000  0.85362300  1
