# generated using pymatgen
data_P2O5
_symmetry_space_group_name_H-M   'P 1'
_cell_length_a   7.75465614
_cell_length_b   7.75465614
_cell_length_c   7.75465590
_cell_angle_alpha   87.78003264
_cell_angle_beta   87.78003264
_cell_angle_gamma   87.78003197
_symmetry_Int_Tables_number   1
_chemical_formula_structural   P2O5
_chemical_formula_sum   'P8 O20'
_cell_volume   465.30025880
_cell_formula_units_Z   4
loop_
 _symmetry_equiv_pos_site_id
 _symmetry_equiv_pos_as_xyz
  1  'x, y, z'
loop_
 _atom_site_type_symbol
 _atom_site_label
 _atom_site_symmetry_multiplicity
 _atom_site_fract_x
 _atom_site_fract_y
 _atom_site_fract_z
 _atom_site_occupancy
  P  P0  1  0.87464500  0.87464500  0.87464500  1
  P  P1  1  0.37464500  0.37464500  0.37464500  1
  P  P2  1  0.68450200  0.55658700  0.38094700  1
  P  P3  1  0.38094700  0.68450200  0.55658700  1
  P  P4  1  0.55658700  0.38094700  0.68450200  1
  P  P5  1  0.88094700  0.05658700  0.18450200  1
  P  P6  1  0.18450200  0.88094700  0.05658700  1
  P  P7  1  0.05658700  0.18450200  0.88094700  1
  O  O8  1  0.77067800  0.77067800  0.77067800  1
  O  O9  1  0.27067800  0.27067800  0.27067800  1
  O  O10  1  0.94125700  0.05200100  0.78180400  1
  O  O11  1  0.78180400  0.94125700  0.05200100  1
  O  O12  1  0.05200100  0.78180400  0.94125700  1
  O  O13  1  0.28180400  0.55200100  0.44125700  1
  O  O14  1  0.44125700  0.28180400  0.55200100  1
  O  O15  1  0.55200100  0.44125700  0.28180400  1
  O  O16  1  0.71421900  0.44451600  0.55834000  1
  O  O17  1  0.55834000  0.71421900  0.44451600  1
  O  O18  1  0.44451600  0.55834000  0.71421900  1
  O  O19  1  0.05834000  0.94451600  0.21421900  1
  O  O20  1  0.21421900  0.05834000  0.94451600  1
  O  O21  1  0.94451600  0.21421900  0.05834000  1
  O  O22  1  0.84056200  0.60499900  0.28554600  1
  O  O23  1  0.28554600  0.84056200  0.60499900  1
  O  O24  1  0.60499900  0.28554600  0.84056200  1
  O  O25  1  0.78554600  0.10499900  0.34056200  1
  O  O26  1  0.34056200  0.78554600  0.10499900  1
  O  O27  1  0.10499900  0.34056200  0.78554600  1
