# generated using pymatgen
data_SnO2
_symmetry_space_group_name_H-M   'P 1'
_cell_length_a   3.57147500
_cell_length_b   5.30523300
_cell_length_c   7.31033000
_cell_angle_alpha   90.00000000
_cell_angle_beta   90.00000000
_cell_angle_gamma   90.00000000
_symmetry_Int_Tables_number   1
_chemical_formula_structural   SnO2
_chemical_formula_sum   'Sn4 O8'
_cell_volume   138.51252906
_cell_formula_units_Z   4
loop_
 _symmetry_equiv_pos_site_id
 _symmetry_equiv_pos_as_xyz
  1  'x, y, z'
loop_
 _atom_site_type_symbol
 _atom_site_label
 _atom_site_symmetry_multiplicity
 _atom_site_fract_x
 _atom_site_fract_y
 _atom_site_fract_z
 _atom_site_occupancy
  Sn  Sn0  1  0.25000000  0.26637600  0.91686700  1
  Sn  Sn1  1  0.75000000  0.73362400  0.08313300  1
  Sn  Sn2  1  0.75000000  0.23362400  0.41686700  1
  Sn  Sn3  1  0.25000000  0.76637600  0.58313300  1
  O  O4  1  0.75000000  0.97037000  0.63271300  1
  O  O5  1  0.75000000  0.11614900  0.11432000  1
  O  O6  1  0.25000000  0.02963000  0.36728700  1
  O  O7  1  0.25000000  0.88385100  0.88568000  1
  O  O8  1  0.25000000  0.52963000  0.13271300  1
  O  O9  1  0.25000000  0.38385100  0.61432000  1
  O  O10  1  0.75000000  0.61614900  0.38568000  1
  O  O11  1  0.75000000  0.47037000  0.86728700  1
