# generated using pymatgen
data_GaCoPH18C9NCl2O3
_symmetry_space_group_name_H-M   'P 1'
_cell_length_a   11.66162900
_cell_length_b   7.62824800
_cell_length_c   10.79462255
_cell_angle_alpha   78.36460025
_cell_angle_beta   90.00000000
_cell_angle_gamma   90.00000000
_symmetry_Int_Tables_number   1
_chemical_formula_structural   GaCoPH18C9NCl2O3
_chemical_formula_sum   'Ga2 Co2 P2 H36 C18 N2 Cl4 O6'
_cell_volume   940.53318562
_cell_formula_units_Z   2
loop_
 _symmetry_equiv_pos_site_id
 _symmetry_equiv_pos_as_xyz
  1  'x, y, z'
loop_
 _atom_site_type_symbol
 _atom_site_label
 _atom_site_symmetry_multiplicity
 _atom_site_fract_x
 _atom_site_fract_y
 _atom_site_fract_z
 _atom_site_occupancy
  Ga  Ga0  1  0.75000000  0.21303400  0.80885900  1
  Ga  Ga1  1  0.25000000  0.78696600  0.19114100  1
  Co  Co2  1  0.25000000  0.71323400  0.41461200  1
  Co  Co3  1  0.75000000  0.28676600  0.58538800  1
  P  P4  1  0.75000000  0.32334200  0.37875500  1
  P  P5  1  0.25000000  0.67665800  0.62124500  1
  H  H6  1  0.43068500  0.09073600  0.11988200  1
  H  H7  1  0.75000000  0.76145700  0.07243200  1
  H  H8  1  0.06931500  0.09073600  0.11988200  1
  H  H9  1  0.75000000  0.15198400  0.21314200  1
  H  H10  1  0.85454500  0.70254500  0.89183100  1
  H  H11  1  0.93068500  0.90926400  0.88011800  1
  H  H12  1  0.67350900  0.03809000  0.35021700  1
  H  H13  1  0.85324000  0.86326600  0.74640300  1
  H  H14  1  0.14676000  0.13673400  0.25359700  1
  H  H15  1  0.87086600  0.58500900  0.31840600  1
  H  H16  1  0.17350900  0.96191000  0.64978300  1
  H  H17  1  0.32692200  0.03217400  0.93870400  1
  H  H18  1  0.17307800  0.03217400  0.93870400  1
  H  H19  1  0.54698000  0.38496100  0.34040400  1
  H  H20  1  0.95302000  0.38496100  0.34040400  1
  H  H21  1  0.82649100  0.03809000  0.35021700  1
  H  H22  1  0.37086600  0.41499100  0.68159400  1
  H  H23  1  0.25000000  0.23854300  0.92756800  1
  H  H24  1  0.82692200  0.96782600  0.06129600  1
  H  H25  1  0.14545500  0.29745500  0.10816900  1
  H  H26  1  0.67307800  0.96782600  0.06129600  1
  H  H27  1  0.37095200  0.54778100  0.80093900  1
  H  H28  1  0.04698000  0.61503900  0.65959600  1
  H  H29  1  0.35324000  0.13673400  0.25359700  1
  H  H30  1  0.87095200  0.45221900  0.19906100  1
  H  H31  1  0.62904800  0.45221900  0.19906100  1
  H  H32  1  0.35454500  0.29745500  0.10816900  1
  H  H33  1  0.56931500  0.90926400  0.88011800  1
  H  H34  1  0.64545500  0.70254500  0.89183100  1
  H  H35  1  0.62913400  0.58500900  0.31840600  1
  H  H36  1  0.25000000  0.84801600  0.78685800  1
  H  H37  1  0.64676000  0.86326600  0.74640300  1
  H  H38  1  0.32649100  0.96191000  0.64978300  1
  H  H39  1  0.12904800  0.54778100  0.80093900  1
  H  H40  1  0.45302000  0.61503900  0.65959600  1
  H  H41  1  0.12913400  0.41499100  0.68159400  1
  C  C42  1  0.25000000  0.48604600  0.40839300  1
  C  C43  1  0.62735400  0.44789600  0.30145900  1
  C  C44  1  0.35397800  0.15339100  0.15041700  1
  C  C45  1  0.14602200  0.15339100  0.15041700  1
  C  C46  1  0.12735400  0.55210400  0.69854100  1
  C  C47  1  0.88683000  0.19152000  0.59798200  1
  C  C48  1  0.64602200  0.84660900  0.84958300  1
  C  C49  1  0.75000000  0.11773500  0.31708500  1
  C  C50  1  0.75000000  0.90565300  0.03082800  1
  C  C51  1  0.37264600  0.55210400  0.69854100  1
  C  C52  1  0.75000000  0.51395400  0.59160700  1
  C  C53  1  0.11317000  0.80848000  0.40201800  1
  C  C54  1  0.25000000  0.88226500  0.68291500  1
  C  C55  1  0.85397800  0.84660900  0.84958300  1
  C  C56  1  0.38683000  0.80848000  0.40201800  1
  C  C57  1  0.61317000  0.19152000  0.59798200  1
  C  C58  1  0.87264600  0.44789600  0.30145900  1
  C  C59  1  0.25000000  0.09434700  0.96917200  1
  N  N60  1  0.25000000  0.06838200  0.10907600  1
  N  N61  1  0.75000000  0.93161800  0.89092400  1
  Cl  Cl62  1  0.59807600  0.29631700  0.91193300  1
  Cl  Cl63  1  0.09807600  0.70368300  0.08806700  1
  Cl  Cl64  1  0.40192400  0.70368300  0.08806700  1
  Cl  Cl65  1  0.90192400  0.29631700  0.91193300  1
  O  O66  1  0.25000000  0.33255900  0.40961700  1
  O  O67  1  0.51841900  0.14010900  0.60111700  1
  O  O68  1  0.01841900  0.85989100  0.39888300  1
  O  O69  1  0.98158100  0.14010900  0.60111700  1
  O  O70  1  0.48158100  0.85989100  0.39888300  1
  O  O71  1  0.75000000  0.66744100  0.59038300  1
