# generated using pymatgen
data_KFe3H6(SO7)2
_symmetry_space_group_name_H-M   'P 1'
_cell_length_a   8.59910590
_cell_length_b   8.59910613
_cell_length_c   8.59910581
_cell_angle_alpha   66.12383906
_cell_angle_beta   66.12383544
_cell_angle_gamma   66.12383350
_symmetry_Int_Tables_number   1
_chemical_formula_structural   KFe3H6(SO7)2
_chemical_formula_sum   'K1 Fe3 H6 S2 O14'
_cell_volume   509.13518421
_cell_formula_units_Z   1
loop_
 _symmetry_equiv_pos_site_id
 _symmetry_equiv_pos_as_xyz
  1  'x, y, z'
loop_
 _atom_site_type_symbol
 _atom_site_label
 _atom_site_symmetry_multiplicity
 _atom_site_fract_x
 _atom_site_fract_y
 _atom_site_fract_z
 _atom_site_occupancy
  K  K0  1  0.00000000  0.00000000  0.00000000  1
  Fe  Fe1  1  0.00000000  0.00000000  0.50000000  1
  Fe  Fe2  1  0.00000000  0.50000000  0.00000000  1
  Fe  Fe3  1  0.50000000  0.00000000  0.00000000  1
  H  H4  1  0.49588400  0.04651200  0.49588400  1
  H  H5  1  0.50411600  0.95348800  0.50411600  1
  H  H6  1  0.49588400  0.49588400  0.04651200  1
  H  H7  1  0.04651200  0.49588400  0.49588400  1
  H  H8  1  0.95348800  0.50411600  0.50411600  1
  H  H9  1  0.50411600  0.50411600  0.95348800  1
  S  S10  1  0.26310200  0.26310200  0.26310200  1
  S  S11  1  0.73689800  0.73689800  0.73689800  1
  O  O12  1  0.84916400  0.84916400  0.58520200  1
  O  O13  1  0.41479800  0.15083600  0.15083600  1
  O  O14  1  0.58520200  0.84916400  0.84916400  1
  O  O15  1  0.66518500  0.66518500  0.66518500  1
  O  O16  1  0.01327200  0.30251100  0.01327200  1
  O  O17  1  0.69748900  0.98672800  0.98672800  1
  O  O18  1  0.98672800  0.69748900  0.98672800  1
  O  O19  1  0.84916400  0.58520200  0.84916400  1
  O  O20  1  0.33481500  0.33481500  0.33481500  1
  O  O21  1  0.15083600  0.41479800  0.15083600  1
  O  O22  1  0.15083600  0.15083600  0.41479800  1
  O  O23  1  0.01327200  0.01327200  0.30251100  1
  O  O24  1  0.98672800  0.98672800  0.69748900  1
  O  O25  1  0.30251100  0.01327200  0.01327200  1
