# generated using pymatgen
data_Yb3CeS6
_symmetry_space_group_name_H-M   'P 1'
_cell_length_a   4.17109400
_cell_length_b   11.25795000
_cell_length_c   11.41132699
_cell_angle_alpha   72.61054034
_cell_angle_beta   90.00000000
_cell_angle_gamma   90.00000000
_symmetry_Int_Tables_number   1
_chemical_formula_structural   Yb3CeS6
_chemical_formula_sum   'Yb6 Ce2 S12'
_cell_volume   511.36174964
_cell_formula_units_Z   2
loop_
 _symmetry_equiv_pos_site_id
 _symmetry_equiv_pos_as_xyz
  1  'x, y, z'
loop_
 _atom_site_type_symbol
 _atom_site_label
 _atom_site_symmetry_multiplicity
 _atom_site_fract_x
 _atom_site_fract_y
 _atom_site_fract_z
 _atom_site_occupancy
  Yb  Yb0  1  0.25000000  0.65347800  0.95299000  1
  Yb  Yb1  1  0.25000000  0.42662200  0.67529000  1
  Yb  Yb2  1  0.75000000  0.57337800  0.32471000  1
  Yb  Yb3  1  0.25000000  0.95293600  0.15116300  1
  Yb  Yb4  1  0.75000000  0.04706400  0.84883700  1
  Yb  Yb5  1  0.75000000  0.34652200  0.04701000  1
  Ce  Ce6  1  0.75000000  0.17458300  0.47189200  1
  Ce  Ce7  1  0.25000000  0.82541700  0.52810800  1
  S  S8  1  0.25000000  0.25216600  0.28016700  1
  S  S9  1  0.75000000  0.96015000  0.39394200  1
  S  S10  1  0.75000000  0.74783400  0.71983300  1
  S  S11  1  0.25000000  0.43301400  0.89753600  1
  S  S12  1  0.75000000  0.63362100  0.60509500  1
  S  S13  1  0.75000000  0.10194800  0.06716400  1
  S  S14  1  0.75000000  0.56698600  0.10246400  1
  S  S15  1  0.25000000  0.36637900  0.39490500  1
  S  S16  1  0.25000000  0.89805200  0.93283600  1
  S  S17  1  0.25000000  0.03985000  0.60605800  1
  S  S18  1  0.25000000  0.72177000  0.33990800  1
  S  S19  1  0.75000000  0.27823000  0.66009200  1
