# generated using pymatgen
data_KV3Cu5O13
_symmetry_space_group_name_H-M   'P 1'
_cell_length_a   6.15158300
_cell_length_b   8.30599131
_cell_length_c   10.90224523
_cell_angle_alpha   97.90928123
_cell_angle_beta   92.74881973
_cell_angle_gamma   90.59062806
_symmetry_Int_Tables_number   1
_chemical_formula_structural   KV3Cu5O13
_chemical_formula_sum   'K2 V6 Cu10 O26'
_cell_volume   551.03570868
_cell_formula_units_Z   2
loop_
 _symmetry_equiv_pos_site_id
 _symmetry_equiv_pos_as_xyz
  1  'x, y, z'
loop_
 _atom_site_type_symbol
 _atom_site_label
 _atom_site_symmetry_multiplicity
 _atom_site_fract_x
 _atom_site_fract_y
 _atom_site_fract_z
 _atom_site_occupancy
  K  K0  1  0.75231500  0.47914400  0.59850000  1
  K  K1  1  0.24768500  0.52085600  0.40150000  1
  V  V2  1  0.24006200  0.12521500  0.49439700  1
  V  V3  1  0.75993800  0.87478500  0.50560300  1
  V  V4  1  0.25923400  0.17950100  0.12181800  1
  V  V5  1  0.25682000  0.47192300  0.78819500  1
  V  V6  1  0.74318000  0.52807700  0.21180500  1
  V  V7  1  0.74076600  0.82049900  0.87818200  1
  Cu  Cu8  1  0.00069000  0.10525000  0.77127600  1
  Cu  Cu9  1  0.74258200  0.19212600  0.35465200  1
  Cu  Cu10  1  0.26759500  0.85447600  0.93879600  1
  Cu  Cu11  1  0.22544500  0.60489000  0.10408000  1
  Cu  Cu12  1  0.49150600  0.89363700  0.23262800  1
  Cu  Cu13  1  0.73240500  0.14552400  0.06120400  1
  Cu  Cu14  1  0.50849400  0.10636300  0.76737200  1
  Cu  Cu15  1  0.25741800  0.80787400  0.64534800  1
  Cu  Cu16  1  0.77455500  0.39511000  0.89592000  1
  Cu  Cu17  1  0.99931000  0.89475000  0.22872400  1
  O  O18  1  0.24334900  0.05153900  0.65668400  1
  O  O19  1  0.45491600  0.25010600  0.48083700  1
  O  O20  1  0.25125200  0.57687800  0.66313200  1
  O  O21  1  0.98007600  0.65651400  0.22222900  1
  O  O22  1  0.75665100  0.94846100  0.34331600  1
  O  O23  1  0.02103000  0.11856100  0.18956300  1
  O  O24  1  0.00292500  0.23082000  0.46734600  1
  O  O25  1  0.23668800  0.38270400  0.12142100  1
  O  O26  1  0.25601700  0.96272600  0.38141900  1
  O  O27  1  0.27106600  0.61744300  0.92465800  1
  O  O28  1  0.23268200  0.84370800  0.11635700  1
  O  O29  1  0.74874800  0.42312200  0.33686800  1
  O  O30  1  0.51356200  0.13208300  0.20360500  1
  O  O31  1  0.76331200  0.61729600  0.87857900  1
  O  O32  1  0.48105600  0.34434600  0.77909800  1
  O  O33  1  0.72753000  0.91203500  0.03188600  1
  O  O34  1  0.72893400  0.38255700  0.07534200  1
  O  O35  1  0.54508400  0.74989400  0.51916300  1
  O  O36  1  0.99707500  0.76918000  0.53265400  1
  O  O37  1  0.74398300  0.03727400  0.61858100  1
  O  O38  1  0.97897000  0.88143900  0.81043700  1
  O  O39  1  0.76731800  0.15629200  0.88364300  1
  O  O40  1  0.48643800  0.86791700  0.79639500  1
  O  O41  1  0.51894400  0.65565400  0.22090200  1
  O  O42  1  0.01992400  0.34348600  0.77777100  1
  O  O43  1  0.27247000  0.08796500  0.96811400  1
