# generated using pymatgen
data_LaP5Cl18O17
_symmetry_space_group_name_H-M   'P 1'
_cell_length_a   18.00634400
_cell_length_b   10.41995700
_cell_length_c   10.60773086
_cell_angle_alpha   89.92186984
_cell_angle_beta   90.00000000
_cell_angle_gamma   90.00000000
_symmetry_Int_Tables_number   1
_chemical_formula_structural   LaP5Cl18O17
_chemical_formula_sum   'La2 P10 Cl36 O34'
_cell_volume   1990.27715537
_cell_formula_units_Z   2
loop_
 _symmetry_equiv_pos_site_id
 _symmetry_equiv_pos_as_xyz
  1  'x, y, z'
loop_
 _atom_site_type_symbol
 _atom_site_label
 _atom_site_symmetry_multiplicity
 _atom_site_fract_x
 _atom_site_fract_y
 _atom_site_fract_z
 _atom_site_occupancy
  La  La0  1  0.24821900  0.21936600  0.28972100  1
  La  La1  1  0.74821900  0.78063400  0.71027900  1
  P  P2  1  0.20160300  0.88400600  0.45589100  1
  P  P3  1  0.90302300  0.60499200  0.90957300  1
  P  P4  1  0.22912500  0.99911700  0.98331700  1
  P  P5  1  0.40302300  0.39500800  0.09042700  1
  P  P6  1  0.52143600  0.83012300  0.73077900  1
  P  P7  1  0.72912500  0.00088300  0.01668300  1
  P  P8  1  0.64051900  0.62930800  0.40852900  1
  P  P9  1  0.02143600  0.16987700  0.26922100  1
  P  P10  1  0.70160300  0.11599400  0.54410900  1
  P  P11  1  0.14051900  0.37069200  0.59147100  1
  Cl  Cl12  1  0.98923100  0.16371900  0.09010100  1
  Cl  Cl13  1  0.57064600  0.75674200  0.33328400  1
  Cl  Cl14  1  0.28502300  0.09650000  0.85264000  1
  Cl  Cl15  1  0.96618100  0.31883300  0.34176600  1
  Cl  Cl16  1  0.11444700  0.87540200  0.57081300  1
  Cl  Cl17  1  0.07064600  0.24325800  0.66671600  1
  Cl  Cl18  1  0.61444700  0.12459800  0.42918700  1
  Cl  Cl19  1  0.17231700  0.44795500  0.11790200  1
  Cl  Cl20  1  0.46618100  0.68116700  0.65823400  1
  Cl  Cl21  1  0.40676500  0.40934400  0.90331900  1
  Cl  Cl22  1  0.19888200  0.43846000  0.73617700  1
  Cl  Cl23  1  0.50224700  0.32763300  0.14124200  1
  Cl  Cl24  1  0.26698600  0.81980700  0.97529600  1
  Cl  Cl25  1  0.57689100  0.48238000  0.46226900  1
  Cl  Cl26  1  0.40013500  0.57442700  0.15484600  1
  Cl  Cl27  1  0.90676500  0.59065600  0.09668100  1
  Cl  Cl28  1  0.91096800  0.01263700  0.76978300  1
  Cl  Cl29  1  0.69888200  0.56154000  0.26382300  1
  Cl  Cl30  1  0.07689100  0.51762000  0.53773100  1
  Cl  Cl31  1  0.76698600  0.18019300  0.02470400  1
  Cl  Cl32  1  0.47577400  0.98478400  0.65135500  1
  Cl  Cl33  1  0.41096800  0.98736300  0.23021700  1
  Cl  Cl34  1  0.90013500  0.42557300  0.84515400  1
  Cl  Cl35  1  0.67883800  0.23590500  0.68450300  1
  Cl  Cl36  1  0.62590300  0.01332900  0.08473900  1
  Cl  Cl37  1  0.78502300  0.90350000  0.14736000  1
  Cl  Cl38  1  0.37746800  0.31260600  0.52873900  1
  Cl  Cl39  1  0.67231700  0.55204500  0.88209800  1
  Cl  Cl40  1  0.87746800  0.68739400  0.47126100  1
  Cl  Cl41  1  0.78452300  0.19871400  0.44947400  1
  Cl  Cl42  1  0.48923100  0.83628100  0.90989900  1
  Cl  Cl43  1  0.17883800  0.76409500  0.31549700  1
  Cl  Cl44  1  0.28452300  0.80128600  0.55052600  1
  Cl  Cl45  1  0.12590300  0.98667100  0.91526100  1
  Cl  Cl46  1  0.00224700  0.67236700  0.85875800  1
  Cl  Cl47  1  0.97577400  0.01521600  0.34864500  1
  O  O48  1  0.34032200  0.31429000  0.13365000  1
  O  O49  1  0.71800200  0.98341200  0.58578200  1
  O  O50  1  0.21492700  0.52960600  0.03492900  1
  O  O51  1  0.38568000  0.85856800  0.26016300  1
  O  O52  1  0.36970400  0.42121600  0.61319700  1
  O  O53  1  0.84032200  0.68571000  0.86635000  1
  O  O54  1  0.60278800  0.82337600  0.71249400  1
  O  O55  1  0.10278800  0.17662400  0.28750600  1
  O  O56  1  0.84660300  0.64885300  0.59781500  1
  O  O57  1  0.70376300  0.54639300  0.75148600  1
  O  O58  1  0.68591200  0.68454300  0.51120500  1
  O  O59  1  0.21800200  0.01658800  0.41421800  1
  O  O60  1  0.59522500  0.51515100  0.87984400  1
  O  O61  1  0.34660300  0.35114700  0.40218500  1
  O  O62  1  0.86970400  0.57878400  0.38680300  1
  O  O63  1  0.95492300  0.72145200  0.48665900  1
  O  O64  1  0.71492700  0.47039400  0.96507100  1
  O  O65  1  0.90666500  0.98813200  0.90444200  1
  O  O66  1  0.83427400  0.79714100  0.42734400  1
  O  O67  1  0.88568000  0.14143200  0.73983700  1
  O  O68  1  0.20376300  0.45360700  0.24851400  1
  O  O69  1  0.33427400  0.20285900  0.57265600  1
  O  O70  1  0.68027300  0.68865900  0.91954600  1
  O  O71  1  0.45492300  0.27854800  0.51334100  1
  O  O72  1  0.86200900  0.91914000  0.70274200  1
  O  O73  1  0.23185100  0.05464900  0.11172200  1
  O  O74  1  0.09522500  0.48484900  0.12015600  1
  O  O75  1  0.40666500  0.01186800  0.09555800  1
  O  O76  1  0.36200900  0.08086000  0.29725800  1
  O  O77  1  0.18027300  0.31134100  0.08045400  1
  O  O78  1  0.73185100  0.94535100  0.88827800  1
  O  O79  1  0.98643100  0.99315100  0.72484800  1
  O  O80  1  0.48643100  0.00684900  0.27515200  1
  O  O81  1  0.18591200  0.31545700  0.48879500  1
