# generated using pymatgen
data_Sn2Rh
_symmetry_space_group_name_H-M   'P 1'
_cell_length_a   5.43061221
_cell_length_b   5.43061221
_cell_length_c   5.43061221
_cell_angle_alpha   106.51292689
_cell_angle_beta   106.51292689
_cell_angle_gamma   115.56512089
_symmetry_Int_Tables_number   1
_chemical_formula_structural   Sn2Rh
_chemical_formula_sum   'Sn4 Rh2'
_cell_volume   122.23204638
_cell_formula_units_Z   2
loop_
 _symmetry_equiv_pos_site_id
 _symmetry_equiv_pos_as_xyz
  1  'x, y, z'
loop_
 _atom_site_type_symbol
 _atom_site_label
 _atom_site_symmetry_multiplicity
 _atom_site_fract_x
 _atom_site_fract_y
 _atom_site_fract_z
 _atom_site_occupancy
  Sn  Sn0  1  0.66201500  0.16201500  0.82403000  1
  Sn  Sn1  1  0.16201500  0.33798500  0.50000000  1
  Sn  Sn2  1  0.83798500  0.66201500  0.50000000  1
  Sn  Sn3  1  0.33798500  0.83798500  0.17597000  1
  Rh  Rh4  1  0.75000000  0.75000000  0.00000000  1
  Rh  Rh5  1  0.25000000  0.25000000  0.00000000  1
