# generated using pymatgen
data_Na3NbAs2O9
_symmetry_space_group_name_H-M   'P 1'
_cell_length_a   9.53268500
_cell_length_b   10.48993200
_cell_length_c   12.44635957
_cell_angle_alpha   58.94259932
_cell_angle_beta   90.00000000
_cell_angle_gamma   90.00000000
_symmetry_Int_Tables_number   1
_chemical_formula_structural   Na3NbAs2O9
_chemical_formula_sum   'Na12 Nb4 As8 O36'
_cell_volume   1066.18883170
_cell_formula_units_Z   4
loop_
 _symmetry_equiv_pos_site_id
 _symmetry_equiv_pos_as_xyz
  1  'x, y, z'
loop_
 _atom_site_type_symbol
 _atom_site_label
 _atom_site_symmetry_multiplicity
 _atom_site_fract_x
 _atom_site_fract_y
 _atom_site_fract_z
 _atom_site_occupancy
  Na  Na0  1  0.93637400  0.20026300  0.14810700  1
  Na  Na1  1  0.27823400  0.47110900  0.85497600  1
  Na  Na2  1  0.22176600  0.47110900  0.35497600  1
  Na  Na3  1  0.72176600  0.52889100  0.14502400  1
  Na  Na4  1  0.43637400  0.79973700  0.35189300  1
  Na  Na5  1  0.77823400  0.52889100  0.64502400  1
  Na  Na6  1  0.13318000  0.13597500  0.84776800  1
  Na  Na7  1  0.86682000  0.86402500  0.15223200  1
  Na  Na8  1  0.63318000  0.86402500  0.65223200  1
  Na  Na9  1  0.06362600  0.79973700  0.85189300  1
  Na  Na10  1  0.56362600  0.20026300  0.64810700  1
  Na  Na11  1  0.36682000  0.13597500  0.34776800  1
  Nb  Nb12  1  0.39351000  0.73245600  0.96914700  1
  Nb  Nb13  1  0.89351000  0.26754400  0.53085300  1
  Nb  Nb14  1  0.60649000  0.26754400  0.03085300  1
  Nb  Nb15  1  0.10649000  0.73245600  0.46914700  1
  As  As16  1  0.82899700  0.88204300  0.38886000  1
  As  As17  1  0.28242600  0.82795800  0.61077700  1
  As  As18  1  0.17100300  0.11795700  0.61114000  1
  As  As19  1  0.21757400  0.82795800  0.11077700  1
  As  As20  1  0.67100300  0.88204300  0.88886000  1
  As  As21  1  0.71757400  0.17204200  0.38922300  1
  As  As22  1  0.78242600  0.17204200  0.88922300  1
  As  As23  1  0.32899700  0.11795700  0.11114000  1
  O  O24  1  0.42507900  0.30339500  0.41435100  1
  O  O25  1  0.51977500  0.55401900  0.01652300  1
  O  O26  1  0.59921200  0.76919900  0.04007500  1
  O  O27  1  0.92507900  0.69660500  0.08564900  1
  O  O28  1  0.07492100  0.30339500  0.91435100  1
  O  O29  1  0.41516100  0.16377900  0.51999900  1
  O  O30  1  0.40078800  0.23080100  0.95992500  1
  O  O31  1  0.57492100  0.69660500  0.58564900  1
  O  O32  1  0.25227100  0.90567700  0.94462800  1
  O  O33  1  0.08483900  0.16377900  0.01999900  1
  O  O34  1  0.18022300  0.66417700  0.64806400  1
  O  O35  1  0.48022500  0.44598100  0.98347700  1
  O  O36  1  0.58483900  0.83622100  0.48000100  1
  O  O37  1  0.27041200  0.66128400  0.90112300  1
  O  O38  1  0.35592700  0.92642900  0.14422700  1
  O  O39  1  0.24772900  0.90567700  0.44462800  1
  O  O40  1  0.91516100  0.83622100  0.98000100  1
  O  O41  1  0.72958800  0.33871600  0.09887700  1
  O  O42  1  0.81977700  0.33582300  0.35193600  1
  O  O43  1  0.64407300  0.07357100  0.85577300  1
  O  O44  1  0.74772900  0.09432300  0.05537200  1
  O  O45  1  0.90078800  0.76919900  0.54007500  1
  O  O46  1  0.09921200  0.23080100  0.45992500  1
  O  O47  1  0.31977700  0.66417700  0.14806400  1
  O  O48  1  0.68022300  0.33582300  0.85193600  1
  O  O49  1  0.49778100  0.11765200  0.18716300  1
  O  O50  1  0.50221900  0.88234800  0.81283700  1
  O  O51  1  0.98022500  0.55401900  0.51652300  1
  O  O52  1  0.75227100  0.09432300  0.55537200  1
  O  O53  1  0.22958800  0.66128400  0.40112300  1
  O  O54  1  0.00221900  0.11765200  0.68716300  1
  O  O55  1  0.14407300  0.92642900  0.64422700  1
  O  O56  1  0.85592700  0.07357100  0.35577300  1
  O  O57  1  0.99778100  0.88234800  0.31283700  1
  O  O58  1  0.77041200  0.33871600  0.59887700  1
  O  O59  1  0.01977500  0.44598100  0.48347700  1
