# generated using pymatgen
data_SrCrF4
_symmetry_space_group_name_H-M   'P 1'
_cell_length_a   6.96205226
_cell_length_b   6.96205226
_cell_length_c   6.96205226
_cell_angle_alpha   133.10578006
_cell_angle_beta   130.12828171
_cell_angle_gamma   70.86175667
_symmetry_Int_Tables_number   1
_chemical_formula_structural   SrCrF4
_chemical_formula_sum   'Sr2 Cr2 F8'
_cell_volume   184.50652645
_cell_formula_units_Z   2
loop_
 _symmetry_equiv_pos_site_id
 _symmetry_equiv_pos_as_xyz
  1  'x, y, z'
loop_
 _atom_site_type_symbol
 _atom_site_label
 _atom_site_symmetry_multiplicity
 _atom_site_fract_x
 _atom_site_fract_y
 _atom_site_fract_z
 _atom_site_occupancy
  Sr  Sr0  1  0.00000000  0.50000000  0.50000000  1
  Sr  Sr1  1  0.50000000  0.00000000  0.50000000  1
  Cr  Cr2  1  0.25000000  0.25000000  0.00000000  1
  Cr  Cr3  1  0.75000000  0.75000000  0.00000000  1
  F  F4  1  0.67067700  0.04799000  0.97390300  1
  F  F5  1  0.57408700  0.54799000  0.37731200  1
  F  F6  1  0.42591300  0.45201000  0.62268800  1
  F  F7  1  0.82932300  0.80322500  0.37731200  1
  F  F8  1  0.92591300  0.30322500  0.97390300  1
  F  F9  1  0.07408700  0.69677500  0.02609700  1
  F  F10  1  0.17067700  0.19677500  0.62268800  1
  F  F11  1  0.32932300  0.95201000  0.02609700  1
