# generated using pymatgen
data_Ba(Fe2O3)9
_symmetry_space_group_name_H-M   'P 1'
_cell_length_a   6.02248834
_cell_length_b   6.02248834
_cell_length_c   33.12366700
_cell_angle_alpha   90.00000000
_cell_angle_beta   90.00000000
_cell_angle_gamma   120.00000379
_symmetry_Int_Tables_number   1
_chemical_formula_structural   Ba(Fe2O3)9
_chemical_formula_sum   'Ba2 Fe36 O54'
_cell_volume   1040.44939359
_cell_formula_units_Z   2
loop_
 _symmetry_equiv_pos_site_id
 _symmetry_equiv_pos_as_xyz
  1  'x, y, z'
loop_
 _atom_site_type_symbol
 _atom_site_label
 _atom_site_symmetry_multiplicity
 _atom_site_fract_x
 _atom_site_fract_y
 _atom_site_fract_z
 _atom_site_occupancy
  Ba  Ba0  1  0.00000000  0.00000000  0.75000000  1
  Ba  Ba1  1  0.00000000  0.00000000  0.25000000  1
  Fe  Fe2  1  0.66666700  0.33333300  0.59666700  1
  Fe  Fe3  1  0.33355300  0.16677700  0.14988700  1
  Fe  Fe4  1  0.00000000  0.00000000  0.94442000  1
  Fe  Fe5  1  0.83322300  0.16677700  0.14988700  1
  Fe  Fe6  1  0.33333300  0.66666700  0.75000000  1
  Fe  Fe7  1  0.00000000  0.00000000  0.55558000  1
  Fe  Fe8  1  0.16677700  0.33355300  0.64988700  1
  Fe  Fe9  1  0.66666700  0.33333300  0.90333300  1
  Fe  Fe10  1  0.33333300  0.66666700  0.20787000  1
  Fe  Fe11  1  0.83322300  0.16677700  0.35011300  1
  Fe  Fe12  1  0.50000000  0.00000000  0.50000000  1
  Fe  Fe13  1  0.00000000  0.50000000  0.50000000  1
  Fe  Fe14  1  0.33333300  0.66666700  0.09666700  1
  Fe  Fe15  1  0.50000000  0.50000000  0.00000000  1
  Fe  Fe16  1  0.16677700  0.83322300  0.85011300  1
  Fe  Fe17  1  0.33333300  0.66666700  0.40333300  1
  Fe  Fe18  1  0.66666700  0.33333300  0.79213000  1
  Fe  Fe19  1  0.00000000  0.00000000  0.44442000  1
  Fe  Fe20  1  0.33355300  0.16677700  0.35011300  1
  Fe  Fe21  1  0.66666700  0.33333300  0.42662600  1
  Fe  Fe22  1  0.50000000  0.00000000  0.00000000  1
  Fe  Fe23  1  0.33333300  0.66666700  0.57337400  1
  Fe  Fe24  1  0.66666700  0.33333300  0.25000000  1
  Fe  Fe25  1  0.50000000  0.50000000  0.50000000  1
  Fe  Fe26  1  0.83322300  0.66644700  0.35011300  1
  Fe  Fe27  1  0.33333300  0.66666700  0.92662600  1
  Fe  Fe28  1  0.66644700  0.83322300  0.85011300  1
  Fe  Fe29  1  0.83322300  0.66644700  0.14988700  1
  Fe  Fe30  1  0.00000000  0.00000000  0.05558000  1
  Fe  Fe31  1  0.66666700  0.33333300  0.70787000  1
  Fe  Fe32  1  0.00000000  0.50000000  0.00000000  1
  Fe  Fe33  1  0.16677700  0.83322300  0.64988700  1
  Fe  Fe34  1  0.66644700  0.83322300  0.64988700  1
  Fe  Fe35  1  0.16677700  0.33355300  0.85011300  1
  Fe  Fe36  1  0.66666700  0.33333300  0.07337400  1
  Fe  Fe37  1  0.33333300  0.66666700  0.29213000  1
  O  O38  1  0.32597900  0.16298900  0.82136300  1
  O  O39  1  0.48869800  0.97739600  0.61050600  1
  O  O40  1  0.00000000  0.00000000  0.11246900  1
  O  O41  1  0.17491300  0.82508700  0.53440300  1
  O  O42  1  0.65017400  0.82508700  0.53440300  1
  O  O43  1  0.67402100  0.83701100  0.17863700  1
  O  O44  1  0.48869800  0.97739600  0.88949400  1
  O  O45  1  0.97739600  0.48869800  0.38949400  1
  O  O46  1  0.48390500  0.96781100  0.25000000  1
  O  O47  1  0.83701100  0.16298900  0.67863700  1
  O  O48  1  0.67402100  0.83701100  0.32136300  1
  O  O49  1  0.51130200  0.48869800  0.11050600  1
  O  O50  1  0.48869800  0.51130200  0.61050600  1
  O  O51  1  0.51130200  0.48869800  0.38949400  1
  O  O52  1  0.00000000  0.00000000  0.38753100  1
  O  O53  1  0.66666700  0.33333300  0.31925500  1
  O  O54  1  0.66666700  0.33333300  0.18074500  1
  O  O55  1  0.51130200  0.02260400  0.38949400  1
  O  O56  1  0.65017400  0.82508700  0.96559700  1
  O  O57  1  0.82508700  0.65017400  0.46559700  1
  O  O58  1  0.17491300  0.82508700  0.96559700  1
  O  O59  1  0.96781100  0.48390500  0.75000000  1
  O  O60  1  0.16298900  0.83701100  0.32136300  1
  O  O61  1  0.32597900  0.16298900  0.67863700  1
  O  O62  1  0.51130200  0.02260400  0.11050600  1
  O  O63  1  0.34982600  0.17491300  0.46559700  1
  O  O64  1  0.00000000  0.00000000  0.61246900  1
  O  O65  1  0.16298900  0.83701100  0.17863700  1
  O  O66  1  0.03218900  0.51609500  0.25000000  1
  O  O67  1  0.48390500  0.51609500  0.25000000  1
  O  O68  1  0.82508700  0.65017400  0.03440300  1
  O  O69  1  0.66666700  0.33333300  0.96603400  1
  O  O70  1  0.16298900  0.32597900  0.17863700  1
  O  O71  1  0.48869800  0.51130200  0.88949400  1
  O  O72  1  0.82508700  0.17491300  0.46559700  1
  O  O73  1  0.83701100  0.67402100  0.82136300  1
  O  O74  1  0.33333300  0.66666700  0.81925500  1
  O  O75  1  0.16298900  0.32597900  0.32136300  1
  O  O76  1  0.17491300  0.34982600  0.53440300  1
  O  O77  1  0.51609500  0.03218900  0.75000000  1
  O  O78  1  0.17491300  0.34982600  0.96559700  1
  O  O79  1  0.33333300  0.66666700  0.68074500  1
  O  O80  1  0.83701100  0.67402100  0.67863700  1
  O  O81  1  0.00000000  0.00000000  0.88753100  1
  O  O82  1  0.82508700  0.17491300  0.03440300  1
  O  O83  1  0.33333300  0.66666700  0.03396600  1
  O  O84  1  0.02260400  0.51130200  0.61050600  1
  O  O85  1  0.66666700  0.33333300  0.53396600  1
  O  O86  1  0.51609500  0.48390500  0.75000000  1
  O  O87  1  0.34982600  0.17491300  0.03440300  1
  O  O88  1  0.33333300  0.66666700  0.46603400  1
  O  O89  1  0.02260400  0.51130200  0.88949400  1
  O  O90  1  0.97739600  0.48869800  0.11050600  1
  O  O91  1  0.83701100  0.16298900  0.82136300  1
