# generated using pymatgen
data_PdC2S2(O4F)2
_symmetry_space_group_name_H-M   'P 1'
_cell_length_a   15.17568200
_cell_length_b   7.60246000
_cell_length_c   11.43317894
_cell_angle_alpha   49.59922879
_cell_angle_beta   90.00000000
_cell_angle_gamma   90.00000000
_symmetry_Int_Tables_number   1
_chemical_formula_structural   PdC2S2(O4F)2
_chemical_formula_sum   'Pd4 C8 S8 O32 F8'
_cell_volume   1004.51434113
_cell_formula_units_Z   4
loop_
 _symmetry_equiv_pos_site_id
 _symmetry_equiv_pos_as_xyz
  1  'x, y, z'
loop_
 _atom_site_type_symbol
 _atom_site_label
 _atom_site_symmetry_multiplicity
 _atom_site_fract_x
 _atom_site_fract_y
 _atom_site_fract_z
 _atom_site_occupancy
  Pd  Pd0  1  0.85986700  0.72465900  0.80490400  1
  Pd  Pd1  1  0.35986700  0.27534100  0.69509600  1
  Pd  Pd2  1  0.14013300  0.27534100  0.19509600  1
  Pd  Pd3  1  0.64013300  0.72465900  0.30490400  1
  C  C4  1  0.24152200  0.46839900  0.08532600  1
  C  C5  1  0.39623900  0.46029100  0.74600300  1
  C  C6  1  0.60376100  0.53970900  0.25399700  1
  C  C7  1  0.75847800  0.53160100  0.91467400  1
  C  C8  1  0.10376100  0.46029100  0.24600300  1
  C  C9  1  0.89623900  0.53970900  0.75399700  1
  C  C10  1  0.74152200  0.53160100  0.41467400  1
  C  C11  1  0.25847800  0.46839900  0.58532600  1
  S  S12  1  0.44316800  0.90093500  0.22666500  1
  S  S13  1  0.81650600  0.86658200  0.00436100  1
  S  S14  1  0.31650600  0.13341800  0.49563900  1
  S  S15  1  0.68349400  0.86658200  0.50436100  1
  S  S16  1  0.55683200  0.09906500  0.77333500  1
  S  S17  1  0.94316800  0.09906500  0.27333500  1
  S  S18  1  0.18349400  0.13341800  0.99563900  1
  S  S19  1  0.05683200  0.90093500  0.72666500  1
  O  O20  1  0.78410700  0.05411900  0.99307000  1
  O  O21  1  0.30218200  0.57960900  0.02130100  1
  O  O22  1  0.93024600  0.25606600  0.10997400  1
  O  O23  1  0.60664100  0.88942700  0.87126700  1
  O  O24  1  0.57924900  0.42927600  0.22583100  1
  O  O25  1  0.71589300  0.05411900  0.49307000  1
  O  O26  1  0.19781800  0.57960900  0.52130100  1
  O  O27  1  0.27922800  0.36058000  0.38370900  1
  O  O28  1  0.39335900  0.11057300  0.12873300  1
  O  O29  1  0.43024600  0.74393400  0.39002600  1
  O  O30  1  0.10664100  0.11057300  0.62873300  1
  O  O31  1  0.80218200  0.42039100  0.47869900  1
  O  O32  1  0.53928900  0.95237800  0.17855700  1
  O  O33  1  0.17411500  0.05872500  0.15401200  1
  O  O34  1  0.96071100  0.95237800  0.67855700  1
  O  O35  1  0.32588500  0.05872500  0.65401200  1
  O  O36  1  0.82588500  0.94127500  0.84598800  1
  O  O37  1  0.56975400  0.25606600  0.60997400  1
  O  O38  1  0.67411500  0.94127500  0.34598800  1
  O  O39  1  0.07924900  0.57072400  0.27416900  1
  O  O40  1  0.22077200  0.36058000  0.88370900  1
  O  O41  1  0.06975400  0.74393400  0.89002600  1
  O  O42  1  0.72077200  0.63942000  0.61629100  1
  O  O43  1  0.03928900  0.04762200  0.32144300  1
  O  O44  1  0.46071100  0.04762200  0.82144300  1
  O  O45  1  0.92075100  0.42927600  0.72583100  1
  O  O46  1  0.28410700  0.94588100  0.50693000  1
  O  O47  1  0.42075100  0.57072400  0.77416900  1
  O  O48  1  0.69781800  0.42039100  0.97869900  1
  O  O49  1  0.89335900  0.88942700  0.37126700  1
  O  O50  1  0.77922800  0.63942000  0.11629100  1
  O  O51  1  0.21589300  0.94588100  0.00693000  1
  F  F52  1  0.08357500  0.75431600  0.67544900  1
  F  F53  1  0.08196900  0.16349200  0.94520000  1
  F  F54  1  0.58196900  0.83650800  0.55480000  1
  F  F55  1  0.91803100  0.83650800  0.05480000  1
  F  F56  1  0.41642500  0.75431600  0.17544900  1
  F  F57  1  0.41803100  0.16349200  0.44520000  1
  F  F58  1  0.91642500  0.24568400  0.32455100  1
  F  F59  1  0.58357500  0.24568400  0.82455100  1
