# generated using pymatgen
data_ZrRh
_symmetry_space_group_name_H-M   'P 1'
_cell_length_a   10.04368493
_cell_length_b   10.04368493
_cell_length_c   4.40985600
_cell_angle_alpha   90.00000000
_cell_angle_beta   90.00000000
_cell_angle_gamma   160.58984006
_symmetry_Int_Tables_number   1
_chemical_formula_structural   ZrRh
_chemical_formula_sum   'Zr4 Rh4'
_cell_volume   147.83525121
_cell_formula_units_Z   4
loop_
 _symmetry_equiv_pos_site_id
 _symmetry_equiv_pos_as_xyz
  1  'x, y, z'
loop_
 _atom_site_type_symbol
 _atom_site_label
 _atom_site_symmetry_multiplicity
 _atom_site_fract_x
 _atom_site_fract_y
 _atom_site_fract_z
 _atom_site_occupancy
  Zr  Zr0  1  0.43846900  0.56153100  0.75000000  1
  Zr  Zr1  1  0.30492100  0.69507900  0.25000000  1
  Zr  Zr2  1  0.69507900  0.30492100  0.75000000  1
  Zr  Zr3  1  0.56153100  0.43846900  0.25000000  1
  Rh  Rh4  1  0.05683800  0.94316200  0.75000000  1
  Rh  Rh5  1  0.94316200  0.05683800  0.25000000  1
  Rh  Rh6  1  0.16853500  0.83146500  0.25000000  1
  Rh  Rh7  1  0.83146500  0.16853500  0.75000000  1
