# generated using pymatgen
data_K2NiP2O7
_symmetry_space_group_name_H-M   'P 1'
_cell_length_a   17.86631400
_cell_length_b   8.44116200
_cell_length_c   9.37945399
_cell_angle_alpha   88.59248711
_cell_angle_beta   90.00000000
_cell_angle_gamma   90.00000000
_symmetry_Int_Tables_number   1
_chemical_formula_structural   K2NiP2O7
_chemical_formula_sum   'K16 Ni8 P16 O56'
_cell_volume   1414.11164583
_cell_formula_units_Z   8
loop_
 _symmetry_equiv_pos_site_id
 _symmetry_equiv_pos_as_xyz
  1  'x, y, z'
loop_
 _atom_site_type_symbol
 _atom_site_label
 _atom_site_symmetry_multiplicity
 _atom_site_fract_x
 _atom_site_fract_y
 _atom_site_fract_z
 _atom_site_occupancy
  K  K0  1  0.93176300  0.93990800  0.25029600  1
  K  K1  1  0.53585400  0.27346300  0.00480500  1
  K  K2  1  0.77484100  0.68267100  0.09481300  1
  K  K3  1  0.43176300  0.06009200  0.74970400  1
  K  K4  1  0.89005600  0.44543500  0.75170700  1
  K  K5  1  0.29751700  0.79162300  0.99970300  1
  K  K6  1  0.67864200  0.75218100  0.50262300  1
  K  K7  1  0.03585400  0.72653700  0.99519500  1
  K  K8  1  0.04216000  0.19843200  0.79708100  1
  K  K9  1  0.39005600  0.55456500  0.24829300  1
  K  K10  1  0.79751700  0.20837700  0.00029700  1
  K  K11  1  0.10476800  0.30615900  0.12342100  1
  K  K12  1  0.60476800  0.69384100  0.87657900  1
  K  K13  1  0.27484100  0.31732900  0.90518700  1
  K  K14  1  0.17864200  0.24781900  0.49737700  1
  K  K15  1  0.54216000  0.80156800  0.20291900  1
  Ni  Ni16  1  0.03754000  0.88378500  0.58120200  1
  Ni  Ni17  1  0.79167900  0.09934600  0.58724100  1
  Ni  Ni18  1  0.79438400  0.39585200  0.42065200  1
  Ni  Ni19  1  0.03981700  0.59792600  0.42367200  1
  Ni  Ni20  1  0.53754000  0.11621500  0.41879800  1
  Ni  Ni21  1  0.29438400  0.60414800  0.57934800  1
  Ni  Ni22  1  0.29167900  0.90065400  0.41275900  1
  Ni  Ni23  1  0.53981700  0.40207400  0.57632800  1
  P  P24  1  0.43226100  0.57767000  0.81228200  1
  P  P25  1  0.69886700  0.09421300  0.27655000  1
  P  P26  1  0.62807900  0.09316200  0.73945500  1
  P  P27  1  0.19886700  0.90578700  0.72345000  1
  P  P28  1  0.46423000  0.74830000  0.54063600  1
  P  P29  1  0.36669700  0.24561700  0.45384000  1
  P  P30  1  0.70070300  0.40169100  0.74044700  1
  P  P31  1  0.93226100  0.42233000  0.18771800  1
  P  P32  1  0.86669700  0.75438300  0.54616000  1
  P  P33  1  0.96423000  0.25170000  0.45936400  1
  P  P34  1  0.20070300  0.59830900  0.25955300  1
  P  P35  1  0.39925400  0.08837600  0.18545400  1
  P  P36  1  0.13717100  0.58571600  0.73648700  1
  P  P37  1  0.12807900  0.90683800  0.26054500  1
  P  P38  1  0.89925400  0.91162400  0.81454600  1
  P  P39  1  0.63717100  0.41428400  0.26351300  1
  O  O40  1  0.00116500  0.09398900  0.49098300  1
  O  O41  1  0.08232600  0.99403400  0.14680800  1
  O  O42  1  0.12989300  0.99188500  0.66135000  1
  O  O43  1  0.88140400  0.25760400  0.50388900  1
  O  O44  1  0.74839400  0.16928100  0.39118900  1
  O  O45  1  0.08054100  0.65456400  0.62737000  1
  O  O46  1  0.66916800  0.25370600  0.18457100  1
  O  O47  1  0.13661600  0.50441400  0.33123500  1
  O  O48  1  0.23925800  0.50766000  0.14224800  1
  O  O49  1  0.46612800  0.73029600  0.71548600  1
  O  O50  1  0.63661600  0.49558600  0.66876500  1
  O  O51  1  0.00855700  0.38948200  0.52113500  1
  O  O52  1  0.50116500  0.90601100  0.50901700  1
  O  O53  1  0.50855700  0.61051800  0.47886500  1
  O  O54  1  0.94644700  0.37431300  0.03424300  1
  O  O55  1  0.19387700  0.00133200  0.31939000  1
  O  O56  1  0.85736300  0.06405400  0.76869200  1
  O  O57  1  0.10235900  0.48469600  0.85594100  1
  O  O58  1  0.16916800  0.74629400  0.81542900  1
  O  O59  1  0.60235900  0.51530400  0.14405900  1
  O  O60  1  0.47888400  0.43380300  0.76707300  1
  O  O61  1  0.97888400  0.56619700  0.23292700  1
  O  O62  1  0.62989300  0.00811500  0.33865000  1
  O  O63  1  0.73994600  0.99257000  0.17130500  1
  O  O64  1  0.82699200  0.90149800  0.48632200  1
  O  O65  1  0.20295100  0.49818300  0.66871000  1
  O  O66  1  0.88722300  0.86221100  0.96984800  1
  O  O67  1  0.38722300  0.13778900  0.03015200  1
  O  O68  1  0.86444900  0.76505100  0.72099200  1
  O  O69  1  0.38140400  0.74239600  0.49611100  1
  O  O70  1  0.66360900  0.24648600  0.82379500  1
  O  O71  1  0.44644700  0.62568700  0.96575700  1
  O  O72  1  0.32699200  0.09850200  0.51367800  1
  O  O73  1  0.75614800  0.32968800  0.63385000  1
  O  O74  1  0.16360900  0.75351400  0.17620500  1
  O  O75  1  0.24839400  0.83071900  0.60881100  1
  O  O76  1  0.48316100  0.08325000  0.22431800  1
  O  O77  1  0.07813000  0.82740700  0.37691800  1
  O  O78  1  0.82549000  0.60222400  0.51654500  1
  O  O79  1  0.25614800  0.67031200  0.36615000  1
  O  O80  1  0.44974300  0.25152600  0.49802500  1
  O  O81  1  0.32549000  0.39777600  0.48345500  1
  O  O82  1  0.94974300  0.74847400  0.50197500  1
  O  O83  1  0.34859400  0.56766300  0.77628700  1
  O  O84  1  0.73925800  0.49234000  0.85775200  1
  O  O85  1  0.70295100  0.50181700  0.33129000  1
  O  O86  1  0.58232600  0.00596600  0.85319200  1
  O  O87  1  0.57813000  0.17259300  0.62308200  1
  O  O88  1  0.58054100  0.34543600  0.37263000  1
  O  O89  1  0.98316100  0.91675000  0.77568200  1
  O  O90  1  0.84859400  0.43233700  0.22371300  1
  O  O91  1  0.69387700  0.99866800  0.68061000  1
  O  O92  1  0.35736300  0.93594600  0.23130800  1
  O  O93  1  0.23994600  0.00743000  0.82869500  1
  O  O94  1  0.36444900  0.23494900  0.27900800  1
  O  O95  1  0.96612800  0.26970400  0.28451400  1
