# generated using pymatgen
data_ZrSn
_symmetry_space_group_name_H-M   'P 1'
_cell_length_a   6.40875333
_cell_length_b   6.40875333
_cell_length_c   5.24568500
_cell_angle_alpha   90.00000000
_cell_angle_beta   90.00000000
_cell_angle_gamma   119.99999311
_symmetry_Int_Tables_number   1
_chemical_formula_structural   ZrSn
_chemical_formula_sum   'Zr4 Sn4'
_cell_volume   186.58639865
_cell_formula_units_Z   4
loop_
 _symmetry_equiv_pos_site_id
 _symmetry_equiv_pos_as_xyz
  1  'x, y, z'
loop_
 _atom_site_type_symbol
 _atom_site_label
 _atom_site_symmetry_multiplicity
 _atom_site_fract_x
 _atom_site_fract_y
 _atom_site_fract_z
 _atom_site_occupancy
  Zr  Zr0  1  0.99906600  0.49953300  0.00000000  1
  Zr  Zr1  1  0.50046700  0.49953300  0.00000000  1
  Zr  Zr2  1  0.50046700  0.00093400  0.00000000  1
  Zr  Zr3  1  0.33333300  0.66666700  0.50000000  1
  Sn  Sn4  1  0.00000000  0.00000000  0.00000000  1
  Sn  Sn5  1  0.33770700  0.16885400  0.50000000  1
  Sn  Sn6  1  0.83114600  0.16885400  0.50000000  1
  Sn  Sn7  1  0.83114600  0.66229300  0.50000000  1
