# generated using pymatgen
data_CdH12C4Br3N
_symmetry_space_group_name_H-M   'P 1'
_cell_length_a   9.55045419
_cell_length_b   9.55045419
_cell_length_c   21.56541400
_cell_angle_alpha   90.00000000
_cell_angle_beta   90.00000000
_cell_angle_gamma   120.00000131
_symmetry_Int_Tables_number   1
_chemical_formula_structural   CdH12C4Br3N
_chemical_formula_sum   'Cd6 H72 C24 Br18 N6'
_cell_volume   1703.47779676
_cell_formula_units_Z   6
loop_
 _symmetry_equiv_pos_site_id
 _symmetry_equiv_pos_as_xyz
  1  'x, y, z'
loop_
 _atom_site_type_symbol
 _atom_site_label
 _atom_site_symmetry_multiplicity
 _atom_site_fract_x
 _atom_site_fract_y
 _atom_site_fract_z
 _atom_site_occupancy
  Cd  Cd0  1  0.97795200  0.98213500  0.50011200  1
  Cd  Cd1  1  0.00418300  0.02204800  0.16677800  1
  Cd  Cd2  1  0.99581700  0.97795200  0.66677800  1
  Cd  Cd3  1  0.01786500  0.99581700  0.83344500  1
  Cd  Cd4  1  0.98213500  0.00418300  0.33344500  1
  Cd  Cd5  1  0.02204800  0.01786500  0.00011200  1
  H  H6  1  0.26685100  0.78368400  0.69262800  1
  H  H7  1  0.32923200  0.66407600  0.31857100  1
  H  H8  1  0.66515600  0.32923200  0.48523800  1
  H  H9  1  0.48469700  0.86881600  0.80107500  1
  H  H10  1  0.36958100  0.51996800  0.35574500  1
  H  H11  1  0.69277800  0.33289500  0.68030400  1
  H  H12  1  0.73314900  0.21631600  0.19262800  1
  H  H13  1  0.54679500  0.08843000  0.91803600  1
  H  H14  1  0.73066500  0.21021900  0.30467600  1
  H  H15  1  0.47048300  0.92251700  0.12386700  1
  H  H16  1  0.45836500  0.54679500  0.08470200  1
  H  H17  1  0.66407600  0.33484400  0.15190500  1
  H  H18  1  0.33592400  0.66515600  0.65190500  1
  H  H19  1  0.42706400  0.26071100  0.54614100  1
  H  H20  1  0.87356800  0.59140400  0.92003200  1
  H  H21  1  0.33289500  0.64011700  0.51363700  1
  H  H22  1  0.91157000  0.45836500  0.25136900  1
  H  H23  1  0.84961300  0.36958100  0.52241200  1
  H  H24  1  0.30722200  0.66710500  0.18030400  1
  H  H25  1  0.33484400  0.67076800  0.98523800  1
  H  H26  1  0.28216400  0.87356800  0.08669800  1
  H  H27  1  0.78978100  0.52044600  0.63800900  1
  H  H28  1  0.64011700  0.30722200  0.34697000  1
  H  H29  1  0.53656200  0.45840600  0.20776900  1
  H  H30  1  0.54163500  0.45320500  0.58470200  1
  H  H31  1  0.66710500  0.35988300  0.01363700  1
  H  H32  1  0.45320500  0.91157000  0.41803600  1
  H  H33  1  0.45840600  0.92184500  0.04110200  1
  H  H34  1  0.43928500  0.26849000  0.62901700  1
  H  H35  1  0.16635200  0.42706400  0.71280800  1
  H  H36  1  0.86881600  0.38411900  0.63440900  1
  H  H37  1  0.48316700  0.26685100  0.85929400  1
  H  H38  1  0.35988300  0.69277800  0.84697000  1
  H  H39  1  0.52951700  0.07748300  0.62386700  1
  H  H40  1  0.21631600  0.48316700  0.02596100  1
  H  H41  1  0.21021900  0.47955400  0.13800900  1
  H  H42  1  0.56071500  0.73151000  0.12901700  1
  H  H43  1  0.40859600  0.28216400  0.25336500  1
  H  H44  1  0.47955400  0.26933500  0.97134300  1
  H  H45  1  0.45203400  0.52951700  0.79053300  1
  H  H46  1  0.38411900  0.51530300  0.46774200  1
  H  H47  1  0.57293600  0.73928900  0.04614100  1
  H  H48  1  0.54159400  0.07815500  0.54110200  1
  H  H49  1  0.73151000  0.17079500  0.96235000  1
  H  H50  1  0.73928900  0.16635200  0.87947400  1
  H  H51  1  0.26933500  0.78978100  0.80467600  1
  H  H52  1  0.51683300  0.73314900  0.35929400  1
  H  H53  1  0.51530300  0.13118400  0.30107500  1
  H  H54  1  0.26071100  0.83364800  0.37947400  1
  H  H55  1  0.67076800  0.33592400  0.81857100  1
  H  H56  1  0.17079500  0.43928500  0.79568300  1
  H  H57  1  0.51996800  0.15038700  0.18907800  1
  H  H58  1  0.15038700  0.63041900  0.02241200  1
  H  H59  1  0.59140400  0.71783600  0.75336500  1
  H  H60  1  0.52044600  0.73066500  0.47134300  1
  H  H61  1  0.78368400  0.51683300  0.52596100  1
  H  H62  1  0.07748300  0.54796600  0.45720000  1
  H  H63  1  0.48003200  0.84961300  0.68907800  1
  H  H64  1  0.63041900  0.48003200  0.85574500  1
  H  H65  1  0.46343800  0.54159400  0.70776900  1
  H  H66  1  0.82920500  0.56071500  0.29568300  1
  H  H67  1  0.08843000  0.54163500  0.75136900  1
  H  H68  1  0.92251700  0.45203400  0.95720000  1
  H  H69  1  0.07815500  0.53656200  0.37443600  1
  H  H70  1  0.92184500  0.46343800  0.87443600  1
  H  H71  1  0.71783600  0.12643200  0.58669800  1
  H  H72  1  0.12643200  0.40859600  0.42003200  1
  H  H73  1  0.26849000  0.82920500  0.46235000  1
  H  H74  1  0.54796600  0.47048300  0.29053300  1
  H  H75  1  0.13118400  0.61588100  0.13440900  1
  H  H76  1  0.83364800  0.57293600  0.21280800  1
  H  H77  1  0.61588100  0.48469700  0.96774200  1
  C  C78  1  0.25471200  0.61211800  0.02483200  1
  C  C79  1  0.24066300  0.60638600  0.13813500  1
  C  C80  1  0.67567900  0.17989200  0.91925300  1
  C  C81  1  0.32432100  0.82010800  0.41925300  1
  C  C82  1  0.86499800  0.47282100  0.91710300  1
  C  C83  1  0.36572400  0.75933700  0.80480200  1
  C  C84  1  0.82010800  0.49578700  0.25258600  1
  C  C85  1  0.13500200  0.52717900  0.41710200  1
  C  C86  1  0.64259400  0.25471200  0.19149900  1
  C  C87  1  0.60638600  0.36572400  0.97146900  1
  C  C88  1  0.17989200  0.50421300  0.75258600  1
  C  C89  1  0.50421300  0.32432100  0.58592000  1
  C  C90  1  0.60782300  0.13500200  0.58376900  1
  C  C91  1  0.39361400  0.63427600  0.47146900  1
  C  C92  1  0.35740600  0.74528800  0.69149900  1
  C  C93  1  0.74528800  0.38788200  0.52483200  1
  C  C94  1  0.52717900  0.39217700  0.25043600  1
  C  C95  1  0.47282100  0.60782300  0.75043600  1
  C  C96  1  0.75933700  0.39361400  0.63813500  1
  C  C97  1  0.39217700  0.86499800  0.08376900  1
  C  C98  1  0.63427600  0.24066300  0.30480200  1
  C  C99  1  0.61211800  0.35740600  0.85816600  1
  C  C100  1  0.38788200  0.64259400  0.35816600  1
  C  C101  1  0.49578700  0.67567900  0.08592000  1
  Br  Br102  1  0.75737700  0.83650500  0.91886600  1
  Br  Br103  1  0.08212100  0.27545100  0.25528400  1
  Br  Br104  1  0.86012300  0.13027600  0.07656300  1
  Br  Br105  1  0.72454900  0.80666900  0.58861700  1
  Br  Br106  1  0.72984800  0.86012300  0.24323000  1
  Br  Br107  1  0.91787900  0.72454900  0.75528400  1
  Br  Br108  1  0.83650500  0.07912800  0.75219900  1
  Br  Br109  1  0.07912800  0.24262300  0.58553200  1
  Br  Br110  1  0.24262300  0.16349500  0.41886600  1
  Br  Br111  1  0.86972400  0.72984800  0.40989600  1
  Br  Br112  1  0.16349500  0.92087200  0.25219900  1
  Br  Br113  1  0.27015200  0.13987700  0.74323000  1
  Br  Br114  1  0.92087200  0.75737700  0.08553200  1
  Br  Br115  1  0.13027600  0.27015200  0.90989600  1
  Br  Br116  1  0.13987700  0.86972400  0.57656300  1
  Br  Br117  1  0.27545100  0.19333100  0.08861700  1
  Br  Br118  1  0.19333100  0.91787900  0.92195000  1
  Br  Br119  1  0.80666900  0.08212100  0.42195000  1
  N  N120  1  0.65619800  0.34627200  0.24982600  1
  N  N121  1  0.34627200  0.69007400  0.08315900  1
  N  N122  1  0.65372800  0.30992600  0.58315900  1
  N  N123  1  0.69007400  0.34380200  0.91649200  1
  N  N124  1  0.30992600  0.65619800  0.41649200  1
  N  N125  1  0.34380200  0.65372800  0.74982600  1
