# generated using pymatgen
data_BaCo(SeO3)2
_symmetry_space_group_name_H-M   'P 1'
_cell_length_a   5.55559700
_cell_length_b   7.34808500
_cell_length_c   15.34420800
_cell_angle_alpha   90.00000000
_cell_angle_beta   90.00000000
_cell_angle_gamma   90.00000000
_symmetry_Int_Tables_number   1
_chemical_formula_structural   BaCo(SeO3)2
_chemical_formula_sum   'Ba4 Co4 Se8 O24'
_cell_volume   626.39658756
_cell_formula_units_Z   4
loop_
 _symmetry_equiv_pos_site_id
 _symmetry_equiv_pos_as_xyz
  1  'x, y, z'
loop_
 _atom_site_type_symbol
 _atom_site_label
 _atom_site_symmetry_multiplicity
 _atom_site_fract_x
 _atom_site_fract_y
 _atom_site_fract_z
 _atom_site_occupancy
  Ba  Ba0  1  0.25000000  0.92135000  0.38251700  1
  Ba  Ba1  1  0.25000000  0.57865000  0.88251700  1
  Ba  Ba2  1  0.75000000  0.07865000  0.61748300  1
  Ba  Ba3  1  0.75000000  0.42135000  0.11748300  1
  Co  Co4  1  0.25000000  0.79350500  0.12457800  1
  Co  Co5  1  0.25000000  0.70649500  0.62457800  1
  Co  Co6  1  0.75000000  0.20649500  0.87542200  1
  Co  Co7  1  0.75000000  0.29350500  0.37542200  1
  Se  Se8  1  0.25000000  0.12798800  0.98428800  1
  Se  Se9  1  0.25000000  0.37201200  0.48428800  1
  Se  Se10  1  0.75000000  0.87201200  0.01571200  1
  Se  Se11  1  0.75000000  0.62798800  0.51571200  1
  Se  Se12  1  0.25000000  0.03439600  0.76861700  1
  Se  Se13  1  0.25000000  0.46560400  0.26861700  1
  Se  Se14  1  0.75000000  0.96560400  0.23138300  1
  Se  Se15  1  0.75000000  0.53439600  0.73138300  1
  O  O16  1  0.01063300  0.27986000  0.97497400  1
  O  O17  1  0.48936700  0.22014000  0.47497400  1
  O  O18  1  0.51063300  0.72014000  0.02502600  1
  O  O19  1  0.98936700  0.77986000  0.52502600  1
  O  O20  1  0.98936700  0.72014000  0.02502600  1
  O  O21  1  0.51063300  0.77986000  0.52502600  1
  O  O22  1  0.48936700  0.27986000  0.97497400  1
  O  O23  1  0.01063300  0.22014000  0.47497400  1
  O  O24  1  0.25000000  0.07105200  0.09287400  1
  O  O25  1  0.25000000  0.42894800  0.59287400  1
  O  O26  1  0.75000000  0.92894800  0.90712600  1
  O  O27  1  0.75000000  0.57105200  0.40712600  1
  O  O28  1  0.00730900  0.18125000  0.77397300  1
  O  O29  1  0.49269100  0.31875000  0.27397300  1
  O  O30  1  0.50730900  0.81875000  0.22602700  1
  O  O31  1  0.99269100  0.68125000  0.72602700  1
  O  O32  1  0.99269100  0.81875000  0.22602700  1
  O  O33  1  0.50730900  0.68125000  0.72602700  1
  O  O34  1  0.49269100  0.18125000  0.77397300  1
  O  O35  1  0.00730900  0.31875000  0.27397300  1
  O  O36  1  0.25000000  0.98772200  0.65717900  1
  O  O37  1  0.25000000  0.51227800  0.15717900  1
  O  O38  1  0.75000000  0.01227800  0.34282100  1
  O  O39  1  0.75000000  0.48772200  0.84282100  1
