# generated using pymatgen
data_MgGa2
_symmetry_space_group_name_H-M   'P 1'
_cell_length_a   4.13916000
_cell_length_b   6.88460700
_cell_length_c   16.37609300
_cell_angle_alpha   90.00000000
_cell_angle_beta   90.00000000
_cell_angle_gamma   90.00000000
_symmetry_Int_Tables_number   1
_chemical_formula_structural   MgGa2
_chemical_formula_sum   'Mg8 Ga16'
_cell_volume   466.66116894
_cell_formula_units_Z   8
loop_
 _symmetry_equiv_pos_site_id
 _symmetry_equiv_pos_as_xyz
  1  'x, y, z'
loop_
 _atom_site_type_symbol
 _atom_site_label
 _atom_site_symmetry_multiplicity
 _atom_site_fract_x
 _atom_site_fract_y
 _atom_site_fract_z
 _atom_site_occupancy
  Mg  Mg0  1  0.00000000  0.32429600  0.07719200  1
  Mg  Mg1  1  0.00000000  0.29821800  0.78001400  1
  Mg  Mg2  1  0.00000000  0.67570400  0.92280800  1
  Mg  Mg3  1  0.00000000  0.70178200  0.21998600  1
  Mg  Mg4  1  0.00000000  0.79821800  0.71998600  1
  Mg  Mg5  1  0.00000000  0.82429600  0.42280800  1
  Mg  Mg6  1  0.00000000  0.17570400  0.57719200  1
  Mg  Mg7  1  0.00000000  0.20178200  0.28001400  1
  Ga  Ga8  1  0.50000000  0.35746500  0.93814700  1
  Ga  Ga9  1  0.50000000  0.14253500  0.43814700  1
  Ga  Ga10  1  0.50000000  0.47046600  0.65775900  1
  Ga  Ga11  1  0.50000000  0.85746500  0.56185300  1
  Ga  Ga12  1  0.00000000  0.90163600  0.06717400  1
  Ga  Ga13  1  0.00000000  0.09836400  0.93282600  1
  Ga  Ga14  1  0.50000000  0.52953400  0.34224100  1
  Ga  Ga15  1  0.50000000  0.40881900  0.19031000  1
  Ga  Ga16  1  0.50000000  0.64253500  0.06185300  1
  Ga  Ga17  1  0.00000000  0.59836400  0.56717400  1
  Ga  Ga18  1  0.50000000  0.90881900  0.30969000  1
  Ga  Ga19  1  0.50000000  0.97046600  0.84224100  1
  Ga  Ga20  1  0.50000000  0.09118100  0.69031000  1
  Ga  Ga21  1  0.50000000  0.02953400  0.15775900  1
  Ga  Ga22  1  0.50000000  0.59118100  0.80969000  1
  Ga  Ga23  1  0.00000000  0.40163600  0.43282600  1
