# generated using pymatgen
data_CdSb2Se3Br2
_symmetry_space_group_name_H-M   'P 1'
_cell_length_a   11.06520543
_cell_length_b   11.06520543
_cell_length_c   12.77338069
_cell_angle_alpha   59.82881250
_cell_angle_beta   59.82881250
_cell_angle_gamma   21.32207507
_symmetry_Int_Tables_number   1
_chemical_formula_structural   CdSb2Se3Br2
_chemical_formula_sum   'Cd2 Sb4 Se6 Br4'
_cell_volume   488.67870372
_cell_formula_units_Z   2
loop_
 _symmetry_equiv_pos_site_id
 _symmetry_equiv_pos_as_xyz
  1  'x, y, z'
loop_
 _atom_site_type_symbol
 _atom_site_label
 _atom_site_symmetry_multiplicity
 _atom_site_fract_x
 _atom_site_fract_y
 _atom_site_fract_z
 _atom_site_occupancy
  Cd  Cd0  1  0.65110200  0.65110200  0.54707400  1
  Cd  Cd1  1  0.34889800  0.34889800  0.45292600  1
  Sb  Sb2  1  0.95277500  0.95277500  0.78487700  1
  Sb  Sb3  1  0.04722500  0.04722500  0.21512300  1
  Sb  Sb4  1  0.29391200  0.29391200  0.08708200  1
  Sb  Sb5  1  0.70608800  0.70608800  0.91291800  1
  Se  Se6  1  0.53703700  0.53703700  0.78239300  1
  Se  Se7  1  0.10278700  0.10278700  0.97621700  1
  Se  Se8  1  0.46296300  0.46296300  0.21760700  1
  Se  Se9  1  0.32106200  0.32106200  0.86308100  1
  Se  Se10  1  0.89721300  0.89721300  0.02378300  1
  Se  Se11  1  0.67893800  0.67893800  0.13691900  1
  Br  Br12  1  0.89697200  0.89697200  0.53839100  1
  Br  Br13  1  0.10302800  0.10302800  0.46160900  1
  Br  Br14  1  0.78980300  0.78980300  0.35289600  1
  Br  Br15  1  0.21019700  0.21019700  0.64710400  1
