# generated using pymatgen
data_AlSn2P(H3C)8
_symmetry_space_group_name_H-M   'P 1'
_cell_length_a   9.70317300
_cell_length_b   10.02596865
_cell_length_c   10.24171767
_cell_angle_alpha   76.86068940
_cell_angle_beta   82.24922738
_cell_angle_gamma   64.99017842
_symmetry_Int_Tables_number   1
_chemical_formula_structural   AlSn2P(H3C)8
_chemical_formula_sum   'Al2 Sn4 P2 H48 C16'
_cell_volume   878.44268341
_cell_formula_units_Z   2
loop_
 _symmetry_equiv_pos_site_id
 _symmetry_equiv_pos_as_xyz
  1  'x, y, z'
loop_
 _atom_site_type_symbol
 _atom_site_label
 _atom_site_symmetry_multiplicity
 _atom_site_fract_x
 _atom_site_fract_y
 _atom_site_fract_z
 _atom_site_occupancy
  Al  Al0  1  0.01688600  0.63790000  0.06868900  1
  Al  Al1  1  0.98311400  0.36210000  0.93131100  1
  Sn  Sn2  1  0.16534200  0.65772200  0.66772100  1
  Sn  Sn3  1  0.71108500  0.81248100  0.76255700  1
  Sn  Sn4  1  0.28891500  0.18751900  0.23744300  1
  Sn  Sn5  1  0.83465800  0.34227800  0.33227900  1
  P  P6  1  0.96903000  0.61801700  0.84479400  1
  P  P7  1  0.03097000  0.38198300  0.15520600  1
  H  H8  1  0.18626800  0.68537400  0.39470300  1
  H  H9  1  0.25467300  0.21659800  0.50420000  1
  H  H10  1  0.25703700  0.88924700  0.59784400  1
  H  H11  1  0.66023400  0.66315200  0.59230000  1
  H  H12  1  0.68812100  0.44496900  0.97579500  1
  H  H13  1  0.57478300  0.11609300  0.12345700  1
  H  H14  1  0.42662200  0.46888500  0.80280500  1
  H  H15  1  0.38491300  0.37037100  0.69902400  1
  H  H16  1  0.26575700  0.94481900  0.17599200  1
  H  H17  1  0.74296300  0.11075300  0.40215600  1
  H  H18  1  0.75046200  0.36717800  0.82839600  1
  H  H19  1  0.46943200  0.49941600  0.62626900  1
  H  H20  1  0.20151900  0.95571900  0.34664800  1
  H  H21  1  0.17564700  0.09422300  0.91023000  1
  H  H22  1  0.53301200  0.68709200  0.92832800  1
  H  H23  1  0.14460800  0.21111100  0.74938500  1
  H  H24  1  0.90410100  0.43934900  0.53563800  1
  H  H25  1  0.42521700  0.88390700  0.87654300  1
  H  H26  1  0.06151300  0.96175000  0.65513200  1
  H  H27  1  0.98996400  0.75861300  0.44636100  1
  H  H28  1  0.81373200  0.31462600  0.60529700  1
  H  H29  1  0.31187900  0.55503100  0.02420500  1
  H  H30  1  0.74532700  0.78340200  0.49580000  1
  H  H31  1  0.21759700  0.75175800  0.01209400  1
  H  H32  1  0.20722800  0.86555800  0.77349800  1
  H  H33  1  0.55597100  0.81757300  0.00748100  1
  H  H34  1  0.40063600  0.88133500  0.30302100  1
  H  H35  1  0.93848700  0.03825000  0.34486800  1
  H  H36  1  0.57337800  0.53111500  0.19719500  1
  H  H37  1  0.73424300  0.05518100  0.82400800  1
  H  H38  1  0.79277200  0.13444200  0.22650200  1
  H  H39  1  0.78240300  0.24824200  0.98790600  1
  H  H40  1  0.44402900  0.18242700  0.99251900  1
  H  H41  1  0.73084600  0.78268400  0.14246000  1
  H  H42  1  0.26915400  0.21731600  0.85754000  1
  H  H43  1  0.09589900  0.56065100  0.46436200  1
  H  H44  1  0.46698800  0.31290800  0.07167200  1
  H  H45  1  0.33976600  0.33684800  0.40770000  1
  H  H46  1  0.54816800  0.85964600  0.54612600  1
  H  H47  1  0.79848100  0.04428100  0.65335200  1
  H  H48  1  0.82435300  0.90577700  0.08977000  1
  H  H49  1  0.24953800  0.63282200  0.17160400  1
  H  H50  1  0.01003600  0.24138700  0.55363900  1
  H  H51  1  0.59936400  0.11866500  0.69697900  1
  H  H52  1  0.85539200  0.78888900  0.25061500  1
  H  H53  1  0.45183200  0.14035400  0.45387400  1
  H  H54  1  0.53056800  0.50058400  0.37373100  1
  H  H55  1  0.61508700  0.62962900  0.30097600  1
  C  C56  1  0.46454000  0.20212200  0.08761900  1
  C  C57  1  0.16128800  0.20697000  0.85473100  1
  C  C58  1  0.10107400  0.66638400  0.46984400  1
  C  C59  1  0.61163500  0.52312800  0.29566100  1
  C  C60  1  0.83871200  0.79303000  0.14526900  1
  C  C61  1  0.17348500  0.86931700  0.67435700  1
  C  C62  1  0.82651500  0.13068300  0.32564300  1
  C  C63  1  0.28854900  0.96583800  0.26970100  1
  C  C64  1  0.89892600  0.33361600  0.53015600  1
  C  C65  1  0.71145100  0.03416200  0.73029900  1
  C  C66  1  0.21884400  0.64372200  0.06882700  1
  C  C67  1  0.33877100  0.22535900  0.42354300  1
  C  C68  1  0.38836500  0.47687200  0.70433900  1
  C  C69  1  0.78115600  0.35627800  0.93117300  1
  C  C70  1  0.66122900  0.77464100  0.57645700  1
  C  C71  1  0.53546000  0.79787800  0.91238100  1
