# generated using pymatgen
data_Ba9Sm6Cl34
_symmetry_space_group_name_H-M   'P 1'
_cell_length_a   13.47719073
_cell_length_b   13.47719073
_cell_length_c   13.47719073
_cell_angle_alpha   130.20792990
_cell_angle_beta   130.20792990
_cell_angle_gamma   73.07457289
_symmetry_Int_Tables_number   1
_chemical_formula_structural   Ba9Sm6Cl34
_chemical_formula_sum   'Ba9 Sm6 Cl34'
_cell_volume   1394.23550219
_cell_formula_units_Z   1
loop_
 _symmetry_equiv_pos_site_id
 _symmetry_equiv_pos_as_xyz
  1  'x, y, z'
loop_
 _atom_site_type_symbol
 _atom_site_label
 _atom_site_symmetry_multiplicity
 _atom_site_fract_x
 _atom_site_fract_y
 _atom_site_fract_z
 _atom_site_occupancy
  Ba  Ba0  1  0.34048400  0.79376000  0.81930100  1
  Ba  Ba1  1  0.20624000  0.02554100  0.54672400  1
  Ba  Ba2  1  0.47881700  0.65951600  0.45327600  1
  Ba  Ba3  1  0.65951600  0.20624000  0.18069900  1
  Ba  Ba4  1  0.02554100  0.47881700  0.81930100  1
  Ba  Ba5  1  0.79376000  0.97445900  0.45327600  1
  Ba  Ba6  1  0.50000000  0.50000000  0.00000000  1
  Ba  Ba7  1  0.52118300  0.34048400  0.54672400  1
  Ba  Ba8  1  0.97445900  0.52118300  0.18069900  1
  Sm  Sm9  1  0.81447500  0.81447500  0.00000000  1
  Sm  Sm10  1  0.89433500  0.68151800  0.57585400  1
  Sm  Sm11  1  0.10566500  0.31848200  0.42414600  1
  Sm  Sm12  1  0.18552500  0.18552500  0.00000000  1
  Sm  Sm13  1  0.68151800  0.10566500  0.78718300  1
  Sm  Sm14  1  0.31848200  0.89433500  0.21281700  1
  Cl  Cl15  1  0.82951600  0.55039100  0.89765100  1
  Cl  Cl16  1  0.42440400  0.92440400  0.50000000  1
  Cl  Cl17  1  0.57559600  0.07559600  0.50000000  1
  Cl  Cl18  1  0.20560100  0.33139700  0.69671300  1
  Cl  Cl19  1  0.27697500  0.14079200  0.41776700  1
  Cl  Cl20  1  0.17048400  0.44960900  0.10234900  1
  Cl  Cl21  1  0.14079200  0.72302500  0.86381700  1
  Cl  Cl22  1  0.19086200  0.33031600  0.27966100  1
  Cl  Cl23  1  0.55039100  0.65274000  0.72087500  1
  Cl  Cl24  1  0.05065500  0.91120100  0.72033900  1
  Cl  Cl25  1  0.06813600  0.17048400  0.72087500  1
  Cl  Cl26  1  0.44960900  0.34726000  0.27912500  1
  Cl  Cl27  1  0.07559600  0.57559600  0.50000000  1
  Cl  Cl28  1  0.36531600  0.49111200  0.69671300  1
  Cl  Cl29  1  0.66968400  0.94934500  0.86054600  1
  Cl  Cl30  1  0.79439900  0.66860300  0.30328700  1
  Cl  Cl31  1  0.91120100  0.19086200  0.86054600  1
  Cl  Cl32  1  0.92440400  0.42440400  0.50000000  1
  Cl  Cl33  1  0.85920800  0.27697500  0.13618300  1
  Cl  Cl34  1  0.33031600  0.05065500  0.13945400  1
  Cl  Cl35  1  0.75000000  0.25000000  0.50000000  1
  Cl  Cl36  1  0.34726000  0.06813600  0.89765100  1
  Cl  Cl37  1  0.63468400  0.50888800  0.30328700  1
  Cl  Cl38  1  0.50888800  0.20560100  0.87420400  1
  Cl  Cl39  1  0.08879900  0.80913800  0.13945400  1
  Cl  Cl40  1  0.72302500  0.85920800  0.58223300  1
  Cl  Cl41  1  0.94934500  0.08879900  0.27966100  1
  Cl  Cl42  1  0.49111200  0.79439900  0.12579600  1
  Cl  Cl43  1  0.80913800  0.66968400  0.72033900  1
  Cl  Cl44  1  0.66860300  0.36531600  0.87420400  1
  Cl  Cl45  1  0.33139700  0.63468400  0.12579600  1
  Cl  Cl46  1  0.93186400  0.82951600  0.27912500  1
  Cl  Cl47  1  0.65274000  0.93186400  0.10234900  1
  Cl  Cl48  1  0.25000000  0.75000000  0.50000000  1
