# generated using pymatgen
data_SrMg2
_symmetry_space_group_name_H-M   'P 1'
_cell_length_a   6.78248335
_cell_length_b   6.78248335
_cell_length_c   7.84079773
_cell_angle_alpha   87.29234028
_cell_angle_beta   87.29234028
_cell_angle_gamma   34.54804656
_symmetry_Int_Tables_number   1
_chemical_formula_structural   SrMg2
_chemical_formula_sum   'Sr2 Mg4'
_cell_volume   204.29750744
_cell_formula_units_Z   2
loop_
 _symmetry_equiv_pos_site_id
 _symmetry_equiv_pos_as_xyz
  1  'x, y, z'
loop_
 _atom_site_type_symbol
 _atom_site_label
 _atom_site_symmetry_multiplicity
 _atom_site_fract_x
 _atom_site_fract_y
 _atom_site_fract_z
 _atom_site_occupancy
  Sr  Sr0  1  0.65516600  0.65516600  0.27526200  1
  Sr  Sr1  1  0.91476800  0.91476800  0.60165600  1
  Mg  Mg2  1  0.98712800  0.98712800  0.01368700  1
  Mg  Mg3  1  0.37846900  0.37846900  0.25294700  1
  Mg  Mg4  1  0.62401200  0.62401200  0.76816100  1
  Mg  Mg5  1  0.27378900  0.27378900  0.92162000  1
