# generated using pymatgen
data_CsReCl4
_symmetry_space_group_name_H-M   'P 1'
_cell_length_a   10.19301804
_cell_length_b   10.19301804
_cell_length_c   10.96821300
_cell_angle_alpha   90.00000000
_cell_angle_beta   90.00000000
_cell_angle_gamma   90.34769178
_symmetry_Int_Tables_number   1
_chemical_formula_structural   CsReCl4
_chemical_formula_sum   'Cs6 Re6 Cl24'
_cell_volume   1139.55020867
_cell_formula_units_Z   6
loop_
 _symmetry_equiv_pos_site_id
 _symmetry_equiv_pos_as_xyz
  1  'x, y, z'
loop_
 _atom_site_type_symbol
 _atom_site_label
 _atom_site_symmetry_multiplicity
 _atom_site_fract_x
 _atom_site_fract_y
 _atom_site_fract_z
 _atom_site_occupancy
  Cs  Cs0  1  0.80307500  0.44207400  0.75000000  1
  Cs  Cs1  1  0.48344500  0.29901600  0.25000000  1
  Cs  Cs2  1  0.29901600  0.48344500  0.75000000  1
  Cs  Cs3  1  0.00089400  0.00089400  0.00000000  1
  Cs  Cs4  1  0.44207400  0.80307500  0.25000000  1
  Cs  Cs5  1  0.00089400  0.00089400  0.50000000  1
  Re  Re6  1  0.01365100  0.44820800  0.36287400  1
  Re  Re7  1  0.44820800  0.01365100  0.63712600  1
  Re  Re8  1  0.63581900  0.92073600  0.75000000  1
  Re  Re9  1  0.44820800  0.01365100  0.86287400  1
  Re  Re10  1  0.92073600  0.63581900  0.25000000  1
  Re  Re11  1  0.01365100  0.44820800  0.13712600  1
  Cl  Cl12  1  0.52660200  0.22691500  0.89839600  1
  Cl  Cl13  1  0.69999700  0.57363900  0.25000000  1
  Cl  Cl14  1  0.32927900  0.82155000  0.60238900  1
  Cl  Cl15  1  0.06561400  0.33591400  0.92913700  1
  Cl  Cl16  1  0.63439500  0.92298000  0.97178400  1
  Cl  Cl17  1  0.77526900  0.10320800  0.75000000  1
  Cl  Cl18  1  0.22691500  0.52660200  0.39839600  1
  Cl  Cl19  1  0.33591400  0.06561400  0.42913700  1
  Cl  Cl20  1  0.82155000  0.32927900  0.39761100  1
  Cl  Cl21  1  0.57363900  0.69999700  0.75000000  1
  Cl  Cl22  1  0.92298000  0.63439500  0.47178400  1
  Cl  Cl23  1  0.26423400  0.10420600  0.75000000  1
  Cl  Cl24  1  0.92298000  0.63439500  0.02821600  1
  Cl  Cl25  1  0.22691500  0.52660200  0.10160400  1
  Cl  Cl26  1  0.63439500  0.92298000  0.52821600  1
  Cl  Cl27  1  0.86592800  0.80874900  0.75000000  1
  Cl  Cl28  1  0.06561400  0.33591400  0.57086300  1
  Cl  Cl29  1  0.32927900  0.82155000  0.89761100  1
  Cl  Cl30  1  0.10320800  0.77526900  0.25000000  1
  Cl  Cl31  1  0.82155000  0.32927900  0.10238900  1
  Cl  Cl32  1  0.52660200  0.22691500  0.60160400  1
  Cl  Cl33  1  0.33591400  0.06561400  0.07086300  1
  Cl  Cl34  1  0.10420600  0.26423400  0.25000000  1
  Cl  Cl35  1  0.80874900  0.86592800  0.25000000  1
