# generated using pymatgen
data_Hg4AsI5
_symmetry_space_group_name_H-M   'P 1'
_cell_length_a   8.80346981
_cell_length_b   8.80346981
_cell_length_c   20.55056100
_cell_angle_alpha   90.00000000
_cell_angle_beta   90.00000000
_cell_angle_gamma   90.55571202
_symmetry_Int_Tables_number   1
_chemical_formula_structural   Hg4AsI5
_chemical_formula_sum   'Hg16 As4 I20'
_cell_volume   1592.61577316
_cell_formula_units_Z   4
loop_
 _symmetry_equiv_pos_site_id
 _symmetry_equiv_pos_as_xyz
  1  'x, y, z'
loop_
 _atom_site_type_symbol
 _atom_site_label
 _atom_site_symmetry_multiplicity
 _atom_site_fract_x
 _atom_site_fract_y
 _atom_site_fract_z
 _atom_site_occupancy
  Hg  Hg0  1  0.94285400  0.73432200  0.82784300  1
  Hg  Hg1  1  0.44693800  0.55306200  0.82934300  1
  Hg  Hg2  1  0.26545600  0.73454400  0.67093800  1
  Hg  Hg3  1  0.05714600  0.26567800  0.17215700  1
  Hg  Hg4  1  0.76545600  0.23454400  0.82906200  1
  Hg  Hg5  1  0.55714600  0.76567800  0.32784300  1
  Hg  Hg6  1  0.26567800  0.05714600  0.82784300  1
  Hg  Hg7  1  0.44285400  0.23432200  0.67215700  1
  Hg  Hg8  1  0.55306200  0.44693800  0.17065700  1
  Hg  Hg9  1  0.23454400  0.76545600  0.17093800  1
  Hg  Hg10  1  0.05306200  0.94693800  0.32934300  1
  Hg  Hg11  1  0.94693800  0.05306200  0.67065700  1
  Hg  Hg12  1  0.73432200  0.94285400  0.17215700  1
  Hg  Hg13  1  0.73454400  0.26545600  0.32906200  1
  Hg  Hg14  1  0.23432200  0.44285400  0.32784300  1
  Hg  Hg15  1  0.76567800  0.55714600  0.67215700  1
  As  As16  1  0.89395400  0.10604600  0.25046300  1
  As  As17  1  0.10604600  0.89395400  0.74953700  1
  As  As18  1  0.39395400  0.60604600  0.24953700  1
  As  As19  1  0.60604600  0.39395400  0.75046300  1
  I  I20  1  0.07265000  0.92735000  0.08374200  1
  I  I21  1  0.78732000  0.21268000  0.58249200  1
  I  I22  1  0.93126000  0.70922100  0.58257900  1
  I  I23  1  0.57265000  0.42735000  0.41625800  1
  I  I24  1  0.89021000  0.60979000  0.25000000  1
  I  I25  1  0.70922100  0.93126000  0.41742100  1
  I  I26  1  0.42735000  0.57265000  0.58374200  1
  I  I27  1  0.20922100  0.43126000  0.08257900  1
  I  I28  1  0.60979000  0.89021000  0.75000000  1
  I  I29  1  0.06874000  0.29077900  0.41742100  1
  I  I30  1  0.29077900  0.06874000  0.58257900  1
  I  I31  1  0.10979000  0.39021000  0.75000000  1
  I  I32  1  0.92735000  0.07265000  0.91625800  1
  I  I33  1  0.71268000  0.28732000  0.08249200  1
  I  I34  1  0.21268000  0.78732000  0.41750800  1
  I  I35  1  0.43126000  0.20922100  0.91742100  1
  I  I36  1  0.28732000  0.71268000  0.91750800  1
  I  I37  1  0.56874000  0.79077900  0.08257900  1
  I  I38  1  0.39021000  0.10979000  0.25000000  1
  I  I39  1  0.79077900  0.56874000  0.91742100  1
