# generated using pymatgen
data_Ba2Bi
_symmetry_space_group_name_H-M   'P 1'
_cell_length_a   10.39129922
_cell_length_b   10.39129922
_cell_length_c   10.39129922
_cell_angle_alpha   149.98166607
_cell_angle_beta   149.98166607
_cell_angle_gamma   42.96831572
_symmetry_Int_Tables_number   1
_chemical_formula_structural   Ba2Bi
_chemical_formula_sum   'Ba4 Bi2'
_cell_volume   280.09519670
_cell_formula_units_Z   2
loop_
 _symmetry_equiv_pos_site_id
 _symmetry_equiv_pos_as_xyz
  1  'x, y, z'
loop_
 _atom_site_type_symbol
 _atom_site_label
 _atom_site_symmetry_multiplicity
 _atom_site_fract_x
 _atom_site_fract_y
 _atom_site_fract_z
 _atom_site_occupancy
  Ba  Ba0  1  0.00000000  0.50000000  0.50000000  1
  Ba  Ba1  1  0.67968600  0.67968600  0.00000000  1
  Ba  Ba2  1  0.32031400  0.32031400  0.00000000  1
  Ba  Ba3  1  0.50000000  0.00000000  0.50000000  1
  Bi  Bi4  1  0.86589900  0.86589900  0.00000000  1
  Bi  Bi5  1  0.13410100  0.13410100  0.00000000  1
