# generated using pymatgen
data_TeI4
_symmetry_space_group_name_H-M   'P 1'
_cell_length_a   14.01208005
_cell_length_b   14.01208005
_cell_length_c   14.01208005
_cell_angle_alpha   101.31022112
_cell_angle_beta   101.31022112
_cell_angle_gamma   127.42755689
_symmetry_Int_Tables_number   1
_chemical_formula_structural   TeI4
_chemical_formula_sum   'Te8 I32'
_cell_volume   1958.80227780
_cell_formula_units_Z   8
loop_
 _symmetry_equiv_pos_site_id
 _symmetry_equiv_pos_as_xyz
  1  'x, y, z'
loop_
 _atom_site_type_symbol
 _atom_site_label
 _atom_site_symmetry_multiplicity
 _atom_site_fract_x
 _atom_site_fract_y
 _atom_site_fract_z
 _atom_site_occupancy
  Te  Te0  1  0.35861500  0.49618100  0.13756700  1
  Te  Te1  1  0.50381900  0.64138500  0.86243300  1
  Te  Te2  1  0.74618100  0.10861500  0.63756700  1
  Te  Te3  1  0.35861500  0.22104800  0.86243300  1
  Te  Te4  1  0.77895200  0.64138500  0.13756700  1
  Te  Te5  1  0.89138500  0.25381900  0.36243300  1
  Te  Te6  1  0.89138500  0.52895200  0.63756700  1
  Te  Te7  1  0.47104800  0.10861500  0.36243300  1
  I  I8  1  0.76314800  0.13705200  0.13984100  1
  I  I9  1  0.99060100  0.86596000  0.12464100  1
  I  I10  1  0.48685200  0.12669300  0.87390400  1
  I  I11  1  0.11596000  0.49131800  0.37535900  1
  I  I12  1  0.38705200  0.74721200  0.87390400  1
  I  I13  1  0.37669300  0.23685200  0.37390400  1
  I  I14  1  0.25567100  0.37750400  0.87816700  1
  I  I15  1  0.13404000  0.00939900  0.87535900  1
  I  I16  1  0.50868200  0.88404000  0.62464100  1
  I  I17  1  0.38705200  0.51314800  0.63984100  1
  I  I18  1  0.11596000  0.74060100  0.62464100  1
  I  I19  1  0.37669300  0.00278800  0.13984100  1
  I  I20  1  0.62249600  0.50066300  0.87816700  1
  I  I21  1  0.75066300  0.37249600  0.37816700  1
  I  I22  1  0.99721200  0.62330700  0.86015900  1
  I  I23  1  0.25278800  0.12669300  0.63984100  1
  I  I24  1  0.13404000  0.25868200  0.12464100  1
  I  I25  1  0.25278800  0.61294800  0.12609600  1
  I  I26  1  0.48685200  0.61294800  0.36015900  1
  I  I27  1  0.87330700  0.51314800  0.12609600  1
  I  I28  1  0.86294800  0.00278800  0.62609600  1
  I  I29  1  0.62750400  0.24933700  0.62183300  1
  I  I30  1  0.49933700  0.37750400  0.12183300  1
  I  I31  1  0.86294800  0.23685200  0.86015900  1
  I  I32  1  0.62249600  0.74432900  0.12183300  1
  I  I33  1  0.87330700  0.74721200  0.36015900  1
  I  I34  1  0.62750400  0.00567100  0.37816700  1
  I  I35  1  0.76314800  0.62330700  0.62609600  1
  I  I36  1  0.99432900  0.37249600  0.62183300  1
  I  I37  1  0.74131800  0.86596000  0.87535900  1
  I  I38  1  0.99721200  0.13705200  0.37390400  1
  I  I39  1  0.25939900  0.88404000  0.37535900  1
