# generated using pymatgen
data_Rb2Pd(IBr2)2
_symmetry_space_group_name_H-M   'P 1'
_cell_length_a   7.53158835
_cell_length_b   7.53158835
_cell_length_c   7.53158835
_cell_angle_alpha   111.00826353
_cell_angle_beta   111.00826353
_cell_angle_gamma   106.43902628
_symmetry_Int_Tables_number   1
_chemical_formula_structural   Rb2Pd(IBr2)2
_chemical_formula_sum   'Rb2 Pd1 I2 Br4'
_cell_volume   328.19410519
_cell_formula_units_Z   1
loop_
 _symmetry_equiv_pos_site_id
 _symmetry_equiv_pos_as_xyz
  1  'x, y, z'
loop_
 _atom_site_type_symbol
 _atom_site_label
 _atom_site_symmetry_multiplicity
 _atom_site_fract_x
 _atom_site_fract_y
 _atom_site_fract_z
 _atom_site_occupancy
  Rb  Rb0  1  0.25000000  0.75000000  0.50000000  1
  Rb  Rb1  1  0.75000000  0.25000000  0.50000000  1
  Pd  Pd2  1  0.00000000  0.00000000  0.00000000  1
  I  I3  1  0.33979600  0.33979600  0.00000000  1
  I  I4  1  0.66020400  0.66020400  0.00000000  1
  Br  Br5  1  0.79428700  0.20571300  0.00000000  1
  Br  Br6  1  0.79428700  0.79428700  0.58857300  1
  Br  Br7  1  0.20571300  0.79428700  0.00000000  1
  Br  Br8  1  0.20571300  0.20571300  0.41142700  1
