# generated using pymatgen
data_BH8CN
_symmetry_space_group_name_H-M   'P 1'
_cell_length_a   5.03895500
_cell_length_b   6.64933900
_cell_length_c   11.41064300
_cell_angle_alpha   90.00000000
_cell_angle_beta   90.00000000
_cell_angle_gamma   90.00000000
_symmetry_Int_Tables_number   1
_chemical_formula_structural   BH8CN
_chemical_formula_sum   'B4 H32 C4 N4'
_cell_volume   382.32180939
_cell_formula_units_Z   4
loop_
 _symmetry_equiv_pos_site_id
 _symmetry_equiv_pos_as_xyz
  1  'x, y, z'
loop_
 _atom_site_type_symbol
 _atom_site_label
 _atom_site_symmetry_multiplicity
 _atom_site_fract_x
 _atom_site_fract_y
 _atom_site_fract_z
 _atom_site_occupancy
  B  B0  1  0.81938200  0.25000000  0.53248300  1
  B  B1  1  0.68061800  0.25000000  0.03248300  1
  B  B2  1  0.18061800  0.75000000  0.46751700  1
  B  B3  1  0.31938200  0.75000000  0.96751700  1
  H  H4  1  0.05464500  0.38373300  0.74301100  1
  H  H5  1  0.28903200  0.59926000  0.42840200  1
  H  H6  1  0.36246600  0.25000000  0.73109600  1
  H  H7  1  0.21712600  0.37363600  0.54379900  1
  H  H8  1  0.63753400  0.75000000  0.26890400  1
  H  H9  1  0.94535500  0.61626700  0.25698900  1
  H  H10  1  0.17644300  0.75000000  0.57460300  1
  H  H11  1  0.05464500  0.11626700  0.74301100  1
  H  H12  1  0.55464500  0.88373300  0.75698900  1
  H  H13  1  0.86246600  0.75000000  0.76890400  1
  H  H14  1  0.78287400  0.87363600  0.45620100  1
  H  H15  1  0.44535500  0.38373300  0.24301100  1
  H  H16  1  0.71096800  0.40074000  0.57159800  1
  H  H17  1  0.67644300  0.25000000  0.92539700  1
  H  H18  1  0.78287400  0.62636400  0.45620100  1
  H  H19  1  0.55464500  0.61626700  0.75698900  1
  H  H20  1  0.28287400  0.12636400  0.04379900  1
  H  H21  1  0.28287400  0.37363600  0.04379900  1
  H  H22  1  0.21096800  0.59926000  0.92840200  1
  H  H23  1  0.13753400  0.25000000  0.23109600  1
  H  H24  1  0.32355700  0.75000000  0.07460300  1
  H  H25  1  0.21712600  0.12636400  0.54379900  1
  H  H26  1  0.78903200  0.40074000  0.07159800  1
  H  H27  1  0.28903200  0.90074000  0.42840200  1
  H  H28  1  0.21096800  0.90074000  0.92840200  1
  H  H29  1  0.71712600  0.87363600  0.95620100  1
  H  H30  1  0.82355700  0.25000000  0.42539700  1
  H  H31  1  0.71096800  0.09926000  0.57159800  1
  H  H32  1  0.78903200  0.09926000  0.07159800  1
  H  H33  1  0.44535500  0.11626700  0.24301100  1
  H  H34  1  0.94535500  0.88373300  0.25698900  1
  H  H35  1  0.71712600  0.62636400  0.95620100  1
  C  C36  1  0.84827300  0.75000000  0.29299500  1
  C  C37  1  0.65172700  0.75000000  0.79299500  1
  C  C38  1  0.34827300  0.25000000  0.20700500  1
  C  C39  1  0.15172700  0.25000000  0.70700500  1
  N  N40  1  0.12036700  0.25000000  0.57763800  1
  N  N41  1  0.87963300  0.75000000  0.42236200  1
  N  N42  1  0.62036700  0.75000000  0.92236200  1
  N  N43  1  0.37963300  0.25000000  0.07763800  1
