# generated using pymatgen
data_Rb3Mn2Cl7
_symmetry_space_group_name_H-M   'P 1'
_cell_length_a   18.06763716
_cell_length_b   18.06763716
_cell_length_c   18.06763716
_cell_angle_alpha   164.57474995
_cell_angle_beta   164.57474995
_cell_angle_gamma   21.88151171
_symmetry_Int_Tables_number   1
_chemical_formula_structural   Rb3Mn2Cl7
_chemical_formula_sum   'Rb3 Mn2 Cl7'
_cell_volume   417.18831546
_cell_formula_units_Z   1
loop_
 _symmetry_equiv_pos_site_id
 _symmetry_equiv_pos_as_xyz
  1  'x, y, z'
loop_
 _atom_site_type_symbol
 _atom_site_label
 _atom_site_symmetry_multiplicity
 _atom_site_fract_x
 _atom_site_fract_y
 _atom_site_fract_z
 _atom_site_occupancy
  Rb  Rb0  1  0.17692000  0.17692000  0.00000000  1
  Rb  Rb1  1  0.82308000  0.82308000  0.00000000  1
  Rb  Rb2  1  0.50000000  0.50000000  0.00000000  1
  Mn  Mn3  1  0.37639600  0.37639600  0.00000000  1
  Mn  Mn4  1  0.62360400  0.62360400  0.00000000  1
  Cl  Cl5  1  0.69195100  0.69195100  0.00000000  1
  Cl  Cl6  1  0.60997000  0.10997000  0.50000000  1
  Cl  Cl7  1  0.89003000  0.39003000  0.50000000  1
  Cl  Cl8  1  0.39003000  0.89003000  0.50000000  1
  Cl  Cl9  1  0.30804900  0.30804900  0.00000000  1
  Cl  Cl10  1  0.00000000  0.00000000  0.00000000  1
  Cl  Cl11  1  0.10997000  0.60997000  0.50000000  1
