# generated using pymatgen
data_Ar
_symmetry_space_group_name_H-M   'P 1'
_cell_length_a   3.98759426
_cell_length_b   3.98759426
_cell_length_c   6.53839400
_cell_angle_alpha   90.00000000
_cell_angle_beta   90.00000000
_cell_angle_gamma   120.00000425
_symmetry_Int_Tables_number   1
_chemical_formula_structural   Ar
_chemical_formula_sum   Ar2
_cell_volume   90.03754068
_cell_formula_units_Z   2
loop_
 _symmetry_equiv_pos_site_id
 _symmetry_equiv_pos_as_xyz
  1  'x, y, z'
loop_
 _atom_site_type_symbol
 _atom_site_label
 _atom_site_symmetry_multiplicity
 _atom_site_fract_x
 _atom_site_fract_y
 _atom_site_fract_z
 _atom_site_occupancy
  Ar  Ar0  1  0.33333300  0.66666700  0.25000000  1
  Ar  Ar1  1  0.66666700  0.33333300  0.75000000  1
