# generated using pymatgen
data_La(SiIr)2
_symmetry_space_group_name_H-M   'P 1'
_cell_length_a   4.21280300
_cell_length_b   4.21280300
_cell_length_c   10.06170200
_cell_angle_alpha   90.00000000
_cell_angle_beta   90.00000000
_cell_angle_gamma   90.00000000
_symmetry_Int_Tables_number   1
_chemical_formula_structural   La(SiIr)2
_chemical_formula_sum   'La2 Si4 Ir4'
_cell_volume   178.57216032
_cell_formula_units_Z   2
loop_
 _symmetry_equiv_pos_site_id
 _symmetry_equiv_pos_as_xyz
  1  'x, y, z'
loop_
 _atom_site_type_symbol
 _atom_site_label
 _atom_site_symmetry_multiplicity
 _atom_site_fract_x
 _atom_site_fract_y
 _atom_site_fract_z
 _atom_site_occupancy
  La  La0  1  0.50000000  0.00000000  0.25715600  1
  La  La1  1  0.00000000  0.50000000  0.74284400  1
  Si  Si2  1  0.00000000  0.50000000  0.12778100  1
  Si  Si3  1  0.50000000  0.00000000  0.87221900  1
  Si  Si4  1  0.00000000  0.00000000  0.50000000  1
  Si  Si5  1  0.50000000  0.50000000  0.50000000  1
  Ir  Ir6  1  0.00000000  0.50000000  0.37299500  1
  Ir  Ir7  1  0.50000000  0.00000000  0.62700500  1
  Ir  Ir8  1  0.00000000  0.00000000  0.00000000  1
  Ir  Ir9  1  0.50000000  0.50000000  0.00000000  1
