# generated using pymatgen
data_Ti6Sn5
_symmetry_space_group_name_H-M   'P 1'
_cell_length_a   9.87896465
_cell_length_b   9.87896465
_cell_length_c   9.87896465
_cell_angle_alpha   146.24442486
_cell_angle_beta   124.74693263
_cell_angle_gamma   66.33625313
_symmetry_Int_Tables_number   1
_chemical_formula_structural   Ti6Sn5
_chemical_formula_sum   'Ti12 Sn10'
_cell_volume   434.60255339
_cell_formula_units_Z   2
loop_
 _symmetry_equiv_pos_site_id
 _symmetry_equiv_pos_as_xyz
  1  'x, y, z'
loop_
 _atom_site_type_symbol
 _atom_site_label
 _atom_site_symmetry_multiplicity
 _atom_site_fract_x
 _atom_site_fract_y
 _atom_site_fract_z
 _atom_site_occupancy
  Ti  Ti0  1  0.15784100  0.15784100  0.00000000  1
  Ti  Ti1  1  0.68500400  0.41393300  0.27107100  1
  Ti  Ti2  1  0.85713800  0.58606700  0.27107100  1
  Ti  Ti3  1  0.84215900  0.84215900  0.00000000  1
  Ti  Ti4  1  0.50000000  0.26612200  0.76612200  1
  Ti  Ti5  1  0.00000000  0.50000000  0.00000000  1
  Ti  Ti6  1  0.50000000  0.73387800  0.23387800  1
  Ti  Ti7  1  0.31499600  0.58606700  0.72892900  1
  Ti  Ti8  1  0.14286200  0.41393300  0.72892900  1
  Ti  Ti9  1  0.50000000  0.50000000  0.50000000  1
  Ti  Ti10  1  0.50000000  0.00000000  0.00000000  1
  Ti  Ti11  1  0.00000000  0.00000000  0.50000000  1
  Sn  Sn12  1  0.41257800  0.10416400  0.30841400  1
  Sn  Sn13  1  0.79154700  0.29154700  0.50000000  1
  Sn  Sn14  1  0.33068000  0.33068000  0.00000000  1
  Sn  Sn15  1  0.79575000  0.10416400  0.69158600  1
  Sn  Sn16  1  0.20845300  0.70845300  0.50000000  1
  Sn  Sn17  1  0.00000000  0.24548600  0.24548600  1
  Sn  Sn18  1  0.66932000  0.66932000  0.00000000  1
  Sn  Sn19  1  0.58742200  0.89583600  0.69158600  1
  Sn  Sn20  1  0.20425000  0.89583600  0.30841400  1
  Sn  Sn21  1  0.00000000  0.75451400  0.75451400  1
