# generated using pymatgen
data_CoH16C4(NCl2)2
_symmetry_space_group_name_H-M   'P 1'
_cell_length_a   11.58344000
_cell_length_b   8.70589200
_cell_length_c   16.00604029
_cell_angle_alpha   57.10139467
_cell_angle_beta   90.00000000
_cell_angle_gamma   90.00000000
_symmetry_Int_Tables_number   1
_chemical_formula_structural   CoH16C4(NCl2)2
_chemical_formula_sum   'Co4 H64 C16 N8 Cl16'
_cell_volume   1355.26517283
_cell_formula_units_Z   4
loop_
 _symmetry_equiv_pos_site_id
 _symmetry_equiv_pos_as_xyz
  1  'x, y, z'
loop_
 _atom_site_type_symbol
 _atom_site_label
 _atom_site_symmetry_multiplicity
 _atom_site_fract_x
 _atom_site_fract_y
 _atom_site_fract_z
 _atom_site_occupancy
  Co  Co0  1  0.20011700  0.41136000  0.41837600  1
  Co  Co1  1  0.29988300  0.41136000  0.91837600  1
  Co  Co2  1  0.79988300  0.58864000  0.58162400  1
  Co  Co3  1  0.70011700  0.58864000  0.08162400  1
  H  H4  1  0.06791200  0.99335100  0.19080300  1
  H  H5  1  0.52400600  0.79643500  0.73305400  1
  H  H6  1  0.92242300  0.81247400  0.37328100  1
  H  H7  1  0.67303300  0.10245900  0.48448100  1
  H  H8  1  0.43208800  0.99335100  0.69080300  1
  H  H9  1  0.31252600  0.81161600  0.06974000  1
  H  H10  1  0.30596500  0.79004400  0.64719400  1
  H  H11  1  0.26704200  0.50721100  0.66290500  1
  H  H12  1  0.23295800  0.50721100  0.16290500  1
  H  H13  1  0.56543600  0.21921200  0.12973100  1
  H  H14  1  0.03194600  0.56399000  0.17317200  1
  H  H15  1  0.10567700  0.09518100  0.30893100  1
  H  H16  1  0.02400600  0.20356500  0.76694600  1
  H  H17  1  0.93208800  0.00664900  0.80919700  1
  H  H18  1  0.52187900  0.00962500  0.07916800  1
  H  H19  1  0.32696700  0.89754100  0.51551900  1
  H  H20  1  0.46805400  0.56399000  0.67317200  1
  H  H21  1  0.72299100  0.39632000  0.46165700  1
  H  H22  1  0.58609600  0.01282500  0.69676100  1
  H  H23  1  0.77700900  0.39632000  0.96165700  1
  H  H24  1  0.73295800  0.49278900  0.33709500  1
  H  H25  1  0.18747400  0.81161600  0.56974000  1
  H  H26  1  0.76704200  0.49278900  0.83709500  1
  H  H27  1  0.02187900  0.99037500  0.42083200  1
  H  H28  1  0.81252600  0.18838400  0.43026000  1
  H  H29  1  0.82696700  0.10245900  0.98448100  1
  H  H30  1  0.43456400  0.78078800  0.87026900  1
  H  H31  1  0.02078200  0.67236500  0.04090300  1
  H  H32  1  0.39432300  0.09518100  0.80893100  1
  H  H33  1  0.44658900  0.43326600  0.61809400  1
  H  H34  1  0.47599400  0.20356500  0.26694600  1
  H  H35  1  0.52078200  0.32763500  0.45909700  1
  H  H36  1  0.47812100  0.99037500  0.92083200  1
  H  H37  1  0.54710800  0.13684300  0.80271000  1
  H  H38  1  0.80596500  0.20995600  0.85280600  1
  H  H39  1  0.42242300  0.18752600  0.12671900  1
  H  H40  1  0.96805400  0.43601000  0.82682800  1
  H  H41  1  0.57757700  0.81247400  0.87328100  1
  H  H42  1  0.45289200  0.86315700  0.19729000  1
  H  H43  1  0.17303300  0.89754100  0.01551900  1
  H  H44  1  0.69403500  0.20995600  0.35280600  1
  H  H45  1  0.22299100  0.60368000  0.03834300  1
  H  H46  1  0.60567700  0.90481900  0.19106900  1
  H  H47  1  0.89432300  0.90481900  0.69106900  1
  H  H48  1  0.55341100  0.56673400  0.38190600  1
  H  H49  1  0.06543600  0.78078800  0.37026900  1
  H  H50  1  0.94658900  0.56673400  0.88190600  1
  H  H51  1  0.19403500  0.79004400  0.14719400  1
  H  H52  1  0.04710800  0.86315700  0.69729000  1
  H  H53  1  0.41390400  0.98717500  0.30323900  1
  H  H54  1  0.91390400  0.01282500  0.19676100  1
  H  H55  1  0.47921800  0.67236500  0.54090300  1
  H  H56  1  0.05341100  0.43326600  0.11809400  1
  H  H57  1  0.95289200  0.13684300  0.30271000  1
  H  H58  1  0.07757700  0.18752600  0.62671900  1
  H  H59  1  0.97921800  0.32763500  0.95909700  1
  H  H60  1  0.27700900  0.60368000  0.53834300  1
  H  H61  1  0.08609600  0.98717500  0.80323900  1
  H  H62  1  0.56791200  0.00664900  0.30919700  1
  H  H63  1  0.68747400  0.18838400  0.93026000  1
  H  H64  1  0.97599400  0.79643500  0.23305400  1
  H  H65  1  0.93456400  0.21921200  0.62973100  1
  H  H66  1  0.53194600  0.43601000  0.32682800  1
  H  H67  1  0.97812100  0.00962500  0.57916800  1
  C  C68  1  0.48880600  0.07712000  0.26885700  1
  C  C69  1  0.97841500  0.96390000  0.65775300  1
  C  C70  1  0.02158500  0.03610000  0.34224700  1
  C  C71  1  0.93458200  0.43322700  0.89164000  1
  C  C72  1  0.71928300  0.20986800  0.41874500  1
  C  C73  1  0.01119400  0.07712000  0.76885700  1
  C  C74  1  0.56541800  0.43322700  0.39164000  1
  C  C75  1  0.21928300  0.79013200  0.08125500  1
  C  C76  1  0.78071700  0.20986800  0.91874500  1
  C  C77  1  0.98880600  0.92288000  0.23114300  1
  C  C78  1  0.51119400  0.92288000  0.73114300  1
  C  C79  1  0.52158500  0.96390000  0.15775300  1
  C  C80  1  0.06541800  0.56677300  0.10836000  1
  C  C81  1  0.47841500  0.03610000  0.84224700  1
  C  C82  1  0.28071700  0.79013200  0.58125500  1
  C  C83  1  0.43458200  0.56677300  0.60836000  1
  N  N84  1  0.50101300  0.87499300  0.83533000  1
  N  N85  1  0.19131500  0.60847800  0.09783800  1
  N  N86  1  0.99898700  0.87499300  0.33533000  1
  N  N87  1  0.80868500  0.39152200  0.90216200  1
  N  N88  1  0.49898700  0.12500700  0.16467000  1
  N  N89  1  0.00101300  0.12500700  0.66467000  1
  N  N90  1  0.69131500  0.39152200  0.40216200  1
  N  N91  1  0.30868500  0.60847800  0.59783800  1
  Cl  Cl92  1  0.77887700  0.67494700  0.17862200  1
  Cl  Cl93  1  0.24084800  0.22746300  0.07909400  1
  Cl  Cl94  1  0.74227600  0.30223600  0.62549600  1
  Cl  Cl95  1  0.75772400  0.30223600  0.12549600  1
  Cl  Cl96  1  0.24227600  0.69776400  0.87450400  1
  Cl  Cl97  1  0.25772400  0.69776400  0.37450400  1
  Cl  Cl98  1  0.72112300  0.67494700  0.67862200  1
  Cl  Cl99  1  0.49308300  0.40666500  0.90857900  1
  Cl  Cl100  1  0.25915200  0.22746300  0.57909400  1
  Cl  Cl101  1  0.00691700  0.40666500  0.40857900  1
  Cl  Cl102  1  0.50691700  0.59333500  0.09142100  1
  Cl  Cl103  1  0.99308300  0.59333500  0.59142100  1
  Cl  Cl104  1  0.75915200  0.77253700  0.92090600  1
  Cl  Cl105  1  0.27887700  0.32505300  0.32137800  1
  Cl  Cl106  1  0.22112300  0.32505300  0.82137800  1
  Cl  Cl107  1  0.74084800  0.77253700  0.42090600  1
