# generated using pymatgen
data_Mg5Si6
_symmetry_space_group_name_H-M   'P 1'
_cell_length_a   7.93551293
_cell_length_b   7.93551293
_cell_length_c   6.95946013
_cell_angle_alpha   69.90796614
_cell_angle_beta   69.90796614
_cell_angle_gamma   29.30742831
_symmetry_Int_Tables_number   1
_chemical_formula_structural   Mg5Si6
_chemical_formula_sum   'Mg5 Si6'
_cell_volume   200.54407777
_cell_formula_units_Z   1
loop_
 _symmetry_equiv_pos_site_id
 _symmetry_equiv_pos_as_xyz
  1  'x, y, z'
loop_
 _atom_site_type_symbol
 _atom_site_label
 _atom_site_symmetry_multiplicity
 _atom_site_fract_x
 _atom_site_fract_y
 _atom_site_fract_z
 _atom_site_occupancy
  Mg  Mg0  1  0.42291300  0.42291300  0.37124500  1
  Mg  Mg1  1  0.00000000  0.00000000  0.00000000  1
  Mg  Mg2  1  0.57708700  0.57708700  0.62875500  1
  Mg  Mg3  1  0.34365400  0.34365400  0.93568700  1
  Mg  Mg4  1  0.65634600  0.65634600  0.06431300  1
  Si  Si5  1  0.80758800  0.80758800  0.25870500  1
  Si  Si6  1  0.05782100  0.05782100  0.33047000  1
  Si  Si7  1  0.19241200  0.19241200  0.74129500  1
  Si  Si8  1  0.79340900  0.79340900  0.63010300  1
  Si  Si9  1  0.20659100  0.20659100  0.36989700  1
  Si  Si10  1  0.94217900  0.94217900  0.66953000  1
