# generated using pymatgen
data_La2Rh7
_symmetry_space_group_name_H-M   'P 1'
_cell_length_a   5.34206252
_cell_length_b   5.34206252
_cell_length_c   26.63754400
_cell_angle_alpha   90.00000000
_cell_angle_beta   90.00000000
_cell_angle_gamma   120.00000643
_symmetry_Int_Tables_number   1
_chemical_formula_structural   La2Rh7
_chemical_formula_sum   'La8 Rh28'
_cell_volume   658.32859034
_cell_formula_units_Z   4
loop_
 _symmetry_equiv_pos_site_id
 _symmetry_equiv_pos_as_xyz
  1  'x, y, z'
loop_
 _atom_site_type_symbol
 _atom_site_label
 _atom_site_symmetry_multiplicity
 _atom_site_fract_x
 _atom_site_fract_y
 _atom_site_fract_z
 _atom_site_occupancy
  La  La0  1  0.66666700  0.33333300  0.53004500  1
  La  La1  1  0.33333300  0.66666700  0.03004500  1
  La  La2  1  0.33333300  0.66666700  0.17457000  1
  La  La3  1  0.66666700  0.33333300  0.96995500  1
  La  La4  1  0.66666700  0.33333300  0.67457000  1
  La  La5  1  0.66666700  0.33333300  0.82543000  1
  La  La6  1  0.33333300  0.66666700  0.32543000  1
  La  La7  1  0.33333300  0.66666700  0.46995500  1
  Rh  Rh8  1  0.00000000  0.00000000  0.66729100  1
  Rh  Rh9  1  0.83330200  0.66660300  0.25000000  1
  Rh  Rh10  1  0.16701600  0.33403200  0.58552700  1
  Rh  Rh11  1  0.83298400  0.16701600  0.41447300  1
  Rh  Rh12  1  0.66596800  0.83298400  0.91447300  1
  Rh  Rh13  1  0.33333300  0.66666700  0.83323200  1
  Rh  Rh14  1  0.83298400  0.66596800  0.08552700  1
  Rh  Rh15  1  0.83298400  0.66596800  0.41447300  1
  Rh  Rh16  1  0.16701600  0.83298400  0.91447300  1
  Rh  Rh17  1  0.66666700  0.33333300  0.33323200  1
  Rh  Rh18  1  0.00000000  0.00000000  0.33270900  1
  Rh  Rh19  1  0.16701600  0.83298400  0.58552700  1
  Rh  Rh20  1  0.33403200  0.16701600  0.41447300  1
  Rh  Rh21  1  0.00000000  0.00000000  0.00000000  1
  Rh  Rh22  1  0.00000000  0.00000000  0.16729100  1
  Rh  Rh23  1  0.33333300  0.66666700  0.66676800  1
  Rh  Rh24  1  0.66596800  0.83298400  0.58552700  1
  Rh  Rh25  1  0.66660300  0.83330200  0.75000000  1
  Rh  Rh26  1  0.83298400  0.16701600  0.08552700  1
  Rh  Rh27  1  0.83330200  0.16669800  0.25000000  1
  Rh  Rh28  1  0.33403200  0.16701600  0.08552700  1
  Rh  Rh29  1  0.66666700  0.33333300  0.16676800  1
  Rh  Rh30  1  0.16701600  0.33403200  0.91447300  1
  Rh  Rh31  1  0.00000000  0.00000000  0.50000000  1
  Rh  Rh32  1  0.16669800  0.33339700  0.75000000  1
  Rh  Rh33  1  0.00000000  0.00000000  0.83270900  1
  Rh  Rh34  1  0.16669800  0.83330200  0.75000000  1
  Rh  Rh35  1  0.33339700  0.16669800  0.25000000  1
