# generated using pymatgen
data_Si2H15C5N
_symmetry_space_group_name_H-M   'P 1'
_cell_length_a   13.48517700
_cell_length_b   6.85681800
_cell_length_c   11.75019461
_cell_angle_alpha   69.66480046
_cell_angle_beta   90.00000000
_cell_angle_gamma   90.00000000
_symmetry_Int_Tables_number   1
_chemical_formula_structural   Si2H15C5N
_chemical_formula_sum   'Si8 H60 C20 N4'
_cell_volume   1018.77189750
_cell_formula_units_Z   4
loop_
 _symmetry_equiv_pos_site_id
 _symmetry_equiv_pos_as_xyz
  1  'x, y, z'
loop_
 _atom_site_type_symbol
 _atom_site_label
 _atom_site_symmetry_multiplicity
 _atom_site_fract_x
 _atom_site_fract_y
 _atom_site_fract_z
 _atom_site_occupancy
  Si  Si0  1  0.99924600  0.77090800  0.24044600  1
  Si  Si1  1  0.08813900  0.54993200  0.50882300  1
  Si  Si2  1  0.49924600  0.22909200  0.25955400  1
  Si  Si3  1  0.58813900  0.45006800  0.99117700  1
  Si  Si4  1  0.00075400  0.22909200  0.75955400  1
  Si  Si5  1  0.41186100  0.54993200  0.00882300  1
  Si  Si6  1  0.91186100  0.45006800  0.49117700  1
  Si  Si7  1  0.50075400  0.77090800  0.74044600  1
  H  H8  1  0.25573600  0.54071200  0.89768400  1
  H  H9  1  0.68035500  0.70148500  0.06296400  1
  H  H10  1  0.67263300  0.09308600  0.26588200  1
  H  H11  1  0.35683900  0.99784900  0.25593500  1
  H  H12  1  0.24979900  0.36113500  0.04807300  1
  H  H13  1  0.18035500  0.29851500  0.43703600  1
  H  H14  1  0.47223900  0.69748000  0.54838100  1
  H  H15  1  0.90005200  0.92516700  0.88540100  1
  H  H16  1  0.56856400  0.15230100  0.91609500  1
  H  H17  1  0.31528700  0.21550200  0.29203400  1
  H  H18  1  0.40005200  0.07483300  0.61459900  1
  H  H19  1  0.82444600  0.30309400  0.35253700  1
  H  H20  1  0.06856400  0.84769900  0.58390500  1
  H  H21  1  0.31964500  0.29851500  0.93703600  1
  H  H22  1  0.67893400  0.12548900  0.00356300  1
  H  H23  1  0.81528700  0.78449800  0.20796600  1
  H  H24  1  0.17893400  0.87451100  0.49643700  1
  H  H25  1  0.68471300  0.78449800  0.70796600  1
  H  H26  1  0.74426400  0.45928800  0.10231600  1
  H  H27  1  0.59994800  0.92516700  0.38540100  1
  H  H28  1  0.75573600  0.45928800  0.60231600  1
  H  H29  1  0.32736700  0.90691400  0.73411800  1
  H  H30  1  0.52776100  0.30252000  0.45161900  1
  H  H31  1  0.96975600  0.48269900  0.15915000  1
  H  H32  1  0.87502000  0.99407300  0.09566500  1
  H  H33  1  0.82106600  0.12548900  0.50356300  1
  H  H34  1  0.17555400  0.69690600  0.64746300  1
  H  H35  1  0.75020100  0.63886500  0.95192700  1
  H  H36  1  0.43143600  0.84769900  0.08390500  1
  H  H37  1  0.17263300  0.90691400  0.23411800  1
  H  H38  1  0.09994800  0.07483300  0.11459900  1
  H  H39  1  0.81964500  0.70148500  0.56296400  1
  H  H40  1  0.18471300  0.21550200  0.79203400  1
  H  H41  1  0.32106600  0.87451100  0.99643700  1
  H  H42  1  0.02776100  0.69748000  0.04838100  1
  H  H43  1  0.37502000  0.00592700  0.40433500  1
  H  H44  1  0.24426400  0.54071200  0.39768400  1
  H  H45  1  0.64316100  0.00215100  0.74406500  1
  H  H46  1  0.82736700  0.09308600  0.76588200  1
  H  H47  1  0.09864900  0.52617100  0.16935000  1
  H  H48  1  0.93143600  0.15230100  0.41609500  1
  H  H49  1  0.32444600  0.69690600  0.14746300  1
  H  H50  1  0.58570800  0.92209500  0.23588500  1
  H  H51  1  0.08570800  0.07790500  0.26411500  1
  H  H52  1  0.46975600  0.51730100  0.34085000  1
  H  H53  1  0.62498000  0.99407300  0.59566500  1
  H  H54  1  0.12498000  0.00592700  0.90433500  1
  H  H55  1  0.25020100  0.36113500  0.54807300  1
  H  H56  1  0.97223900  0.30252000  0.95161900  1
  H  H57  1  0.67555400  0.30309400  0.85253700  1
  H  H58  1  0.74979900  0.63886500  0.45192700  1
  H  H59  1  0.59864900  0.47382900  0.33065000  1
  H  H60  1  0.41429200  0.07790500  0.76411500  1
  H  H61  1  0.91429200  0.92209500  0.73588500  1
  H  H62  1  0.03024400  0.51730100  0.84085000  1
  H  H63  1  0.53024400  0.48269900  0.65915000  1
  H  H64  1  0.14316100  0.99784900  0.75593500  1
  H  H65  1  0.90135100  0.47382900  0.83065000  1
  H  H66  1  0.85683900  0.00215100  0.24406500  1
  H  H67  1  0.40135100  0.52617100  0.66935000  1
  C  C68  1  0.90157600  0.02404900  0.78894200  1
  C  C69  1  0.02635200  0.60419500  0.14581700  1
  C  C70  1  0.62483600  0.89969900  0.69293200  1
  C  C71  1  0.36873700  0.76230100  0.06400900  1
  C  C72  1  0.52635200  0.39580500  0.35418300  1
  C  C73  1  0.47364800  0.60419500  0.64581700  1
  C  C74  1  0.70084000  0.57452900  0.03070700  1
  C  C75  1  0.97364800  0.39580500  0.85418300  1
  C  C76  1  0.79916000  0.57452900  0.53070700  1
  C  C77  1  0.86873700  0.23769900  0.43599100  1
  C  C78  1  0.12483600  0.10030100  0.80706800  1
  C  C79  1  0.20084000  0.42547100  0.46929300  1
  C  C80  1  0.09842400  0.97595100  0.21105800  1
  C  C81  1  0.29916000  0.42547100  0.96929300  1
  C  C82  1  0.87516400  0.89969900  0.19293200  1
  C  C83  1  0.13126300  0.76230100  0.56400900  1
  C  C84  1  0.63126300  0.23769900  0.93599100  1
  C  C85  1  0.37516400  0.10030100  0.30706800  1
  C  C86  1  0.40157600  0.97595100  0.71105800  1
  C  C87  1  0.59842400  0.02404900  0.28894200  1
  N  N88  1  0.50273800  0.62369600  0.89421100  1
  N  N89  1  0.49726200  0.37630400  0.10578900  1
  N  N90  1  0.00273800  0.37630400  0.60578900  1
  N  N91  1  0.99726200  0.62369600  0.39421100  1
