# generated using pymatgen
data_MgTi5
_symmetry_space_group_name_H-M   'P 1'
_cell_length_a   2.95874583
_cell_length_b   2.95874583
_cell_length_c   14.32339500
_cell_angle_alpha   90.00000000
_cell_angle_beta   90.00000000
_cell_angle_gamma   119.99999614
_symmetry_Int_Tables_number   1
_chemical_formula_structural   MgTi5
_chemical_formula_sum   'Mg1 Ti5'
_cell_volume   108.59052536
_cell_formula_units_Z   1
loop_
 _symmetry_equiv_pos_site_id
 _symmetry_equiv_pos_as_xyz
  1  'x, y, z'
loop_
 _atom_site_type_symbol
 _atom_site_label
 _atom_site_symmetry_multiplicity
 _atom_site_fract_x
 _atom_site_fract_y
 _atom_site_fract_z
 _atom_site_occupancy
  Mg  Mg0  1  0.00000000  0.00000000  0.00000000  1
  Ti  Ti1  1  0.33333300  0.66666700  0.82059800  1
  Ti  Ti2  1  0.00000000  0.00000000  0.66374800  1
  Ti  Ti3  1  0.33333300  0.66666700  0.50000000  1
  Ti  Ti4  1  0.00000000  0.00000000  0.33625200  1
  Ti  Ti5  1  0.33333300  0.66666700  0.17940200  1
