# generated using pymatgen
data_BiI
_symmetry_space_group_name_H-M   'P 1'
_cell_length_a   8.11462044
_cell_length_b   8.11462044
_cell_length_c   11.03965279
_cell_angle_alpha   74.31796653
_cell_angle_beta   74.31796653
_cell_angle_gamma   31.59599554
_symmetry_Int_Tables_number   1
_chemical_formula_structural   BiI
_chemical_formula_sum   'Bi4 I4'
_cell_volume   365.52167710
_cell_formula_units_Z   4
loop_
 _symmetry_equiv_pos_site_id
 _symmetry_equiv_pos_as_xyz
  1  'x, y, z'
loop_
 _atom_site_type_symbol
 _atom_site_label
 _atom_site_symmetry_multiplicity
 _atom_site_fract_x
 _atom_site_fract_y
 _atom_site_fract_z
 _atom_site_occupancy
  Bi  Bi0  1  0.81967800  0.81967800  0.98833600  1
  Bi  Bi1  1  0.19927300  0.19927300  0.72463000  1
  Bi  Bi2  1  0.80072700  0.80072700  0.27537000  1
  Bi  Bi3  1  0.18032200  0.18032200  0.01166400  1
  I  I4  1  0.55122500  0.55122500  0.78065500  1
  I  I5  1  0.44877500  0.44877500  0.21934500  1
  I  I6  1  0.15345000  0.15345000  0.37094400  1
  I  I7  1  0.84655000  0.84655000  0.62905600  1
