# generated using pymatgen
data_BPBr2NCl3
_symmetry_space_group_name_H-M   'P 1'
_cell_length_a   9.30525916
_cell_length_b   9.30525916
_cell_length_c   10.49192300
_cell_angle_alpha   90.00000000
_cell_angle_beta   90.00000000
_cell_angle_gamma   95.08230122
_symmetry_Int_Tables_number   1
_chemical_formula_structural   BPBr2NCl3
_chemical_formula_sum   'B4 P4 Br8 N4 Cl12'
_cell_volume   904.90135166
_cell_formula_units_Z   4
loop_
 _symmetry_equiv_pos_site_id
 _symmetry_equiv_pos_as_xyz
  1  'x, y, z'
loop_
 _atom_site_type_symbol
 _atom_site_label
 _atom_site_symmetry_multiplicity
 _atom_site_fract_x
 _atom_site_fract_y
 _atom_site_fract_z
 _atom_site_occupancy
  B  B0  1  0.41975500  0.58024500  0.00000000  1
  B  B1  1  0.08024500  0.91975500  0.50000000  1
  B  B2  1  0.58024500  0.41975500  0.00000000  1
  B  B3  1  0.91975500  0.08024500  0.50000000  1
  P  P4  1  0.99921900  0.99921900  0.24651100  1
  P  P5  1  0.00078100  0.00078100  0.75348900  1
  P  P6  1  0.49921900  0.49921900  0.25348900  1
  P  P7  1  0.50078100  0.50078100  0.74651100  1
  Br  Br8  1  0.96591800  0.29686200  0.48002700  1
  Br  Br9  1  0.53408200  0.20313800  0.98002700  1
  Br  Br10  1  0.20313800  0.53408200  0.98002700  1
  Br  Br11  1  0.46591800  0.79686200  0.01997300  1
  Br  Br12  1  0.79686200  0.46591800  0.01997300  1
  Br  Br13  1  0.03408200  0.70313800  0.51997300  1
  Br  Br14  1  0.70313800  0.03408200  0.51997300  1
  Br  Br15  1  0.29686200  0.96591800  0.48002700  1
  N  N16  1  0.48877100  0.48877100  0.10390500  1
  N  N17  1  0.01122900  0.01122900  0.60390500  1
  N  N18  1  0.51122900  0.51122900  0.89609500  1
  N  N19  1  0.98877100  0.98877100  0.39609500  1
  Cl  Cl20  1  0.68561100  0.45207800  0.67142000  1
  Cl  Cl21  1  0.35308800  0.35308800  0.67485900  1
  Cl  Cl22  1  0.95207800  0.18561100  0.82858000  1
  Cl  Cl23  1  0.64691200  0.64691200  0.32514100  1
  Cl  Cl24  1  0.04792200  0.81438900  0.17142000  1
  Cl  Cl25  1  0.31438900  0.54792200  0.32858000  1
  Cl  Cl26  1  0.18561100  0.95207800  0.82858000  1
  Cl  Cl27  1  0.81438900  0.04792200  0.17142000  1
  Cl  Cl28  1  0.14691200  0.14691200  0.17485900  1
  Cl  Cl29  1  0.45207800  0.68561100  0.67142000  1
  Cl  Cl30  1  0.85308800  0.85308800  0.82514100  1
  Cl  Cl31  1  0.54792200  0.31438900  0.32858000  1
