# generated using pymatgen
data_Na2SnSe3
_symmetry_space_group_name_H-M   'P 1'
_cell_length_a   16.53820200
_cell_length_b   6.25308100
_cell_length_c   7.35229934
_cell_angle_alpha   67.27682504
_cell_angle_beta   90.00000000
_cell_angle_gamma   90.00000000
_symmetry_Int_Tables_number   1
_chemical_formula_structural   Na2SnSe3
_chemical_formula_sum   'Na8 Sn4 Se12'
_cell_volume   701.32013839
_cell_formula_units_Z   4
loop_
 _symmetry_equiv_pos_site_id
 _symmetry_equiv_pos_as_xyz
  1  'x, y, z'
loop_
 _atom_site_type_symbol
 _atom_site_label
 _atom_site_symmetry_multiplicity
 _atom_site_fract_x
 _atom_site_fract_y
 _atom_site_fract_z
 _atom_site_occupancy
  Na  Na0  1  0.97425000  0.32366000  0.76476200  1
  Na  Na1  1  0.66617800  0.51176300  0.45155400  1
  Na  Na2  1  0.52575000  0.82366000  0.76476200  1
  Na  Na3  1  0.02575000  0.67634000  0.23523800  1
  Na  Na4  1  0.16617800  0.98823700  0.54844600  1
  Na  Na5  1  0.47425000  0.17634000  0.23523800  1
  Na  Na6  1  0.33382200  0.48823700  0.54844600  1
  Na  Na7  1  0.83382200  0.01176300  0.45155400  1
  Sn  Sn8  1  0.33403100  0.86905500  0.95695700  1
  Sn  Sn9  1  0.16596900  0.36905500  0.95695700  1
  Sn  Sn10  1  0.66596900  0.13094500  0.04304300  1
  Sn  Sn11  1  0.83403100  0.63094500  0.04304300  1
  Se  Se12  1  0.14428800  0.46378000  0.59339700  1
  Se  Se13  1  0.35571200  0.96378000  0.59339700  1
  Se  Se14  1  0.64428800  0.03622000  0.40660300  1
  Se  Se15  1  0.55408400  0.32253000  0.80288200  1
  Se  Se16  1  0.18256800  0.75178400  0.01869300  1
  Se  Se17  1  0.31743200  0.25178400  0.01869300  1
  Se  Se18  1  0.94591600  0.82253000  0.80288200  1
  Se  Se19  1  0.44591600  0.67747000  0.19711800  1
  Se  Se20  1  0.68256800  0.74821600  0.98130700  1
  Se  Se21  1  0.85571200  0.53622000  0.40660300  1
  Se  Se22  1  0.05408400  0.17747000  0.19711800  1
  Se  Se23  1  0.81743200  0.24821600  0.98130700  1
