# generated using pymatgen
data_SrMg
_symmetry_space_group_name_H-M   'P 1'
_cell_length_a   4.17278181
_cell_length_b   4.17278181
_cell_length_c   16.00878800
_cell_angle_alpha   90.00000000
_cell_angle_beta   90.00000000
_cell_angle_gamma   119.99999703
_symmetry_Int_Tables_number   1
_chemical_formula_structural   SrMg
_chemical_formula_sum   'Sr3 Mg3'
_cell_volume   241.40177091
_cell_formula_units_Z   3
loop_
 _symmetry_equiv_pos_site_id
 _symmetry_equiv_pos_as_xyz
  1  'x, y, z'
loop_
 _atom_site_type_symbol
 _atom_site_label
 _atom_site_symmetry_multiplicity
 _atom_site_fract_x
 _atom_site_fract_y
 _atom_site_fract_z
 _atom_site_occupancy
  Sr  Sr0  1  0.00000000  0.00000000  0.98261100  1
  Sr  Sr1  1  0.66666700  0.33333300  0.53224500  1
  Sr  Sr2  1  0.00000000  0.00000000  0.31726500  1
  Mg  Mg3  1  0.66666700  0.33333300  0.81771100  1
  Mg  Mg4  1  0.00000000  0.00000000  0.69930100  1
  Mg  Mg5  1  0.66666700  0.33333300  0.15086800  1
