# generated using pymatgen
data_P4C2Se3N2
_symmetry_space_group_name_H-M   'P 1'
_cell_length_a   6.85375900
_cell_length_b   12.51167900
_cell_length_c   14.24437576
_cell_angle_alpha   72.46563389
_cell_angle_beta   90.00000000
_cell_angle_gamma   90.00000000
_symmetry_Int_Tables_number   1
_chemical_formula_structural   P4C2Se3N2
_chemical_formula_sum   'P16 C8 Se12 N8'
_cell_volume   1164.72964044
_cell_formula_units_Z   4
loop_
 _symmetry_equiv_pos_site_id
 _symmetry_equiv_pos_as_xyz
  1  'x, y, z'
loop_
 _atom_site_type_symbol
 _atom_site_label
 _atom_site_symmetry_multiplicity
 _atom_site_fract_x
 _atom_site_fract_y
 _atom_site_fract_z
 _atom_site_occupancy
  P  P0  1  0.49891900  0.13559500  0.10514400  1
  P  P1  1  0.29318200  0.24896700  0.14895900  1
  P  P2  1  0.46259000  0.11761800  0.39535400  1
  P  P3  1  0.70681800  0.75103300  0.85104100  1
  P  P4  1  0.22869200  0.50649300  0.33986200  1
  P  P5  1  0.96259000  0.38238200  0.60464600  1
  P  P6  1  0.27130800  0.00649300  0.33986200  1
  P  P7  1  0.53741000  0.88238200  0.60464600  1
  P  P8  1  0.20681800  0.74896700  0.14895900  1
  P  P9  1  0.03741000  0.61761800  0.39535400  1
  P  P10  1  0.77130800  0.49350700  0.66013800  1
  P  P11  1  0.50108100  0.86440500  0.89485600  1
  P  P12  1  0.99891900  0.36440500  0.89485600  1
  P  P13  1  0.72869200  0.99350700  0.66013800  1
  P  P14  1  0.79318200  0.25103300  0.85104100  1
  P  P15  1  0.00108100  0.63559500  0.10514400  1
  C  C16  1  0.77915500  0.33786800  0.53532100  1
  C  C17  1  0.16453800  0.59325400  0.02513100  1
  C  C18  1  0.72084500  0.83786800  0.53532100  1
  C  C19  1  0.33546200  0.09325400  0.02513100  1
  C  C20  1  0.27915500  0.16213200  0.46467900  1
  C  C21  1  0.22084500  0.66213200  0.46467900  1
  C  C22  1  0.66453800  0.90674600  0.97486900  1
  C  C23  1  0.83546200  0.40674600  0.97486900  1
  Se  Se24  1  0.49975600  0.27856600  0.26486700  1
  Se  Se25  1  0.50024400  0.72143400  0.73513300  1
  Se  Se26  1  0.50482600  0.97385600  0.23671500  1
  Se  Se27  1  0.56498100  0.37048900  0.76211400  1
  Se  Se28  1  0.99975600  0.22143400  0.73513300  1
  Se  Se29  1  0.99517400  0.47385600  0.23671500  1
  Se  Se30  1  0.06498100  0.12951100  0.23788600  1
  Se  Se31  1  0.93501900  0.87048900  0.76211400  1
  Se  Se32  1  0.49517400  0.02614400  0.76328500  1
  Se  Se33  1  0.00482600  0.52614400  0.76328500  1
  Se  Se34  1  0.43501900  0.62951100  0.23788600  1
  Se  Se35  1  0.00024400  0.77856600  0.26486700  1
  N  N36  1  0.74256100  0.42980200  0.03519300  1
  N  N37  1  0.33152700  0.68656300  0.51748700  1
  N  N38  1  0.24256100  0.07019800  0.96480700  1
  N  N39  1  0.66847300  0.31343700  0.48251300  1
  N  N40  1  0.75743900  0.92980200  0.03519300  1
  N  N41  1  0.83152700  0.81343700  0.48251300  1
  N  N42  1  0.16847300  0.18656300  0.51748700  1
  N  N43  1  0.25743900  0.57019800  0.96480700  1
