# generated using pymatgen
data_MgTi2
_symmetry_space_group_name_H-M   'P 1'
_cell_length_a   5.71979085
_cell_length_b   5.71979085
_cell_length_c   5.71979119
_cell_angle_alpha   53.28152214
_cell_angle_beta   53.28152214
_cell_angle_gamma   53.28151924
_symmetry_Int_Tables_number   1
_chemical_formula_structural   MgTi2
_chemical_formula_sum   'Mg2 Ti4'
_cell_volume   111.50268242
_cell_formula_units_Z   2
loop_
 _symmetry_equiv_pos_site_id
 _symmetry_equiv_pos_as_xyz
  1  'x, y, z'
loop_
 _atom_site_type_symbol
 _atom_site_label
 _atom_site_symmetry_multiplicity
 _atom_site_fract_x
 _atom_site_fract_y
 _atom_site_fract_z
 _atom_site_occupancy
  Mg  Mg0  1  0.16647100  0.16647100  0.16647100  1
  Mg  Mg1  1  0.83352900  0.83352900  0.83352900  1
  Ti  Ti2  1  0.33472900  0.00000000  0.66527100  1
  Ti  Ti3  1  0.66527100  0.33472900  0.00000000  1
  Ti  Ti4  1  0.50000000  0.50000000  0.50000000  1
  Ti  Ti5  1  0.00000000  0.66527100  0.33472900  1
