# generated using pymatgen
data_CuH8C2(N6Cl)2
_symmetry_space_group_name_H-M   'P 1'
_cell_length_a   6.81053100
_cell_length_b   6.70956800
_cell_length_c   12.32194838
_cell_angle_alpha   84.37605196
_cell_angle_beta   90.00000000
_cell_angle_gamma   90.00000000
_symmetry_Int_Tables_number   1
_chemical_formula_structural   CuH8C2(N6Cl)2
_chemical_formula_sum   'Cu2 H16 C4 N24 Cl4'
_cell_volume   560.35003737
_cell_formula_units_Z   2
loop_
 _symmetry_equiv_pos_site_id
 _symmetry_equiv_pos_as_xyz
  1  'x, y, z'
loop_
 _atom_site_type_symbol
 _atom_site_label
 _atom_site_symmetry_multiplicity
 _atom_site_fract_x
 _atom_site_fract_y
 _atom_site_fract_z
 _atom_site_occupancy
  Cu  Cu0  1  0.00000000  0.00000000  0.00000000  1
  Cu  Cu1  1  0.50000000  0.00000000  0.50000000  1
  H  H2  1  0.66703000  0.40090500  0.58073500  1
  H  H3  1  0.63124500  0.28471700  0.04160100  1
  H  H4  1  0.83297000  0.40090500  0.08073500  1
  H  H5  1  0.13124500  0.71528300  0.45839900  1
  H  H6  1  0.85706100  0.79509200  0.79279100  1
  H  H7  1  0.16712700  0.11296300  0.34414800  1
  H  H8  1  0.33287300  0.11296300  0.84414800  1
  H  H9  1  0.83287300  0.88703700  0.65585200  1
  H  H10  1  0.66712700  0.88703700  0.15585200  1
  H  H11  1  0.16703000  0.59909500  0.91926500  1
  H  H12  1  0.35706100  0.20490800  0.70720900  1
  H  H13  1  0.36875500  0.71528300  0.95839900  1
  H  H14  1  0.86875500  0.28471700  0.54160100  1
  H  H15  1  0.14293900  0.20490800  0.20720900  1
  H  H16  1  0.33297000  0.59909500  0.41926500  1
  H  H17  1  0.64293900  0.79509200  0.29279100  1
  C  C18  1  0.86896200  0.09637500  0.76492700  1
  C  C19  1  0.36896200  0.90362500  0.73507300  1
  C  C20  1  0.63103800  0.09637500  0.26492700  1
  C  C21  1  0.13103800  0.90362500  0.23507300  1
  N  N22  1  0.58091400  0.15627100  0.36252400  1
  N  N23  1  0.25175800  0.72582400  0.90530100  1
  N  N24  1  0.40024500  0.64066400  0.64485600  1
  N  N25  1  0.74824200  0.27417600  0.09469900  1
  N  N26  1  0.24824200  0.72582400  0.40530100  1
  N  N27  1  0.65404600  0.42787800  0.25845200  1
  N  N28  1  0.62752800  0.91136700  0.23381800  1
  N  N29  1  0.15404600  0.57212200  0.24154800  1
  N  N30  1  0.87247200  0.91136700  0.73381800  1
  N  N31  1  0.12752800  0.08863300  0.26618200  1
  N  N32  1  0.75175800  0.27417600  0.59469900  1
  N  N33  1  0.34595400  0.57212200  0.74154800  1
  N  N34  1  0.82369400  0.26575000  0.70041400  1
  N  N35  1  0.90024500  0.35933600  0.85514400  1
  N  N36  1  0.17630600  0.73425000  0.29958600  1
  N  N37  1  0.84595400  0.42787800  0.75845200  1
  N  N38  1  0.37247200  0.08863300  0.76618200  1
  N  N39  1  0.41908600  0.84372900  0.63747600  1
  N  N40  1  0.32369400  0.73425000  0.79958600  1
  N  N41  1  0.59975500  0.35933600  0.35514400  1
  N  N42  1  0.67630600  0.26575000  0.20041400  1
  N  N43  1  0.91908600  0.15627100  0.86252400  1
  N  N44  1  0.08091400  0.84372900  0.13747600  1
  N  N45  1  0.09975500  0.64066400  0.14485600  1
  Cl  Cl46  1  0.76973700  0.78719600  0.48663200  1
  Cl  Cl47  1  0.23026300  0.21280400  0.51336800  1
  Cl  Cl48  1  0.26973700  0.21280400  0.01336800  1
  Cl  Cl49  1  0.73026300  0.78719600  0.98663200  1
