# generated using pymatgen
data_SrAg
_symmetry_space_group_name_H-M   'P 1'
_cell_length_a   4.84330300
_cell_length_b   6.42338400
_cell_length_c   41.56685400
_cell_angle_alpha   90.00000000
_cell_angle_beta   90.00000000
_cell_angle_gamma   90.00000000
_symmetry_Int_Tables_number   1
_chemical_formula_structural   SrAg
_chemical_formula_sum   'Sr20 Ag20'
_cell_volume   1293.16124674
_cell_formula_units_Z   20
loop_
 _symmetry_equiv_pos_site_id
 _symmetry_equiv_pos_as_xyz
  1  'x, y, z'
loop_
 _atom_site_type_symbol
 _atom_site_label
 _atom_site_symmetry_multiplicity
 _atom_site_fract_x
 _atom_site_fract_y
 _atom_site_fract_z
 _atom_site_occupancy
  Sr  Sr0  1  0.75000000  0.86656400  0.63607800  1
  Sr  Sr1  1  0.75000000  0.62663900  0.33607500  1
  Sr  Sr2  1  0.75000000  0.63269500  0.93600300  1
  Sr  Sr3  1  0.75000000  0.87336100  0.83607500  1
  Sr  Sr4  1  0.25000000  0.13343600  0.36392200  1
  Sr  Sr5  1  0.25000000  0.89257600  0.26411300  1
  Sr  Sr6  1  0.25000000  0.13255300  0.96407000  1
  Sr  Sr7  1  0.25000000  0.36656400  0.86392200  1
  Sr  Sr8  1  0.75000000  0.39257600  0.23588700  1
  Sr  Sr9  1  0.25000000  0.13269500  0.56399700  1
  Sr  Sr10  1  0.75000000  0.86730500  0.43600300  1
  Sr  Sr11  1  0.25000000  0.12663900  0.16392500  1
  Sr  Sr12  1  0.75000000  0.63343600  0.13607800  1
  Sr  Sr13  1  0.25000000  0.36730500  0.06399700  1
  Sr  Sr14  1  0.75000000  0.63255300  0.53593000  1
  Sr  Sr15  1  0.75000000  0.10742400  0.73588700  1
  Sr  Sr16  1  0.25000000  0.37336100  0.66392500  1
  Sr  Sr17  1  0.25000000  0.36744700  0.46407000  1
  Sr  Sr18  1  0.75000000  0.86744700  0.03593000  1
  Sr  Sr19  1  0.25000000  0.60742400  0.76411300  1
  Ag  Ag20  1  0.75000000  0.37685000  0.60692600  1
  Ag  Ag21  1  0.25000000  0.87670500  0.49301500  1
  Ag  Ag22  1  0.75000000  0.13685200  0.30697500  1
  Ag  Ag23  1  0.75000000  0.12329500  0.50698500  1
  Ag  Ag24  1  0.75000000  0.61643200  0.70716300  1
  Ag  Ag25  1  0.25000000  0.62390900  0.59284100  1
  Ag  Ag26  1  0.75000000  0.36314800  0.80697500  1
  Ag  Ag27  1  0.25000000  0.62329500  0.99301500  1
  Ag  Ag28  1  0.25000000  0.38356800  0.29283700  1
  Ag  Ag29  1  0.75000000  0.37609100  0.40715900  1
  Ag  Ag30  1  0.25000000  0.87685000  0.89307400  1
  Ag  Ag31  1  0.75000000  0.88356800  0.20716300  1
  Ag  Ag32  1  0.25000000  0.11643200  0.79283700  1
  Ag  Ag33  1  0.75000000  0.12390900  0.90715900  1
  Ag  Ag34  1  0.75000000  0.37670500  0.00698500  1
  Ag  Ag35  1  0.75000000  0.12315000  0.10692600  1
  Ag  Ag36  1  0.25000000  0.86314800  0.69302500  1
  Ag  Ag37  1  0.25000000  0.87609100  0.09284100  1
  Ag  Ag38  1  0.25000000  0.62315000  0.39307400  1
  Ag  Ag39  1  0.25000000  0.63685200  0.19302500  1
