# generated using pymatgen
data_MgTi5
_symmetry_space_group_name_H-M   'P 1'
_cell_length_a   7.79588381
_cell_length_b   7.79588381
_cell_length_c   4.82052800
_cell_angle_alpha   90.00000000
_cell_angle_beta   90.00000000
_cell_angle_gamma   158.46172283
_symmetry_Int_Tables_number   1
_chemical_formula_structural   MgTi5
_chemical_formula_sum   'Mg1 Ti5'
_cell_volume   107.55648233
_cell_formula_units_Z   1
loop_
 _symmetry_equiv_pos_site_id
 _symmetry_equiv_pos_as_xyz
  1  'x, y, z'
loop_
 _atom_site_type_symbol
 _atom_site_label
 _atom_site_symmetry_multiplicity
 _atom_site_fract_x
 _atom_site_fract_y
 _atom_site_fract_z
 _atom_site_occupancy
  Mg  Mg0  1  0.77596600  0.22403400  0.50000000  1
  Ti  Ti1  1  0.00032300  0.99967700  0.00000000  1
  Ti  Ti2  1  0.33784100  0.66215900  0.00000000  1
  Ti  Ti3  1  0.66207000  0.33793000  0.00000000  1
  Ti  Ti4  1  0.10848000  0.89152000  0.50000000  1
  Ti  Ti5  1  0.44865300  0.55134700  0.50000000  1
