# generated using pymatgen
data_H9C4Se2N
_symmetry_space_group_name_H-M   'P 1'
_cell_length_a   7.34552700
_cell_length_b   9.46004600
_cell_length_c   11.68343767
_cell_angle_alpha   86.86851597
_cell_angle_beta   90.00000000
_cell_angle_gamma   90.00000000
_symmetry_Int_Tables_number   1
_chemical_formula_structural   H9C4Se2N
_chemical_formula_sum   'H36 C16 Se8 N4'
_cell_volume   810.65839007
_cell_formula_units_Z   4
loop_
 _symmetry_equiv_pos_site_id
 _symmetry_equiv_pos_as_xyz
  1  'x, y, z'
loop_
 _atom_site_type_symbol
 _atom_site_label
 _atom_site_symmetry_multiplicity
 _atom_site_fract_x
 _atom_site_fract_y
 _atom_site_fract_z
 _atom_site_occupancy
  H  H0  1  0.49903200  0.35993600  0.34370500  1
  H  H1  1  0.32190400  0.98860800  0.83219500  1
  H  H2  1  0.00096800  0.35993600  0.84370500  1
  H  H3  1  0.49955200  0.72242000  0.28020300  1
  H  H4  1  0.37518100  0.33806400  0.59293300  1
  H  H5  1  0.04634100  0.15673700  0.10844700  1
  H  H6  1  0.62481900  0.66193600  0.40706700  1
  H  H7  1  0.25655800  0.39667400  0.34791400  1
  H  H8  1  0.75655800  0.60332600  0.15208600  1
  H  H9  1  0.50044800  0.27758000  0.71979700  1
  H  H10  1  0.99955200  0.27758000  0.21979700  1
  H  H11  1  0.35363500  0.06654200  0.41617000  1
  H  H12  1  0.17809600  0.98860800  0.33219500  1
  H  H13  1  0.12481900  0.33806400  0.09293300  1
  H  H14  1  0.50096800  0.64006400  0.65629500  1
  H  H15  1  0.13229400  0.15178000  0.40281600  1
  H  H16  1  0.95365900  0.84326300  0.89155300  1
  H  H17  1  0.88903500  0.54846600  0.27770500  1
  H  H18  1  0.82190400  0.01139200  0.66780500  1
  H  H19  1  0.99903200  0.64006400  0.15629500  1
  H  H20  1  0.67809600  0.01139200  0.16780500  1
  H  H21  1  0.87518100  0.66193600  0.90706700  1
  H  H22  1  0.74344200  0.60332600  0.65208600  1
  H  H23  1  0.64636500  0.93345800  0.58383000  1
  H  H24  1  0.11096500  0.45153400  0.72229500  1
  H  H25  1  0.36770600  0.15178000  0.90281600  1
  H  H26  1  0.85363500  0.93345800  0.08383000  1
  H  H27  1  0.54634100  0.84326300  0.39155300  1
  H  H28  1  0.45365900  0.15673700  0.60844700  1
  H  H29  1  0.63229400  0.84822000  0.09718400  1
  H  H30  1  0.86770600  0.84822000  0.59718400  1
  H  H31  1  0.14636500  0.06654200  0.91617000  1
  H  H32  1  0.00044800  0.72242000  0.78020300  1
  H  H33  1  0.61096500  0.54846600  0.77770500  1
  H  H34  1  0.24344200  0.39667400  0.84791400  1
  H  H35  1  0.38903500  0.45153400  0.22229500  1
  C  C36  1  0.23460900  0.08732300  0.36149300  1
  C  C37  1  0.90520000  0.75190900  0.84693800  1
  C  C38  1  0.26539100  0.08732300  0.86149300  1
  C  C39  1  0.76539100  0.91267700  0.63850700  1
  C  C40  1  0.23519200  0.80147000  0.57992200  1
  C  C41  1  0.37313800  0.37223400  0.29382100  1
  C  C42  1  0.09480000  0.24809100  0.15306200  1
  C  C43  1  0.73519200  0.19853000  0.92007800  1
  C  C44  1  0.73460900  0.91267700  0.13850700  1
  C  C45  1  0.76480800  0.19853000  0.42007800  1
  C  C46  1  0.62686200  0.62776600  0.70617900  1
  C  C47  1  0.59480000  0.75190900  0.34693800  1
  C  C48  1  0.87313800  0.62776600  0.20617900  1
  C  C49  1  0.26480800  0.80147000  0.07992200  1
  C  C50  1  0.40520000  0.24809100  0.65306200  1
  C  C51  1  0.12686200  0.37223400  0.79382100  1
  Se  Se52  1  0.67341200  0.80796500  0.77509100  1
  Se  Se53  1  0.17341200  0.19203500  0.72490900  1
  Se  Se54  1  0.32658800  0.19203500  0.22490900  1
  Se  Se55  1  0.64082700  0.35093700  0.98568600  1
  Se  Se56  1  0.82658800  0.80796500  0.27509100  1
  Se  Se57  1  0.85917300  0.35093700  0.48568600  1
  Se  Se58  1  0.14082700  0.64906300  0.51431400  1
  Se  Se59  1  0.35917300  0.64906300  0.01431400  1
  N  N60  1  0.70116400  0.09952300  0.37633800  1
  N  N61  1  0.29883600  0.90047700  0.62366200  1
  N  N62  1  0.20116400  0.90047700  0.12366200  1
  N  N63  1  0.79883600  0.09952300  0.87633800  1
