# generated using pymatgen
data_CsReBrCl3
_symmetry_space_group_name_H-M   'P 1'
_cell_length_a   10.29389739
_cell_length_b   10.29389739
_cell_length_c   11.09723200
_cell_angle_alpha   90.00000000
_cell_angle_beta   90.00000000
_cell_angle_gamma   90.43995526
_symmetry_Int_Tables_number   1
_chemical_formula_structural   CsReBrCl3
_chemical_formula_sum   'Cs6 Re6 Br6 Cl18'
_cell_volume   1175.87601380
_cell_formula_units_Z   6
loop_
 _symmetry_equiv_pos_site_id
 _symmetry_equiv_pos_as_xyz
  1  'x, y, z'
loop_
 _atom_site_type_symbol
 _atom_site_label
 _atom_site_symmetry_multiplicity
 _atom_site_fract_x
 _atom_site_fract_y
 _atom_site_fract_z
 _atom_site_occupancy
  Cs  Cs0  1  0.43279300  0.79637600  0.75000000  1
  Cs  Cs1  1  0.00435600  0.00435600  0.50000000  1
  Cs  Cs2  1  0.48775300  0.29558500  0.75000000  1
  Cs  Cs3  1  0.79637600  0.43279300  0.25000000  1
  Cs  Cs4  1  0.00435600  0.00435600  0.00000000  1
  Cs  Cs5  1  0.29558500  0.48775300  0.25000000  1
  Re  Re6  1  0.91806700  0.63424900  0.75000000  1
  Re  Re7  1  0.01179700  0.44910700  0.63808500  1
  Re  Re8  1  0.01179700  0.44910700  0.86191500  1
  Re  Re9  1  0.44910700  0.01179700  0.13808500  1
  Re  Re10  1  0.63424900  0.91806700  0.25000000  1
  Re  Re11  1  0.44910700  0.01179700  0.36191500  1
  Br  Br12  1  0.25421200  0.11166100  0.25000000  1
  Br  Br13  1  0.63968800  0.91647200  0.48220000  1
  Br  Br14  1  0.91647200  0.63968800  0.98220000  1
  Br  Br15  1  0.63968800  0.91647200  0.01780000  1
  Br  Br16  1  0.91647200  0.63968800  0.51780000  1
  Br  Br17  1  0.11166100  0.25421200  0.75000000  1
  Cl  Cl18  1  0.52819800  0.22240000  0.10266600  1
  Cl  Cl19  1  0.82293400  0.32868800  0.89595000  1
  Cl  Cl20  1  0.32868800  0.82293400  0.39595000  1
  Cl  Cl21  1  0.06316400  0.33936700  0.07010300  1
  Cl  Cl22  1  0.33936700  0.06316400  0.57010300  1
  Cl  Cl23  1  0.22240000  0.52819800  0.60266600  1
  Cl  Cl24  1  0.80751800  0.86334600  0.75000000  1
  Cl  Cl25  1  0.22240000  0.52819800  0.89733400  1
  Cl  Cl26  1  0.06316400  0.33936700  0.42989700  1
  Cl  Cl27  1  0.32868800  0.82293400  0.10405000  1
  Cl  Cl28  1  0.86334600  0.80751900  0.25000000  1
  Cl  Cl29  1  0.09804500  0.77401100  0.75000000  1
  Cl  Cl30  1  0.52819800  0.22240000  0.39733400  1
  Cl  Cl31  1  0.69941900  0.57204400  0.75000000  1
  Cl  Cl32  1  0.77401100  0.09804500  0.25000000  1
  Cl  Cl33  1  0.33936700  0.06316400  0.92989700  1
  Cl  Cl34  1  0.57204400  0.69941900  0.25000000  1
  Cl  Cl35  1  0.82293400  0.32868800  0.60405000  1
