# generated using pymatgen
data_MgTi
_symmetry_space_group_name_H-M   'P 1'
_cell_length_a   5.26489647
_cell_length_b   5.26489647
_cell_length_c   5.91145551
_cell_angle_alpha   60.37675035
_cell_angle_beta   60.37675035
_cell_angle_gamma   59.53533794
_symmetry_Int_Tables_number   1
_chemical_formula_structural   MgTi
_chemical_formula_sum   'Mg3 Ti3'
_cell_volume   116.10304096
_cell_formula_units_Z   3
loop_
 _symmetry_equiv_pos_site_id
 _symmetry_equiv_pos_as_xyz
  1  'x, y, z'
loop_
 _atom_site_type_symbol
 _atom_site_label
 _atom_site_symmetry_multiplicity
 _atom_site_fract_x
 _atom_site_fract_y
 _atom_site_fract_z
 _atom_site_occupancy
  Mg  Mg0  1  0.33529900  0.66470100  0.00000000  1
  Mg  Mg1  1  0.16247500  0.16428500  0.50362600  1
  Mg  Mg2  1  0.83571500  0.83752500  0.49637400  1
  Ti  Ti3  1  0.65859500  0.99449400  0.00706600  1
  Ti  Ti4  1  0.00550600  0.34140500  0.99293400  1
  Ti  Ti5  1  0.50240900  0.49759100  0.50000000  1
