# generated using pymatgen
data_MoCl4
_symmetry_space_group_name_H-M   'P 1'
_cell_length_a   12.64668297
_cell_length_b   12.64668297
_cell_length_c   6.38817200
_cell_angle_alpha   90.00000000
_cell_angle_beta   90.00000000
_cell_angle_gamma   120.00000505
_symmetry_Int_Tables_number   1
_chemical_formula_structural   MoCl4
_chemical_formula_sum   'Mo6 Cl24'
_cell_volume   884.83129309
_cell_formula_units_Z   6
loop_
 _symmetry_equiv_pos_site_id
 _symmetry_equiv_pos_as_xyz
  1  'x, y, z'
loop_
 _atom_site_type_symbol
 _atom_site_label
 _atom_site_symmetry_multiplicity
 _atom_site_fract_x
 _atom_site_fract_y
 _atom_site_fract_z
 _atom_site_occupancy
  Mo  Mo0  1  0.82786400  0.65572800  0.00000000  1
  Mo  Mo1  1  0.17213600  0.82786400  0.00000000  1
  Mo  Mo2  1  0.17213600  0.34427200  0.00000000  1
  Mo  Mo3  1  0.82786400  0.17213600  0.00000000  1
  Mo  Mo4  1  0.34427200  0.17213600  0.00000000  1
  Mo  Mo5  1  0.65572800  0.82786400  0.00000000  1
  Cl  Cl6  1  0.17120400  0.47917700  0.76715400  1
  Cl  Cl7  1  0.00000000  0.67390800  0.79009400  1
  Cl  Cl8  1  0.82879600  0.30797300  0.76715400  1
  Cl  Cl9  1  0.17203700  0.00000000  0.80441500  1
  Cl  Cl10  1  0.82879600  0.52082300  0.23284600  1
  Cl  Cl11  1  0.67390800  0.67390800  0.20990600  1
  Cl  Cl12  1  0.00000000  0.82796300  0.19558500  1
  Cl  Cl13  1  0.00000000  0.17203700  0.80441500  1
  Cl  Cl14  1  0.47917700  0.17120400  0.76715400  1
  Cl  Cl15  1  0.17120400  0.69202700  0.23284600  1
  Cl  Cl16  1  0.32609200  0.00000000  0.20990600  1
  Cl  Cl17  1  0.32609200  0.32609200  0.79009400  1
  Cl  Cl18  1  0.69202700  0.17120400  0.23284600  1
  Cl  Cl19  1  0.30797300  0.82879600  0.76715400  1
  Cl  Cl20  1  0.17203700  0.17203700  0.19558500  1
  Cl  Cl21  1  0.30797300  0.47917700  0.23284600  1
  Cl  Cl22  1  0.67390800  0.00000000  0.79009400  1
  Cl  Cl23  1  0.52082300  0.69202700  0.76715400  1
  Cl  Cl24  1  0.82796300  0.82796300  0.80441500  1
  Cl  Cl25  1  0.47917700  0.30797300  0.23284600  1
  Cl  Cl26  1  0.52082300  0.82879600  0.23284600  1
  Cl  Cl27  1  0.69202700  0.52082300  0.76715400  1
  Cl  Cl28  1  0.82796300  0.00000000  0.19558500  1
  Cl  Cl29  1  0.00000000  0.32609200  0.20990600  1
