# generated using pymatgen
data_AgSe3I
_symmetry_space_group_name_H-M   'P 1'
_cell_length_a   5.10159700
_cell_length_b   8.25125800
_cell_length_c   15.05009000
_cell_angle_alpha   90.00000000
_cell_angle_beta   90.00000000
_cell_angle_gamma   90.00000000
_symmetry_Int_Tables_number   1
_chemical_formula_structural   AgSe3I
_chemical_formula_sum   'Ag4 Se12 I4'
_cell_volume   633.52741405
_cell_formula_units_Z   4
loop_
 _symmetry_equiv_pos_site_id
 _symmetry_equiv_pos_as_xyz
  1  'x, y, z'
loop_
 _atom_site_type_symbol
 _atom_site_label
 _atom_site_symmetry_multiplicity
 _atom_site_fract_x
 _atom_site_fract_y
 _atom_site_fract_z
 _atom_site_occupancy
  Ag  Ag0  1  0.69770800  0.25000000  0.75000000  1
  Ag  Ag1  1  0.30229200  0.75000000  0.25000000  1
  Ag  Ag2  1  0.30229200  0.75000000  0.75000000  1
  Ag  Ag3  1  0.69770800  0.25000000  0.25000000  1
  Se  Se4  1  0.38566200  0.36979500  0.62113200  1
  Se  Se5  1  0.61433800  0.86979500  0.87886800  1
  Se  Se6  1  0.60080100  0.26104300  0.00000000  1
  Se  Se7  1  0.61433800  0.86979500  0.12113200  1
  Se  Se8  1  0.39919900  0.73895700  0.00000000  1
  Se  Se9  1  0.61433800  0.63020500  0.62113200  1
  Se  Se10  1  0.38566200  0.36979500  0.37886800  1
  Se  Se11  1  0.60080100  0.23895700  0.50000000  1
  Se  Se12  1  0.39919900  0.76104300  0.50000000  1
  Se  Se13  1  0.61433800  0.63020500  0.37886800  1
  Se  Se14  1  0.38566200  0.13020500  0.12113200  1
  Se  Se15  1  0.38566200  0.13020500  0.87886800  1
  I  I16  1  0.00000000  0.50000000  0.16577500  1
  I  I17  1  0.00000000  0.00000000  0.33422500  1
  I  I18  1  0.00000000  0.00000000  0.66577500  1
  I  I19  1  0.00000000  0.50000000  0.83422500  1
