# generated using pymatgen
data_H3AuC2NCl
_symmetry_space_group_name_H-M   'P 1'
_cell_length_a   6.62326700
_cell_length_b   4.43352400
_cell_length_c   9.26180982
_cell_angle_alpha   88.80457084
_cell_angle_beta   90.00000000
_cell_angle_gamma   90.00000000
_symmetry_Int_Tables_number   1
_chemical_formula_structural   H3AuC2NCl
_chemical_formula_sum   'H6 Au2 C4 N2 Cl2'
_cell_volume   271.90841719
_cell_formula_units_Z   2
loop_
 _symmetry_equiv_pos_site_id
 _symmetry_equiv_pos_as_xyz
  1  'x, y, z'
loop_
 _atom_site_type_symbol
 _atom_site_label
 _atom_site_symmetry_multiplicity
 _atom_site_fract_x
 _atom_site_fract_y
 _atom_site_fract_z
 _atom_site_occupancy
  H  H0  1  0.39341900  0.23430100  0.15799100  1
  H  H1  1  0.38481800  0.60337300  0.07630800  1
  H  H2  1  0.65521700  0.60640800  0.89785000  1
  H  H3  1  0.89341900  0.76569900  0.84200900  1
  H  H4  1  0.88481800  0.39662700  0.92369200  1
  H  H5  1  0.15521700  0.39359200  0.10215000  1
  Au  Au6  1  0.27223000  0.85707300  0.58680300  1
  Au  Au7  1  0.77223000  0.14292700  0.41319700  1
  C  C8  1  0.77338800  0.32068000  0.60156100  1
  C  C9  1  0.27338800  0.67932000  0.39843900  1
  C  C10  1  0.80435200  0.55728000  0.85261300  1
  C  C11  1  0.30435200  0.44272000  0.14738700  1
  N  N12  1  0.28218800  0.57090500  0.28484700  1
  N  N13  1  0.78218800  0.42909500  0.71515300  1
  Cl  Cl14  1  0.78029700  0.94073000  0.18814600  1
  Cl  Cl15  1  0.28029700  0.05927000  0.81185400  1
