# generated using pymatgen
data_MgTi
_symmetry_space_group_name_H-M   'P 1'
_cell_length_a   8.55672051
_cell_length_b   8.55672051
_cell_length_c   4.76811800
_cell_angle_alpha   90.00000000
_cell_angle_beta   90.00000000
_cell_angle_gamma   146.04122469
_symmetry_Int_Tables_number   1
_chemical_formula_structural   MgTi
_chemical_formula_sum   'Mg5 Ti5'
_cell_volume   195.01127084
_cell_formula_units_Z   5
loop_
 _symmetry_equiv_pos_site_id
 _symmetry_equiv_pos_as_xyz
  1  'x, y, z'
loop_
 _atom_site_type_symbol
 _atom_site_label
 _atom_site_symmetry_multiplicity
 _atom_site_fract_x
 _atom_site_fract_y
 _atom_site_fract_z
 _atom_site_occupancy
  Mg  Mg0  1  0.01897400  0.23016900  0.00000000  1
  Mg  Mg1  1  0.23536400  0.23536400  0.50000000  1
  Mg  Mg2  1  0.83570000  0.62661400  0.50000000  1
  Mg  Mg3  1  0.62661400  0.83570000  0.50000000  1
  Mg  Mg4  1  0.23016900  0.01897400  0.00000000  1
  Ti  Ti5  1  0.82888100  0.41844200  0.00000000  1
  Ti  Ti6  1  0.04644800  0.46309400  0.50000000  1
  Ti  Ti7  1  0.62951400  0.62951400  0.00000000  1
  Ti  Ti8  1  0.41844200  0.82888100  0.00000000  1
  Ti  Ti9  1  0.46309400  0.04644800  0.50000000  1
