# generated using pymatgen
data_Cs2Se
_symmetry_space_group_name_H-M   'P 1'
_cell_length_a   11.84438451
_cell_length_b   10.99562174
_cell_length_c   5.91599047
_cell_angle_alpha   83.10736612
_cell_angle_beta   67.16572483
_cell_angle_gamma   29.72690905
_symmetry_Int_Tables_number   1
_chemical_formula_structural   Cs2Se
_chemical_formula_sum   'Cs4 Se2'
_cell_volume   309.89171866
_cell_formula_units_Z   2
loop_
 _symmetry_equiv_pos_site_id
 _symmetry_equiv_pos_as_xyz
  1  'x, y, z'
loop_
 _atom_site_type_symbol
 _atom_site_label
 _atom_site_symmetry_multiplicity
 _atom_site_fract_x
 _atom_site_fract_y
 _atom_site_fract_z
 _atom_site_occupancy
  Cs  Cs0  1  0.78305600  0.34344200  0.56281000  1
  Cs  Cs1  1  0.31069200  0.56281000  0.34344200  1
  Cs  Cs2  1  0.68719000  0.93930800  0.46694400  1
  Cs  Cs3  1  0.90655800  0.46694400  0.93930800  1
  Se  Se4  1  0.02985200  0.97014800  0.97014800  1
  Se  Se5  1  0.27985200  0.22014800  0.22014800  1
