# generated using pymatgen
data_Ag5Te2Cl
_symmetry_space_group_name_H-M   'P 1'
_cell_length_a   7.79291500
_cell_length_b   19.71865900
_cell_length_c   19.89901005
_cell_angle_alpha   89.96826404
_cell_angle_beta   90.00000000
_cell_angle_gamma   90.00000000
_symmetry_Int_Tables_number   1
_chemical_formula_structural   Ag5Te2Cl
_chemical_formula_sum   'Ag80 Te32 Cl16'
_cell_volume   3057.79749650
_cell_formula_units_Z   16
loop_
 _symmetry_equiv_pos_site_id
 _symmetry_equiv_pos_as_xyz
  1  'x, y, z'
loop_
 _atom_site_type_symbol
 _atom_site_label
 _atom_site_symmetry_multiplicity
 _atom_site_fract_x
 _atom_site_fract_y
 _atom_site_fract_z
 _atom_site_occupancy
  Ag  Ag0  1  0.00991300  0.86790200  0.73677400  1
  Ag  Ag1  1  0.12453800  0.98797600  0.08921600  1
  Ag  Ag2  1  0.75562400  0.20488000  0.59179700  1
  Ag  Ag3  1  0.25562400  0.79512000  0.90820300  1
  Ag  Ag4  1  0.10828700  0.93226100  0.49990800  1
  Ag  Ag5  1  0.87546200  0.01202400  0.91078400  1
  Ag  Ag6  1  0.85777900  0.43719100  0.68213000  1
  Ag  Ag7  1  0.78724500  0.71855300  0.07726600  1
  Ag  Ag8  1  0.94997900  0.83398200  0.59496900  1
  Ag  Ag9  1  0.11476300  0.83400300  0.23449500  1
  Ag  Ag10  1  0.99132200  0.38578300  0.23668100  1
  Ag  Ag11  1  0.35530500  0.06788600  0.31348500  1
  Ag  Ag12  1  0.09016700  0.25900100  0.16982500  1
  Ag  Ag13  1  0.40983300  0.25900100  0.66982500  1
  Ag  Ag14  1  0.64222100  0.43719100  0.18213000  1
  Ag  Ag15  1  0.49008700  0.86790200  0.23677400  1
  Ag  Ag16  1  0.57952100  0.31041300  0.52167100  1
  Ag  Ag17  1  0.97937800  0.49154900  0.12974400  1
  Ag  Ag18  1  0.25542100  0.18132300  0.53049400  1
  Ag  Ag19  1  0.56364600  0.28376500  0.98831700  1
  Ag  Ag20  1  0.43635400  0.71623500  0.01168300  1
  Ag  Ag21  1  0.99008700  0.13209800  0.26322600  1
  Ag  Ag22  1  0.35777900  0.56280900  0.81787000  1
  Ag  Ag23  1  0.74437600  0.20488000  0.09179700  1
  Ag  Ag24  1  0.55002100  0.83398200  0.09496900  1
  Ag  Ag25  1  0.01568200  0.01939300  0.36788400  1
  Ag  Ag26  1  0.47937800  0.50845100  0.37025600  1
  Ag  Ag27  1  0.49132200  0.61421700  0.26331900  1
  Ag  Ag28  1  0.62852100  0.65934200  0.76483300  1
  Ag  Ag29  1  0.28724500  0.28144700  0.42273400  1
  Ag  Ag30  1  0.38523700  0.83400300  0.73449500  1
  Ag  Ag31  1  0.11172300  0.49845600  0.58139500  1
  Ag  Ag32  1  0.64469500  0.93211400  0.68651500  1
  Ag  Ag33  1  0.75542100  0.81867700  0.96950600  1
  Ag  Ag34  1  0.61172300  0.50154400  0.91860500  1
  Ag  Ag35  1  0.24457900  0.18132300  0.03049400  1
  Ag  Ag36  1  0.92047900  0.31041300  0.02167100  1
  Ag  Ag37  1  0.89171300  0.06773900  0.50009200  1
  Ag  Ag38  1  0.98431800  0.98060700  0.63211600  1
  Ag  Ag39  1  0.37546200  0.98797600  0.58921600  1
  Ag  Ag40  1  0.02062200  0.50845100  0.87025600  1
  Ag  Ag41  1  0.90983300  0.74099900  0.83017500  1
  Ag  Ag42  1  0.21275500  0.28144700  0.92273400  1
  Ag  Ag43  1  0.74457900  0.81867700  0.46950600  1
  Ag  Ag44  1  0.52062200  0.49154900  0.62974400  1
  Ag  Ag45  1  0.62453800  0.01202400  0.41078400  1
  Ag  Ag46  1  0.38827700  0.49845600  0.08139500  1
  Ag  Ag47  1  0.88827700  0.50154400  0.41860500  1
  Ag  Ag48  1  0.88841700  0.56162500  0.99959900  1
  Ag  Ag49  1  0.50867800  0.38578300  0.73668100  1
  Ag  Ag50  1  0.37147900  0.34065800  0.23516700  1
  Ag  Ag51  1  0.06364600  0.71623500  0.51168300  1
  Ag  Ag52  1  0.71275500  0.71855300  0.57726600  1
  Ag  Ag53  1  0.51568200  0.98060700  0.13211600  1
  Ag  Ag54  1  0.59016700  0.74099900  0.33017500  1
  Ag  Ag55  1  0.61476300  0.16599700  0.26550500  1
  Ag  Ag56  1  0.12852100  0.34065800  0.73516700  1
  Ag  Ag57  1  0.39171300  0.93226100  0.99990800  1
  Ag  Ag58  1  0.80869600  0.26698700  0.34123000  1
  Ag  Ag59  1  0.93635400  0.28376500  0.48831700  1
  Ag  Ag60  1  0.07952100  0.68958700  0.97832900  1
  Ag  Ag61  1  0.05002100  0.16601800  0.40503100  1
  Ag  Ag62  1  0.61158300  0.56162500  0.49959900  1
  Ag  Ag63  1  0.87147900  0.65934200  0.26483300  1
  Ag  Ag64  1  0.88523700  0.16599700  0.76550500  1
  Ag  Ag65  1  0.19130400  0.73301300  0.65877000  1
  Ag  Ag66  1  0.48431800  0.01939300  0.86788400  1
  Ag  Ag67  1  0.50991300  0.13209800  0.76322600  1
  Ag  Ag68  1  0.38841700  0.43837500  0.50040100  1
  Ag  Ag69  1  0.14222100  0.56280900  0.31787000  1
  Ag  Ag70  1  0.85530500  0.93211400  0.18651500  1
  Ag  Ag71  1  0.69130400  0.26698700  0.84123000  1
  Ag  Ag72  1  0.14469500  0.06788600  0.81348500  1
  Ag  Ag73  1  0.00867800  0.61421700  0.76331900  1
  Ag  Ag74  1  0.11158300  0.43837500  0.00040100  1
  Ag  Ag75  1  0.60828700  0.06773900  0.00009200  1
  Ag  Ag76  1  0.24437600  0.79512000  0.40820300  1
  Ag  Ag77  1  0.30869600  0.73301300  0.15877000  1
  Ag  Ag78  1  0.44997900  0.16601800  0.90503100  1
  Ag  Ag79  1  0.42047900  0.68958700  0.47832900  1
  Te  Te80  1  0.72877500  0.43679500  0.04157000  1
  Te  Te81  1  0.73197600  0.52571000  0.78585700  1
  Te  Te82  1  0.71628400  0.94578900  0.54022300  1
  Te  Te83  1  0.76250800  0.03308900  0.77895200  1
  Te  Te84  1  0.77379300  0.67822300  0.43794900  1
  Te  Te85  1  0.77099700  0.29185300  0.70448100  1
  Te  Te86  1  0.26250800  0.96691100  0.72104800  1
  Te  Te87  1  0.22746700  0.21265400  0.79552800  1
  Te  Te88  1  0.23197600  0.47429000  0.71414300  1
  Te  Te89  1  0.72746700  0.78734600  0.70447200  1
  Te  Te90  1  0.19586300  0.81527700  0.05028600  1
  Te  Te91  1  0.77122500  0.43679500  0.54157000  1
  Te  Te92  1  0.77253300  0.78734600  0.20447200  1
  Te  Te93  1  0.76802400  0.52571000  0.28585700  1
  Te  Te94  1  0.72620700  0.67822300  0.93794900  1
  Te  Te95  1  0.72900300  0.29185300  0.20448100  1
  Te  Te96  1  0.27253300  0.21265400  0.29552900  1
  Te  Te97  1  0.26802400  0.47429000  0.21414300  1
  Te  Te98  1  0.30413700  0.81527700  0.55028600  1
  Te  Te99  1  0.27122500  0.56320500  0.95843000  1
  Te  Te100  1  0.73749200  0.03308900  0.27895200  1
  Te  Te101  1  0.22620700  0.32177700  0.56205100  1
  Te  Te102  1  0.23749200  0.96691100  0.22104800  1
  Te  Te103  1  0.22900300  0.70814700  0.29551900  1
  Te  Te104  1  0.21628400  0.05421100  0.95977700  1
  Te  Te105  1  0.80413700  0.18472300  0.94971400  1
  Te  Te106  1  0.27099700  0.70814700  0.79551900  1
  Te  Te107  1  0.27379300  0.32177700  0.06205100  1
  Te  Te108  1  0.69586300  0.18472300  0.44971400  1
  Te  Te109  1  0.28371600  0.05421100  0.45977700  1
  Te  Te110  1  0.78371600  0.94578900  0.04022300  1
  Te  Te111  1  0.22877500  0.56320500  0.45843000  1
  Cl  Cl112  1  0.98629300  0.36996700  0.87238200  1
  Cl  Cl113  1  0.98660700  0.87683100  0.87477100  1
  Cl  Cl114  1  0.01186700  0.37456300  0.37692200  1
  Cl  Cl115  1  0.51319000  0.87866600  0.87922200  1
  Cl  Cl116  1  0.48660700  0.12316900  0.62522900  1
  Cl  Cl117  1  0.48813300  0.37456300  0.87692200  1
  Cl  Cl118  1  0.51186700  0.62543700  0.12307800  1
  Cl  Cl119  1  0.48681000  0.12133400  0.12077800  1
  Cl  Cl120  1  0.01370700  0.63003300  0.12761800  1
  Cl  Cl121  1  0.98681000  0.87866600  0.37922200  1
  Cl  Cl122  1  0.51370700  0.36996700  0.37238200  1
  Cl  Cl123  1  0.98813300  0.62543700  0.62307800  1
  Cl  Cl124  1  0.48629300  0.63003300  0.62761800  1
  Cl  Cl125  1  0.01339300  0.12316900  0.12522900  1
  Cl  Cl126  1  0.51339300  0.87683100  0.37477100  1
  Cl  Cl127  1  0.01319000  0.12133400  0.62077800  1
