# generated using pymatgen
data_CdI2
_symmetry_space_group_name_H-M   'P 1'
_cell_length_a   4.33397573
_cell_length_b   4.33397573
_cell_length_c   120.71096700
_cell_angle_alpha   90.00000000
_cell_angle_beta   90.00000000
_cell_angle_gamma   119.99999583
_symmetry_Int_Tables_number   1
_chemical_formula_structural   CdI2
_chemical_formula_sum   'Cd16 I32'
_cell_volume   1963.58781424
_cell_formula_units_Z   16
loop_
 _symmetry_equiv_pos_site_id
 _symmetry_equiv_pos_as_xyz
  1  'x, y, z'
loop_
 _atom_site_type_symbol
 _atom_site_label
 _atom_site_symmetry_multiplicity
 _atom_site_fract_x
 _atom_site_fract_y
 _atom_site_fract_z
 _atom_site_occupancy
  Cd  Cd0  1  0.33333300  0.66666700  0.51565600  1
  Cd  Cd1  1  0.66666700  0.33333300  0.89065000  1
  Cd  Cd2  1  0.00000000  0.00000000  0.82812600  1
  Cd  Cd3  1  0.00000000  0.00000000  0.45313700  1
  Cd  Cd4  1  0.33333300  0.66666700  0.64060500  1
  Cd  Cd5  1  0.33333300  0.66666700  0.14062400  1
  Cd  Cd6  1  0.00000000  0.00000000  0.20313000  1
  Cd  Cd7  1  0.00000000  0.00000000  0.95307300  1
  Cd  Cd8  1  0.33333300  0.66666700  0.01564900  1
  Cd  Cd9  1  0.00000000  0.00000000  0.76563400  1
  Cd  Cd10  1  0.00000000  0.00000000  0.57812900  1
  Cd  Cd11  1  0.00000000  0.00000000  0.07812900  1
  Cd  Cd12  1  0.33333300  0.66666700  0.39062800  1
  Cd  Cd13  1  0.33333300  0.66666700  0.26561000  1
  Cd  Cd14  1  0.00000000  0.00000000  0.32812600  1
  Cd  Cd15  1  0.66666700  0.33333300  0.70317100  1
  I  I16  1  0.66666700  0.33333300  0.96734800  1
  I  I17  1  0.66666700  0.33333300  0.65488800  1
  I  I18  1  0.00000000  0.00000000  0.90494600  1
  I  I19  1  0.66666700  0.33333300  0.77991800  1
  I  I20  1  0.33333300  0.66666700  0.75135100  1
  I  I21  1  0.00000000  0.00000000  0.62630100  1
  I  I22  1  0.33333300  0.66666700  0.56385200  1
  I  I23  1  0.00000000  0.00000000  0.25131500  1
  I  I24  1  0.33333300  0.66666700  0.81384400  1
  I  I25  1  0.33333300  0.66666700  0.06385200  1
  I  I26  1  0.66666700  0.33333300  0.46742300  1
  I  I27  1  0.66666700  0.33333300  0.21741300  1
  I  I28  1  0.33333300  0.66666700  0.43885400  1
  I  I29  1  0.00000000  0.00000000  0.71746500  1
  I  I30  1  0.66666700  0.33333300  0.34241000  1
  I  I31  1  0.33333300  0.66666700  0.18884600  1
  I  I32  1  0.00000000  0.00000000  0.12632300  1
  I  I33  1  0.66666700  0.33333300  0.40492200  1
  I  I34  1  0.66666700  0.33333300  0.15491000  1
  I  I35  1  0.66666700  0.33333300  0.09240800  1
  I  I36  1  0.66666700  0.33333300  0.27989400  1
  I  I37  1  0.66666700  0.33333300  0.02994000  1
  I  I38  1  0.33333300  0.66666700  0.87636400  1
  I  I39  1  0.33333300  0.66666700  0.31384400  1
  I  I40  1  0.33333300  0.66666700  0.93882000  1
  I  I41  1  0.00000000  0.00000000  0.50135100  1
  I  I42  1  0.66666700  0.33333300  0.84241000  1
  I  I43  1  0.66666700  0.33333300  0.59240900  1
  I  I44  1  0.00000000  0.00000000  0.00134300  1
  I  I45  1  0.33333300  0.66666700  0.68888700  1
  I  I46  1  0.00000000  0.00000000  0.37632800  1
  I  I47  1  0.66666700  0.33333300  0.52994700  1
