# generated using pymatgen
data_Yb2Tl
_symmetry_space_group_name_H-M   'P 1'
_cell_length_a   5.32923500
_cell_length_b   7.21827500
_cell_length_c   9.86100700
_cell_angle_alpha   90.00000000
_cell_angle_beta   90.00000000
_cell_angle_gamma   90.00000000
_symmetry_Int_Tables_number   1
_chemical_formula_structural   Yb2Tl
_chemical_formula_sum   'Yb8 Tl4'
_cell_volume   379.33207113
_cell_formula_units_Z   4
loop_
 _symmetry_equiv_pos_site_id
 _symmetry_equiv_pos_as_xyz
  1  'x, y, z'
loop_
 _atom_site_type_symbol
 _atom_site_label
 _atom_site_symmetry_multiplicity
 _atom_site_fract_x
 _atom_site_fract_y
 _atom_site_fract_z
 _atom_site_occupancy
  Yb  Yb0  1  0.25000000  0.16858900  0.93294200  1
  Yb  Yb1  1  0.75000000  0.83141100  0.06705800  1
  Yb  Yb2  1  0.75000000  0.46837100  0.80125700  1
  Yb  Yb3  1  0.25000000  0.53162900  0.19874300  1
  Yb  Yb4  1  0.25000000  0.66858900  0.56705800  1
  Yb  Yb5  1  0.75000000  0.33141100  0.43294200  1
  Yb  Yb6  1  0.75000000  0.96837100  0.69874300  1
  Yb  Yb7  1  0.25000000  0.03162900  0.30125700  1
  Tl  Tl8  1  0.25000000  0.72778200  0.88786800  1
  Tl  Tl9  1  0.75000000  0.77221800  0.38786800  1
  Tl  Tl10  1  0.25000000  0.22778200  0.61213200  1
  Tl  Tl11  1  0.75000000  0.27221800  0.11213200  1
