# generated using pymatgen
data_Mg4Ti3
_symmetry_space_group_name_H-M   'P 1'
_cell_length_a   8.06349567
_cell_length_b   8.06349567
_cell_length_c   4.95369200
_cell_angle_alpha   90.00000000
_cell_angle_beta   90.00000000
_cell_angle_gamma   119.99999730
_symmetry_Int_Tables_number   1
_chemical_formula_structural   Mg4Ti3
_chemical_formula_sum   'Mg8 Ti6'
_cell_volume   278.93714937
_cell_formula_units_Z   2
loop_
 _symmetry_equiv_pos_site_id
 _symmetry_equiv_pos_as_xyz
  1  'x, y, z'
loop_
 _atom_site_type_symbol
 _atom_site_label
 _atom_site_symmetry_multiplicity
 _atom_site_fract_x
 _atom_site_fract_y
 _atom_site_fract_z
 _atom_site_occupancy
  Mg  Mg0  1  0.19632000  0.24898000  0.75000000  1
  Mg  Mg1  1  0.75102000  0.94734000  0.75000000  1
  Mg  Mg2  1  0.94734000  0.19632000  0.25000000  1
  Mg  Mg3  1  0.33333300  0.66666700  0.75000000  1
  Mg  Mg4  1  0.66666700  0.33333300  0.25000000  1
  Mg  Mg5  1  0.05266000  0.80368000  0.75000000  1
  Mg  Mg6  1  0.24898000  0.05266000  0.25000000  1
  Mg  Mg7  1  0.80368000  0.75102000  0.25000000  1
  Ti  Ti8  1  0.37862000  0.48764900  0.25000000  1
  Ti  Ti9  1  0.51235100  0.89097100  0.25000000  1
  Ti  Ti10  1  0.89097100  0.37862000  0.75000000  1
  Ti  Ti11  1  0.10902900  0.62138000  0.25000000  1
  Ti  Ti12  1  0.48764900  0.10902900  0.75000000  1
  Ti  Ti13  1  0.62138000  0.51235100  0.75000000  1
