# generated using pymatgen
data_YbCu9Sn4
_symmetry_space_group_name_H-M   'P 1'
_cell_length_a   8.70368687
_cell_length_b   8.70368687
_cell_length_c   8.70368687
_cell_angle_alpha   120.51081311
_cell_angle_beta   120.51081311
_cell_angle_gamma   89.11749960
_symmetry_Int_Tables_number   1
_chemical_formula_structural   YbCu9Sn4
_chemical_formula_sum   'Yb2 Cu18 Sn8'
_cell_volume   462.56497997
_cell_formula_units_Z   2
loop_
 _symmetry_equiv_pos_site_id
 _symmetry_equiv_pos_as_xyz
  1  'x, y, z'
loop_
 _atom_site_type_symbol
 _atom_site_label
 _atom_site_symmetry_multiplicity
 _atom_site_fract_x
 _atom_site_fract_y
 _atom_site_fract_z
 _atom_site_occupancy
  Yb  Yb0  1  0.75000000  0.75000000  0.00000000  1
  Yb  Yb1  1  0.25000000  0.25000000  0.00000000  1
  Cu  Cu2  1  0.93403600  0.43403600  0.71635900  1
  Cu  Cu3  1  0.79939300  0.94526800  0.74466100  1
  Cu  Cu4  1  0.71767700  0.21767700  0.28364100  1
  Cu  Cu5  1  0.56596400  0.28232300  0.50000000  1
  Cu  Cu6  1  0.55473200  0.70060700  0.25533900  1
  Cu  Cu7  1  0.21767700  0.93403600  0.50000000  1
  Cu  Cu8  1  0.44526800  0.29939300  0.74466100  1
  Cu  Cu9  1  0.50000000  0.00000000  0.50000000  1
  Cu  Cu10  1  0.20060700  0.05473200  0.25533900  1
  Cu  Cu11  1  0.05473200  0.79939300  0.85412600  1
  Cu  Cu12  1  0.29939300  0.55473200  0.85412600  1
  Cu  Cu13  1  0.28232300  0.78232300  0.71635900  1
  Cu  Cu14  1  0.43403600  0.71767700  0.50000000  1
  Cu  Cu15  1  0.06596400  0.56596400  0.28364100  1
  Cu  Cu16  1  0.78232300  0.06596400  0.50000000  1
  Cu  Cu17  1  0.70060700  0.44526800  0.14587400  1
  Cu  Cu18  1  0.94526800  0.20060700  0.14587400  1
  Cu  Cu19  1  0.00000000  0.50000000  0.50000000  1
  Sn  Sn20  1  0.68701800  0.55924800  0.50000000  1
  Sn  Sn21  1  0.44075200  0.94075200  0.12777100  1
  Sn  Sn22  1  0.31298200  0.44075200  0.50000000  1
  Sn  Sn23  1  0.05924800  0.18701800  0.50000000  1
  Sn  Sn24  1  0.18701800  0.68701800  0.12777100  1
  Sn  Sn25  1  0.94075200  0.81298200  0.50000000  1
  Sn  Sn26  1  0.55924800  0.05924800  0.87222900  1
  Sn  Sn27  1  0.81298200  0.31298200  0.87222900  1
