# generated using pymatgen
data_ErTe3
_symmetry_space_group_name_H-M   'P 1'
_cell_length_a   14.50357049
_cell_length_b   14.50357049
_cell_length_c   4.41630100
_cell_angle_alpha   90.00000000
_cell_angle_beta   90.00000000
_cell_angle_gamma   163.75079010
_symmetry_Int_Tables_number   1
_chemical_formula_structural   ErTe3
_chemical_formula_sum   'Er2 Te6'
_cell_volume   259.94455264
_cell_formula_units_Z   2
loop_
 _symmetry_equiv_pos_site_id
 _symmetry_equiv_pos_as_xyz
  1  'x, y, z'
loop_
 _atom_site_type_symbol
 _atom_site_label
 _atom_site_symmetry_multiplicity
 _atom_site_fract_x
 _atom_site_fract_y
 _atom_site_fract_z
 _atom_site_occupancy
  Er  Er0  1  0.94636000  0.05364000  0.25000000  1
  Er  Er1  1  0.05364000  0.94636000  0.75000000  1
  Te  Te2  1  0.68722900  0.31277100  0.25000000  1
  Te  Te3  1  0.55442800  0.44557200  0.25000000  1
  Te  Te4  1  0.83586500  0.16413500  0.25000000  1
  Te  Te5  1  0.44557200  0.55442800  0.75000000  1
  Te  Te6  1  0.16413500  0.83586500  0.75000000  1
  Te  Te7  1  0.31277100  0.68722900  0.75000000  1
