# generated using pymatgen
data_K5Nb(CN)8
_symmetry_space_group_name_H-M   'P 1'
_cell_length_a   8.04445556
_cell_length_b   8.04445556
_cell_length_c   8.04445556
_cell_angle_alpha   109.05042128
_cell_angle_beta   109.05042128
_cell_angle_gamma   110.31613759
_symmetry_Int_Tables_number   1
_chemical_formula_structural   K5Nb(CN)8
_chemical_formula_sum   'K5 Nb1 C8 N8'
_cell_volume   400.67949851
_cell_formula_units_Z   1
loop_
 _symmetry_equiv_pos_site_id
 _symmetry_equiv_pos_as_xyz
  1  'x, y, z'
loop_
 _atom_site_type_symbol
 _atom_site_label
 _atom_site_symmetry_multiplicity
 _atom_site_fract_x
 _atom_site_fract_y
 _atom_site_fract_z
 _atom_site_occupancy
  K  K0  1  0.87349700  0.47830700  0.14455200  1
  K  K1  1  0.52169300  0.66624500  0.39519000  1
  K  K2  1  0.33375500  0.72894400  0.85544800  1
  K  K3  1  0.27105600  0.12650300  0.60481000  1
  K  K4  1  0.75000000  0.25000000  0.50000000  1
  Nb  Nb5  1  0.00000000  0.00000000  0.00000000  1
  C  C6  1  0.83184600  0.93366400  0.16787800  1
  C  C7  1  0.71916600  0.00693900  0.84088500  1
  C  C8  1  0.76578500  0.66396700  0.83212200  1
  C  C9  1  0.12171900  0.28083400  0.28777300  1
  C  C10  1  0.06633600  0.23421500  0.89818200  1
  C  C11  1  0.99306100  0.83394600  0.71222700  1
  C  C12  1  0.33603300  0.16815400  0.10181800  1
  C  C13  1  0.16605400  0.87828100  0.15911500  1
  N  N14  1  0.18053500  0.42399400  0.44283900  1
  N  N15  1  0.57600600  0.01884500  0.75654100  1
  N  N16  1  0.73687400  0.89433100  0.24840700  1
  N  N17  1  0.64592300  0.48846600  0.75159300  1
  N  N18  1  0.26230400  0.81946500  0.24345900  1
  N  N19  1  0.51153400  0.26312600  0.15745700  1
  N  N20  1  0.98115500  0.73769600  0.55716100  1
  N  N21  1  0.10566900  0.35407700  0.84254300  1
