# generated using pymatgen
data_Tl2Ni(CN)4
_symmetry_space_group_name_H-M   'P 1'
_cell_length_a   7.38498600
_cell_length_b   6.31324200
_cell_length_c   9.86684491
_cell_angle_alpha   67.68592829
_cell_angle_beta   90.00000000
_cell_angle_gamma   90.00000000
_symmetry_Int_Tables_number   1
_chemical_formula_structural   Tl2Ni(CN)4
_chemical_formula_sum   'Tl4 Ni2 C8 N8'
_cell_volume   425.57571831
_cell_formula_units_Z   2
loop_
 _symmetry_equiv_pos_site_id
 _symmetry_equiv_pos_as_xyz
  1  'x, y, z'
loop_
 _atom_site_type_symbol
 _atom_site_label
 _atom_site_symmetry_multiplicity
 _atom_site_fract_x
 _atom_site_fract_y
 _atom_site_fract_z
 _atom_site_occupancy
  Tl  Tl0  1  0.34729700  0.69792700  0.57978700  1
  Tl  Tl1  1  0.15270300  0.69792700  0.07978700  1
  Tl  Tl2  1  0.84729700  0.30207300  0.92021300  1
  Tl  Tl3  1  0.65270300  0.30207300  0.42021300  1
  Ni  Ni4  1  0.50000000  0.00000000  0.00000000  1
  Ni  Ni5  1  0.00000000  0.00000000  0.50000000  1
  C  C6  1  0.15418700  0.24937300  0.44094300  1
  C  C7  1  0.50110900  0.00502700  0.81162000  1
  C  C8  1  0.49889100  0.99497300  0.18838000  1
  C  C9  1  0.84581300  0.75062700  0.55905700  1
  C  C10  1  0.00110900  0.99497300  0.68838000  1
  C  C11  1  0.65418700  0.75062700  0.05905700  1
  C  C12  1  0.99889100  0.00502700  0.31162000  1
  C  C13  1  0.34581300  0.24937300  0.94094300  1
  N  N14  1  0.49823000  0.99082000  0.30849800  1
  N  N15  1  0.74516700  0.59402900  0.59753000  1
  N  N16  1  0.50177000  0.00918000  0.69150200  1
  N  N17  1  0.99823000  0.00918000  0.19150200  1
  N  N18  1  0.75483300  0.59402900  0.09753000  1
  N  N19  1  0.00177000  0.99082000  0.80849800  1
  N  N20  1  0.24516700  0.40597100  0.90247000  1
  N  N21  1  0.25483300  0.40597100  0.40247000  1
