# generated using pymatgen
data_MgTi2
_symmetry_space_group_name_H-M   'P 1'
_cell_length_a   5.48396422
_cell_length_b   5.48396422
_cell_length_c   4.66721700
_cell_angle_alpha   90.00000000
_cell_angle_beta   90.00000000
_cell_angle_gamma   127.40318296
_symmetry_Int_Tables_number   1
_chemical_formula_structural   MgTi2
_chemical_formula_sum   'Mg2 Ti4'
_cell_volume   111.50029095
_cell_formula_units_Z   2
loop_
 _symmetry_equiv_pos_site_id
 _symmetry_equiv_pos_as_xyz
  1  'x, y, z'
loop_
 _atom_site_type_symbol
 _atom_site_label
 _atom_site_symmetry_multiplicity
 _atom_site_fract_x
 _atom_site_fract_y
 _atom_site_fract_z
 _atom_site_occupancy
  Mg  Mg0  1  0.19775100  0.19775100  0.75000000  1
  Mg  Mg1  1  0.80224900  0.80224900  0.25000000  1
  Ti  Ti2  1  0.86490900  0.51296900  0.75000000  1
  Ti  Ti3  1  0.51296900  0.86490900  0.75000000  1
  Ti  Ti4  1  0.48703100  0.13509100  0.25000000  1
  Ti  Ti5  1  0.13509100  0.48703100  0.25000000  1
