# generated using pymatgen
data_HgH8C2Br3N
_symmetry_space_group_name_H-M   'P 1'
_cell_length_a   6.52002700
_cell_length_b   7.18163000
_cell_length_c   10.42869081
_cell_angle_alpha   82.41357951
_cell_angle_beta   90.00000000
_cell_angle_gamma   90.00000000
_symmetry_Int_Tables_number   1
_chemical_formula_structural   HgH8C2Br3N
_chemical_formula_sum   'Hg2 H16 C4 Br6 N2'
_cell_volume   484.04310263
_cell_formula_units_Z   2
loop_
 _symmetry_equiv_pos_site_id
 _symmetry_equiv_pos_as_xyz
  1  'x, y, z'
loop_
 _atom_site_type_symbol
 _atom_site_label
 _atom_site_symmetry_multiplicity
 _atom_site_fract_x
 _atom_site_fract_y
 _atom_site_fract_z
 _atom_site_occupancy
  Hg  Hg0  1  0.75000000  0.40534300  0.13654000  1
  Hg  Hg1  1  0.25000000  0.59465700  0.86346000  1
  H  H2  1  0.38641000  0.12952700  0.37560500  1
  H  H3  1  0.11359000  0.12952700  0.37560500  1
  H  H4  1  0.87955100  0.05841400  0.82250200  1
  H  H5  1  0.37955100  0.94158600  0.17749800  1
  H  H6  1  0.88591100  0.22757900  0.60500000  1
  H  H7  1  0.75000000  0.97218700  0.48512800  1
  H  H8  1  0.75000000  0.26107000  0.81367200  1
  H  H9  1  0.11408900  0.77242100  0.39500000  1
  H  H10  1  0.38591100  0.77242100  0.39500000  1
  H  H11  1  0.61408900  0.22757900  0.60500000  1
  H  H12  1  0.25000000  0.73893000  0.18632800  1
  H  H13  1  0.61359000  0.87047300  0.62439500  1
  H  H14  1  0.25000000  0.02781300  0.51487200  1
  H  H15  1  0.12044900  0.94158600  0.17749800  1
  H  H16  1  0.88641000  0.87047300  0.62439500  1
  H  H17  1  0.62044900  0.05841400  0.82250200  1
  C  C18  1  0.75000000  0.14453400  0.63799600  1
  C  C19  1  0.25000000  0.85546600  0.36200400  1
  C  C20  1  0.25000000  0.04684800  0.40861100  1
  C  C21  1  0.75000000  0.95315200  0.59138900  1
  Br  Br22  1  0.75000000  0.56561000  0.89168500  1
  Br  Br23  1  0.75000000  0.03557200  0.13166900  1
  Br  Br24  1  0.25000000  0.43439000  0.10831500  1
  Br  Br25  1  0.75000000  0.53083600  0.35319200  1
  Br  Br26  1  0.25000000  0.46916400  0.64680800  1
  Br  Br27  1  0.25000000  0.96442800  0.86833100  1
  N  N28  1  0.25000000  0.87151200  0.21667300  1
  N  N29  1  0.75000000  0.12848800  0.78332700  1
