# generated using pymatgen
data_Sr(AlCl4)2
_symmetry_space_group_name_H-M   'P 1'
_cell_length_a   13.34183146
_cell_length_b   13.34183146
_cell_length_c   13.34183146
_cell_angle_alpha   128.26179400
_cell_angle_beta   128.26179400
_cell_angle_gamma   76.20131446
_symmetry_Int_Tables_number   1
_chemical_formula_structural   Sr(AlCl4)2
_chemical_formula_sum   'Sr4 Al8 Cl32'
_cell_volume   1423.13090693
_cell_formula_units_Z   4
loop_
 _symmetry_equiv_pos_site_id
 _symmetry_equiv_pos_as_xyz
  1  'x, y, z'
loop_
 _atom_site_type_symbol
 _atom_site_label
 _atom_site_symmetry_multiplicity
 _atom_site_fract_x
 _atom_site_fract_y
 _atom_site_fract_z
 _atom_site_occupancy
  Sr  Sr0  1  0.50000000  0.00000000  0.50000000  1
  Sr  Sr1  1  0.25000000  0.25000000  0.00000000  1
  Sr  Sr2  1  0.75000000  0.75000000  0.00000000  1
  Sr  Sr3  1  0.00000000  0.50000000  0.50000000  1
  Al  Al4  1  0.12500000  0.33814600  0.71314600  1
  Al  Al5  1  0.62500000  0.91185400  0.78685400  1
  Al  Al6  1  0.66185400  0.37500000  0.78685400  1
  Al  Al7  1  0.62500000  0.41185400  0.28685400  1
  Al  Al8  1  0.58814600  0.87500000  0.21314600  1
  Al  Al9  1  0.08814600  0.87500000  0.71314600  1
  Al  Al10  1  0.16185400  0.37500000  0.28685400  1
  Al  Al11  1  0.12500000  0.83814600  0.21314600  1
  Cl  Cl12  1  0.54019700  0.22325200  0.18383500  1
  Cl  Cl13  1  0.97325200  0.28941700  0.18305500  1
  Cl  Cl14  1  0.27674800  0.95980300  0.81616500  1
  Cl  Cl15  1  0.64363800  0.45980300  0.68305500  1
  Cl  Cl16  1  0.79088800  0.52527000  0.54264800  1
  Cl  Cl17  1  0.70980300  0.39363800  0.18305500  1
  Cl  Cl18  1  0.95911200  0.72473000  0.95735200  1
  Cl  Cl19  1  0.76737800  0.00176000  0.04264800  1
  Cl  Cl20  1  0.27527000  0.23262300  0.23438300  1
  Cl  Cl21  1  0.97473000  0.70911200  0.45735200  1
  Cl  Cl22  1  0.10636200  0.79019700  0.81694500  1
  Cl  Cl23  1  0.99824000  0.04088800  0.76561700  1
  Cl  Cl24  1  0.29088800  0.74824000  0.26561700  1
  Cl  Cl25  1  0.04019700  0.85636200  0.31694500  1
  Cl  Cl26  1  0.47325200  0.29019700  0.68383500  1
  Cl  Cl27  1  0.77674800  0.96058300  0.31694500  1
  Cl  Cl28  1  0.45911200  0.50176000  0.23438300  1
  Cl  Cl29  1  0.48262300  0.02527000  0.73438300  1
  Cl  Cl30  1  0.47473000  0.01737800  0.26561700  1
  Cl  Cl31  1  0.21058300  0.52674800  0.81694500  1
  Cl  Cl32  1  0.71058300  0.89363800  0.68383500  1
  Cl  Cl33  1  0.25176000  0.51737700  0.54264800  1
  Cl  Cl34  1  0.60636200  0.78941700  0.31616500  1
  Cl  Cl35  1  0.75176000  0.20911200  0.73438300  1
  Cl  Cl36  1  0.49824000  0.73262300  0.95735200  1
  Cl  Cl37  1  0.03941700  0.35636200  0.81616500  1
  Cl  Cl38  1  0.53941700  0.72325200  0.68305500  1
  Cl  Cl39  1  0.26737800  0.22473000  0.76561700  1
  Cl  Cl40  1  0.14363800  0.46058300  0.18383500  1
  Cl  Cl41  1  0.77527000  0.54088800  0.04264800  1
  Cl  Cl42  1  0.20980300  0.02674800  0.31616500  1
  Cl  Cl43  1  0.98262300  0.24824000  0.45735200  1
