# generated using pymatgen
data_KIn9Ni2
_symmetry_space_group_name_H-M   'P 1'
_cell_length_a   8.84172931
_cell_length_b   8.84172931
_cell_length_c   4.36531700
_cell_angle_alpha   90.00000000
_cell_angle_beta   90.00000000
_cell_angle_gamma   119.99999486
_symmetry_Int_Tables_number   1
_chemical_formula_structural   KIn9Ni2
_chemical_formula_sum   'K1 In9 Ni2'
_cell_volume   295.54313162
_cell_formula_units_Z   1
loop_
 _symmetry_equiv_pos_site_id
 _symmetry_equiv_pos_as_xyz
  1  'x, y, z'
loop_
 _atom_site_type_symbol
 _atom_site_label
 _atom_site_symmetry_multiplicity
 _atom_site_fract_x
 _atom_site_fract_y
 _atom_site_fract_z
 _atom_site_occupancy
  K  K0  1  0.00000000  0.00000000  0.00000000  1
  In  In1  1  0.79187000  0.58374000  0.50000000  1
  In  In2  1  0.58374000  0.79187000  0.50000000  1
  In  In3  1  0.50000000  0.50000000  0.00000000  1
  In  In4  1  0.20813000  0.41626000  0.50000000  1
  In  In5  1  0.79187000  0.20813000  0.50000000  1
  In  In6  1  0.20813000  0.79187000  0.50000000  1
  In  In7  1  0.41626000  0.20813000  0.50000000  1
  In  In8  1  0.50000000  0.00000000  0.00000000  1
  In  In9  1  0.00000000  0.50000000  0.00000000  1
  Ni  Ni10  1  0.33333300  0.66666700  0.00000000  1
  Ni  Ni11  1  0.66666700  0.33333300  0.00000000  1
