# generated using pymatgen
data_MgTi
_symmetry_space_group_name_H-M   'P 1'
_cell_length_a   4.87638500
_cell_length_b   5.99086100
_cell_length_c   10.58626600
_cell_angle_alpha   90.00000000
_cell_angle_beta   90.00000000
_cell_angle_gamma   90.00000000
_symmetry_Int_Tables_number   1
_chemical_formula_structural   MgTi
_chemical_formula_sum   'Mg8 Ti8'
_cell_volume   309.26447244
_cell_formula_units_Z   8
loop_
 _symmetry_equiv_pos_site_id
 _symmetry_equiv_pos_as_xyz
  1  'x, y, z'
loop_
 _atom_site_type_symbol
 _atom_site_label
 _atom_site_symmetry_multiplicity
 _atom_site_fract_x
 _atom_site_fract_y
 _atom_site_fract_z
 _atom_site_occupancy
  Mg  Mg0  1  0.00000000  0.00000000  0.33809800  1
  Mg  Mg1  1  0.00000000  0.00000000  0.82436100  1
  Mg  Mg2  1  0.00000000  0.75100700  0.08591800  1
  Mg  Mg3  1  0.00000000  0.24899300  0.08591800  1
  Mg  Mg4  1  0.50000000  0.74899300  0.91408200  1
  Mg  Mg5  1  0.50000000  0.50000000  0.17563900  1
  Mg  Mg6  1  0.50000000  0.50000000  0.66190200  1
  Mg  Mg7  1  0.50000000  0.25100700  0.91408200  1
  Ti  Ti8  1  0.00000000  0.74073600  0.57693600  1
  Ti  Ti9  1  0.00000000  0.50000000  0.34530600  1
  Ti  Ti10  1  0.00000000  0.50000000  0.81079600  1
  Ti  Ti11  1  0.00000000  0.25926400  0.57693600  1
  Ti  Ti12  1  0.50000000  0.00000000  0.18920400  1
  Ti  Ti13  1  0.50000000  0.00000000  0.65469400  1
  Ti  Ti14  1  0.50000000  0.75926400  0.42306400  1
  Ti  Ti15  1  0.50000000  0.24073600  0.42306400  1
