# generated using pymatgen
data_Ce3Sb3Au2
_symmetry_space_group_name_H-M   'P 1'
_cell_length_a   4.65636442
_cell_length_b   4.65636442
_cell_length_c   23.78258600
_cell_angle_alpha   90.00000000
_cell_angle_beta   90.00000000
_cell_angle_gamma   120.00000599
_symmetry_Int_Tables_number   1
_chemical_formula_structural   Ce3Sb3Au2
_chemical_formula_sum   'Ce6 Sb6 Au4'
_cell_volume   446.56389358
_cell_formula_units_Z   2
loop_
 _symmetry_equiv_pos_site_id
 _symmetry_equiv_pos_as_xyz
  1  'x, y, z'
loop_
 _atom_site_type_symbol
 _atom_site_label
 _atom_site_symmetry_multiplicity
 _atom_site_fract_x
 _atom_site_fract_y
 _atom_site_fract_z
 _atom_site_occupancy
  Ce  Ce0  1  0.66666700  0.33333300  0.92521200  1
  Ce  Ce1  1  0.33333300  0.66666700  0.07478800  1
  Ce  Ce2  1  0.33333300  0.66666700  0.42521200  1
  Ce  Ce3  1  0.66666700  0.33333300  0.57478800  1
  Ce  Ce4  1  0.33333300  0.66666700  0.25000000  1
  Ce  Ce5  1  0.66666700  0.33333300  0.75000000  1
  Sb  Sb6  1  0.33333300  0.66666700  0.65308600  1
  Sb  Sb7  1  0.00000000  0.00000000  0.50000000  1
  Sb  Sb8  1  0.66666700  0.33333300  0.34691400  1
  Sb  Sb9  1  0.33333300  0.66666700  0.84691400  1
  Sb  Sb10  1  0.66666700  0.33333300  0.15308600  1
  Sb  Sb11  1  0.00000000  0.00000000  0.00000000  1
  Au  Au12  1  0.00000000  0.00000000  0.81294000  1
  Au  Au13  1  0.00000000  0.00000000  0.18706000  1
  Au  Au14  1  0.00000000  0.00000000  0.31294000  1
  Au  Au15  1  0.00000000  0.00000000  0.68706000  1
