# generated using pymatgen
data_MgAu3
_symmetry_space_group_name_H-M   'P 1'
_cell_length_a   10.54786311
_cell_length_b   10.54786311
_cell_length_c   24.00663400
_cell_angle_alpha   90.00000000
_cell_angle_beta   90.00000000
_cell_angle_gamma   147.59321198
_symmetry_Int_Tables_number   1
_chemical_formula_structural   MgAu3
_chemical_formula_sum   'Mg20 Au60'
_cell_volume   1431.41555889
_cell_formula_units_Z   20
loop_
 _symmetry_equiv_pos_site_id
 _symmetry_equiv_pos_as_xyz
  1  'x, y, z'
loop_
 _atom_site_type_symbol
 _atom_site_label
 _atom_site_symmetry_multiplicity
 _atom_site_fract_x
 _atom_site_fract_y
 _atom_site_fract_z
 _atom_site_occupancy
  Mg  Mg0  1  0.83211000  0.16789000  0.95134300  1
  Mg  Mg1  1  0.99831000  0.00169000  0.75000000  1
  Mg  Mg2  1  0.83162700  0.16837300  0.35003600  1
  Mg  Mg3  1  0.41503900  0.58496100  0.84967400  1
  Mg  Mg4  1  0.16789000  0.83211000  0.45134300  1
  Mg  Mg5  1  0.16837300  0.83162700  0.85003600  1
  Mg  Mg6  1  0.83162700  0.16837300  0.14996400  1
  Mg  Mg7  1  0.24789900  0.75210100  0.25000000  1
  Mg  Mg8  1  0.83211000  0.16789000  0.54865700  1
  Mg  Mg9  1  0.16789000  0.83211000  0.04865700  1
  Mg  Mg10  1  0.41503900  0.58496100  0.65032600  1
  Mg  Mg11  1  0.00169000  0.99831000  0.25000000  1
  Mg  Mg12  1  0.41586500  0.58413500  0.04806000  1
  Mg  Mg13  1  0.58413500  0.41586500  0.54806000  1
  Mg  Mg14  1  0.16837300  0.83162700  0.64996400  1
  Mg  Mg15  1  0.41586500  0.58413500  0.45194000  1
  Mg  Mg16  1  0.75210100  0.24789900  0.75000000  1
  Mg  Mg17  1  0.58496100  0.41503900  0.15032600  1
  Mg  Mg18  1  0.58413500  0.41586500  0.95194000  1
  Mg  Mg19  1  0.58496100  0.41503900  0.34967400  1
  Au  Au20  1  0.95817400  0.54296900  0.94936300  1
  Au  Au21  1  0.49870800  0.50129200  0.25000000  1
  Au  Au22  1  0.66544600  0.33455400  0.44973300  1
  Au  Au23  1  0.95817400  0.54296900  0.55063700  1
  Au  Au24  1  0.45501300  0.04039500  0.15006700  1
  Au  Au25  1  0.20838200  0.29368000  0.14995000  1
  Au  Au26  1  0.87270300  0.62581800  0.25000000  1
  Au  Au27  1  0.45703100  0.04182600  0.94936300  1
  Au  Au28  1  0.95960500  0.54498700  0.15006700  1
  Au  Au29  1  0.79067400  0.70616700  0.44929900  1
  Au  Au30  1  0.08167700  0.91832300  0.15019400  1
  Au  Au31  1  0.08266100  0.91733900  0.55023000  1
  Au  Au32  1  0.24739700  0.75260300  0.75000000  1
  Au  Au33  1  0.70632000  0.79161800  0.14995000  1
  Au  Au34  1  0.29383300  0.20932600  0.44929900  1
  Au  Au35  1  0.20932600  0.29383300  0.94929900  1
  Au  Au36  1  0.66544600  0.33455400  0.05026700  1
  Au  Au37  1  0.33339500  0.66660500  0.14994000  1
  Au  Au38  1  0.04182600  0.45703100  0.05063700  1
  Au  Au39  1  0.91733900  0.08266100  0.44977000  1
  Au  Au40  1  0.29383300  0.20932600  0.05070100  1
  Au  Au41  1  0.50129200  0.49870800  0.75000000  1
  Au  Au42  1  0.08266100  0.91733900  0.94977000  1
  Au  Au43  1  0.75260300  0.24739700  0.25000000  1
  Au  Au44  1  0.33455400  0.66544600  0.55026700  1
  Au  Au45  1  0.79067400  0.70616700  0.05070100  1
  Au  Au46  1  0.91733900  0.08266100  0.05023000  1
  Au  Au47  1  0.95960500  0.54498700  0.34993300  1
  Au  Au48  1  0.54498700  0.95960500  0.84993300  1
  Au  Au49  1  0.70616700  0.79067400  0.55070100  1
  Au  Au50  1  0.37418200  0.12729700  0.25000000  1
  Au  Au51  1  0.70616700  0.79067400  0.94929900  1
  Au  Au52  1  0.54296900  0.95817400  0.44936300  1
  Au  Au53  1  0.91832300  0.08167700  0.65019400  1
  Au  Au54  1  0.20838200  0.29368000  0.35005000  1
  Au  Au55  1  0.79161800  0.70632000  0.64995000  1
  Au  Au56  1  0.62546800  0.87831000  0.25000000  1
  Au  Au57  1  0.54498700  0.95960500  0.65006700  1
  Au  Au58  1  0.20932600  0.29383300  0.55070100  1
  Au  Au59  1  0.12729700  0.37418200  0.75000000  1
  Au  Au60  1  0.33455400  0.66544600  0.94973300  1
  Au  Au61  1  0.04039500  0.45501300  0.65006700  1
  Au  Au62  1  0.29368000  0.20838200  0.64995000  1
  Au  Au63  1  0.70632000  0.79161800  0.35005000  1
  Au  Au64  1  0.12169000  0.37453200  0.25000000  1
  Au  Au65  1  0.66660500  0.33339500  0.64994000  1
  Au  Au66  1  0.91832300  0.08167700  0.84980600  1
  Au  Au67  1  0.29368000  0.20838200  0.85005000  1
  Au  Au68  1  0.45501300  0.04039500  0.34993300  1
  Au  Au69  1  0.79161800  0.70632000  0.85005000  1
  Au  Au70  1  0.45703100  0.04182600  0.55063700  1
  Au  Au71  1  0.54296900  0.95817400  0.05063700  1
  Au  Au72  1  0.62581800  0.87270300  0.75000000  1
  Au  Au73  1  0.04039500  0.45501300  0.84993300  1
  Au  Au74  1  0.66660500  0.33339500  0.85006000  1
  Au  Au75  1  0.33339500  0.66660500  0.35006000  1
  Au  Au76  1  0.04182600  0.45703100  0.44936300  1
  Au  Au77  1  0.37453200  0.12169000  0.75000000  1
  Au  Au78  1  0.87831000  0.62546800  0.75000000  1
  Au  Au79  1  0.08167700  0.91832300  0.34980600  1
