# generated using pymatgen
data_CdI2
_symmetry_space_group_name_H-M   'P 1'
_cell_length_a   4.33130374
_cell_length_b   4.33130374
_cell_length_c   59.42633700
_cell_angle_alpha   90.00000000
_cell_angle_beta   90.00000000
_cell_angle_gamma   119.99999609
_symmetry_Int_Tables_number   1
_chemical_formula_structural   CdI2
_chemical_formula_sum   'Cd8 I16'
_cell_volume   965.48802583
_cell_formula_units_Z   8
loop_
 _symmetry_equiv_pos_site_id
 _symmetry_equiv_pos_as_xyz
  1  'x, y, z'
loop_
 _atom_site_type_symbol
 _atom_site_label
 _atom_site_symmetry_multiplicity
 _atom_site_fract_x
 _atom_site_fract_y
 _atom_site_fract_z
 _atom_site_occupancy
  Cd  Cd0  1  0.00000000  0.00000000  0.90622500  1
  Cd  Cd1  1  0.00000000  0.00000000  0.78127800  1
  Cd  Cd2  1  0.33333300  0.66666700  0.40622200  1
  Cd  Cd3  1  0.00000000  0.00000000  0.65622900  1
  Cd  Cd4  1  0.00000000  0.00000000  0.03127400  1
  Cd  Cd5  1  0.33333300  0.66666700  0.15622100  1
  Cd  Cd6  1  0.00000000  0.00000000  0.28128100  1
  Cd  Cd7  1  0.33333300  0.66666700  0.53124100  1
  I  I8  1  0.66666700  0.33333300  0.81033600  1
  I  I9  1  0.33333300  0.66666700  0.87716700  1
  I  I10  1  0.66666700  0.33333300  0.56031300  1
  I  I11  1  0.33333300  0.66666700  0.25223700  1
  I  I12  1  0.66666700  0.33333300  0.06033200  1
  I  I13  1  0.00000000  0.00000000  0.12714500  1
  I  I14  1  0.66666700  0.33333300  0.43529900  1
  I  I15  1  0.66666700  0.33333300  0.18529700  1
  I  I16  1  0.00000000  0.00000000  0.50217700  1
  I  I17  1  0.33333300  0.66666700  0.00223300  1
  I  I18  1  0.66666700  0.33333300  0.31033900  1
  I  I19  1  0.66666700  0.33333300  0.93530000  1
  I  I20  1  0.33333300  0.66666700  0.75223500  1
  I  I21  1  0.00000000  0.00000000  0.37714500  1
  I  I22  1  0.66666700  0.33333300  0.68530300  1
  I  I23  1  0.33333300  0.66666700  0.62717000  1
