# generated using pymatgen
data_CdI2
_symmetry_space_group_name_H-M   'P 1'
_cell_length_a   4.33484844
_cell_length_b   4.33484844
_cell_length_c   91.90394900
_cell_angle_alpha   90.00000000
_cell_angle_beta   90.00000000
_cell_angle_gamma   120.00000675
_symmetry_Int_Tables_number   1
_chemical_formula_structural   CdI2
_chemical_formula_sum   'Cd12 I24'
_cell_volume   1495.59020096
_cell_formula_units_Z   12
loop_
 _symmetry_equiv_pos_site_id
 _symmetry_equiv_pos_as_xyz
  1  'x, y, z'
loop_
 _atom_site_type_symbol
 _atom_site_label
 _atom_site_symmetry_multiplicity
 _atom_site_fract_x
 _atom_site_fract_y
 _atom_site_fract_z
 _atom_site_occupancy
  Cd  Cd0  1  0.33333300  0.66666700  0.77083700  1
  Cd  Cd1  1  0.33333300  0.66666700  0.02081400  1
  Cd  Cd2  1  0.66666700  0.33333300  0.52081400  1
  Cd  Cd3  1  0.66666700  0.33333300  0.93747000  1
  Cd  Cd4  1  0.33333300  0.66666700  0.18751300  1
  Cd  Cd5  1  0.66666700  0.33333300  0.27083700  1
  Cd  Cd6  1  0.66666700  0.33333300  0.68751300  1
  Cd  Cd7  1  0.33333300  0.66666700  0.35419200  1
  Cd  Cd8  1  0.66666700  0.33333300  0.10415000  1
  Cd  Cd9  1  0.33333300  0.66666700  0.60415000  1
  Cd  Cd10  1  0.33333300  0.66666700  0.43747000  1
  Cd  Cd11  1  0.66666700  0.33333300  0.85419200  1
  I  I12  1  0.66666700  0.33333300  0.58542500  1
  I  I13  1  0.33333300  0.66666700  0.91874300  1
  I  I14  1  0.66666700  0.33333300  0.33546000  1
  I  I15  1  0.00000000  0.00000000  0.28958000  1
  I  I16  1  0.00000000  0.00000000  0.03954900  1
  I  I17  1  0.33333300  0.66666700  0.08542500  1
  I  I18  1  0.00000000  0.00000000  0.95620500  1
  I  I19  1  0.00000000  0.00000000  0.78958000  1
  I  I20  1  0.66666700  0.33333300  0.75210900  1
  I  I21  1  0.00000000  0.00000000  0.53954900  1
  I  I22  1  0.00000000  0.00000000  0.70625600  1
  I  I23  1  0.33333300  0.66666700  0.66878500  1
  I  I24  1  0.00000000  0.00000000  0.87293900  1
  I  I25  1  0.00000000  0.00000000  0.62288600  1
  I  I26  1  0.00000000  0.00000000  0.45620500  1
  I  I27  1  0.33333300  0.66666700  0.50208900  1
  I  I28  1  0.66666700  0.33333300  0.41874300  1
  I  I29  1  0.33333300  0.66666700  0.83546000  1
  I  I30  1  0.00000000  0.00000000  0.37293900  1
  I  I31  1  0.66666700  0.33333300  0.00208900  1
  I  I32  1  0.66666700  0.33333300  0.16878500  1
  I  I33  1  0.00000000  0.00000000  0.20625600  1
  I  I34  1  0.33333300  0.66666700  0.25210900  1
  I  I35  1  0.00000000  0.00000000  0.12288600  1
