# generated using pymatgen
data_HgIBr
_symmetry_space_group_name_H-M   'P 1'
_cell_length_a   4.53884086
_cell_length_b   4.53884086
_cell_length_c   13.65551000
_cell_angle_alpha   90.00000000
_cell_angle_beta   90.00000000
_cell_angle_gamma   109.44682183
_symmetry_Int_Tables_number   1
_chemical_formula_structural   HgIBr
_chemical_formula_sum   'Hg2 I2 Br2'
_cell_volume   265.26925404
_cell_formula_units_Z   2
loop_
 _symmetry_equiv_pos_site_id
 _symmetry_equiv_pos_as_xyz
  1  'x, y, z'
loop_
 _atom_site_type_symbol
 _atom_site_label
 _atom_site_symmetry_multiplicity
 _atom_site_fract_x
 _atom_site_fract_y
 _atom_site_fract_z
 _atom_site_occupancy
  Hg  Hg0  1  0.82566600  0.17433400  0.50275000  1
  Hg  Hg1  1  0.17433400  0.82566600  0.00275000  1
  I  I2  1  0.90467600  0.09532400  0.12959900  1
  I  I3  1  0.09532400  0.90467600  0.62959900  1
  Br  Br4  1  0.57749200  0.42250800  0.37965100  1
  Br  Br5  1  0.42250800  0.57749200  0.87965100  1
