# generated using pymatgen
data_Tb8CrTe13Cl
_symmetry_space_group_name_H-M   'P 1'
_cell_length_a   13.46663198
_cell_length_b   13.46663198
_cell_length_c   23.83521900
_cell_angle_alpha   90.00000000
_cell_angle_beta   90.00000000
_cell_angle_gamma   162.06542531
_symmetry_Int_Tables_number   1
_chemical_formula_structural   Tb8CrTe13Cl
_chemical_formula_sum   'Tb16 Cr2 Te26 Cl2'
_cell_volume   1331.03737899
_cell_formula_units_Z   2
loop_
 _symmetry_equiv_pos_site_id
 _symmetry_equiv_pos_as_xyz
  1  'x, y, z'
loop_
 _atom_site_type_symbol
 _atom_site_label
 _atom_site_symmetry_multiplicity
 _atom_site_fract_x
 _atom_site_fract_y
 _atom_site_fract_z
 _atom_site_occupancy
  Tb  Tb0  1  0.39255600  0.60744400  0.61544300  1
  Tb  Tb1  1  0.22458800  0.77541200  0.59498700  1
  Tb  Tb2  1  0.35220500  0.64779500  0.28244300  1
  Tb  Tb3  1  0.77541200  0.22458800  0.09498700  1
  Tb  Tb4  1  0.48223800  0.51776200  0.77771800  1
  Tb  Tb5  1  0.94058000  0.05942000  0.10269100  1
  Tb  Tb6  1  0.51776200  0.48223800  0.27771800  1
  Tb  Tb7  1  0.19332400  0.80667600  0.26826500  1
  Tb  Tb8  1  0.44773200  0.55226800  0.44366100  1
  Tb  Tb9  1  0.05942000  0.94058000  0.60269100  1
  Tb  Tb10  1  0.55226800  0.44773200  0.94366100  1
  Tb  Tb11  1  0.86798800  0.13201200  0.93506800  1
  Tb  Tb12  1  0.60744400  0.39255600  0.11544300  1
  Tb  Tb13  1  0.13201200  0.86798800  0.43506800  1
  Tb  Tb14  1  0.64779500  0.35220500  0.78244300  1
  Tb  Tb15  1  0.80667600  0.19332400  0.76826500  1
  Cr  Cr16  1  0.79118200  0.20881800  0.44101400  1
  Cr  Cr17  1  0.20881800  0.79118200  0.94101400  1
  Te  Te18  1  0.87710600  0.12289400  0.38052300  1
  Te  Te19  1  0.93394000  0.06606000  0.24004300  1
  Te  Te20  1  0.05018100  0.94981900  0.04124000  1
  Te  Te21  1  0.19570500  0.80429500  0.13544600  1
  Te  Te22  1  0.29756900  0.70243100  0.99790300  1
  Te  Te23  1  0.67338700  0.32661300  0.00453600  1
  Te  Te24  1  0.36981900  0.63018100  0.83660500  1
  Te  Te25  1  0.70243100  0.29756900  0.49790300  1
  Te  Te26  1  0.98137100  0.01862900  0.87871000  1
  Te  Te27  1  0.35642400  0.64357600  0.14181600  1
  Te  Te28  1  0.80429500  0.19570500  0.63544600  1
  Te  Te29  1  0.64357600  0.35642400  0.64181600  1
  Te  Te30  1  0.94981900  0.05018100  0.54124000  1
  Te  Te31  1  0.06606000  0.93394000  0.74004300  1
  Te  Te32  1  0.25628600  0.74371400  0.37671800  1
  Te  Te33  1  0.74371400  0.25628600  0.87671800  1
  Te  Te34  1  0.22535500  0.77464500  0.73442700  1
  Te  Te35  1  0.32661300  0.67338700  0.50453600  1
  Te  Te36  1  0.43817700  0.56182300  0.99996100  1
  Te  Te37  1  0.08621100  0.91378900  0.21501200  1
  Te  Te38  1  0.91378900  0.08621100  0.71501200  1
  Te  Te39  1  0.56182300  0.43817700  0.49996100  1
  Te  Te40  1  0.12289400  0.87710600  0.88052300  1
  Te  Te41  1  0.77464500  0.22535500  0.23442700  1
  Te  Te42  1  0.63018100  0.36981900  0.33660500  1
  Te  Te43  1  0.01862900  0.98137100  0.37871000  1
  Cl  Cl44  1  0.49950400  0.50049600  0.14648100  1
  Cl  Cl45  1  0.50049600  0.49950400  0.64648100  1
