# generated using pymatgen
data_SnH20C6(NCl3)2
_symmetry_space_group_name_H-M   'P 1'
_cell_length_a   12.38980800
_cell_length_b   12.38980800
_cell_length_c   12.38980800
_cell_angle_alpha   90.00000000
_cell_angle_beta   90.00000000
_cell_angle_gamma   90.00000000
_symmetry_Int_Tables_number   1
_chemical_formula_structural   SnH20C6(NCl3)2
_chemical_formula_sum   'Sn4 H80 C24 N8 Cl24'
_cell_volume   1901.92649740
_cell_formula_units_Z   4
loop_
 _symmetry_equiv_pos_site_id
 _symmetry_equiv_pos_as_xyz
  1  'x, y, z'
loop_
 _atom_site_type_symbol
 _atom_site_label
 _atom_site_symmetry_multiplicity
 _atom_site_fract_x
 _atom_site_fract_y
 _atom_site_fract_z
 _atom_site_occupancy
  Sn  Sn0  1  0.00000000  0.00000000  0.00000000  1
  Sn  Sn1  1  0.50000000  0.50000000  0.00000000  1
  Sn  Sn2  1  0.50000000  0.00000000  0.50000000  1
  Sn  Sn3  1  0.00000000  0.50000000  0.50000000  1
  H  H4  1  0.63221400  0.34462400  0.36135000  1
  H  H5  1  0.42830800  0.75349300  0.30070700  1
  H  H6  1  0.15537600  0.63865000  0.13221400  1
  H  H7  1  0.30070700  0.42830800  0.75349300  1
  H  H8  1  0.07169200  0.24650700  0.80070700  1
  H  H9  1  0.84462400  0.36135000  0.86778600  1
  H  H10  1  0.86351100  0.20104500  0.23773800  1
  H  H11  1  0.34489200  0.65510800  0.15510800  1
  H  H12  1  0.07169200  0.25349300  0.30070700  1
  H  H13  1  0.13221400  0.34462400  0.13865000  1
  H  H14  1  0.15537600  0.86135000  0.63221400  1
  H  H15  1  0.36135000  0.63221400  0.34462400  1
  H  H16  1  0.92830800  0.75349300  0.19929300  1
  H  H17  1  0.75349300  0.30070700  0.42830800  1
  H  H18  1  0.84489200  0.65510800  0.34489200  1
  H  H19  1  0.86351100  0.29895500  0.73773800  1
  H  H20  1  0.36135000  0.86778600  0.84462400  1
  H  H21  1  0.65510800  0.15510800  0.34489200  1
  H  H22  1  0.70104500  0.26226200  0.13648900  1
  H  H23  1  0.63865000  0.13221400  0.15537600  1
  H  H24  1  0.63648900  0.79895500  0.73773800  1
  H  H25  1  0.19929300  0.92830800  0.75349300  1
  H  H26  1  0.75349300  0.19929300  0.92830800  1
  H  H27  1  0.23773800  0.63648900  0.70104500  1
  H  H28  1  0.15510800  0.15510800  0.15510800  1
  H  H29  1  0.76226200  0.13648900  0.79895500  1
  H  H30  1  0.34462400  0.13865000  0.13221400  1
  H  H31  1  0.73773800  0.63648900  0.79895500  1
  H  H32  1  0.13648900  0.79895500  0.76226200  1
  H  H33  1  0.36778600  0.84462400  0.13865000  1
  H  H34  1  0.36351100  0.20104500  0.26226200  1
  H  H35  1  0.26226200  0.36351100  0.20104500  1
  H  H36  1  0.73773800  0.86351100  0.29895500  1
  H  H37  1  0.36351100  0.29895500  0.76226200  1
  H  H38  1  0.42830800  0.74650700  0.80070700  1
  H  H39  1  0.25349300  0.19929300  0.57169200  1
  H  H40  1  0.13648900  0.70104500  0.26226200  1
  H  H41  1  0.20104500  0.23773800  0.86351100  1
  H  H42  1  0.69929300  0.57169200  0.24650700  1
  H  H43  1  0.65510800  0.34489200  0.84489200  1
  H  H44  1  0.86778600  0.65537600  0.86135000  1
  H  H45  1  0.20104500  0.26226200  0.36351100  1
  H  H46  1  0.13221400  0.15537600  0.63865000  1
  H  H47  1  0.74650700  0.69929300  0.92830800  1
  H  H48  1  0.84489200  0.84489200  0.84489200  1
  H  H49  1  0.86135000  0.86778600  0.65537600  1
  H  H50  1  0.19929300  0.57169200  0.25349300  1
  H  H51  1  0.26226200  0.13648900  0.70104500  1
  H  H52  1  0.13865000  0.13221400  0.34462400  1
  H  H53  1  0.63648900  0.70104500  0.23773800  1
  H  H54  1  0.25349300  0.30070700  0.07169200  1
  H  H55  1  0.13865000  0.36778600  0.84462400  1
  H  H56  1  0.63865000  0.36778600  0.65537600  1
  H  H57  1  0.24650700  0.69929300  0.57169200  1
  H  H58  1  0.29895500  0.76226200  0.36351100  1
  H  H59  1  0.15510800  0.34489200  0.65510800  1
  H  H60  1  0.65537600  0.86135000  0.86778600  1
  H  H61  1  0.70104500  0.23773800  0.63648900  1
  H  H62  1  0.92830800  0.74650700  0.69929300  1
  H  H63  1  0.57169200  0.25349300  0.19929300  1
  H  H64  1  0.74650700  0.80070700  0.42830800  1
  H  H65  1  0.30070700  0.07169200  0.25349300  1
  H  H66  1  0.34489200  0.84489200  0.65510800  1
  H  H67  1  0.36778600  0.65537600  0.63865000  1
  H  H68  1  0.63221400  0.15537600  0.86135000  1
  H  H69  1  0.79895500  0.76226200  0.13648900  1
  H  H70  1  0.57169200  0.24650700  0.69929300  1
  H  H71  1  0.65537600  0.63865000  0.36778600  1
  H  H72  1  0.69929300  0.92830800  0.74650700  1
  H  H73  1  0.24650700  0.80070700  0.07169200  1
  H  H74  1  0.80070700  0.07169200  0.24650700  1
  H  H75  1  0.84462400  0.13865000  0.36778600  1
  H  H76  1  0.23773800  0.86351100  0.20104500  1
  H  H77  1  0.29895500  0.73773800  0.86351100  1
  H  H78  1  0.79895500  0.73773800  0.63648900  1
  H  H79  1  0.34462400  0.36135000  0.63221400  1
  H  H80  1  0.80070700  0.42830800  0.74650700  1
  H  H81  1  0.86778600  0.84462400  0.36135000  1
  H  H82  1  0.76226200  0.36351100  0.29895500  1
  H  H83  1  0.86135000  0.63221400  0.15537600  1
  C  C84  1  0.35042200  0.78684400  0.81103000  1
  C  C85  1  0.21315600  0.18897000  0.64957800  1
  C  C86  1  0.18897000  0.85042200  0.71315600  1
  C  C87  1  0.64957800  0.28684400  0.68897000  1
  C  C88  1  0.68897000  0.85042200  0.78684400  1
  C  C89  1  0.81103000  0.35042200  0.78684400  1
  C  C90  1  0.31103000  0.14957800  0.21315600  1
  C  C91  1  0.64957800  0.21315600  0.18897000  1
  C  C92  1  0.21315600  0.31103000  0.14957800  1
  C  C93  1  0.81103000  0.14957800  0.28684400  1
  C  C94  1  0.28684400  0.81103000  0.14957800  1
  C  C95  1  0.14957800  0.28684400  0.81103000  1
  C  C96  1  0.71315600  0.31103000  0.35042200  1
  C  C97  1  0.35042200  0.71315600  0.31103000  1
  C  C98  1  0.85042200  0.78684400  0.68897000  1
  C  C99  1  0.85042200  0.71315600  0.18897000  1
  C  C100  1  0.71315600  0.18897000  0.85042200  1
  C  C101  1  0.18897000  0.64957800  0.21315600  1
  C  C102  1  0.31103000  0.35042200  0.71315600  1
  C  C103  1  0.78684400  0.68897000  0.85042200  1
  C  C104  1  0.14957800  0.21315600  0.31103000  1
  C  C105  1  0.68897000  0.64957800  0.28684400  1
  C  C106  1  0.28684400  0.68897000  0.64957800  1
  C  C107  1  0.78684400  0.81103000  0.35042200  1
  N  N108  1  0.20344900  0.29655100  0.70344900  1
  N  N109  1  0.79655100  0.79655100  0.79655100  1
  N  N110  1  0.29655100  0.70344900  0.20344900  1
  N  N111  1  0.70344900  0.20344900  0.29655100  1
  N  N112  1  0.70344900  0.29655100  0.79655100  1
  N  N113  1  0.20344900  0.20344900  0.20344900  1
  N  N114  1  0.79655100  0.70344900  0.29655100  1
  N  N115  1  0.29655100  0.79655100  0.70344900  1
  Cl  Cl116  1  0.52590100  0.80408400  0.53317000  1
  Cl  Cl117  1  0.69591600  0.03317000  0.52590100  1
  Cl  Cl118  1  0.80408400  0.53317000  0.52590100  1
  Cl  Cl119  1  0.97409900  0.19591600  0.03317000  1
  Cl  Cl120  1  0.03317000  0.52590100  0.69591600  1
  Cl  Cl121  1  0.19591600  0.03317000  0.97409900  1
  Cl  Cl122  1  0.30408400  0.53317000  0.97409900  1
  Cl  Cl123  1  0.53317000  0.97409900  0.30408400  1
  Cl  Cl124  1  0.80408400  0.96683000  0.02590100  1
  Cl  Cl125  1  0.96683000  0.02590100  0.80408400  1
  Cl  Cl126  1  0.30408400  0.96683000  0.47409900  1
  Cl  Cl127  1  0.19591600  0.46683000  0.47409900  1
  Cl  Cl128  1  0.52590100  0.69591600  0.03317000  1
  Cl  Cl129  1  0.46683000  0.47409900  0.19591600  1
  Cl  Cl130  1  0.69591600  0.46683000  0.02590100  1
  Cl  Cl131  1  0.03317000  0.97409900  0.19591600  1
  Cl  Cl132  1  0.02590100  0.80408400  0.96683000  1
  Cl  Cl133  1  0.02590100  0.69591600  0.46683000  1
  Cl  Cl134  1  0.47409900  0.19591600  0.46683000  1
  Cl  Cl135  1  0.46683000  0.02590100  0.69591600  1
  Cl  Cl136  1  0.96683000  0.47409900  0.30408400  1
  Cl  Cl137  1  0.97409900  0.30408400  0.53317000  1
  Cl  Cl138  1  0.53317000  0.52590100  0.80408400  1
  Cl  Cl139  1  0.47409900  0.30408400  0.96683000  1
