# generated using pymatgen
data_Sr5In3
_symmetry_space_group_name_H-M   'P 1'
_cell_length_a   10.34628970
_cell_length_b   10.34628970
_cell_length_c   10.34628970
_cell_angle_alpha   129.50322987
_cell_angle_beta   129.50322987
_cell_angle_gamma   74.20219202
_symmetry_Int_Tables_number   1
_chemical_formula_structural   Sr5In3
_chemical_formula_sum   'Sr10 In6'
_cell_volume   642.85073843
_cell_formula_units_Z   2
loop_
 _symmetry_equiv_pos_site_id
 _symmetry_equiv_pos_as_xyz
  1  'x, y, z'
loop_
 _atom_site_type_symbol
 _atom_site_label
 _atom_site_symmetry_multiplicity
 _atom_site_fract_x
 _atom_site_fract_y
 _atom_site_fract_z
 _atom_site_occupancy
  Sr  Sr0  1  0.02964900  0.52964900  0.85081900  1
  Sr  Sr1  1  0.32117000  0.82117000  0.85081900  1
  Sr  Sr2  1  0.97035100  0.47035100  0.14918100  1
  Sr  Sr3  1  0.00000000  0.00000000  0.00000000  1
  Sr  Sr4  1  0.47035100  0.32117000  0.50000000  1
  Sr  Sr5  1  0.17883000  0.02964900  0.50000000  1
  Sr  Sr6  1  0.67883000  0.17883000  0.14918100  1
  Sr  Sr7  1  0.52964900  0.67883000  0.50000000  1
  Sr  Sr8  1  0.82117000  0.97035100  0.50000000  1
  Sr  Sr9  1  0.50000000  0.50000000  0.00000000  1
  In  In10  1  0.88401500  0.61598500  0.50000000  1
  In  In11  1  0.61598500  0.11598500  0.73196900  1
  In  In12  1  0.11598500  0.38401500  0.50000000  1
  In  In13  1  0.25000000  0.25000000  0.00000000  1
  In  In14  1  0.38401500  0.88401500  0.26803100  1
  In  In15  1  0.75000000  0.75000000  0.00000000  1
