# generated using pymatgen
data_CdI2
_symmetry_space_group_name_H-M   'P 1'
_cell_length_a   4.33080239
_cell_length_b   4.33080239
_cell_length_c   22.20993000
_cell_angle_alpha   90.00000000
_cell_angle_beta   90.00000000
_cell_angle_gamma   120.00000594
_symmetry_Int_Tables_number   1
_chemical_formula_structural   CdI2
_chemical_formula_sum   'Cd3 I6'
_cell_volume   360.75680402
_cell_formula_units_Z   3
loop_
 _symmetry_equiv_pos_site_id
 _symmetry_equiv_pos_as_xyz
  1  'x, y, z'
loop_
 _atom_site_type_symbol
 _atom_site_label
 _atom_site_symmetry_multiplicity
 _atom_site_fract_x
 _atom_site_fract_y
 _atom_site_fract_z
 _atom_site_occupancy
  Cd  Cd0  1  0.00000000  0.00000000  0.08334900  1
  Cd  Cd1  1  0.33333300  0.66666700  0.41667700  1
  Cd  Cd2  1  0.33333300  0.66666700  0.74996600  1
  I  I3  1  0.00000000  0.00000000  0.67213100  1
  I  I4  1  0.66666700  0.33333300  0.82779800  1
  I  I5  1  0.66666700  0.33333300  0.16115600  1
  I  I6  1  0.00000000  0.00000000  0.33885200  1
  I  I7  1  0.33333300  0.66666700  0.00556800  1
  I  I8  1  0.66666700  0.33333300  0.49450200  1
