# generated using pymatgen
data_CrN2
_symmetry_space_group_name_H-M   'P 1'
_cell_length_a   24.11663000
_cell_length_b   8.03433600
_cell_length_c   12.51507038
_cell_angle_alpha   85.56781182
_cell_angle_beta   90.00000000
_cell_angle_gamma   90.00000000
_symmetry_Int_Tables_number   1
_chemical_formula_structural   CrN2
_chemical_formula_sum   'Cr32 N64'
_cell_volume   2417.68213425
_cell_formula_units_Z   32
loop_
 _symmetry_equiv_pos_site_id
 _symmetry_equiv_pos_as_xyz
  1  'x, y, z'
loop_
 _atom_site_type_symbol
 _atom_site_label
 _atom_site_symmetry_multiplicity
 _atom_site_fract_x
 _atom_site_fract_y
 _atom_site_fract_z
 _atom_site_occupancy
  Cr  Cr0  1  0.52237600  0.06498200  0.26921700  1
  Cr  Cr1  1  0.02237600  0.93501800  0.73078300  1
  Cr  Cr2  1  0.47762400  0.93501800  0.73078300  1
  Cr  Cr3  1  0.97762400  0.06498200  0.26921700  1
  Cr  Cr4  1  0.87118400  0.89950300  0.13457300  1
  Cr  Cr5  1  0.37118400  0.10049700  0.86542700  1
  Cr  Cr6  1  0.12881600  0.10049700  0.86542700  1
  Cr  Cr7  1  0.62881600  0.89950300  0.13457300  1
  Cr  Cr8  1  0.81903200  0.52267500  0.23941900  1
  Cr  Cr9  1  0.31903200  0.47732500  0.76058100  1
  Cr  Cr10  1  0.18096800  0.47732500  0.76058100  1
  Cr  Cr11  1  0.68096800  0.52267500  0.23941900  1
  Cr  Cr12  1  0.93006900  0.40502200  0.39304800  1
  Cr  Cr13  1  0.43006900  0.59497800  0.60695200  1
  Cr  Cr14  1  0.06993100  0.59497800  0.60695200  1
  Cr  Cr15  1  0.56993100  0.40502200  0.39304800  1
  Cr  Cr16  1  0.81696400  0.25897800  0.03700300  1
  Cr  Cr17  1  0.31696400  0.74102200  0.96299700  1
  Cr  Cr18  1  0.18303600  0.74102200  0.96299700  1
  Cr  Cr19  1  0.68303600  0.25897800  0.03700300  1
  Cr  Cr20  1  0.45912500  0.23747300  0.05053700  1
  Cr  Cr21  1  0.95912500  0.76252700  0.94946300  1
  Cr  Cr22  1  0.54087500  0.76252700  0.94946300  1
  Cr  Cr23  1  0.04087500  0.23747300  0.05053700  1
  Cr  Cr24  1  0.43133700  0.63450400  0.10800700  1
  Cr  Cr25  1  0.93133700  0.36549600  0.89199300  1
  Cr  Cr26  1  0.56866300  0.36549600  0.89199300  1
  Cr  Cr27  1  0.06866300  0.63450400  0.10800700  1
  Cr  Cr28  1  0.47124600  0.70806900  0.36121300  1
  Cr  Cr29  1  0.97124600  0.29193100  0.63878700  1
  Cr  Cr30  1  0.52875400  0.29193100  0.63878700  1
  Cr  Cr31  1  0.02875400  0.70806900  0.36121300  1
  N  N32  1  0.58206600  0.97745700  0.22180600  1
  N  N33  1  0.08206600  0.02254300  0.77819400  1
  N  N34  1  0.41793400  0.02254300  0.77819400  1
  N  N35  1  0.91793400  0.97745700  0.22180600  1
  N  N36  1  0.54181800  0.24759300  0.32449800  1
  N  N37  1  0.04181800  0.75240700  0.67550200  1
  N  N38  1  0.45818200  0.75240700  0.67550200  1
  N  N39  1  0.95818200  0.24759300  0.32449800  1
  N  N40  1  0.49284100  0.91398400  0.35821800  1
  N  N41  1  0.99284100  0.08601600  0.64178200  1
  N  N42  1  0.50715900  0.08601600  0.64178200  1
  N  N43  1  0.00715900  0.91398400  0.35821800  1
  N  N44  1  0.47740400  0.11168400  0.16451700  1
  N  N45  1  0.97740400  0.88831600  0.83548300  1
  N  N46  1  0.52259600  0.88831600  0.83548300  1
  N  N47  1  0.02259600  0.11168400  0.16451700  1
  N  N48  1  0.90626300  0.84709800  0.02381900  1
  N  N49  1  0.40626300  0.15290200  0.97618100  1
  N  N50  1  0.09373700  0.15290200  0.97618100  1
  N  N51  1  0.59373700  0.84709800  0.02381900  1
  N  N52  1  0.83986900  0.72130400  0.19428500  1
  N  N53  1  0.33986900  0.27869600  0.80571500  1
  N  N54  1  0.16013100  0.27869600  0.80571500  1
  N  N55  1  0.66013100  0.72130400  0.19428500  1
  N  N56  1  0.82542400  0.06132900  0.09542100  1
  N  N57  1  0.32542400  0.93867100  0.90457900  1
  N  N58  1  0.17457600  0.93867100  0.90457900  1
  N  N59  1  0.67457600  0.06132900  0.09542100  1
  N  N60  1  0.75000000  0.52100100  0.27905700  1
  N  N61  1  0.25000000  0.47899900  0.72094300  1
  N  N62  1  0.86553800  0.45073100  0.33844100  1
  N  N63  1  0.36553800  0.54926900  0.66155900  1
  N  N64  1  0.13446200  0.54926900  0.66155900  1
  N  N65  1  0.63446200  0.45073100  0.33844100  1
  N  N66  1  0.82705500  0.39518500  0.13603300  1
  N  N67  1  0.32705500  0.60481500  0.86396700  1
  N  N68  1  0.17294500  0.60481500  0.86396700  1
  N  N69  1  0.67294500  0.39518500  0.13603300  1
  N  N70  1  0.97095200  0.58044700  0.37002500  1
  N  N71  1  0.47095200  0.41955300  0.62997500  1
  N  N72  1  0.02904800  0.41955300  0.62997500  1
  N  N73  1  0.52904800  0.58044700  0.37002500  1
  N  N74  1  0.92930800  0.34431800  0.52971800  1
  N  N75  1  0.42930800  0.65568200  0.47028200  1
  N  N76  1  0.07069200  0.65568200  0.47028200  1
  N  N77  1  0.57069200  0.34431800  0.52971800  1
  N  N78  1  0.86727100  0.30264000  0.93902800  1
  N  N79  1  0.36727100  0.69736000  0.06097200  1
  N  N80  1  0.13272900  0.69736000  0.06097200  1
  N  N81  1  0.63272900  0.30264000  0.93902800  1
  N  N82  1  0.75000000  0.28381700  0.98813900  1
  N  N83  1  0.25000000  0.71618300  0.01186100  1
  N  N84  1  0.51557800  0.26997500  0.96967700  1
  N  N85  1  0.01557800  0.73002500  0.03032300  1
  N  N86  1  0.48442200  0.73002500  0.03032300  1
  N  N87  1  0.98442200  0.26997500  0.96967700  1
  N  N88  1  0.43618400  0.42363300  0.09309000  1
  N  N89  1  0.93618400  0.57636700  0.90691000  1
  N  N90  1  0.56381600  0.57636700  0.90691000  1
  N  N91  1  0.06381600  0.42363300  0.09309000  1
  N  N92  1  0.43972200  0.66776400  0.24133700  1
  N  N93  1  0.93972200  0.33223600  0.75866300  1
  N  N94  1  0.56027800  0.33223600  0.75866300  1
  N  N95  1  0.06027800  0.66776400  0.24133700  1
