# generated using pymatgen
data_Mg2Zn
_symmetry_space_group_name_H-M   'P 1'
_cell_length_a   6.04665811
_cell_length_b   6.04665811
_cell_length_c   6.04665844
_cell_angle_alpha   50.42664128
_cell_angle_beta   50.42664128
_cell_angle_gamma   50.42664706
_symmetry_Int_Tables_number   1
_chemical_formula_structural   Mg2Zn
_chemical_formula_sum   'Mg4 Zn2'
_cell_volume   120.99909778
_cell_formula_units_Z   2
loop_
 _symmetry_equiv_pos_site_id
 _symmetry_equiv_pos_as_xyz
  1  'x, y, z'
loop_
 _atom_site_type_symbol
 _atom_site_label
 _atom_site_symmetry_multiplicity
 _atom_site_fract_x
 _atom_site_fract_y
 _atom_site_fract_z
 _atom_site_occupancy
  Mg  Mg0  1  0.00000000  0.67025000  0.32975000  1
  Mg  Mg1  1  0.32975000  0.00000000  0.67025000  1
  Mg  Mg2  1  0.50000000  0.50000000  0.50000000  1
  Mg  Mg3  1  0.67025000  0.32975000  0.00000000  1
  Zn  Zn4  1  0.16505900  0.16505900  0.16505900  1
  Zn  Zn5  1  0.83494100  0.83494100  0.83494100  1
