# generated using pymatgen
data_Ca7GeN6
_symmetry_space_group_name_H-M   'P 1'
_cell_length_a   6.21228400
_cell_length_b   10.90762000
_cell_length_c   13.19862600
_cell_angle_alpha   90.00000000
_cell_angle_beta   90.00000000
_cell_angle_gamma   90.00000000
_symmetry_Int_Tables_number   1
_chemical_formula_structural   Ca7GeN6
_chemical_formula_sum   'Ca28 Ge4 N24'
_cell_volume   894.35517436
_cell_formula_units_Z   4
loop_
 _symmetry_equiv_pos_site_id
 _symmetry_equiv_pos_as_xyz
  1  'x, y, z'
loop_
 _atom_site_type_symbol
 _atom_site_label
 _atom_site_symmetry_multiplicity
 _atom_site_fract_x
 _atom_site_fract_y
 _atom_site_fract_z
 _atom_site_occupancy
  Ca  Ca0  1  0.39132400  0.29535200  0.61695600  1
  Ca  Ca1  1  0.14385000  0.77162000  0.62625200  1
  Ca  Ca2  1  0.23082600  0.46202900  0.02102400  1
  Ca  Ca3  1  0.05820400  0.50000000  0.75000000  1
  Ca  Ca4  1  0.23082600  0.53797100  0.47897600  1
  Ca  Ca5  1  0.44179600  0.00000000  0.25000000  1
  Ca  Ca6  1  0.39132400  0.70464800  0.88304400  1
  Ca  Ca7  1  0.35615000  0.27162000  0.37374800  1
  Ca  Ca8  1  0.14385000  0.22838000  0.87374800  1
  Ca  Ca9  1  0.76917400  0.53797100  0.97897600  1
  Ca  Ca10  1  0.89132400  0.20464800  0.61695600  1
  Ca  Ca11  1  0.85615000  0.77162000  0.12625200  1
  Ca  Ca12  1  0.26917400  0.96202900  0.97897600  1
  Ca  Ca13  1  0.60867600  0.70464800  0.38304400  1
  Ca  Ca14  1  0.10867600  0.20464800  0.11695600  1
  Ca  Ca15  1  0.89132400  0.79535200  0.88304400  1
  Ca  Ca16  1  0.73082600  0.03797100  0.02102400  1
  Ca  Ca17  1  0.64385000  0.72838000  0.62625200  1
  Ca  Ca18  1  0.60867600  0.29535200  0.11695600  1
  Ca  Ca19  1  0.26917400  0.03797100  0.52102400  1
  Ca  Ca20  1  0.55820400  0.00000000  0.75000000  1
  Ca  Ca21  1  0.73082600  0.96202900  0.47897600  1
  Ca  Ca22  1  0.10867600  0.79535200  0.38304400  1
  Ca  Ca23  1  0.76917400  0.46202900  0.52102400  1
  Ca  Ca24  1  0.85615000  0.22838000  0.37374800  1
  Ca  Ca25  1  0.94179600  0.50000000  0.25000000  1
  Ca  Ca26  1  0.35615000  0.72838000  0.12625200  1
  Ca  Ca27  1  0.64385000  0.27162000  0.87374800  1
  Ge  Ge28  1  0.43357000  0.50000000  0.25000000  1
  Ge  Ge29  1  0.93357000  0.00000000  0.25000000  1
  Ge  Ge30  1  0.56643000  0.50000000  0.75000000  1
  Ge  Ge31  1  0.06643000  0.00000000  0.75000000  1
  N  N32  1  0.38820400  0.45120300  0.85945400  1
  N  N33  1  0.74648900  0.36733400  0.70654300  1
  N  N34  1  0.75351100  0.13266600  0.20654300  1
  N  N35  1  0.90638400  0.33358300  0.99410400  1
  N  N36  1  0.25351100  0.36733400  0.20654300  1
  N  N37  1  0.74648900  0.63266600  0.79345700  1
  N  N38  1  0.90638400  0.66641700  0.50589600  1
  N  N39  1  0.40638400  0.16641700  0.99410400  1
  N  N40  1  0.75351100  0.86733400  0.29345700  1
  N  N41  1  0.25351100  0.63266600  0.29345700  1
  N  N42  1  0.38820400  0.54879700  0.64054600  1
  N  N43  1  0.59361600  0.16641700  0.49410400  1
  N  N44  1  0.61179600  0.54879700  0.14054600  1
  N  N45  1  0.09361600  0.33358300  0.49410400  1
  N  N46  1  0.61179600  0.45120300  0.35945400  1
  N  N47  1  0.11179600  0.95120300  0.14054600  1
  N  N48  1  0.59361600  0.83358300  0.00589600  1
  N  N49  1  0.24648900  0.13266600  0.70654300  1
  N  N50  1  0.09361600  0.66641700  0.00589600  1
  N  N51  1  0.24648900  0.86733400  0.79345700  1
  N  N52  1  0.40638400  0.83358300  0.50589600  1
  N  N53  1  0.88820400  0.04879700  0.85945400  1
  N  N54  1  0.11179600  0.04879700  0.35945400  1
  N  N55  1  0.88820400  0.95120300  0.64054600  1
