# generated using pymatgen
data_ThMg2
_symmetry_space_group_name_H-M   'P 1'
_cell_length_a   6.07498086
_cell_length_b   6.07498086
_cell_length_c   19.59416600
_cell_angle_alpha   90.00000000
_cell_angle_beta   90.00000000
_cell_angle_gamma   120.00000936
_symmetry_Int_Tables_number   1
_chemical_formula_structural   ThMg2
_chemical_formula_sum   'Th8 Mg16'
_cell_volume   626.24922531
_cell_formula_units_Z   8
loop_
 _symmetry_equiv_pos_site_id
 _symmetry_equiv_pos_as_xyz
  1  'x, y, z'
loop_
 _atom_site_type_symbol
 _atom_site_label
 _atom_site_symmetry_multiplicity
 _atom_site_fract_x
 _atom_site_fract_y
 _atom_site_fract_z
 _atom_site_occupancy
  Th  Th0  1  0.33333300  0.66666700  0.84352200  1
  Th  Th1  1  0.00000000  0.00000000  0.09189100  1
  Th  Th2  1  0.00000000  0.00000000  0.90810900  1
  Th  Th3  1  0.66666700  0.33333300  0.15647800  1
  Th  Th4  1  0.00000000  0.00000000  0.59189100  1
  Th  Th5  1  0.66666700  0.33333300  0.34352200  1
  Th  Th6  1  0.00000000  0.00000000  0.40810900  1
  Th  Th7  1  0.33333300  0.66666700  0.65647800  1
  Mg  Mg8  1  0.50000000  0.50000000  0.50000000  1
  Mg  Mg9  1  0.83860100  0.16139900  0.75000000  1
  Mg  Mg10  1  0.66666700  0.33333300  0.87384400  1
  Mg  Mg11  1  0.16139900  0.32279800  0.25000000  1
  Mg  Mg12  1  0.32279800  0.16139900  0.75000000  1
  Mg  Mg13  1  0.83860100  0.67720200  0.75000000  1
  Mg  Mg14  1  0.50000000  0.00000000  0.50000000  1
  Mg  Mg15  1  0.67720200  0.83860100  0.25000000  1
  Mg  Mg16  1  0.50000000  0.50000000  0.00000000  1
  Mg  Mg17  1  0.16139900  0.83860100  0.25000000  1
  Mg  Mg18  1  0.33333300  0.66666700  0.37384400  1
  Mg  Mg19  1  0.00000000  0.50000000  0.00000000  1
  Mg  Mg20  1  0.66666700  0.33333300  0.62615600  1
  Mg  Mg21  1  0.00000000  0.50000000  0.50000000  1
  Mg  Mg22  1  0.33333300  0.66666700  0.12615600  1
  Mg  Mg23  1  0.50000000  0.00000000  0.00000000  1
