# generated using pymatgen
data_Mg5Zn
_symmetry_space_group_name_H-M   'P 1'
_cell_length_a   6.19925421
_cell_length_b   6.19925421
_cell_length_c   6.19925327
_cell_angle_alpha   50.18567208
_cell_angle_beta   50.18567208
_cell_angle_gamma   50.18566985
_symmetry_Int_Tables_number   1
_chemical_formula_structural   Mg5Zn
_chemical_formula_sum   'Mg5 Zn1'
_cell_volume   129.41404865
_cell_formula_units_Z   1
loop_
 _symmetry_equiv_pos_site_id
 _symmetry_equiv_pos_as_xyz
  1  'x, y, z'
loop_
 _atom_site_type_symbol
 _atom_site_label
 _atom_site_symmetry_multiplicity
 _atom_site_fract_x
 _atom_site_fract_y
 _atom_site_fract_z
 _atom_site_occupancy
  Mg  Mg0  1  0.33843000  0.00000000  0.66157000  1
  Mg  Mg1  1  0.83279300  0.83279300  0.83279300  1
  Mg  Mg2  1  0.00000000  0.66157000  0.33843000  1
  Mg  Mg3  1  0.66157000  0.33843000  0.00000000  1
  Mg  Mg4  1  0.16720700  0.16720700  0.16720700  1
  Zn  Zn5  1  0.50000000  0.50000000  0.50000000  1
