# generated using pymatgen
data_B
_symmetry_space_group_name_H-M   'P 1'
_cell_length_a   8.61960400
_cell_length_b   8.61960400
_cell_length_c   5.06336900
_cell_angle_alpha   90.00000000
_cell_angle_beta   90.00000000
_cell_angle_gamma   90.00000000
_symmetry_Int_Tables_number   1
_chemical_formula_structural   B
_chemical_formula_sum   B50
_cell_volume   376.19602849
_cell_formula_units_Z   50
loop_
 _symmetry_equiv_pos_site_id
 _symmetry_equiv_pos_as_xyz
  1  'x, y, z'
loop_
 _atom_site_type_symbol
 _atom_site_label
 _atom_site_symmetry_multiplicity
 _atom_site_fract_x
 _atom_site_fract_y
 _atom_site_fract_z
 _atom_site_occupancy
  B  B0  1  0.12889500  0.12889500  0.11583000  1
  B  B1  1  0.91786400  0.32891400  0.90357200  1
  B  B2  1  0.72736800  0.58125700  0.09304800  1
  B  B3  1  0.41874300  0.27263200  0.09304800  1
  B  B4  1  0.91874300  0.22736800  0.59304800  1
  B  B5  1  0.25417400  0.25417400  0.58429200  1
  B  B6  1  0.77263200  0.08125700  0.59304800  1
  B  B7  1  0.22736800  0.08125700  0.40695200  1
  B  B8  1  0.62889500  0.37110500  0.61583000  1
  B  B9  1  0.00000000  0.00000000  0.50000000  1
  B  B10  1  0.32891400  0.08213600  0.09642800  1
  B  B11  1  0.91786400  0.67108600  0.09642800  1
  B  B12  1  0.27263200  0.41874300  0.09304800  1
  B  B13  1  0.87110500  0.87110500  0.11583000  1
  B  B14  1  0.87110500  0.12889500  0.88417000  1
  B  B15  1  0.32891400  0.91786400  0.90357200  1
  B  B16  1  0.17108600  0.41786400  0.40357200  1
  B  B17  1  0.74582600  0.25417400  0.41570800  1
  B  B18  1  0.58213600  0.82891400  0.40357200  1
  B  B19  1  0.08213600  0.32891400  0.09642800  1
  B  B20  1  0.24582600  0.24582600  0.91570800  1
  B  B21  1  0.08213600  0.67108600  0.90357200  1
  B  B22  1  0.24582600  0.75417400  0.08429200  1
  B  B23  1  0.25417400  0.74582600  0.41570800  1
  B  B24  1  0.75417400  0.24582600  0.08429200  1
  B  B25  1  0.22736800  0.91874300  0.59304800  1
  B  B26  1  0.37110500  0.62889500  0.61583000  1
  B  B27  1  0.74582600  0.74582600  0.58429200  1
  B  B28  1  0.91874300  0.77263200  0.40695200  1
  B  B29  1  0.12889500  0.87110500  0.88417000  1
  B  B30  1  0.17108600  0.58213600  0.59642800  1
  B  B31  1  0.41874300  0.72736800  0.90695200  1
  B  B32  1  0.58125700  0.72736800  0.09304800  1
  B  B33  1  0.58125700  0.27263200  0.90695200  1
  B  B34  1  0.77263200  0.91874300  0.40695200  1
  B  B35  1  0.82891400  0.41786400  0.59642800  1
  B  B36  1  0.72736800  0.41874300  0.90695200  1
  B  B37  1  0.41786400  0.82891400  0.59642800  1
  B  B38  1  0.82891400  0.58213600  0.40357200  1
  B  B39  1  0.62889500  0.62889500  0.38417000  1
  B  B40  1  0.67108600  0.91786400  0.09642800  1
  B  B41  1  0.27263200  0.58125700  0.90695200  1
  B  B42  1  0.08125700  0.22736800  0.40695200  1
  B  B43  1  0.41786400  0.17108600  0.40357200  1
  B  B44  1  0.50000000  0.50000000  0.00000000  1
  B  B45  1  0.58213600  0.17108600  0.59642800  1
  B  B46  1  0.75417400  0.75417400  0.91570800  1
  B  B47  1  0.37110500  0.37110500  0.38417000  1
  B  B48  1  0.67108600  0.08213600  0.90357200  1
  B  B49  1  0.08125700  0.77263200  0.59304800  1
