# generated using pymatgen
data_SnBi
_symmetry_space_group_name_H-M   'P 1'
_cell_length_a   6.51268482
_cell_length_b   6.51268482
_cell_length_c   6.52694600
_cell_angle_alpha   90.00000000
_cell_angle_beta   90.00000000
_cell_angle_gamma   119.04972626
_symmetry_Int_Tables_number   1
_chemical_formula_structural   SnBi
_chemical_formula_sum   'Sn4 Bi4'
_cell_volume   242.01387066
_cell_formula_units_Z   4
loop_
 _symmetry_equiv_pos_site_id
 _symmetry_equiv_pos_as_xyz
  1  'x, y, z'
loop_
 _atom_site_type_symbol
 _atom_site_label
 _atom_site_symmetry_multiplicity
 _atom_site_fract_x
 _atom_site_fract_y
 _atom_site_fract_z
 _atom_site_occupancy
  Sn  Sn0  1  0.34071200  0.34071200  0.82275700  1
  Sn  Sn1  1  0.65928800  0.65928800  0.17724300  1
  Sn  Sn2  1  0.84071200  0.84071200  0.67724300  1
  Sn  Sn3  1  0.15928800  0.15928800  0.32275700  1
  Bi  Bi4  1  0.79060700  0.20939300  0.00000000  1
  Bi  Bi5  1  0.29060700  0.70939300  0.50000000  1
  Bi  Bi6  1  0.70939300  0.29060700  0.50000000  1
  Bi  Bi7  1  0.20939300  0.79060700  0.00000000  1
