# generated using pymatgen
data_SbSe3N2Cl7
_symmetry_space_group_name_H-M   'P 1'
_cell_length_a   7.33547600
_cell_length_b   7.37064368
_cell_length_c   15.76967756
_cell_angle_alpha   89.84069170
_cell_angle_beta   94.27511374
_cell_angle_gamma   112.05111206
_symmetry_Int_Tables_number   1
_chemical_formula_structural   SbSe3N2Cl7
_chemical_formula_sum   'Sb2 Se6 N4 Cl14'
_cell_volume   787.76020048
_cell_formula_units_Z   2
loop_
 _symmetry_equiv_pos_site_id
 _symmetry_equiv_pos_as_xyz
  1  'x, y, z'
loop_
 _atom_site_type_symbol
 _atom_site_label
 _atom_site_symmetry_multiplicity
 _atom_site_fract_x
 _atom_site_fract_y
 _atom_site_fract_z
 _atom_site_occupancy
  Sb  Sb0  1  0.01124100  0.87664400  0.50066100  1
  Sb  Sb1  1  0.99937300  0.99671500  0.00006400  1
  Se  Se2  1  0.67070900  0.19470300  0.66518600  1
  Se  Se3  1  0.60848300  0.64503300  0.25975300  1
  Se  Se4  1  0.90141500  0.49810900  0.80644500  1
  Se  Se5  1  0.18070800  0.56331900  0.19112400  1
  Se  Se6  1  0.35756600  0.47742600  0.36229500  1
  Se  Se7  1  0.54107700  0.32689100  0.82769500  1
  N  N8  1  0.44172700  0.69013300  0.18674200  1
  N  N9  1  0.49736400  0.15905600  0.74405400  1
  N  N10  1  0.88575600  0.37791100  0.70957300  1
  N  N11  1  0.15672100  0.46048400  0.29153000  1
  Cl  Cl12  1  0.73663400  0.67565900  0.99393000  1
  Cl  Cl13  1  0.82170400  0.54416000  0.44494300  1
  Cl  Cl14  1  0.96858500  0.01054500  0.84652600  1
  Cl  Cl15  1  0.26210000  0.31612200  0.00707000  1
  Cl  Cl16  1  0.24921200  0.76538800  0.57213700  1
  Cl  Cl17  1  0.19120900  0.20634100  0.55416100  1
  Cl  Cl18  1  0.03285300  0.98014300  0.15382000  1
  Cl  Cl19  1  0.65163400  0.37082900  0.21199800  1
  Cl  Cl20  1  0.19617300  0.94295500  0.37629900  1
  Cl  Cl21  1  0.76967100  0.98505300  0.42759700  1
  Cl  Cl22  1  0.23269500  0.84182000  0.98861300  1
  Cl  Cl23  1  0.81840100  0.80408700  0.62262600  1
  Cl  Cl24  1  0.43007200  0.56319500  0.77913600  1
  Cl  Cl25  1  0.76557800  0.15056700  0.01212500  1
