# generated using pymatgen
data_SnH16C4(NCl3)2
_symmetry_space_group_name_H-M   'P 1'
_cell_length_a   7.38859300
_cell_length_b   7.50292100
_cell_length_c   14.69345800
_cell_angle_alpha   90.00000000
_cell_angle_beta   90.00000000
_cell_angle_gamma   90.00000000
_symmetry_Int_Tables_number   1
_chemical_formula_structural   SnH16C4(NCl3)2
_chemical_formula_sum   'Sn2 H32 C8 N4 Cl12'
_cell_volume   814.54697232
_cell_formula_units_Z   2
loop_
 _symmetry_equiv_pos_site_id
 _symmetry_equiv_pos_as_xyz
  1  'x, y, z'
loop_
 _atom_site_type_symbol
 _atom_site_label
 _atom_site_symmetry_multiplicity
 _atom_site_fract_x
 _atom_site_fract_y
 _atom_site_fract_z
 _atom_site_occupancy
  Sn  Sn0  1  0.00000000  0.00000000  0.00000000  1
  Sn  Sn1  1  0.50000000  0.50000000  0.50000000  1
  H  H2  1  0.87917500  0.65482900  0.23897700  1
  H  H3  1  0.12082500  0.65482900  0.23897700  1
  H  H4  1  0.00000000  0.94158400  0.43427500  1
  H  H5  1  0.50000000  0.55841600  0.93427500  1
  H  H6  1  0.87857100  0.06535900  0.67120800  1
  H  H7  1  0.62142900  0.56535900  0.82879200  1
  H  H8  1  0.50000000  0.96433800  0.21771700  1
  H  H9  1  0.12142900  0.93464100  0.32879200  1
  H  H10  1  0.38855900  0.85214400  0.90434000  1
  H  H11  1  0.37857100  0.56535900  0.82879200  1
  H  H12  1  0.62082500  0.15482900  0.26102300  1
  H  H13  1  0.61144100  0.14785600  0.09566000  1
  H  H14  1  0.11144100  0.64785600  0.40434000  1
  H  H15  1  0.61144100  0.85214400  0.90434000  1
  H  H16  1  0.88855900  0.64785600  0.40434000  1
  H  H17  1  0.12082500  0.34517100  0.76102300  1
  H  H18  1  0.11144100  0.35214400  0.59566000  1
  H  H19  1  0.50000000  0.44158400  0.06572500  1
  H  H20  1  0.87857100  0.93464100  0.32879200  1
  H  H21  1  0.38855900  0.14785600  0.09566000  1
  H  H22  1  0.62142900  0.43464100  0.17120800  1
  H  H23  1  0.37917500  0.15482900  0.26102300  1
  H  H24  1  0.00000000  0.46433800  0.28228300  1
  H  H25  1  0.37917500  0.84517100  0.73897700  1
  H  H26  1  0.12142900  0.06535900  0.67120800  1
  H  H27  1  0.00000000  0.05841600  0.56572500  1
  H  H28  1  0.87917500  0.34517100  0.76102300  1
  H  H29  1  0.50000000  0.03566200  0.78228300  1
  H  H30  1  0.62082500  0.84517100  0.73897700  1
  H  H31  1  0.37857100  0.43464100  0.17120800  1
  H  H32  1  0.88855900  0.35214400  0.59566000  1
  H  H33  1  0.00000000  0.53566200  0.71771700  1
  C  C34  1  0.00000000  0.60944400  0.27533600  1
  C  C35  1  0.00000000  0.10990100  0.63523800  1
  C  C36  1  0.50000000  0.89055600  0.77533600  1
  C  C37  1  0.50000000  0.10944400  0.22466400  1
  C  C38  1  0.50000000  0.60990100  0.86476200  1
  C  C39  1  0.00000000  0.89009900  0.36476200  1
  C  C40  1  0.50000000  0.39009900  0.13523800  1
  C  C41  1  0.00000000  0.39055600  0.72466400  1
  N  N42  1  0.00000000  0.69151100  0.36773600  1
  N  N43  1  0.00000000  0.30848900  0.63226400  1
  N  N44  1  0.50000000  0.19151100  0.13226400  1
  N  N45  1  0.50000000  0.80848900  0.86773600  1
  Cl  Cl46  1  0.25811600  0.30804300  0.43662600  1
  Cl  Cl47  1  0.75811600  0.19195700  0.93662600  1
  Cl  Cl48  1  0.50000000  0.32155600  0.64185200  1
  Cl  Cl49  1  0.75811600  0.80804300  0.06337400  1
  Cl  Cl50  1  0.50000000  0.67844400  0.35814800  1
  Cl  Cl51  1  0.25811600  0.69195700  0.56337400  1
  Cl  Cl52  1  0.74188400  0.69195700  0.56337400  1
  Cl  Cl53  1  0.24188400  0.19195700  0.93662600  1
  Cl  Cl54  1  0.00000000  0.82155600  0.85814800  1
  Cl  Cl55  1  0.24188400  0.80804300  0.06337400  1
  Cl  Cl56  1  0.74188400  0.30804300  0.43662600  1
  Cl  Cl57  1  0.00000000  0.17844400  0.14185200  1
