# generated using pymatgen
data_B5W2
_symmetry_space_group_name_H-M   'P 1'
_cell_length_a   3.10174615
_cell_length_b   3.10174615
_cell_length_c   14.28969500
_cell_angle_alpha   90.00000000
_cell_angle_beta   90.00000000
_cell_angle_gamma   120.00000310
_symmetry_Int_Tables_number   1
_chemical_formula_structural   B5W2
_chemical_formula_sum   'B10 W4'
_cell_volume   119.06005526
_cell_formula_units_Z   2
loop_
 _symmetry_equiv_pos_site_id
 _symmetry_equiv_pos_as_xyz
  1  'x, y, z'
loop_
 _atom_site_type_symbol
 _atom_site_label
 _atom_site_symmetry_multiplicity
 _atom_site_fract_x
 _atom_site_fract_y
 _atom_site_fract_z
 _atom_site_occupancy
  B  B0  1  0.33333300  0.66666700  0.97323900  1
  B  B1  1  0.66666700  0.33333300  0.47323900  1
  B  B2  1  0.00000000  0.00000000  0.00000000  1
  B  B3  1  0.33333300  0.66666700  0.52676100  1
  B  B4  1  0.00000000  0.00000000  0.25000000  1
  B  B5  1  0.66666700  0.33333300  0.25000000  1
  B  B6  1  0.66666700  0.33333300  0.02676100  1
  B  B7  1  0.33333300  0.66666700  0.75000000  1
  B  B8  1  0.00000000  0.00000000  0.75000000  1
  B  B9  1  0.00000000  0.00000000  0.50000000  1
  W  W10  1  0.66666700  0.33333300  0.86495400  1
  W  W11  1  0.33333300  0.66666700  0.13504600  1
  W  W12  1  0.33333300  0.66666700  0.36495400  1
  W  W13  1  0.66666700  0.33333300  0.63504600  1
