# generated using pymatgen
data_CaCu9Sn4
_symmetry_space_group_name_H-M   'P 1'
_cell_length_a   8.74065919
_cell_length_b   8.74065919
_cell_length_c   8.74065919
_cell_angle_alpha   120.53101904
_cell_angle_beta   120.53101904
_cell_angle_gamma   89.08268276
_symmetry_Int_Tables_number   1
_chemical_formula_structural   CaCu9Sn4
_chemical_formula_sum   'Ca2 Cu18 Sn8'
_cell_volume   468.33578944
_cell_formula_units_Z   2
loop_
 _symmetry_equiv_pos_site_id
 _symmetry_equiv_pos_as_xyz
  1  'x, y, z'
loop_
 _atom_site_type_symbol
 _atom_site_label
 _atom_site_symmetry_multiplicity
 _atom_site_fract_x
 _atom_site_fract_y
 _atom_site_fract_z
 _atom_site_occupancy
  Ca  Ca0  1  0.25000000  0.25000000  0.00000000  1
  Ca  Ca1  1  0.75000000  0.75000000  0.00000000  1
  Cu  Cu2  1  0.55516200  0.70133700  0.25649800  1
  Cu  Cu3  1  0.79866300  0.94483800  0.74350200  1
  Cu  Cu4  1  0.94483800  0.20133700  0.14617500  1
  Cu  Cu5  1  0.20133700  0.05516200  0.25649800  1
  Cu  Cu6  1  0.56621200  0.28204600  0.50000000  1
  Cu  Cu7  1  0.71795400  0.21795400  0.28416600  1
  Cu  Cu8  1  0.21795400  0.93378800  0.50000000  1
  Cu  Cu9  1  0.78204600  0.06621200  0.50000000  1
  Cu  Cu10  1  0.93378800  0.43378800  0.71583400  1
  Cu  Cu11  1  0.06621200  0.56621200  0.28416600  1
  Cu  Cu12  1  0.44483800  0.29866300  0.74350200  1
  Cu  Cu13  1  0.05516200  0.79866300  0.85382500  1
  Cu  Cu14  1  0.43378800  0.71795400  0.50000000  1
  Cu  Cu15  1  0.70133700  0.44483800  0.14617500  1
  Cu  Cu16  1  0.50000000  0.00000000  0.50000000  1
  Cu  Cu17  1  0.28204600  0.78204600  0.71583400  1
  Cu  Cu18  1  0.29866300  0.55516200  0.85382500  1
  Cu  Cu19  1  0.00000000  0.50000000  0.50000000  1
  Sn  Sn20  1  0.55932900  0.05932900  0.87177800  1
  Sn  Sn21  1  0.81244800  0.31244800  0.87177800  1
  Sn  Sn22  1  0.94067100  0.81244800  0.50000000  1
  Sn  Sn23  1  0.68755200  0.55932900  0.50000000  1
  Sn  Sn24  1  0.18755200  0.68755200  0.12822200  1
  Sn  Sn25  1  0.31244800  0.44067100  0.50000000  1
  Sn  Sn26  1  0.05932900  0.18755200  0.50000000  1
  Sn  Sn27  1  0.44067100  0.94067100  0.12822200  1
