# generated using pymatgen
data_CdI2
_symmetry_space_group_name_H-M   'P 1'
_cell_length_a   4.33234403
_cell_length_b   4.33234403
_cell_length_c   51.86317500
_cell_angle_alpha   90.00000000
_cell_angle_beta   90.00000000
_cell_angle_gamma   120.00000050
_symmetry_Int_Tables_number   1
_chemical_formula_structural   CdI2
_chemical_formula_sum   'Cd7 I14'
_cell_volume   843.01558447
_cell_formula_units_Z   7
loop_
 _symmetry_equiv_pos_site_id
 _symmetry_equiv_pos_as_xyz
  1  'x, y, z'
loop_
 _atom_site_type_symbol
 _atom_site_label
 _atom_site_symmetry_multiplicity
 _atom_site_fract_x
 _atom_site_fract_y
 _atom_site_fract_z
 _atom_site_occupancy
  Cd  Cd0  1  0.00000000  0.00000000  0.17860100  1
  Cd  Cd1  1  0.00000000  0.00000000  0.75001700  1
  Cd  Cd2  1  0.00000000  0.00000000  0.89283400  1
  Cd  Cd3  1  0.66666700  0.33333300  0.32140800  1
  Cd  Cd4  1  0.00000000  0.00000000  0.46432800  1
  Cd  Cd5  1  0.66666700  0.33333300  0.60710900  1
  Cd  Cd6  1  0.66666700  0.33333300  0.03571300  1
  I  I7  1  0.66666700  0.33333300  0.43104800  1
  I  I8  1  0.66666700  0.33333300  0.14531100  1
  I  I9  1  0.66666700  0.33333300  0.85957200  1
  I  I10  1  0.33333300  0.66666700  0.06898600  1
  I  I11  1  0.33333300  0.66666700  0.21187900  1
  I  I12  1  0.33333300  0.66666700  0.35469700  1
  I  I13  1  0.33333300  0.66666700  0.64039400  1
  I  I14  1  0.00000000  0.00000000  0.00246200  1
  I  I15  1  0.33333300  0.66666700  0.78326800  1
  I  I16  1  0.33333300  0.66666700  0.92609900  1
  I  I17  1  0.00000000  0.00000000  0.57378000  1
  I  I18  1  0.33333300  0.66666700  0.49761800  1
  I  I19  1  0.66666700  0.33333300  0.71676100  1
  I  I20  1  0.00000000  0.00000000  0.28811400  1
