# generated using pymatgen
data_CdI2
_symmetry_space_group_name_H-M   'P 1'
_cell_length_a   4.33262138
_cell_length_b   4.33262138
_cell_length_c   51.82098600
_cell_angle_alpha   90.00000000
_cell_angle_beta   90.00000000
_cell_angle_gamma   119.99999052
_symmetry_Int_Tables_number   1
_chemical_formula_structural   CdI2
_chemical_formula_sum   'Cd7 I14'
_cell_volume   842.43775483
_cell_formula_units_Z   7
loop_
 _symmetry_equiv_pos_site_id
 _symmetry_equiv_pos_as_xyz
  1  'x, y, z'
loop_
 _atom_site_type_symbol
 _atom_site_label
 _atom_site_symmetry_multiplicity
 _atom_site_fract_x
 _atom_site_fract_y
 _atom_site_fract_z
 _atom_site_occupancy
  Cd  Cd0  1  0.00000000  0.00000000  0.89283600  1
  Cd  Cd1  1  0.00000000  0.00000000  0.32138400  1
  Cd  Cd2  1  0.66666700  0.33333300  0.46428500  1
  Cd  Cd3  1  0.00000000  0.00000000  0.60715800  1
  Cd  Cd4  1  0.00000000  0.00000000  0.17861300  1
  Cd  Cd5  1  0.66666700  0.33333300  0.03571700  1
  Cd  Cd6  1  0.00000000  0.00000000  0.74999800  1
  I  I7  1  0.66666700  0.33333300  0.28808600  1
  I  I8  1  0.66666700  0.33333300  0.14530500  1
  I  I9  1  0.33333300  0.66666700  0.06901500  1
  I  I10  1  0.66666700  0.33333300  0.57387500  1
  I  I11  1  0.33333300  0.66666700  0.21191200  1
  I  I12  1  0.33333300  0.66666700  0.35469200  1
  I  I13  1  0.00000000  0.00000000  0.43097200  1
  I  I14  1  0.33333300  0.66666700  0.64044100  1
  I  I15  1  0.00000000  0.00000000  0.00243800  1
  I  I16  1  0.33333300  0.66666700  0.78327100  1
  I  I17  1  0.33333300  0.66666700  0.92611900  1
  I  I18  1  0.66666700  0.33333300  0.85955800  1
  I  I19  1  0.33333300  0.66666700  0.49760300  1
  I  I20  1  0.66666700  0.33333300  0.71672400  1
