# generated using pymatgen
data_K6Sn25
_symmetry_space_group_name_H-M   'P 1'
_cell_length_a   16.61228100
_cell_length_b   16.61228100
_cell_length_c   16.61228100
_cell_angle_alpha   90.00000000
_cell_angle_beta   90.00000000
_cell_angle_gamma   90.00000000
_symmetry_Int_Tables_number   1
_chemical_formula_structural   K6Sn25
_chemical_formula_sum   'K24 Sn100'
_cell_volume   4584.45596992
_cell_formula_units_Z   4
loop_
 _symmetry_equiv_pos_site_id
 _symmetry_equiv_pos_as_xyz
  1  'x, y, z'
loop_
 _atom_site_type_symbol
 _atom_site_label
 _atom_site_symmetry_multiplicity
 _atom_site_fract_x
 _atom_site_fract_y
 _atom_site_fract_z
 _atom_site_occupancy
  K  K0  1  0.62500000  0.18965200  0.06034800  1
  K  K1  1  0.06034800  0.62500000  0.18965200  1
  K  K2  1  0.87500000  0.81034800  0.56034800  1
  K  K3  1  0.81034800  0.56034800  0.87500000  1
  K  K4  1  0.18965200  0.06034800  0.62500000  1
  K  K5  1  0.12500000  0.87500000  0.37500000  1
  K  K6  1  0.19038600  0.69038600  0.80961400  1
  K  K7  1  0.44038600  0.55961400  0.05961400  1
  K  K8  1  0.05961400  0.44038600  0.55961400  1
  K  K9  1  0.37500000  0.12500000  0.87500000  1
  K  K10  1  0.43965200  0.37500000  0.68965200  1
  K  K11  1  0.37500000  0.68965200  0.43965200  1
  K  K12  1  0.55961400  0.05961400  0.44038600  1
  K  K13  1  0.93965200  0.12500000  0.31034800  1
  K  K14  1  0.94038600  0.94038600  0.94038600  1
  K  K15  1  0.87500000  0.37500000  0.12500000  1
  K  K16  1  0.80961400  0.19038600  0.69038600  1
  K  K17  1  0.56034800  0.87500000  0.81034800  1
  K  K18  1  0.69038600  0.80961400  0.19038600  1
  K  K19  1  0.62500000  0.62500000  0.62500000  1
  K  K20  1  0.68965200  0.43965200  0.37500000  1
  K  K21  1  0.30961400  0.30961400  0.30961400  1
  K  K22  1  0.31034800  0.93965200  0.12500000  1
  K  K23  1  0.12500000  0.31034800  0.93965200  1
  Sn  Sn24  1  0.21979500  0.28020500  0.71979500  1
  Sn  Sn25  1  0.29402700  0.54629100  0.24756800  1
  Sn  Sn26  1  0.79629100  0.04402700  0.50243200  1
  Sn  Sn27  1  0.53020500  0.96979500  0.03020500  1
  Sn  Sn28  1  0.76084600  0.93274200  0.37439500  1
  Sn  Sn29  1  0.33919200  0.90215000  0.83328900  1
  Sn  Sn30  1  0.16080800  0.09785000  0.33328900  1
  Sn  Sn31  1  0.28020500  0.71979500  0.21979500  1
  Sn  Sn32  1  0.91671100  0.15215000  0.08919200  1
  Sn  Sn33  1  0.71979500  0.21979500  0.28020500  1
  Sn  Sn34  1  0.87500000  0.17024400  0.92024400  1
  Sn  Sn35  1  0.08919200  0.91671100  0.15215000  1
  Sn  Sn36  1  0.83919200  0.59785000  0.16671100  1
  Sn  Sn37  1  0.20370900  0.54402700  0.99756800  1
  Sn  Sn38  1  0.84785000  0.58919200  0.58328900  1
  Sn  Sn39  1  0.65215000  0.41080800  0.08328900  1
  Sn  Sn40  1  0.54629100  0.24756800  0.29402700  1
  Sn  Sn41  1  0.37500000  0.32975600  0.07975600  1
  Sn  Sn42  1  0.17559900  0.17559900  0.17559900  1
  Sn  Sn43  1  0.74756800  0.20597300  0.45370900  1
  Sn  Sn44  1  0.00243200  0.70370900  0.95597300  1
  Sn  Sn45  1  0.42024400  0.62500000  0.82975600  1
  Sn  Sn46  1  0.68274200  0.98915400  0.62439500  1
  Sn  Sn47  1  0.40215000  0.66671100  0.66080800  1
  Sn  Sn48  1  0.62439500  0.68274200  0.98915400  1
  Sn  Sn49  1  0.04629100  0.25243200  0.70597300  1
  Sn  Sn50  1  0.49756800  0.29629100  0.45597300  1
  Sn  Sn51  1  0.90215000  0.83328900  0.33919200  1
  Sn  Sn52  1  0.23915400  0.43274200  0.12560500  1
  Sn  Sn53  1  0.03020500  0.53020500  0.96979500  1
  Sn  Sn54  1  0.07975600  0.37500000  0.32975600  1
  Sn  Sn55  1  0.25243200  0.70597300  0.04629100  1
  Sn  Sn56  1  0.45370900  0.74756800  0.20597300  1
  Sn  Sn57  1  0.01084600  0.12439500  0.81725800  1
  Sn  Sn58  1  0.95370900  0.75243200  0.79402700  1
  Sn  Sn59  1  0.75243200  0.79402700  0.95370900  1
  Sn  Sn60  1  0.51084600  0.37560500  0.18274200  1
  Sn  Sn61  1  0.34785000  0.91080800  0.41671100  1
  Sn  Sn62  1  0.41671100  0.34785000  0.91080800  1
  Sn  Sn63  1  0.24756800  0.29402700  0.54629100  1
  Sn  Sn64  1  0.26084600  0.56725800  0.62560500  1
  Sn  Sn65  1  0.92024400  0.87500000  0.17024400  1
  Sn  Sn66  1  0.87560500  0.31725800  0.48915400  1
  Sn  Sn67  1  0.08328900  0.65215000  0.41080800  1
  Sn  Sn68  1  0.56725800  0.62560500  0.26084600  1
  Sn  Sn69  1  0.83328900  0.33919200  0.90215000  1
  Sn  Sn70  1  0.17024400  0.92024400  0.87500000  1
  Sn  Sn71  1  0.16671100  0.83919200  0.59785000  1
  Sn  Sn72  1  0.07440100  0.07440100  0.07440100  1
  Sn  Sn73  1  0.37560500  0.18274200  0.51084600  1
  Sn  Sn74  1  0.18274200  0.51084600  0.37560500  1
  Sn  Sn75  1  0.57440100  0.42559900  0.92559900  1
  Sn  Sn76  1  0.70370900  0.95597300  0.00243200  1
  Sn  Sn77  1  0.42559900  0.92559900  0.57440100  1
  Sn  Sn78  1  0.46979500  0.46979500  0.46979500  1
  Sn  Sn79  1  0.95597300  0.00243200  0.70370900  1
  Sn  Sn80  1  0.12500000  0.67024400  0.57975600  1
  Sn  Sn81  1  0.57975600  0.12500000  0.67024400  1
  Sn  Sn82  1  0.70597300  0.04629100  0.25243200  1
  Sn  Sn83  1  0.91080800  0.41671100  0.34785000  1
  Sn  Sn84  1  0.99756800  0.20370900  0.54402700  1
  Sn  Sn85  1  0.82975600  0.42024400  0.62500000  1
  Sn  Sn86  1  0.67024400  0.57975600  0.12500000  1
  Sn  Sn87  1  0.93274200  0.37439500  0.76084600  1
  Sn  Sn88  1  0.54402700  0.99756800  0.20370900  1
  Sn  Sn89  1  0.87439500  0.73915400  0.06725800  1
  Sn  Sn90  1  0.48915400  0.87560500  0.31725800  1
  Sn  Sn91  1  0.12560500  0.23915400  0.43274200  1
  Sn  Sn92  1  0.62560500  0.26084600  0.56725800  1
  Sn  Sn93  1  0.66080800  0.40215000  0.66671100  1
  Sn  Sn94  1  0.04402700  0.50243200  0.79629100  1
  Sn  Sn95  1  0.67559900  0.32440100  0.82440100  1
  Sn  Sn96  1  0.92559900  0.57440100  0.42559900  1
  Sn  Sn97  1  0.73915400  0.06725800  0.87439500  1
  Sn  Sn98  1  0.66671100  0.66080800  0.40215000  1
  Sn  Sn99  1  0.78020500  0.78020500  0.78020500  1
  Sn  Sn100  1  0.45597300  0.49756800  0.29629100  1
  Sn  Sn101  1  0.15215000  0.08919200  0.91671100  1
  Sn  Sn102  1  0.82440100  0.67559900  0.32440100  1
  Sn  Sn103  1  0.58919200  0.58328900  0.84785000  1
  Sn  Sn104  1  0.37439500  0.76084600  0.93274200  1
  Sn  Sn105  1  0.09785000  0.33328900  0.16080800  1
  Sn  Sn106  1  0.59785000  0.16671100  0.83919200  1
  Sn  Sn107  1  0.96979500  0.03020500  0.53020500  1
  Sn  Sn108  1  0.32975600  0.07975600  0.37500000  1
  Sn  Sn109  1  0.50243200  0.79629100  0.04402700  1
  Sn  Sn110  1  0.41080800  0.08328900  0.65215000  1
  Sn  Sn111  1  0.58328900  0.84785000  0.58919200  1
  Sn  Sn112  1  0.43274200  0.12560500  0.23915400  1
  Sn  Sn113  1  0.98915400  0.62439500  0.68274200  1
  Sn  Sn114  1  0.31725800  0.48915400  0.87560500  1
  Sn  Sn115  1  0.29629100  0.45597300  0.49756800  1
  Sn  Sn116  1  0.32440100  0.82440100  0.67559900  1
  Sn  Sn117  1  0.12439500  0.81725800  0.01084600  1
  Sn  Sn118  1  0.79402700  0.95370900  0.75243200  1
  Sn  Sn119  1  0.33328900  0.16080800  0.09785000  1
  Sn  Sn120  1  0.06725800  0.87439500  0.73915400  1
  Sn  Sn121  1  0.62500000  0.82975600  0.42024400  1
  Sn  Sn122  1  0.81725800  0.01084600  0.12439500  1
  Sn  Sn123  1  0.20597300  0.45370900  0.74756800  1
