# generated using pymatgen
data_TlCl
_symmetry_space_group_name_H-M   'P 1'
_cell_length_a   6.58535308
_cell_length_b   6.58535308
_cell_length_c   4.81795000
_cell_angle_alpha   90.00000000
_cell_angle_beta   90.00000000
_cell_angle_gamma   141.27155971
_symmetry_Int_Tables_number   1
_chemical_formula_structural   TlCl
_chemical_formula_sum   'Tl2 Cl2'
_cell_volume   130.71877249
_cell_formula_units_Z   2
loop_
 _symmetry_equiv_pos_site_id
 _symmetry_equiv_pos_as_xyz
  1  'x, y, z'
loop_
 _atom_site_type_symbol
 _atom_site_label
 _atom_site_symmetry_multiplicity
 _atom_site_fract_x
 _atom_site_fract_y
 _atom_site_fract_z
 _atom_site_occupancy
  Tl  Tl0  1  0.61952400  0.38047600  0.25000000  1
  Tl  Tl1  1  0.38047600  0.61952400  0.75000000  1
  Cl  Cl2  1  0.13853600  0.86146400  0.75000000  1
  Cl  Cl3  1  0.86146400  0.13853600  0.25000000  1
