# generated using pymatgen
data_RbAuN12
_symmetry_space_group_name_H-M   'P 1'
_cell_length_a   7.64925809
_cell_length_b   7.64925809
_cell_length_c   8.38611672
_cell_angle_alpha   89.18006956
_cell_angle_beta   89.18006956
_cell_angle_gamma   90.92774367
_symmetry_Int_Tables_number   1
_chemical_formula_structural   RbAuN12
_chemical_formula_sum   'Rb2 Au2 N24'
_cell_volume   490.51487303
_cell_formula_units_Z   2
loop_
 _symmetry_equiv_pos_site_id
 _symmetry_equiv_pos_as_xyz
  1  'x, y, z'
loop_
 _atom_site_type_symbol
 _atom_site_label
 _atom_site_symmetry_multiplicity
 _atom_site_fract_x
 _atom_site_fract_y
 _atom_site_fract_z
 _atom_site_occupancy
  Rb  Rb0  1  0.08518300  0.91481700  0.25000000  1
  Rb  Rb1  1  0.91481700  0.08518300  0.75000000  1
  Au  Au2  1  0.50669000  0.49331000  0.75000000  1
  Au  Au3  1  0.49331000  0.50669000  0.25000000  1
  N  N4  1  0.91253300  0.27640800  0.08642100  1
  N  N5  1  0.40400600  0.16611200  0.89209700  1
  N  N6  1  0.16611200  0.40400600  0.39209700  1
  N  N7  1  0.38950700  0.82700800  0.63292900  1
  N  N8  1  0.75253000  0.51858200  0.17992300  1
  N  N9  1  0.24747000  0.48141800  0.82007700  1
  N  N10  1  0.82700800  0.38950700  0.13292900  1
  N  N11  1  0.71072600  0.90556900  0.04109300  1
  N  N12  1  0.17299200  0.61049300  0.86707100  1
  N  N13  1  0.28927400  0.09443100  0.95890700  1
  N  N14  1  0.51858200  0.75253000  0.67992300  1
  N  N15  1  0.23220700  0.52931900  0.32228600  1
  N  N16  1  0.83388800  0.59599400  0.60790300  1
  N  N17  1  0.09443100  0.28927400  0.45890700  1
  N  N18  1  0.90556900  0.71072600  0.54109300  1
  N  N19  1  0.59599400  0.83388800  0.10790300  1
  N  N20  1  0.08746700  0.72359200  0.91357900  1
  N  N21  1  0.76779300  0.47068100  0.67771400  1
  N  N22  1  0.27640800  0.91253300  0.58642100  1
  N  N23  1  0.47068100  0.76779300  0.17771400  1
  N  N24  1  0.52931900  0.23220700  0.82228600  1
  N  N25  1  0.48141800  0.24747000  0.32007700  1
  N  N26  1  0.61049300  0.17299200  0.36707100  1
  N  N27  1  0.72359200  0.08746700  0.41357900  1
