# generated using pymatgen
data_AlTeCl7
_symmetry_space_group_name_H-M   'P 1'
_cell_length_a   6.79427900
_cell_length_b   8.78460297
_cell_length_c   20.34757804
_cell_angle_alpha   93.65357866
_cell_angle_beta   94.83092176
_cell_angle_gamma   96.70462918
_symmetry_Int_Tables_number   1
_chemical_formula_structural   AlTeCl7
_chemical_formula_sum   'Al4 Te4 Cl28'
_cell_volume   1198.53161297
_cell_formula_units_Z   4
loop_
 _symmetry_equiv_pos_site_id
 _symmetry_equiv_pos_as_xyz
  1  'x, y, z'
loop_
 _atom_site_type_symbol
 _atom_site_label
 _atom_site_symmetry_multiplicity
 _atom_site_fract_x
 _atom_site_fract_y
 _atom_site_fract_z
 _atom_site_occupancy
  Al  Al0  1  0.30887700  0.10951900  0.39828000  1
  Al  Al1  1  0.72279000  0.33633900  0.87851700  1
  Al  Al2  1  0.69112300  0.89048100  0.60172000  1
  Al  Al3  1  0.27721000  0.66366100  0.12148300  1
  Te  Te4  1  0.72210800  0.29547500  0.10718200  1
  Te  Te5  1  0.24495800  0.25254500  0.61696100  1
  Te  Te6  1  0.27789200  0.70452500  0.89281800  1
  Te  Te7  1  0.75504200  0.74745500  0.38303900  1
  Cl  Cl8  1  0.55752000  0.38271100  0.65512000  1
  Cl  Cl9  1  0.58328400  0.82963200  0.94122000  1
  Cl  Cl10  1  0.31412300  0.86008900  0.18892100  1
  Cl  Cl11  1  0.13937600  0.22381100  0.72214000  1
  Cl  Cl12  1  0.87491800  0.07169200  0.11645100  1
  Cl  Cl13  1  0.56612800  0.60305300  0.09582400  1
  Cl  Cl14  1  0.36636800  0.69661200  0.78467800  1
  Cl  Cl15  1  0.89211400  0.29230500  0.96987800  1
  Cl  Cl16  1  0.86118200  0.81488400  0.68235200  1
  Cl  Cl17  1  0.16345700  0.90763100  0.43979700  1
  Cl  Cl18  1  0.43387200  0.39694700  0.90417600  1
  Cl  Cl19  1  0.12212600  0.46745300  0.16440500  1
  Cl  Cl20  1  0.90133800  0.52224300  0.39867100  1
  Cl  Cl21  1  0.62998400  0.70775100  0.52190900  1
  Cl  Cl22  1  0.83654300  0.09236900  0.56020300  1
  Cl  Cl23  1  0.59683700  0.05655400  0.36924700  1
  Cl  Cl24  1  0.12508200  0.92830800  0.88354900  1
  Cl  Cl25  1  0.41671600  0.17036800  0.05878000  1
  Cl  Cl26  1  0.68587700  0.13991100  0.81107900  1
  Cl  Cl27  1  0.13881800  0.18511600  0.31764800  1
  Cl  Cl28  1  0.09866200  0.47775700  0.60132900  1
  Cl  Cl29  1  0.86062400  0.77618900  0.27786000  1
  Cl  Cl30  1  0.10788600  0.70769500  0.03012200  1
  Cl  Cl31  1  0.63363200  0.30338800  0.21532200  1
  Cl  Cl32  1  0.87787400  0.53254700  0.83559500  1
  Cl  Cl33  1  0.44248000  0.61728900  0.34488000  1
  Cl  Cl34  1  0.40316300  0.94344600  0.63075300  1
  Cl  Cl35  1  0.37001600  0.29224900  0.47809100  1
