# generated using pymatgen
data_Rb(WCl3)3
_symmetry_space_group_name_H-M   'P 1'
_cell_length_a   9.61724793
_cell_length_b   9.61724793
_cell_length_c   8.63294300
_cell_angle_alpha   90.00000000
_cell_angle_beta   90.00000000
_cell_angle_gamma   119.99999951
_symmetry_Int_Tables_number   1
_chemical_formula_structural   Rb(WCl3)3
_chemical_formula_sum   'Rb2 W6 Cl18'
_cell_volume   691.49832350
_cell_formula_units_Z   2
loop_
 _symmetry_equiv_pos_site_id
 _symmetry_equiv_pos_as_xyz
  1  'x, y, z'
loop_
 _atom_site_type_symbol
 _atom_site_label
 _atom_site_symmetry_multiplicity
 _atom_site_fract_x
 _atom_site_fract_y
 _atom_site_fract_z
 _atom_site_occupancy
  Rb  Rb0  1  0.66666700  0.33333300  0.44285300  1
  Rb  Rb1  1  0.33333300  0.66666700  0.55714700  1
  W  W2  1  0.83151500  0.81310400  0.87328400  1
  W  W3  1  0.81310400  0.98158900  0.12671600  1
  W  W4  1  0.01841100  0.83151500  0.12671600  1
  W  W5  1  0.98158900  0.16848500  0.87328400  1
  W  W6  1  0.16848500  0.18689600  0.12671600  1
  W  W7  1  0.18689600  0.01841100  0.87328400  1
  Cl  Cl8  1  0.03691200  0.63331900  0.30063800  1
  Cl  Cl9  1  0.75892200  0.17189500  0.99792500  1
  Cl  Cl10  1  0.82810500  0.58702700  0.99792500  1
  Cl  Cl11  1  0.18925500  0.20993100  0.68927300  1
  Cl  Cl12  1  0.20993100  0.02067600  0.31072700  1
  Cl  Cl13  1  0.97932400  0.18925500  0.31072700  1
  Cl  Cl14  1  0.96308800  0.36668100  0.69936200  1
  Cl  Cl15  1  0.02067600  0.81074500  0.68927300  1
  Cl  Cl16  1  0.81074500  0.79006900  0.31072700  1
  Cl  Cl17  1  0.58702700  0.75892200  0.00207500  1
  Cl  Cl18  1  0.63331900  0.59640600  0.69936200  1
  Cl  Cl19  1  0.41297300  0.24107800  0.99792500  1
  Cl  Cl20  1  0.79006900  0.97932400  0.68927300  1
  Cl  Cl21  1  0.17189500  0.41297300  0.00207500  1
  Cl  Cl22  1  0.59640600  0.96308800  0.30063800  1
  Cl  Cl23  1  0.40359400  0.03691200  0.69936200  1
  Cl  Cl24  1  0.36668100  0.40359400  0.30063800  1
  Cl  Cl25  1  0.24107800  0.82810500  0.00207500  1
