# generated using pymatgen
data_InBi2Se4Br
_symmetry_space_group_name_H-M   'P 1'
_cell_length_a   10.83216415
_cell_length_b   10.83216415
_cell_length_c   12.34930066
_cell_angle_alpha   61.54121199
_cell_angle_beta   61.54121199
_cell_angle_gamma   22.20649481
_symmetry_Int_Tables_number   1
_chemical_formula_structural   InBi2Se4Br
_chemical_formula_sum   'In2 Bi4 Se8 Br2'
_cell_volume   478.73940811
_cell_formula_units_Z   2
loop_
 _symmetry_equiv_pos_site_id
 _symmetry_equiv_pos_as_xyz
  1  'x, y, z'
loop_
 _atom_site_type_symbol
 _atom_site_label
 _atom_site_symmetry_multiplicity
 _atom_site_fract_x
 _atom_site_fract_y
 _atom_site_fract_z
 _atom_site_occupancy
  In  In0  1  0.83709000  0.83709000  0.43724900  1
  In  In1  1  0.16291000  0.16291000  0.56275100  1
  Bi  Bi2  1  0.20265900  0.20265900  0.90307800  1
  Bi  Bi3  1  0.79734100  0.79734100  0.09692200  1
  Bi  Bi4  1  0.45049500  0.45049500  0.77113700  1
  Bi  Bi5  1  0.54950500  0.54950500  0.22886300  1
  Se  Se6  1  0.96091900  0.96091900  0.22170100  1
  Se  Se7  1  0.17807200  0.17807200  0.14359200  1
  Se  Se8  1  0.71474100  0.71474100  0.65175400  1
  Se  Se9  1  0.59647600  0.59647600  0.97719300  1
  Se  Se10  1  0.40352400  0.40352400  0.02280700  1
  Se  Se11  1  0.82192800  0.82192800  0.85640800  1
  Se  Se12  1  0.03908100  0.03908100  0.77829900  1
  Se  Se13  1  0.28525900  0.28525900  0.34824600  1
  Br  Br14  1  0.39791200  0.39791200  0.52983400  1
  Br  Br15  1  0.60208800  0.60208800  0.47016600  1
