# generated using pymatgen
data_YMg
_symmetry_space_group_name_H-M   'P 1'
_cell_length_a   5.89970617
_cell_length_b   5.89970617
_cell_length_c   5.45228700
_cell_angle_alpha   90.00000000
_cell_angle_beta   90.00000000
_cell_angle_gamma   117.90027760
_symmetry_Int_Tables_number   1
_chemical_formula_structural   YMg
_chemical_formula_sum   'Y3 Mg3'
_cell_volume   167.71637473
_cell_formula_units_Z   3
loop_
 _symmetry_equiv_pos_site_id
 _symmetry_equiv_pos_as_xyz
  1  'x, y, z'
loop_
 _atom_site_type_symbol
 _atom_site_label
 _atom_site_symmetry_multiplicity
 _atom_site_fract_x
 _atom_site_fract_y
 _atom_site_fract_z
 _atom_site_occupancy
  Y  Y0  1  0.62601900  0.62601900  0.00000000  1
  Y  Y1  1  0.04268200  0.68379800  0.50000000  1
  Y  Y2  1  0.68379800  0.04268200  0.50000000  1
  Mg  Mg3  1  0.99254500  0.32012000  0.00000000  1
  Mg  Mg4  1  0.32012000  0.99254500  0.00000000  1
  Mg  Mg5  1  0.33483600  0.33483600  0.50000000  1
