# generated using pymatgen
data_Al3Mo
_symmetry_space_group_name_H-M   'P 1'
_cell_length_a   8.41941579
_cell_length_b   8.41941579
_cell_length_c   8.39725208
_cell_angle_alpha   78.40580132
_cell_angle_beta   78.40580132
_cell_angle_gamma   24.72388992
_symmetry_Int_Tables_number   1
_chemical_formula_structural   Al3Mo
_chemical_formula_sum   'Al12 Mo4'
_cell_volume   243.63522237
_cell_formula_units_Z   4
loop_
 _symmetry_equiv_pos_site_id
 _symmetry_equiv_pos_as_xyz
  1  'x, y, z'
loop_
 _atom_site_type_symbol
 _atom_site_label
 _atom_site_symmetry_multiplicity
 _atom_site_fract_x
 _atom_site_fract_y
 _atom_site_fract_z
 _atom_site_occupancy
  Al  Al0  1  0.43450300  0.43450300  0.92074200  1
  Al  Al1  1  0.93450600  0.93450600  0.17853700  1
  Al  Al2  1  0.43953500  0.43953500  0.41560200  1
  Al  Al3  1  0.31243700  0.31243700  0.72319600  1
  Al  Al4  1  0.81114500  0.81114500  0.98121700  1
  Al  Al5  1  0.81225400  0.81225400  0.47141300  1
  Al  Al6  1  0.18885500  0.18885500  0.01878300  1
  Al  Al7  1  0.68756300  0.68756300  0.27680400  1
  Al  Al8  1  0.18774600  0.18774600  0.52858700  1
  Al  Al9  1  0.06549400  0.06549400  0.82146300  1
  Al  Al10  1  0.56549700  0.56549700  0.07925800  1
  Al  Al11  1  0.56046500  0.56046500  0.58439800  1
  Mo  Mo12  1  0.92675600  0.92675600  0.67947900  1
  Mo  Mo13  1  0.30486200  0.30486200  0.22905000  1
  Mo  Mo14  1  0.69513800  0.69513800  0.77095000  1
  Mo  Mo15  1  0.07324400  0.07324400  0.32052100  1
