# generated using pymatgen
data_GeBr4
_symmetry_space_group_name_H-M   'P 1'
_cell_length_a   12.07375700
_cell_length_b   12.07375700
_cell_length_c   12.07375700
_cell_angle_alpha   90.00000000
_cell_angle_beta   90.00000000
_cell_angle_gamma   90.00000000
_symmetry_Int_Tables_number   1
_chemical_formula_structural   GeBr4
_chemical_formula_sum   'Ge8 Br32'
_cell_volume   1760.05926867
_cell_formula_units_Z   8
loop_
 _symmetry_equiv_pos_site_id
 _symmetry_equiv_pos_as_xyz
  1  'x, y, z'
loop_
 _atom_site_type_symbol
 _atom_site_label
 _atom_site_symmetry_multiplicity
 _atom_site_fract_x
 _atom_site_fract_y
 _atom_site_fract_z
 _atom_site_occupancy
  Ge  Ge0  1  0.86847200  0.63152800  0.36847200  1
  Ge  Ge1  1  0.13152800  0.36847200  0.63152800  1
  Ge  Ge2  1  0.36847200  0.86847200  0.63152800  1
  Ge  Ge3  1  0.63152800  0.36847200  0.86847200  1
  Ge  Ge4  1  0.63152800  0.13152800  0.36847200  1
  Ge  Ge5  1  0.36847200  0.63152800  0.13152800  1
  Ge  Ge6  1  0.13152800  0.13152800  0.13152800  1
  Ge  Ge7  1  0.86847200  0.86847200  0.86847200  1
  Br  Br8  1  0.48576100  0.75799800  0.52850200  1
  Br  Br9  1  0.24200200  0.02850200  0.01423900  1
  Br  Br10  1  0.75799800  0.52850200  0.48576100  1
  Br  Br11  1  0.24200200  0.47149800  0.51423900  1
  Br  Br12  1  0.47149800  0.98576100  0.74200200  1
  Br  Br13  1  0.01423900  0.24200200  0.02850200  1
  Br  Br14  1  0.51423900  0.24200200  0.47149800  1
  Br  Br15  1  0.74200200  0.47149800  0.98576100  1
  Br  Br16  1  0.25833200  0.75833200  0.74166800  1
  Br  Br17  1  0.02850200  0.48576100  0.74200200  1
  Br  Br18  1  0.52850200  0.48576100  0.75799800  1
  Br  Br19  1  0.97149800  0.98576100  0.75799800  1
  Br  Br20  1  0.75833200  0.75833200  0.75833200  1
  Br  Br21  1  0.97149800  0.51423900  0.25799800  1
  Br  Br22  1  0.24166800  0.24166800  0.24166800  1
  Br  Br23  1  0.52850200  0.01423900  0.25799800  1
  Br  Br24  1  0.98576100  0.74200200  0.47149800  1
  Br  Br25  1  0.02850200  0.01423900  0.24200200  1
  Br  Br26  1  0.74166800  0.25833200  0.75833200  1
  Br  Br27  1  0.51423900  0.25799800  0.97149800  1
  Br  Br28  1  0.75833200  0.74166800  0.25833200  1
  Br  Br29  1  0.25799800  0.97149800  0.51423900  1
  Br  Br30  1  0.74200200  0.02850200  0.48576100  1
  Br  Br31  1  0.74166800  0.24166800  0.25833200  1
  Br  Br32  1  0.98576100  0.75799800  0.97149800  1
  Br  Br33  1  0.25799800  0.52850200  0.01423900  1
  Br  Br34  1  0.75799800  0.97149800  0.98576100  1
  Br  Br35  1  0.47149800  0.51423900  0.24200200  1
  Br  Br36  1  0.24166800  0.25833200  0.74166800  1
  Br  Br37  1  0.25833200  0.74166800  0.24166800  1
  Br  Br38  1  0.48576100  0.74200200  0.02850200  1
  Br  Br39  1  0.01423900  0.25799800  0.52850200  1
