# generated using pymatgen
data_ZrI2
_symmetry_space_group_name_H-M   'P 1'
_cell_length_a   3.77533400
_cell_length_b   6.92664900
_cell_length_c   16.32497483
_cell_angle_alpha   84.83895744
_cell_angle_beta   90.00000000
_cell_angle_gamma   90.00000000
_symmetry_Int_Tables_number   1
_chemical_formula_structural   ZrI2
_chemical_formula_sum   'Zr4 I8'
_cell_volume   425.17408112
_cell_formula_units_Z   4
loop_
 _symmetry_equiv_pos_site_id
 _symmetry_equiv_pos_as_xyz
  1  'x, y, z'
loop_
 _atom_site_type_symbol
 _atom_site_label
 _atom_site_symmetry_multiplicity
 _atom_site_fract_x
 _atom_site_fract_y
 _atom_site_fract_z
 _atom_site_occupancy
  Zr  Zr0  1  0.25000000  0.31344400  0.99682700  1
  Zr  Zr1  1  0.25000000  0.81216900  0.50325300  1
  Zr  Zr2  1  0.75000000  0.68655600  0.00317300  1
  Zr  Zr3  1  0.75000000  0.18783100  0.49674700  1
  I  I4  1  0.25000000  0.39817100  0.60071400  1
  I  I5  1  0.75000000  0.60182900  0.39928600  1
  I  I6  1  0.75000000  0.44754900  0.86439100  1
  I  I7  1  0.75000000  0.05867800  0.10061400  1
  I  I8  1  0.25000000  0.55245100  0.13560900  1
  I  I9  1  0.75000000  0.89035500  0.63567000  1
  I  I10  1  0.25000000  0.94132200  0.89938600  1
  I  I11  1  0.25000000  0.10964500  0.36433000  1
