# generated using pymatgen
data_SrMg2
_symmetry_space_group_name_H-M   'P 1'
_cell_length_a   3.71633790
_cell_length_b   3.71633790
_cell_length_c   16.86461300
_cell_angle_alpha   90.00000000
_cell_angle_beta   90.00000000
_cell_angle_gamma   119.99999820
_symmetry_Int_Tables_number   1
_chemical_formula_structural   SrMg2
_chemical_formula_sum   'Sr2 Mg4'
_cell_volume   201.71463456
_cell_formula_units_Z   2
loop_
 _symmetry_equiv_pos_site_id
 _symmetry_equiv_pos_as_xyz
  1  'x, y, z'
loop_
 _atom_site_type_symbol
 _atom_site_label
 _atom_site_symmetry_multiplicity
 _atom_site_fract_x
 _atom_site_fract_y
 _atom_site_fract_z
 _atom_site_occupancy
  Sr  Sr0  1  0.66666700  0.33333300  0.75000000  1
  Sr  Sr1  1  0.33333300  0.66666700  0.25000000  1
  Mg  Mg2  1  0.33333300  0.66666700  0.92636200  1
  Mg  Mg3  1  0.33333300  0.66666700  0.57363800  1
  Mg  Mg4  1  0.66666700  0.33333300  0.42636200  1
  Mg  Mg5  1  0.66666700  0.33333300  0.07363800  1
