# generated using pymatgen
data_CeTe3
_symmetry_space_group_name_H-M   'P 1'
_cell_length_a   13.13356495
_cell_length_b   13.13356495
_cell_length_c   4.41938900
_cell_angle_alpha   90.00000000
_cell_angle_beta   90.00000000
_cell_angle_gamma   160.65488863
_symmetry_Int_Tables_number   1
_chemical_formula_structural   CeTe3
_chemical_formula_sum   'Ce2 Te6'
_cell_volume   252.51841286
_cell_formula_units_Z   2
loop_
 _symmetry_equiv_pos_site_id
 _symmetry_equiv_pos_as_xyz
  1  'x, y, z'
loop_
 _atom_site_type_symbol
 _atom_site_label
 _atom_site_symmetry_multiplicity
 _atom_site_fract_x
 _atom_site_fract_y
 _atom_site_fract_z
 _atom_site_occupancy
  Ce  Ce0  1  0.33186200  0.66813800  0.25000000  1
  Ce  Ce1  1  0.66813800  0.33186200  0.75000000  1
  Te  Te2  1  0.42646300  0.57353700  0.75000000  1
  Te  Te3  1  0.92644700  0.07355300  0.25000000  1
  Te  Te4  1  0.79528300  0.20471700  0.75000000  1
  Te  Te5  1  0.57353700  0.42646300  0.25000000  1
  Te  Te6  1  0.07355300  0.92644700  0.75000000  1
  Te  Te7  1  0.20471700  0.79528300  0.25000000  1
