# generated using pymatgen
data_CdI2
_symmetry_space_group_name_H-M   'P 1'
_cell_length_a   4.33316838
_cell_length_b   4.33316838
_cell_length_c   74.13178400
_cell_angle_alpha   90.00000000
_cell_angle_beta   90.00000000
_cell_angle_gamma   120.00000573
_symmetry_Int_Tables_number   1
_chemical_formula_structural   CdI2
_chemical_formula_sum   'Cd10 I20'
_cell_volume   1205.44163619
_cell_formula_units_Z   10
loop_
 _symmetry_equiv_pos_site_id
 _symmetry_equiv_pos_as_xyz
  1  'x, y, z'
loop_
 _atom_site_type_symbol
 _atom_site_label
 _atom_site_symmetry_multiplicity
 _atom_site_fract_x
 _atom_site_fract_y
 _atom_site_fract_z
 _atom_site_occupancy
  Cd  Cd0  1  0.33333300  0.66666700  0.32501300  1
  Cd  Cd1  1  0.00000000  0.00000000  0.92499600  1
  Cd  Cd2  1  0.00000000  0.00000000  0.82498400  1
  Cd  Cd3  1  0.00000000  0.00000000  0.52501800  1
  Cd  Cd4  1  0.33333300  0.66666700  0.02498400  1
  Cd  Cd5  1  0.00000000  0.00000000  0.12498600  1
  Cd  Cd6  1  0.33333300  0.66666700  0.42497100  1
  Cd  Cd7  1  0.33333300  0.66666700  0.72499900  1
  Cd  Cd8  1  0.33333300  0.66666700  0.22502500  1
  Cd  Cd9  1  0.00000000  0.00000000  0.62500400  1
  I  I10  1  0.00000000  0.00000000  0.40170700  1
  I  I11  1  0.66666700  0.33333300  0.44824600  1
  I  I12  1  0.33333300  0.66666700  0.80170500  1
  I  I13  1  0.66666700  0.33333300  0.54829600  1
  I  I14  1  0.66666700  0.33333300  0.64827100  1
  I  I15  1  0.00000000  0.00000000  0.30175700  1
  I  I16  1  0.66666700  0.33333300  0.34828100  1
  I  I17  1  0.00000000  0.00000000  0.20176000  1
  I  I18  1  0.66666700  0.33333300  0.74827100  1
  I  I19  1  0.66666700  0.33333300  0.94826700  1
  I  I20  1  0.66666700  0.33333300  0.04826500  1
  I  I21  1  0.66666700  0.33333300  0.14826800  1
  I  I22  1  0.33333300  0.66666700  0.10171000  1
  I  I23  1  0.66666700  0.33333300  0.84826800  1
  I  I24  1  0.33333300  0.66666700  0.90172000  1
  I  I25  1  0.00000000  0.00000000  0.00172000  1
  I  I26  1  0.00000000  0.00000000  0.70173900  1
  I  I27  1  0.66666700  0.33333300  0.24830200  1
  I  I28  1  0.33333300  0.66666700  0.60172900  1
  I  I29  1  0.33333300  0.66666700  0.50173900  1
