# generated using pymatgen
data_CdI2
_symmetry_space_group_name_H-M   'P 1'
_cell_length_a   4.33788869
_cell_length_b   4.33788869
_cell_length_c   96.70980400
_cell_angle_alpha   90.00000000
_cell_angle_beta   90.00000000
_cell_angle_gamma   120.00001048
_symmetry_Int_Tables_number   1
_chemical_formula_structural   CdI2
_chemical_formula_sum   'Cd12 I24'
_cell_volume   1576.00610701
_cell_formula_units_Z   12
loop_
 _symmetry_equiv_pos_site_id
 _symmetry_equiv_pos_as_xyz
  1  'x, y, z'
loop_
 _atom_site_type_symbol
 _atom_site_label
 _atom_site_symmetry_multiplicity
 _atom_site_fract_x
 _atom_site_fract_y
 _atom_site_fract_z
 _atom_site_occupancy
  Cd  Cd0  1  0.00000000  0.00000000  0.27011700  1
  Cd  Cd1  1  0.00000000  0.00000000  0.02134200  1
  Cd  Cd2  1  0.33333300  0.66666700  0.10335700  1
  Cd  Cd3  1  0.00000000  0.00000000  0.35514200  1
  Cd  Cd4  1  0.33333300  0.66666700  0.52043000  1
  Cd  Cd5  1  0.33333300  0.66666700  0.77102500  1
  Cd  Cd6  1  0.00000000  0.00000000  0.18755900  1
  Cd  Cd7  1  0.00000000  0.00000000  0.60383700  1
  Cd  Cd8  1  0.33333300  0.66666700  0.85452000  1
  Cd  Cd9  1  0.00000000  0.00000000  0.68839300  1
  Cd  Cd10  1  0.33333300  0.66666700  0.93660000  1
  Cd  Cd11  1  0.33333300  0.66666700  0.43768900  1
  I  I12  1  0.33333300  0.66666700  0.16978000  1
  I  I13  1  0.00000000  0.00000000  0.83673700  1
  I  I14  1  0.66666700  0.33333300  0.78879900  1
  I  I15  1  0.00000000  0.00000000  0.08558900  1
  I  I16  1  0.66666700  0.33333300  0.45546400  1
  I  I17  1  0.66666700  0.33333300  0.20533100  1
  I  I18  1  0.66666700  0.33333300  0.95435900  1
  I  I19  1  0.33333300  0.66666700  0.67061500  1
  I  I20  1  0.00000000  0.00000000  0.75324800  1
  I  I21  1  0.33333300  0.66666700  0.58606100  1
  I  I22  1  0.66666700  0.33333300  0.53821100  1
  I  I23  1  0.66666700  0.33333300  0.12111900  1
  I  I24  1  0.66666700  0.33333300  0.03909900  1
  I  I25  1  0.33333300  0.66666700  0.00358300  1
  I  I26  1  0.66666700  0.33333300  0.28789400  1
  I  I27  1  0.66666700  0.33333300  0.37291100  1
  I  I28  1  0.33333300  0.66666700  0.33738200  1
  I  I29  1  0.66666700  0.33333300  0.62161600  1
  I  I30  1  0.00000000  0.00000000  0.41991300  1
  I  I31  1  0.66666700  0.33333300  0.70616100  1
  I  I32  1  0.33333300  0.66666700  0.25234500  1
  I  I33  1  0.00000000  0.00000000  0.91881900  1
  I  I34  1  0.00000000  0.00000000  0.50266200  1
  I  I35  1  0.66666700  0.33333300  0.87229300  1
