# generated using pymatgen
data_CdI2
_symmetry_space_group_name_H-M   'P 1'
_cell_length_a   4.33504826
_cell_length_b   4.33504826
_cell_length_c   91.87212000
_cell_angle_alpha   90.00000000
_cell_angle_beta   90.00000000
_cell_angle_gamma   120.00000404
_symmetry_Int_Tables_number   1
_chemical_formula_structural   CdI2
_chemical_formula_sum   'Cd12 I24'
_cell_volume   1495.21011468
_cell_formula_units_Z   12
loop_
 _symmetry_equiv_pos_site_id
 _symmetry_equiv_pos_as_xyz
  1  'x, y, z'
loop_
 _atom_site_type_symbol
 _atom_site_label
 _atom_site_symmetry_multiplicity
 _atom_site_fract_x
 _atom_site_fract_y
 _atom_site_fract_z
 _atom_site_occupancy
  Cd  Cd0  1  0.00000000  0.00000000  0.02086400  1
  Cd  Cd1  1  0.00000000  0.00000000  0.18752600  1
  Cd  Cd2  1  0.33333300  0.66666700  0.10415400  1
  Cd  Cd3  1  0.33333300  0.66666700  0.60415500  1
  Cd  Cd4  1  0.33333300  0.66666700  0.85417400  1
  Cd  Cd5  1  0.33333300  0.66666700  0.52084300  1
  Cd  Cd6  1  0.00000000  0.00000000  0.77081700  1
  Cd  Cd7  1  0.33333300  0.66666700  0.27081800  1
  Cd  Cd8  1  0.33333300  0.66666700  0.35416400  1
  Cd  Cd9  1  0.00000000  0.00000000  0.43749800  1
  Cd  Cd10  1  0.33333300  0.66666700  0.93749700  1
  Cd  Cd11  1  0.33333300  0.66666700  0.68750700  1
  I  I12  1  0.33333300  0.66666700  0.16876200  1
  I  I13  1  0.00000000  0.00000000  0.58541200  1
  I  I14  1  0.66666700  0.33333300  0.78956900  1
  I  I15  1  0.00000000  0.00000000  0.33542100  1
  I  I16  1  0.33333300  0.66666700  0.41873200  1
  I  I17  1  0.00000000  0.00000000  0.08541300  1
  I  I18  1  0.66666700  0.33333300  0.45625100  1
  I  I19  1  0.66666700  0.33333300  0.20627200  1
  I  I20  1  0.66666700  0.33333300  0.95624000  1
  I  I21  1  0.00000000  0.00000000  0.83542900  1
  I  I22  1  0.00000000  0.00000000  0.91875900  1
  I  I23  1  0.00000000  0.00000000  0.50209900  1
  I  I24  1  0.66666700  0.33333300  0.53958600  1
  I  I25  1  0.66666700  0.33333300  0.12290000  1
  I  I26  1  0.66666700  0.33333300  0.03961000  1
  I  I27  1  0.33333300  0.66666700  0.00210000  1
  I  I28  1  0.66666700  0.33333300  0.28956400  1
  I  I29  1  0.66666700  0.33333300  0.37290500  1
  I  I30  1  0.66666700  0.33333300  0.62290400  1
  I  I31  1  0.66666700  0.33333300  0.70624900  1
  I  I32  1  0.33333300  0.66666700  0.75204900  1
  I  I33  1  0.00000000  0.00000000  0.66876300  1
  I  I34  1  0.00000000  0.00000000  0.25207700  1
  I  I35  1  0.66666700  0.33333300  0.87291700  1
