# generated using pymatgen
data_Yb11Ge10
_symmetry_space_group_name_H-M   'P 1'
_cell_length_a   11.56731533
_cell_length_b   11.56731533
_cell_length_c   11.56731533
_cell_angle_alpha   123.67185784
_cell_angle_beta   123.67185784
_cell_angle_gamma   83.74973608
_symmetry_Int_Tables_number   1
_chemical_formula_structural   Yb11Ge10
_chemical_formula_sum   'Yb22 Ge20'
_cell_volume   1026.98401482
_cell_formula_units_Z   2
loop_
 _symmetry_equiv_pos_site_id
 _symmetry_equiv_pos_as_xyz
  1  'x, y, z'
loop_
 _atom_site_type_symbol
 _atom_site_label
 _atom_site_symmetry_multiplicity
 _atom_site_fract_x
 _atom_site_fract_y
 _atom_site_fract_z
 _atom_site_occupancy
  Yb  Yb0  1  0.67981900  0.32018100  0.00000000  1
  Yb  Yb1  1  0.10483000  0.42259000  0.31776100  1
  Yb  Yb2  1  0.89517000  0.21293100  0.31776100  1
  Yb  Yb3  1  0.07265300  0.32173100  0.75092200  1
  Yb  Yb4  1  0.32018100  0.67981900  0.00000000  1
  Yb  Yb5  1  0.15732900  0.15732900  0.00000000  1
  Yb  Yb6  1  0.67826900  0.42919000  0.75092200  1
  Yb  Yb7  1  0.32018100  0.32018100  0.64036200  1
  Yb  Yb8  1  0.89517000  0.57741000  0.68223900  1
  Yb  Yb9  1  0.84267100  0.84267100  0.00000000  1
  Yb  Yb10  1  0.92734700  0.67826900  0.24907800  1
  Yb  Yb11  1  0.10483000  0.78706900  0.68223900  1
  Yb  Yb12  1  0.42919000  0.67826900  0.75092200  1
  Yb  Yb13  1  0.21293100  0.89517000  0.31776100  1
  Yb  Yb14  1  0.32173100  0.57081000  0.24907800  1
  Yb  Yb15  1  0.57741000  0.89517000  0.68223900  1
  Yb  Yb16  1  0.67981900  0.67981900  0.35963800  1
  Yb  Yb17  1  0.57081000  0.32173100  0.24907800  1
  Yb  Yb18  1  0.67826900  0.92734700  0.24907800  1
  Yb  Yb19  1  0.42259000  0.10483000  0.31776100  1
  Yb  Yb20  1  0.78706900  0.10483000  0.68223900  1
  Yb  Yb21  1  0.32173100  0.07265300  0.75092200  1
  Ge  Ge22  1  0.11937400  0.50000000  0.61937400  1
  Ge  Ge23  1  0.11756300  0.88243700  0.00000000  1
  Ge  Ge24  1  0.88243700  0.11756300  0.00000000  1
  Ge  Ge25  1  0.01665200  0.60384000  0.00000000  1
  Ge  Ge26  1  0.98334800  0.98334800  0.58718800  1
  Ge  Ge27  1  0.60384000  0.01665200  0.00000000  1
  Ge  Ge28  1  0.11756300  0.11756300  0.23512600  1
  Ge  Ge29  1  0.41460300  0.41460300  0.00000000  1
  Ge  Ge30  1  0.39616000  0.98334800  0.00000000  1
  Ge  Ge31  1  0.88243700  0.88243700  0.76487400  1
  Ge  Ge32  1  0.88062600  0.50000000  0.38062600  1
  Ge  Ge33  1  0.39616000  0.39616000  0.41281200  1
  Ge  Ge34  1  0.98334800  0.39616000  0.00000000  1
  Ge  Ge35  1  0.01665200  0.01665200  0.41281200  1
  Ge  Ge36  1  0.50000000  0.11937400  0.61937400  1
  Ge  Ge37  1  0.58539700  0.58539700  0.00000000  1
  Ge  Ge38  1  0.25000000  0.75000000  0.50000000  1
  Ge  Ge39  1  0.60384000  0.60384000  0.58718800  1
  Ge  Ge40  1  0.75000000  0.25000000  0.50000000  1
  Ge  Ge41  1  0.50000000  0.88062600  0.38062600  1
