# generated using pymatgen
data_TlMo2Cl7O2
_symmetry_space_group_name_H-M   'P 1'
_cell_length_a   7.23457400
_cell_length_b   9.59986200
_cell_length_c   9.84460300
_cell_angle_alpha   90.00000000
_cell_angle_beta   90.00000000
_cell_angle_gamma   90.00000000
_symmetry_Int_Tables_number   1
_chemical_formula_structural   TlMo2Cl7O2
_chemical_formula_sum   'Tl2 Mo4 Cl14 O4'
_cell_volume   683.71665691
_cell_formula_units_Z   2
loop_
 _symmetry_equiv_pos_site_id
 _symmetry_equiv_pos_as_xyz
  1  'x, y, z'
loop_
 _atom_site_type_symbol
 _atom_site_label
 _atom_site_symmetry_multiplicity
 _atom_site_fract_x
 _atom_site_fract_y
 _atom_site_fract_z
 _atom_site_occupancy
  Tl  Tl0  1  0.50000000  0.47262500  0.00000000  1
  Tl  Tl1  1  0.00000000  0.52737500  0.50000000  1
  Mo  Mo2  1  0.00000000  0.18847700  0.82073300  1
  Mo  Mo3  1  0.50000000  0.81152300  0.67926700  1
  Mo  Mo4  1  0.50000000  0.81152300  0.32073300  1
  Mo  Mo5  1  0.00000000  0.18847700  0.17926700  1
  Cl  Cl6  1  0.73128500  0.88391400  0.50000000  1
  Cl  Cl7  1  0.50000000  0.60054700  0.50000000  1
  Cl  Cl8  1  0.76735200  0.30806400  0.29877600  1
  Cl  Cl9  1  0.26735200  0.69193600  0.20122400  1
  Cl  Cl10  1  0.23264800  0.30806400  0.29877600  1
  Cl  Cl11  1  0.26871500  0.88391400  0.50000000  1
  Cl  Cl12  1  0.26735200  0.69193600  0.79877600  1
  Cl  Cl13  1  0.00000000  0.39945300  0.00000000  1
  Cl  Cl14  1  0.23264800  0.30806400  0.70122400  1
  Cl  Cl15  1  0.76735200  0.30806400  0.70122400  1
  Cl  Cl16  1  0.23128500  0.11608600  0.00000000  1
  Cl  Cl17  1  0.73264800  0.69193600  0.79877600  1
  Cl  Cl18  1  0.73264800  0.69193600  0.20122400  1
  Cl  Cl19  1  0.76871500  0.11608600  0.00000000  1
  O  O20  1  0.50000000  0.97022000  0.75476500  1
  O  O21  1  0.00000000  0.02978000  0.74523500  1
  O  O22  1  0.50000000  0.97022000  0.24523500  1
  O  O23  1  0.00000000  0.02978000  0.25476500  1
