# generated using pymatgen
data_FeCoPO4F
_symmetry_space_group_name_H-M   'P 1'
_cell_length_a   7.32744520
_cell_length_b   7.32744520
_cell_length_c   9.93776534
_cell_angle_alpha   64.78813478
_cell_angle_beta   64.78813478
_cell_angle_gamma   52.71488478
_symmetry_Int_Tables_number   1
_chemical_formula_structural   FeCoPO4F
_chemical_formula_sum   'Fe4 Co4 P4 O16 F4'
_cell_volume   373.48917025
_cell_formula_units_Z   4
loop_
 _symmetry_equiv_pos_site_id
 _symmetry_equiv_pos_as_xyz
  1  'x, y, z'
loop_
 _atom_site_type_symbol
 _atom_site_label
 _atom_site_symmetry_multiplicity
 _atom_site_fract_x
 _atom_site_fract_y
 _atom_site_fract_z
 _atom_site_occupancy
  Fe  Fe0  1  0.49879200  0.08242500  0.64597000  1
  Fe  Fe1  1  0.79389600  0.58032300  0.50211100  1
  Fe  Fe2  1  0.08242500  0.49879200  0.14597000  1
  Fe  Fe3  1  0.58032300  0.79389600  0.00211100  1
  Co  Co4  1  0.17352000  0.65139400  0.62770900  1
  Co  Co5  1  0.89765500  0.10771000  0.78004400  1
  Co  Co6  1  0.10771000  0.89765500  0.28004400  1
  Co  Co7  1  0.65139400  0.17352000  0.12770900  1
  P  P8  1  0.07865500  0.27488900  0.94510900  1
  P  P9  1  0.27488900  0.07865500  0.44510900  1
  P  P10  1  0.62140900  0.42831500  0.33245900  1
  P  P11  1  0.42831500  0.62140900  0.83245900  1
  O  O12  1  0.49789200  0.78861400  0.82805300  1
  O  O13  1  0.91395900  0.21685300  0.93716900  1
  O  O14  1  0.62895900  0.45263600  0.72461000  1
  O  O15  1  0.19968800  0.76986800  0.77530900  1
  O  O16  1  0.31458900  0.23314800  0.28196100  1
  O  O17  1  0.93588600  0.50530600  0.00309100  1
  O  O18  1  0.76986800  0.19968800  0.27530900  1
  O  O19  1  0.38975400  0.47831000  0.99914600  1
  O  O20  1  0.07611100  0.23331300  0.56100900  1
  O  O21  1  0.47831000  0.38975400  0.49914600  1
  O  O22  1  0.45263600  0.62895900  0.22461000  1
  O  O23  1  0.21685300  0.91395900  0.43716900  1
  O  O24  1  0.23331300  0.07611100  0.06100900  1
  O  O25  1  0.78861400  0.49789200  0.32805300  1
  O  O26  1  0.50530600  0.93588600  0.50309100  1
  O  O27  1  0.23314800  0.31458900  0.78196100  1
  F  F28  1  0.70367500  0.98429100  0.99005800  1
  F  F29  1  0.79703600  0.96113100  0.69949000  1
  F  F30  1  0.98429100  0.70367500  0.49005800  1
  F  F31  1  0.96113100  0.79703600  0.19949000  1
