# generated using pymatgen
data_K4CO4
_symmetry_space_group_name_H-M   'P 1'
_cell_length_a   7.22292500
_cell_length_b   7.22292500
_cell_length_c   5.53430100
_cell_angle_alpha   90.00000000
_cell_angle_beta   90.00000000
_cell_angle_gamma   90.00000000
_symmetry_Int_Tables_number   1
_chemical_formula_structural   K4CO4
_chemical_formula_sum   'K8 C2 O8'
_cell_volume   288.72805587
_cell_formula_units_Z   2
loop_
 _symmetry_equiv_pos_site_id
 _symmetry_equiv_pos_as_xyz
  1  'x, y, z'
loop_
 _atom_site_type_symbol
 _atom_site_label
 _atom_site_symmetry_multiplicity
 _atom_site_fract_x
 _atom_site_fract_y
 _atom_site_fract_z
 _atom_site_occupancy
  K  K0  1  0.27885600  0.01380400  0.85872800  1
  K  K1  1  0.01380400  0.72114400  0.14127200  1
  K  K2  1  0.98619600  0.27885600  0.14127200  1
  K  K3  1  0.77885600  0.51380400  0.64127200  1
  K  K4  1  0.22114400  0.48619600  0.64127200  1
  K  K5  1  0.48619600  0.77885600  0.35872800  1
  K  K6  1  0.51380400  0.22114400  0.35872800  1
  K  K7  1  0.72114400  0.98619600  0.85872800  1
  C  C8  1  0.00000000  0.00000000  0.50000000  1
  C  C9  1  0.50000000  0.50000000  0.00000000  1
  O  O10  1  0.83509600  0.99258300  0.35265500  1
  O  O11  1  0.33509600  0.49258300  0.14734500  1
  O  O12  1  0.49258300  0.66490400  0.85265500  1
  O  O13  1  0.00741700  0.83509600  0.64734500  1
  O  O14  1  0.16490400  0.00741700  0.35265500  1
  O  O15  1  0.99258300  0.16490400  0.64734500  1
  O  O16  1  0.66490400  0.50741700  0.14734500  1
  O  O17  1  0.50741700  0.33509600  0.85265500  1
