# generated using pymatgen
data_NiH12C4(N2O3)2
_symmetry_space_group_name_H-M   'P 1'
_cell_length_a   9.30472455
_cell_length_b   9.30472455
_cell_length_c   7.15752500
_cell_angle_alpha   90.00000000
_cell_angle_beta   90.00000000
_cell_angle_gamma   120.00000395
_symmetry_Int_Tables_number   1
_chemical_formula_structural   NiH12C4(N2O3)2
_chemical_formula_sum   'Ni2 H24 C8 N8 O12'
_cell_volume   536.66161192
_cell_formula_units_Z   2
loop_
 _symmetry_equiv_pos_site_id
 _symmetry_equiv_pos_as_xyz
  1  'x, y, z'
loop_
 _atom_site_type_symbol
 _atom_site_label
 _atom_site_symmetry_multiplicity
 _atom_site_fract_x
 _atom_site_fract_y
 _atom_site_fract_z
 _atom_site_occupancy
  Ni  Ni0  1  0.00000000  0.00000000  0.00000000  1
  Ni  Ni1  1  0.00000000  0.00000000  0.50000000  1
  H  H2  1  0.54891000  0.64473100  0.33366600  1
  H  H3  1  0.09582100  0.64473100  0.33366600  1
  H  H4  1  0.26895500  0.73104500  0.61090900  1
  H  H5  1  0.90417900  0.54891000  0.66633400  1
  H  H6  1  0.42054200  0.57945800  0.12870600  1
  H  H7  1  0.09582100  0.45109000  0.33366600  1
  H  H8  1  0.45109000  0.09582100  0.66633400  1
  H  H9  1  0.15891700  0.57945800  0.12870600  1
  H  H10  1  0.35526900  0.90417900  0.33366600  1
  H  H11  1  0.57945800  0.15891700  0.87129400  1
  H  H12  1  0.64473100  0.09582100  0.66633400  1
  H  H13  1  0.73104500  0.26895500  0.38909100  1
  H  H14  1  0.90417900  0.35526900  0.66633400  1
  H  H15  1  0.35526900  0.45109000  0.33366600  1
  H  H16  1  0.64473100  0.54891000  0.66633400  1
  H  H17  1  0.73104500  0.46208900  0.38909100  1
  H  H18  1  0.45109000  0.35526900  0.66633400  1
  H  H19  1  0.54891000  0.90417900  0.33366600  1
  H  H20  1  0.26895500  0.53791100  0.61090900  1
  H  H21  1  0.57945800  0.42054200  0.87129400  1
  H  H22  1  0.84108300  0.42054200  0.87129400  1
  H  H23  1  0.46208900  0.73104500  0.61090900  1
  H  H24  1  0.53791100  0.26895500  0.38909100  1
  H  H25  1  0.42054200  0.84108300  0.12870600  1
  C  C26  1  0.66666700  0.33333300  0.43855700  1
  C  C27  1  0.33333300  0.66666700  0.56144300  1
  C  C28  1  0.15764300  0.57882100  0.28150000  1
  C  C29  1  0.57882100  0.15764300  0.71850000  1
  C  C30  1  0.84235700  0.42117900  0.71850000  1
  C  C31  1  0.42117900  0.57882100  0.28150000  1
  C  C32  1  0.42117900  0.84235700  0.28150000  1
  C  C33  1  0.57882100  0.42117900  0.71850000  1
  N  N34  1  0.10963500  0.21927100  0.83328900  1
  N  N35  1  0.21927100  0.10963500  0.16671100  1
  N  N36  1  0.33333300  0.66666700  0.35143800  1
  N  N37  1  0.10963500  0.89036500  0.83328900  1
  N  N38  1  0.89036500  0.78072900  0.16671100  1
  N  N39  1  0.78072900  0.89036500  0.83328900  1
  N  N40  1  0.89036500  0.10963500  0.16671100  1
  N  N41  1  0.66666700  0.33333300  0.64856200  1
  O  O42  1  0.10946700  0.89053300  0.65306400  1
  O  O43  1  0.82157900  0.64315900  0.09012000  1
  O  O44  1  0.78106700  0.89053300  0.65306400  1
  O  O45  1  0.64315900  0.82157900  0.90988000  1
  O  O46  1  0.89053300  0.78106700  0.34693600  1
  O  O47  1  0.17842100  0.82157900  0.90988000  1
  O  O48  1  0.17842100  0.35684100  0.90988000  1
  O  O49  1  0.21893300  0.10946700  0.34693600  1
  O  O50  1  0.35684100  0.17842100  0.09012000  1
  O  O51  1  0.82157900  0.17842100  0.09012000  1
  O  O52  1  0.89053300  0.10946700  0.34693600  1
  O  O53  1  0.10946700  0.21893300  0.65306400  1
