# generated using pymatgen
data_Ni2P2(C2O3)3
_symmetry_space_group_name_H-M   'P 1'
_cell_length_a   8.92973200
_cell_length_b   8.92973200
_cell_length_c   8.92973200
_cell_angle_alpha   90.00000000
_cell_angle_beta   90.00000000
_cell_angle_gamma   90.00000000
_symmetry_Int_Tables_number   1
_chemical_formula_structural   Ni2P2(C2O3)3
_chemical_formula_sum   'Ni4 P4 C12 O18'
_cell_volume   712.05784402
_cell_formula_units_Z   2
loop_
 _symmetry_equiv_pos_site_id
 _symmetry_equiv_pos_as_xyz
  1  'x, y, z'
loop_
 _atom_site_type_symbol
 _atom_site_label
 _atom_site_symmetry_multiplicity
 _atom_site_fract_x
 _atom_site_fract_y
 _atom_site_fract_z
 _atom_site_occupancy
  Ni  Ni0  1  0.74311700  0.74311700  0.25688300  1
  Ni  Ni1  1  0.74311700  0.25688300  0.74311700  1
  Ni  Ni2  1  0.25688300  0.74311700  0.74311700  1
  Ni  Ni3  1  0.25688300  0.25688300  0.25688300  1
  P  P4  1  0.88347000  0.88347000  0.11653000  1
  P  P5  1  0.88347000  0.11653000  0.88347000  1
  P  P6  1  0.11653000  0.88347000  0.88347000  1
  P  P7  1  0.11653000  0.11653000  0.11653000  1
  C  C8  1  0.55103200  0.78450100  0.21549900  1
  C  C9  1  0.78450100  0.78450100  0.44896800  1
  C  C10  1  0.78450100  0.55103200  0.21549900  1
  C  C11  1  0.55103200  0.21549900  0.78450100  1
  C  C12  1  0.78450100  0.21549900  0.55103200  1
  C  C13  1  0.78450100  0.44896800  0.78450100  1
  C  C14  1  0.44896800  0.78450100  0.78450100  1
  C  C15  1  0.21549900  0.78450100  0.55103200  1
  C  C16  1  0.21549900  0.55103200  0.78450100  1
  C  C17  1  0.44896800  0.21549900  0.21549900  1
  C  C18  1  0.21549900  0.21549900  0.44896800  1
  C  C19  1  0.21549900  0.44896800  0.21549900  1
  O  O20  1  0.00000000  0.00000000  0.20174300  1
  O  O21  1  0.00000000  0.79825700  0.00000000  1
  O  O22  1  0.79825700  0.00000000  0.00000000  1
  O  O23  1  0.00000000  0.00000000  0.79825700  1
  O  O24  1  0.00000000  0.20174300  0.00000000  1
  O  O25  1  0.20174300  0.00000000  0.00000000  1
  O  O26  1  0.42676200  0.80940700  0.19059300  1
  O  O27  1  0.80940700  0.80940700  0.57323800  1
  O  O28  1  0.80940700  0.42676200  0.19059300  1
  O  O29  1  0.42676200  0.19059300  0.80940700  1
  O  O30  1  0.80940700  0.19059300  0.42676200  1
  O  O31  1  0.80940700  0.57323800  0.80940700  1
  O  O32  1  0.57323800  0.80940700  0.80940700  1
  O  O33  1  0.19059300  0.80940700  0.42676200  1
  O  O34  1  0.19059300  0.42676200  0.80940700  1
  O  O35  1  0.57323800  0.19059300  0.19059300  1
  O  O36  1  0.19059300  0.19059300  0.57323800  1
  O  O37  1  0.19059300  0.57323800  0.19059300  1
