# generated using pymatgen
data_SbPC3S3N3Cl3O
_symmetry_space_group_name_H-M   'P 1'
_cell_length_a   12.56884666
_cell_length_b   12.56884666
_cell_length_c   12.56884666
_cell_angle_alpha   109.47122063
_cell_angle_beta   109.47122063
_cell_angle_gamma   109.47122063
_symmetry_Int_Tables_number   1
_chemical_formula_structural   SbPC3S3N3Cl3O
_chemical_formula_sum   'Sb4 P4 C12 S12 N12 Cl12 O4'
_cell_volume   1528.49630220
_cell_formula_units_Z   4
loop_
 _symmetry_equiv_pos_site_id
 _symmetry_equiv_pos_as_xyz
  1  'x, y, z'
loop_
 _atom_site_type_symbol
 _atom_site_label
 _atom_site_symmetry_multiplicity
 _atom_site_fract_x
 _atom_site_fract_y
 _atom_site_fract_z
 _atom_site_occupancy
  Sb  Sb0  1  0.21417000  0.00000000  0.00000000  1
  Sb  Sb1  1  0.00000000  0.00000000  0.21417000  1
  Sb  Sb2  1  0.78583000  0.78583000  0.78583000  1
  Sb  Sb3  1  0.00000000  0.21417000  0.00000000  1
  P  P4  1  0.65356500  0.00000000  0.00000000  1
  P  P5  1  0.00000000  0.65356500  0.00000000  1
  P  P6  1  0.34643500  0.34643500  0.34643500  1
  P  P7  1  0.00000000  0.00000000  0.65356500  1
  C  C8  1  0.48999400  0.00000000  0.78154200  1
  C  C9  1  0.51000600  0.51000600  0.29154800  1
  C  C10  1  0.51000600  0.29154800  0.51000600  1
  C  C11  1  0.78154200  0.48999400  0.00000000  1
  C  C12  1  0.00000000  0.48999400  0.78154200  1
  C  C13  1  0.00000000  0.78154200  0.48999400  1
  C  C14  1  0.78154200  0.00000000  0.48999400  1
  C  C15  1  0.48999400  0.78154200  0.00000000  1
  C  C16  1  0.21845800  0.70845200  0.21845800  1
  C  C17  1  0.29154800  0.51000600  0.51000600  1
  C  C18  1  0.70845200  0.21845800  0.21845800  1
  C  C19  1  0.21845800  0.21845800  0.70845200  1
  S  S20  1  0.00000000  0.40081400  0.66110700  1
  S  S21  1  0.26029300  0.59918600  0.59918600  1
  S  S22  1  0.59918600  0.26029300  0.59918600  1
  S  S23  1  0.33889300  0.33889300  0.73970700  1
  S  S24  1  0.66110700  0.40081400  0.00000000  1
  S  S25  1  0.40081400  0.00000000  0.66110700  1
  S  S26  1  0.73970700  0.33889300  0.33889300  1
  S  S27  1  0.66110700  0.00000000  0.40081400  1
  S  S28  1  0.40081400  0.66110700  0.00000000  1
  S  S29  1  0.00000000  0.66110700  0.40081400  1
  S  S30  1  0.59918600  0.59918600  0.26029300  1
  S  S31  1  0.33889300  0.73970700  0.33889300  1
  N  N32  1  0.55982000  0.87498100  0.00000000  1
  N  N33  1  0.55982000  0.00000000  0.87498100  1
  N  N34  1  0.44018000  0.44018000  0.31516000  1
  N  N35  1  0.31516000  0.44018000  0.44018000  1
  N  N36  1  0.87498100  0.55982000  0.00000000  1
  N  N37  1  0.00000000  0.55982000  0.87498100  1
  N  N38  1  0.68484000  0.12501900  0.12501900  1
  N  N39  1  0.44018000  0.31516000  0.44018000  1
  N  N40  1  0.12501900  0.68484000  0.12501900  1
  N  N41  1  0.87498100  0.00000000  0.55982000  1
  N  N42  1  0.12501900  0.12501900  0.68484000  1
  N  N43  1  0.00000000  0.87498100  0.55982000  1
  Cl  Cl44  1  0.82791500  0.19860300  0.82791500  1
  Cl  Cl45  1  0.00000000  0.17208500  0.37068700  1
  Cl  Cl46  1  0.19860300  0.82791500  0.82791500  1
  Cl  Cl47  1  0.17208500  0.00000000  0.37068700  1
  Cl  Cl48  1  0.62931300  0.80139700  0.62931300  1
  Cl  Cl49  1  0.37068700  0.00000000  0.17208500  1
  Cl  Cl50  1  0.62931300  0.62931300  0.80139700  1
  Cl  Cl51  1  0.80139700  0.62931300  0.62931300  1
  Cl  Cl52  1  0.37068700  0.17208500  0.00000000  1
  Cl  Cl53  1  0.00000000  0.37068700  0.17208500  1
  Cl  Cl54  1  0.17208500  0.37068700  0.00000000  1
  Cl  Cl55  1  0.82791500  0.82791500  0.19860300  1
  O  O56  1  0.00000000  0.00000000  0.77197700  1
  O  O57  1  0.00000000  0.77197700  0.00000000  1
  O  O58  1  0.22802300  0.22802300  0.22802300  1
  O  O59  1  0.77197700  0.00000000  0.00000000  1
