# generated using pymatgen
data_Ba(BO2)2
_symmetry_space_group_name_H-M   'P 1'
_cell_length_a   8.51903801
_cell_length_b   8.51903801
_cell_length_c   8.51903766
_cell_angle_alpha   96.10076290
_cell_angle_beta   96.10076290
_cell_angle_gamma   96.10076264
_symmetry_Int_Tables_number   1
_chemical_formula_structural   Ba(BO2)2
_chemical_formula_sum   'Ba6 B12 O24'
_cell_volume   606.94016004
_cell_formula_units_Z   6
loop_
 _symmetry_equiv_pos_site_id
 _symmetry_equiv_pos_as_xyz
  1  'x, y, z'
loop_
 _atom_site_type_symbol
 _atom_site_label
 _atom_site_symmetry_multiplicity
 _atom_site_fract_x
 _atom_site_fract_y
 _atom_site_fract_z
 _atom_site_occupancy
  Ba  Ba0  1  0.74118600  0.37949400  0.02852300  1
  Ba  Ba1  1  0.37949400  0.02852300  0.74118600  1
  Ba  Ba2  1  0.02852300  0.74118600  0.37949400  1
  Ba  Ba3  1  0.52852300  0.87949400  0.24118600  1
  Ba  Ba4  1  0.87949400  0.24118600  0.52852300  1
  Ba  Ba5  1  0.24118600  0.52852300  0.87949400  1
  B  B6  1  0.87726800  0.04892300  0.09381500  1
  B  B7  1  0.04892300  0.09381500  0.87726800  1
  B  B8  1  0.09381500  0.87726800  0.04892300  1
  B  B9  1  0.59381500  0.54892300  0.37726800  1
  B  B10  1  0.54892300  0.37726800  0.59381500  1
  B  B11  1  0.37726800  0.59381500  0.54892300  1
  B  B12  1  0.34424100  0.26649200  0.12031900  1
  B  B13  1  0.12031900  0.34424100  0.26649200  1
  B  B14  1  0.26649200  0.12031900  0.34424100  1
  B  B15  1  0.76649200  0.84424100  0.62031900  1
  B  B16  1  0.62031900  0.76649200  0.84424100  1
  B  B17  1  0.84424100  0.62031900  0.76649200  1
  O  O18  1  0.42172000  0.46365500  0.62891300  1
  O  O19  1  0.62891300  0.42172000  0.46365500  1
  O  O20  1  0.46365500  0.62891300  0.42172000  1
  O  O21  1  0.96365500  0.92172000  0.12891300  1
  O  O22  1  0.12891300  0.96365500  0.92172000  1
  O  O23  1  0.92172000  0.12891300  0.96365500  1
  O  O24  1  0.42859000  0.28572600  0.99966800  1
  O  O25  1  0.99966800  0.42859000  0.28572600  1
  O  O26  1  0.28572600  0.99966800  0.42859000  1
  O  O27  1  0.78572600  0.92859000  0.49966800  1
  O  O28  1  0.49966800  0.78572600  0.92859000  1
  O  O29  1  0.92859000  0.49966800  0.78572600  1
  O  O30  1  0.22334500  0.36477500  0.14936100  1
  O  O31  1  0.14936100  0.22334500  0.36477500  1
  O  O32  1  0.36477500  0.14936100  0.22334500  1
  O  O33  1  0.86477500  0.72334500  0.64936100  1
  O  O34  1  0.64936100  0.86477500  0.72334500  1
  O  O35  1  0.72334500  0.64936100  0.86477500  1
  O  O36  1  0.26272200  0.67505600  0.59629900  1
  O  O37  1  0.59629900  0.26272200  0.67505600  1
  O  O38  1  0.67505600  0.59629900  0.26272200  1
  O  O39  1  0.17505600  0.76272200  0.09629900  1
  O  O40  1  0.09629900  0.17505600  0.76272200  1
  O  O41  1  0.76272200  0.09629900  0.17505600  1
