# generated using pymatgen
data_NiSeO3
_symmetry_space_group_name_H-M   'P 1'
_cell_length_a   9.30712570
_cell_length_b   9.30712570
_cell_length_c   14.92818341
_cell_angle_alpha   72.67401993
_cell_angle_beta   72.67401993
_cell_angle_gamma   64.59910441
_symmetry_Int_Tables_number   1
_chemical_formula_structural   NiSeO3
_chemical_formula_sum   'Ni16 Se16 O48'
_cell_volume   1093.20875419
_cell_formula_units_Z   16
loop_
 _symmetry_equiv_pos_site_id
 _symmetry_equiv_pos_as_xyz
  1  'x, y, z'
loop_
 _atom_site_type_symbol
 _atom_site_label
 _atom_site_symmetry_multiplicity
 _atom_site_fract_x
 _atom_site_fract_y
 _atom_site_fract_z
 _atom_site_occupancy
  Ni  Ni0  1  0.04677300  0.81471500  0.53392600  1
  Ni  Ni1  1  0.58999100  0.87766500  0.58295400  1
  Ni  Ni2  1  0.68286700  0.86843100  0.24182000  1
  Ni  Ni3  1  0.62410600  0.89599700  0.91033800  1
  Ni  Ni4  1  0.31713300  0.13157000  0.75818000  1
  Ni  Ni5  1  0.89599700  0.62410600  0.41033800  1
  Ni  Ni6  1  0.86843100  0.68286700  0.74182000  1
  Ni  Ni7  1  0.12233500  0.41000900  0.91704600  1
  Ni  Ni8  1  0.18528500  0.95322700  0.96607400  1
  Ni  Ni9  1  0.41000900  0.12233500  0.41704600  1
  Ni  Ni10  1  0.10400300  0.37589400  0.58966200  1
  Ni  Ni11  1  0.95322700  0.18528500  0.46607400  1
  Ni  Ni12  1  0.37589400  0.10400300  0.08966200  1
  Ni  Ni13  1  0.13156900  0.31713300  0.25818000  1
  Ni  Ni14  1  0.87766500  0.58999100  0.08295400  1
  Ni  Ni15  1  0.81471500  0.04677300  0.03392600  1
  Se  Se16  1  0.79912500  0.03088800  0.36403700  1
  Se  Se17  1  0.29472900  0.93337400  0.35054800  1
  Se  Se18  1  0.70527100  0.06662600  0.64945200  1
  Se  Se19  1  0.24412400  0.50891800  0.39653700  1
  Se  Se20  1  0.20087500  0.96911200  0.63596300  1
  Se  Se21  1  0.96911200  0.20087500  0.13596300  1
  Se  Se22  1  0.06662600  0.70527100  0.14945200  1
  Se  Se23  1  0.47795900  0.71253800  0.81853400  1
  Se  Se24  1  0.75587600  0.49108200  0.60346300  1
  Se  Se25  1  0.28746200  0.52204100  0.68146600  1
  Se  Se26  1  0.03088800  0.79912500  0.86403700  1
  Se  Se27  1  0.93337400  0.29472900  0.85054800  1
  Se  Se28  1  0.71253800  0.47795900  0.31853400  1
  Se  Se29  1  0.50891800  0.24412400  0.89653700  1
  Se  Se30  1  0.49108200  0.75587600  0.10346300  1
  Se  Se31  1  0.52204100  0.28746200  0.18146600  1
  O  O32  1  0.93640700  0.48268700  0.84646900  1
  O  O33  1  0.28426400  0.48705100  0.80106000  1
  O  O34  1  0.19160500  0.13546000  0.38095100  1
  O  O35  1  0.67486500  0.70494700  0.02364100  1
  O  O36  1  0.70494700  0.67486500  0.52364100  1
  O  O37  1  0.87749400  0.50240500  0.66800300  1
  O  O38  1  0.63423000  0.02891500  0.45491000  1
  O  O39  1  0.39120300  0.92379500  0.01825900  1
  O  O40  1  0.13546000  0.19160500  0.88095100  1
  O  O41  1  0.60879700  0.07620500  0.98174100  1
  O  O42  1  0.32513500  0.29505300  0.97635900  1
  O  O43  1  0.49759500  0.12250600  0.83199700  1
  O  O44  1  0.14759200  0.14591200  0.17520000  1
  O  O45  1  0.97108500  0.36577000  0.04509000  1
  O  O46  1  0.36103900  0.24600300  0.17626800  1
  O  O47  1  0.04371700  0.01611900  0.57883500  1
  O  O48  1  0.92379500  0.39120300  0.51825900  1
  O  O49  1  0.90028800  0.32382800  0.33367100  1
  O  O50  1  0.02891500  0.63423000  0.95491000  1
  O  O51  1  0.51294900  0.71573600  0.69894000  1
  O  O52  1  0.48705100  0.28426400  0.30106000  1
  O  O53  1  0.12250600  0.49759500  0.33199700  1
  O  O54  1  0.36577000  0.97108500  0.54509000  1
  O  O55  1  0.09971200  0.67617200  0.66632900  1
  O  O56  1  0.95628300  0.98388100  0.42116500  1
  O  O57  1  0.71573600  0.51294900  0.19894000  1
  O  O58  1  0.63896100  0.75399700  0.82373200  1
  O  O59  1  0.51731300  0.06359300  0.65353100  1
  O  O60  1  0.72613900  0.20544700  0.54729500  1
  O  O61  1  0.32382800  0.90028800  0.83367100  1
  O  O62  1  0.07620500  0.60879700  0.48174100  1
  O  O63  1  0.79455300  0.27386100  0.95270500  1
  O  O64  1  0.67617200  0.09971200  0.16632900  1
  O  O65  1  0.85408800  0.85240800  0.32480000  1
  O  O66  1  0.75399700  0.63896100  0.32373200  1
  O  O67  1  0.14591200  0.14759200  0.67520000  1
  O  O68  1  0.85240800  0.85408800  0.82480000  1
  O  O69  1  0.24600300  0.36103900  0.67626800  1
  O  O70  1  0.48268700  0.93640700  0.34646900  1
  O  O71  1  0.80839500  0.86454000  0.61904900  1
  O  O72  1  0.98388100  0.95628300  0.92116500  1
  O  O73  1  0.50240500  0.87749400  0.16800300  1
  O  O74  1  0.86454000  0.80839500  0.11904900  1
  O  O75  1  0.20544700  0.72613900  0.04729500  1
  O  O76  1  0.29505300  0.32513500  0.47635900  1
  O  O77  1  0.01611900  0.04371700  0.07883500  1
  O  O78  1  0.06359300  0.51731300  0.15353100  1
  O  O79  1  0.27386100  0.79455300  0.45270500  1
