# generated using pymatgen
data_YMg2
_symmetry_space_group_name_H-M   'P 1'
_cell_length_a   8.63207152
_cell_length_b   8.63207152
_cell_length_c   5.47676000
_cell_angle_alpha   90.00000000
_cell_angle_beta   90.00000000
_cell_angle_gamma   156.69831087
_symmetry_Int_Tables_number   1
_chemical_formula_structural   YMg2
_chemical_formula_sum   'Y2 Mg4'
_cell_volume   161.42840244
_cell_formula_units_Z   2
loop_
 _symmetry_equiv_pos_site_id
 _symmetry_equiv_pos_as_xyz
  1  'x, y, z'
loop_
 _atom_site_type_symbol
 _atom_site_label
 _atom_site_symmetry_multiplicity
 _atom_site_fract_x
 _atom_site_fract_y
 _atom_site_fract_z
 _atom_site_occupancy
  Y  Y0  1  0.22378200  0.77621800  0.25000000  1
  Y  Y1  1  0.77621800  0.22378200  0.75000000  1
  Mg  Mg2  1  0.55307600  0.44692400  0.25000000  1
  Mg  Mg3  1  0.89392100  0.10607900  0.25000000  1
  Mg  Mg4  1  0.10607900  0.89392100  0.75000000  1
  Mg  Mg5  1  0.44692400  0.55307600  0.75000000  1
