# generated using pymatgen
data_Hg(CN)2
_symmetry_space_group_name_H-M   'P 1'
_cell_length_a   8.36491114
_cell_length_b   8.36491114
_cell_length_c   8.36491114
_cell_angle_alpha   107.38520489
_cell_angle_beta   107.38520489
_cell_angle_gamma   113.72900414
_symmetry_Int_Tables_number   1
_chemical_formula_structural   Hg(CN)2
_chemical_formula_sum   'Hg4 C8 N8'
_cell_volume   448.68917366
_cell_formula_units_Z   4
loop_
 _symmetry_equiv_pos_site_id
 _symmetry_equiv_pos_as_xyz
  1  'x, y, z'
loop_
 _atom_site_type_symbol
 _atom_site_label
 _atom_site_symmetry_multiplicity
 _atom_site_fract_x
 _atom_site_fract_y
 _atom_site_fract_z
 _atom_site_occupancy
  Hg  Hg0  1  0.12500000  0.08965200  0.46465200  1
  Hg  Hg1  1  0.91034800  0.37500000  0.03534800  1
  Hg  Hg2  1  0.33965200  0.87500000  0.96465200  1
  Hg  Hg3  1  0.62500000  0.66034800  0.53534800  1
  C  C4  1  0.36724300  0.11595800  0.15899300  1
  C  C5  1  0.95696600  0.20825100  0.84100700  1
  C  C6  1  0.79174900  0.63275700  0.74871500  1
  C  C7  1  0.36595800  0.11724300  0.65899300  1
  C  C8  1  0.45825100  0.70696600  0.34100700  1
  C  C9  1  0.29303400  0.63404200  0.75128500  1
  C  C10  1  0.88275700  0.54174900  0.24871500  1
  C  C11  1  0.88404200  0.04303400  0.25128500  1
  N  N12  1  0.97523900  0.10863500  0.72529700  1
  N  N13  1  0.27476100  0.50005800  0.63339600  1
  N  N14  1  0.49994200  0.13333800  0.77470300  1
  N  N15  1  0.89136500  0.61666200  0.86660400  1
  N  N16  1  0.86666200  0.64136500  0.36660400  1
  N  N17  1  0.75005800  0.02476100  0.13339600  1
  N  N18  1  0.38333800  0.24994200  0.27470300  1
  N  N19  1  0.35863500  0.72523900  0.22529700  1
