# generated using pymatgen
data_Ti(AlCl4)2
_symmetry_space_group_name_H-M   'P 1'
_cell_length_a   9.80367566
_cell_length_b   9.80367566
_cell_length_c   11.86050577
_cell_angle_alpha   55.17260420
_cell_angle_beta   55.17260420
_cell_angle_gamma   48.49545646
_symmetry_Int_Tables_number   1
_chemical_formula_structural   Ti(AlCl4)2
_chemical_formula_sum   'Ti2 Al4 Cl16'
_cell_volume   665.48686185
_cell_formula_units_Z   2
loop_
 _symmetry_equiv_pos_site_id
 _symmetry_equiv_pos_as_xyz
  1  'x, y, z'
loop_
 _atom_site_type_symbol
 _atom_site_label
 _atom_site_symmetry_multiplicity
 _atom_site_fract_x
 _atom_site_fract_y
 _atom_site_fract_z
 _atom_site_occupancy
  Ti  Ti0  1  0.00253000  0.99747000  0.75000000  1
  Ti  Ti1  1  0.99747000  0.00253000  0.25000000  1
  Al  Al2  1  0.15680400  0.66771200  0.53197900  1
  Al  Al3  1  0.33228800  0.84319600  0.96802100  1
  Al  Al4  1  0.84319600  0.33228800  0.46802100  1
  Al  Al5  1  0.66771200  0.15680400  0.03197900  1
  Cl  Cl6  1  0.30388900  0.37715000  0.55225200  1
  Cl  Cl7  1  0.68689000  0.14556900  0.21318900  1
  Cl  Cl8  1  0.62285000  0.69611100  0.94774800  1
  Cl  Cl9  1  0.37715000  0.30388900  0.05225200  1
  Cl  Cl10  1  0.83085900  0.28582900  0.82631500  1
  Cl  Cl11  1  0.85443100  0.31311000  0.28681100  1
  Cl  Cl12  1  0.31311000  0.85443100  0.78681100  1
  Cl  Cl13  1  0.14556900  0.68689000  0.71318900  1
  Cl  Cl14  1  0.16671800  0.13074700  0.98334500  1
  Cl  Cl15  1  0.71417100  0.16914100  0.67368500  1
  Cl  Cl16  1  0.83328200  0.86925300  0.01665500  1
  Cl  Cl17  1  0.69611100  0.62285000  0.44774800  1
  Cl  Cl18  1  0.13074700  0.16671800  0.48334500  1
  Cl  Cl19  1  0.86925300  0.83328200  0.51665500  1
  Cl  Cl20  1  0.28582900  0.83085900  0.32631500  1
  Cl  Cl21  1  0.16914100  0.71417100  0.17368500  1
