# generated using pymatgen
data_K2U(PSe3)3
_symmetry_space_group_name_H-M   'P 1'
_cell_length_a   10.24464800
_cell_length_b   10.61673610
_cell_length_c   16.78328204
_cell_angle_alpha   90.03854652
_cell_angle_beta   107.29165333
_cell_angle_gamma   91.67715277
_symmetry_Int_Tables_number   1
_chemical_formula_structural   K2U(PSe3)3
_chemical_formula_sum   'K8 U4 P12 Se36'
_cell_volume   1742.09649758
_cell_formula_units_Z   4
loop_
 _symmetry_equiv_pos_site_id
 _symmetry_equiv_pos_as_xyz
  1  'x, y, z'
loop_
 _atom_site_type_symbol
 _atom_site_label
 _atom_site_symmetry_multiplicity
 _atom_site_fract_x
 _atom_site_fract_y
 _atom_site_fract_z
 _atom_site_occupancy
  K  K0  1  0.97145000  0.24632100  0.46644700  1
  K  K1  1  0.24791600  0.81407000  0.86675000  1
  K  K2  1  0.55243900  0.76037200  0.54858700  1
  K  K3  1  0.44756100  0.23962800  0.45141300  1
  K  K4  1  0.70415700  0.66944700  0.85008900  1
  K  K5  1  0.02855000  0.75367900  0.53355300  1
  K  K6  1  0.75208400  0.18593000  0.13325000  1
  K  K7  1  0.29584300  0.33055300  0.14991100  1
  U  U8  1  0.19365100  0.27776800  0.77569900  1
  U  U9  1  0.22253000  0.78014100  0.16836400  1
  U  U10  1  0.77747000  0.21985900  0.83163600  1
  U  U11  1  0.80634900  0.72223200  0.22430100  1
  P  P12  1  0.51019000  0.57188600  0.05377000  1
  P  P13  1  0.46339000  0.99754000  0.71875100  1
  P  P14  1  0.72413700  0.93223700  0.37848400  1
  P  P15  1  0.78162000  0.41402400  0.65064000  1
  P  P16  1  0.21838000  0.58597600  0.34936000  1
  P  P17  1  0.92731700  0.92435300  0.00862700  1
  P  P18  1  0.07268300  0.07564700  0.99137300  1
  P  P19  1  0.48981000  0.42811400  0.94623000  1
  P  P20  1  0.27586300  0.06776300  0.62151600  1
  P  P21  1  0.95138300  0.54298000  0.72664900  1
  P  P22  1  0.53661000  0.00246000  0.28124900  1
  P  P23  1  0.04861700  0.45702000  0.27335100  1
  Se  Se24  1  0.71523500  0.46766800  0.52126800  1
  Se  Se25  1  0.01150800  0.74329700  0.98593600  1
  Se  Se26  1  0.10607400  0.77038000  0.32554700  1
  Se  Se27  1  0.74943900  0.01707300  0.49938800  1
  Se  Se28  1  0.03125900  0.07013900  0.85151300  1
  Se  Se29  1  0.88654200  0.49606700  0.33266300  1
  Se  Se30  1  0.62718600  0.41437100  0.72003700  1
  Se  Se31  1  0.00588100  0.43840400  0.85065100  1
  Se  Se32  1  0.53376300  0.87503600  0.17197000  1
  Se  Se33  1  0.10767300  0.26260600  0.27758700  1
  Se  Se34  1  0.42392100  0.79609100  0.72510800  1
  Se  Se35  1  0.99412000  0.56159600  0.14934900  1
  Se  Se36  1  0.89232700  0.73739400  0.72241300  1
  Se  Se37  1  0.70777600  0.37965500  0.96307100  1
  Se  Se38  1  0.98849200  0.25670300  0.01406400  1
  Se  Se39  1  0.12414800  0.02027000  0.68968900  1
  Se  Se40  1  0.37400500  0.50911000  0.82415400  1
  Se  Se41  1  0.25056100  0.98292700  0.50061200  1
  Se  Se42  1  0.71001700  0.72367600  0.37401600  1
  Se  Se43  1  0.87585200  0.97973000  0.31031100  1
  Se  Se44  1  0.62599500  0.49089000  0.17584600  1
  Se  Se45  1  0.57607900  0.20390900  0.27489200  1
  Se  Se46  1  0.35745300  0.27002000  0.96460800  1
  Se  Se47  1  0.37281400  0.58562900  0.27996300  1
  Se  Se48  1  0.29222400  0.62034500  0.03692900  1
  Se  Se49  1  0.28998300  0.27632400  0.62598400  1
  Se  Se50  1  0.28476500  0.53233200  0.47873200  1
  Se  Se51  1  0.27605500  0.00898100  0.06810900  1
  Se  Se52  1  0.65223600  0.05471200  0.68688500  1
  Se  Se53  1  0.34776400  0.94528800  0.31311500  1
  Se  Se54  1  0.89392600  0.22962000  0.67445300  1
  Se  Se55  1  0.46623700  0.12496400  0.82803000  1
  Se  Se56  1  0.72394500  0.99101900  0.93189100  1
  Se  Se57  1  0.64254700  0.72998000  0.03539200  1
  Se  Se58  1  0.96874100  0.92986100  0.14848700  1
  Se  Se59  1  0.11345800  0.50393300  0.66733700  1
