# generated using pymatgen
data_Mg2Zn
_symmetry_space_group_name_H-M   'P 1'
_cell_length_a   5.91203554
_cell_length_b   5.91203554
_cell_length_c   6.87518356
_cell_angle_alpha   75.65863284
_cell_angle_beta   75.65863284
_cell_angle_gamma   30.33782533
_symmetry_Int_Tables_number   1
_chemical_formula_structural   Mg2Zn
_chemical_formula_sum   'Mg4 Zn2'
_cell_volume   117.31096196
_cell_formula_units_Z   2
loop_
 _symmetry_equiv_pos_site_id
 _symmetry_equiv_pos_as_xyz
  1  'x, y, z'
loop_
 _atom_site_type_symbol
 _atom_site_label
 _atom_site_symmetry_multiplicity
 _atom_site_fract_x
 _atom_site_fract_y
 _atom_site_fract_z
 _atom_site_occupancy
  Mg  Mg0  1  0.82554700  0.82554700  0.11987000  1
  Mg  Mg1  1  0.13542300  0.13542300  0.46277900  1
  Mg  Mg2  1  0.86457700  0.86457700  0.53722100  1
  Mg  Mg3  1  0.17445300  0.17445300  0.88013000  1
  Zn  Zn4  1  0.52574500  0.52574500  0.20032400  1
  Zn  Zn5  1  0.47425500  0.47425500  0.79967600  1
