# generated using pymatgen
data_Cs3Bi2
_symmetry_space_group_name_H-M   'P 1'
_cell_length_a   7.37472695
_cell_length_b   7.37472695
_cell_length_c   10.31727151
_cell_angle_alpha   80.04777136
_cell_angle_beta   80.04777136
_cell_angle_gamma   91.87550900
_symmetry_Int_Tables_number   1
_chemical_formula_structural   Cs3Bi2
_chemical_formula_sum   'Cs6 Bi4'
_cell_volume   543.22668227
_cell_formula_units_Z   2
loop_
 _symmetry_equiv_pos_site_id
 _symmetry_equiv_pos_as_xyz
  1  'x, y, z'
loop_
 _atom_site_type_symbol
 _atom_site_label
 _atom_site_symmetry_multiplicity
 _atom_site_fract_x
 _atom_site_fract_y
 _atom_site_fract_z
 _atom_site_occupancy
  Cs  Cs0  1  0.83979700  0.16020300  0.75000000  1
  Cs  Cs1  1  0.75909100  0.66348100  0.01538900  1
  Cs  Cs2  1  0.16020300  0.83979700  0.25000000  1
  Cs  Cs3  1  0.66348100  0.75909100  0.51538900  1
  Cs  Cs4  1  0.33651900  0.24090900  0.48461100  1
  Cs  Cs5  1  0.24090900  0.33651900  0.98461100  1
  Bi  Bi6  1  0.12238800  0.68792000  0.66084800  1
  Bi  Bi7  1  0.87761200  0.31208000  0.33915200  1
  Bi  Bi8  1  0.68792000  0.12238800  0.16084800  1
  Bi  Bi9  1  0.31208000  0.87761200  0.83915200  1
