# generated using pymatgen
data_MgTi
_symmetry_space_group_name_H-M   'P 1'
_cell_length_a   5.87179851
_cell_length_b   5.87179851
_cell_length_c   7.20465101
_cell_angle_alpha   75.31150708
_cell_angle_beta   75.31150708
_cell_angle_gamma   29.27880912
_symmetry_Int_Tables_number   1
_chemical_formula_structural   MgTi
_chemical_formula_sum   'Mg3 Ti3'
_cell_volume   117.23745352
_cell_formula_units_Z   3
loop_
 _symmetry_equiv_pos_site_id
 _symmetry_equiv_pos_as_xyz
  1  'x, y, z'
loop_
 _atom_site_type_symbol
 _atom_site_label
 _atom_site_symmetry_multiplicity
 _atom_site_fract_x
 _atom_site_fract_y
 _atom_site_fract_z
 _atom_site_occupancy
  Mg  Mg0  1  0.99997300  0.99997300  0.00598300  1
  Mg  Mg1  1  0.94185800  0.94185800  0.60546700  1
  Mg  Mg2  1  0.67181400  0.67181400  0.66154800  1
  Ti  Ti3  1  0.62402200  0.62402200  0.26570700  1
  Ti  Ti4  1  0.32241800  0.32241800  0.32457600  1
  Ti  Ti5  1  0.27324800  0.27324800  0.97005200  1
