# generated using pymatgen
data_Ce4In8Ni7
_symmetry_space_group_name_H-M   'P 1'
_cell_length_a   4.40930500
_cell_length_b   13.99196186
_cell_length_c   13.99196171
_cell_angle_alpha   117.57479010
_cell_angle_beta   90.00000000
_cell_angle_gamma   90.00000000
_symmetry_Int_Tables_number   1
_chemical_formula_structural   Ce4In8Ni7
_chemical_formula_sum   'Ce8 In16 Ni14'
_cell_volume   765.17488335
_cell_formula_units_Z   2
loop_
 _symmetry_equiv_pos_site_id
 _symmetry_equiv_pos_as_xyz
  1  'x, y, z'
loop_
 _atom_site_type_symbol
 _atom_site_label
 _atom_site_symmetry_multiplicity
 _atom_site_fract_x
 _atom_site_fract_y
 _atom_site_fract_z
 _atom_site_occupancy
  Ce  Ce0  1  0.00000000  0.99717100  0.34736700  1
  Ce  Ce1  1  0.50000000  0.39636300  0.60363700  1
  Ce  Ce2  1  0.00000000  0.65263300  0.00282900  1
  Ce  Ce3  1  0.00000000  0.80949300  0.80949300  1
  Ce  Ce4  1  0.00000000  0.00282900  0.65263300  1
  Ce  Ce5  1  0.50000000  0.60363700  0.39636300  1
  Ce  Ce6  1  0.00000000  0.34736700  0.99717100  1
  Ce  Ce7  1  0.00000000  0.19050700  0.19050700  1
  In  In8  1  0.50000000  0.18101600  0.37018500  1
  In  In9  1  0.50000000  0.87763000  0.44153300  1
  In  In10  1  0.00000000  0.72097200  0.27902800  1
  In  In11  1  0.00000000  0.91522300  0.08477700  1
  In  In12  1  0.50000000  0.44153300  0.87763000  1
  In  In13  1  0.50000000  0.37018500  0.18101600  1
  In  In14  1  0.50000000  0.62981500  0.81898400  1
  In  In15  1  0.50000000  0.80908200  0.19091800  1
  In  In16  1  0.50000000  0.12237000  0.55846700  1
  In  In17  1  0.50000000  0.81898400  0.62981500  1
  In  In18  1  0.00000000  0.27902800  0.72097200  1
  In  In19  1  0.00000000  0.08477700  0.91522300  1
  In  In20  1  0.50000000  0.00000000  0.00000000  1
  In  In21  1  0.50000000  0.19091800  0.80908200  1
  In  In22  1  0.50000000  0.55846700  0.12237000  1
  In  In23  1  0.00000000  0.50000000  0.50000000  1
  Ni  Ni24  1  0.00000000  0.40347800  0.29639600  1
  Ni  Ni25  1  0.50000000  0.61706500  0.61706500  1
  Ni  Ni26  1  0.00000000  0.29639600  0.40347800  1
  Ni  Ni27  1  0.00000000  0.51006600  0.20100800  1
  Ni  Ni28  1  0.00000000  0.48993400  0.79899200  1
  Ni  Ni29  1  0.50000000  0.19371700  0.00115500  1
  Ni  Ni30  1  0.50000000  0.38293500  0.38293500  1
  Ni  Ni31  1  0.50000000  0.99884500  0.80628300  1
  Ni  Ni32  1  0.50000000  0.80628300  0.99884500  1
  Ni  Ni33  1  0.50000000  0.00115500  0.19371700  1
  Ni  Ni34  1  0.00000000  0.79899200  0.48993400  1
  Ni  Ni35  1  0.00000000  0.20100800  0.51006600  1
  Ni  Ni36  1  0.00000000  0.70360400  0.59652200  1
  Ni  Ni37  1  0.00000000  0.59652200  0.70360400  1
