# generated using pymatgen
data_Mn8Zn14Ga27
_symmetry_space_group_name_H-M   'P 1'
_cell_length_a   9.22444350
_cell_length_b   9.22444350
_cell_length_c   9.22444392
_cell_angle_alpha   94.76591509
_cell_angle_beta   94.76591509
_cell_angle_gamma   94.76592444
_symmetry_Int_Tables_number   1
_chemical_formula_structural   Mn8Zn14Ga27
_chemical_formula_sum   'Mn8 Zn14 Ga27'
_cell_volume   776.28614595
_cell_formula_units_Z   1
loop_
 _symmetry_equiv_pos_site_id
 _symmetry_equiv_pos_as_xyz
  1  'x, y, z'
loop_
 _atom_site_type_symbol
 _atom_site_label
 _atom_site_symmetry_multiplicity
 _atom_site_fract_x
 _atom_site_fract_y
 _atom_site_fract_z
 _atom_site_occupancy
  Mn  Mn0  1  0.71937100  0.09570400  0.38618300  1
  Mn  Mn1  1  0.18552000  0.18552000  0.18552000  1
  Mn  Mn2  1  0.61381700  0.28062900  0.90429600  1
  Mn  Mn3  1  0.28062900  0.90429600  0.61381700  1
  Mn  Mn4  1  0.90429600  0.61381700  0.28062900  1
  Mn  Mn5  1  0.38618300  0.71937100  0.09570400  1
  Mn  Mn6  1  0.09570400  0.38618300  0.71937100  1
  Mn  Mn7  1  0.81448000  0.81448000  0.81448000  1
  Zn  Zn8  1  0.46338700  0.23075700  0.34028600  1
  Zn  Zn9  1  0.37477300  0.73458000  0.38711500  1
  Zn  Zn10  1  0.50000000  0.50000000  0.50000000  1
  Zn  Zn11  1  0.76924300  0.65971400  0.53661300  1
  Zn  Zn12  1  0.26542000  0.61288500  0.62522700  1
  Zn  Zn13  1  0.23075700  0.34028600  0.46338700  1
  Zn  Zn14  1  0.53661300  0.76924300  0.65971400  1
  Zn  Zn15  1  0.73458000  0.38711500  0.37477300  1
  Zn  Zn16  1  0.62522700  0.26542000  0.61288500  1
  Zn  Zn17  1  0.34028600  0.46338700  0.23075700  1
  Zn  Zn18  1  0.65971400  0.53661300  0.76924300  1
  Zn  Zn19  1  0.61288500  0.62522700  0.26542000  1
  Zn  Zn20  1  0.38711500  0.37477300  0.73458000  1
  Zn  Zn21  1  0.00000000  0.00000000  0.00000000  1
  Ga  Ga22  1  0.44657100  0.08608300  0.77390100  1
  Ga  Ga23  1  0.22164200  0.04372300  0.39917000  1
  Ga  Ga24  1  0.26836300  0.94732700  0.12016800  1
  Ga  Ga25  1  0.32796700  0.82328200  0.85772300  1
  Ga  Ga26  1  0.82328200  0.85772300  0.32796700  1
  Ga  Ga27  1  0.87983200  0.73163700  0.05267300  1
  Ga  Ga28  1  0.85772300  0.32796700  0.82328200  1
  Ga  Ga29  1  0.39917000  0.22164200  0.04372300  1
  Ga  Ga30  1  0.17671800  0.14227700  0.67203300  1
  Ga  Ga31  1  0.05267300  0.87983200  0.73163700  1
  Ga  Ga32  1  0.12016800  0.26836300  0.94732700  1
  Ga  Ga33  1  0.22609900  0.55342900  0.91391700  1
  Ga  Ga34  1  0.77835800  0.95627700  0.60083000  1
  Ga  Ga35  1  0.95627700  0.60083000  0.77835800  1
  Ga  Ga36  1  0.91391700  0.22609900  0.55342900  1
  Ga  Ga37  1  0.55342900  0.91391700  0.22609900  1
  Ga  Ga38  1  0.50000000  0.00000000  0.50000000  1
  Ga  Ga39  1  0.94732700  0.12016800  0.26836300  1
  Ga  Ga40  1  0.73163700  0.05267300  0.87983200  1
  Ga  Ga41  1  0.77390100  0.44657100  0.08608300  1
  Ga  Ga42  1  0.60083000  0.77835800  0.95627700  1
  Ga  Ga43  1  0.67203300  0.17671800  0.14227700  1
  Ga  Ga44  1  0.04372300  0.39917000  0.22164200  1
  Ga  Ga45  1  0.14227700  0.67203300  0.17671800  1
  Ga  Ga46  1  0.08608300  0.77390100  0.44657100  1
  Ga  Ga47  1  0.50000000  0.50000000  0.00000000  1
  Ga  Ga48  1  0.00000000  0.50000000  0.50000000  1
