# generated using pymatgen
data_Cu2S
_symmetry_space_group_name_H-M   'P 1'
_cell_length_a   11.91582681
_cell_length_b   13.35222503
_cell_length_c   15.13403569
_cell_angle_alpha   116.19370673
_cell_angle_beta   90.00000000
_cell_angle_gamma   90.00000000
_symmetry_Int_Tables_number   1
_chemical_formula_structural   Cu2S
_chemical_formula_sum   'Cu96 S48'
_cell_volume   2160.59599453
_cell_formula_units_Z   48
loop_
 _symmetry_equiv_pos_site_id
 _symmetry_equiv_pos_as_xyz
  1  'x, y, z'
loop_
 _atom_site_type_symbol
 _atom_site_label
 _atom_site_symmetry_multiplicity
 _atom_site_fract_x
 _atom_site_fract_y
 _atom_site_fract_z
 _atom_site_occupancy
  Cu  Cu0  1  0.46178169  0.64452677  0.82759490  1
  Cu  Cu1  1  0.39843839  0.95689163  0.13829254  1
  Cu  Cu2  1  0.29664715  0.75584228  0.02325030  1
  Cu  Cu3  1  0.03821831  0.14452677  0.82759490  1
  Cu  Cu4  1  0.54710214  0.32541389  0.68672350  1
  Cu  Cu5  1  0.58691310  0.71619625  0.99737432  1
  Cu  Cu6  1  0.85512485  0.56120316  0.05510326  1
  Cu  Cu7  1  0.65959926  0.99330256  0.55283092  1
  Cu  Cu8  1  0.42079075  0.72200716  0.50273758  1
  Cu  Cu9  1  0.74942237  0.92486100  0.14080409  1
  Cu  Cu10  1  0.29142090  0.56935787  0.20737173  1
  Cu  Cu11  1  0.73608218  0.21396171  0.63933690  1
  Cu  Cu12  1  0.25010440  0.85185352  0.77077290  1
  Cu  Cu13  1  0.39914943  0.94701686  0.60964938  1
  Cu  Cu14  1  0.57722286  0.84227120  0.89904362  1
  Cu  Cu15  1  0.87046133  0.06097285  0.07106582  1
  Cu  Cu16  1  0.64487515  0.06120316  0.05510326  1
  Cu  Cu17  1  0.69727141  0.36353980  0.29059348  1
  Cu  Cu18  1  0.08691310  0.78380375  0.00262568  1
  Cu  Cu19  1  0.79042267  0.23278698  0.47701984  1
  Cu  Cu20  1  0.26380870  0.91462264  0.26483095  1
  Cu  Cu21  1  0.93438388  0.06535035  0.38834248  1
  Cu  Cu22  1  0.95817608  0.32600394  0.69964281  1
  Cu  Cu23  1  0.41260962  0.68959475  0.13138851  1
  Cu  Cu24  1  0.57920925  0.27799284  0.49726242  1
  Cu  Cu25  1  0.76391782  0.71396171  0.63933690  1
  Cu  Cu26  1  0.14487515  0.43879684  0.94489674  1
  Cu  Cu27  1  0.20957733  0.76721302  0.52298016  1
  Cu  Cu28  1  0.15959926  0.50669744  0.44716908  1
  Cu  Cu29  1  0.39010105  0.16371467  0.62244421  1
  Cu  Cu30  1  0.75010440  0.64814648  0.22922710  1
  Cu  Cu31  1  0.79142090  0.93064213  0.79262827  1
  Cu  Cu32  1  0.42277714  0.15772880  0.10095638  1
  Cu  Cu33  1  0.74989560  0.14814648  0.22922710  1
  Cu  Cu34  1  0.26391782  0.78603829  0.36066310  1
  Cu  Cu35  1  0.23619130  0.41462264  0.26483095  1
  Cu  Cu36  1  0.56561612  0.56535035  0.38834248  1
  Cu  Cu37  1  0.24942237  0.57513900  0.85919591  1
  Cu  Cu38  1  0.37560145  0.48455888  0.42063571  1
  Cu  Cu39  1  0.08739038  0.18959475  0.13138851  1
  Cu  Cu40  1  0.87560145  0.01544112  0.57936429  1
  Cu  Cu41  1  0.53821831  0.35547323  0.17240510  1
  Cu  Cu42  1  0.76380870  0.58537736  0.73516905  1
  Cu  Cu43  1  0.75057763  0.42486100  0.14080409  1
  Cu  Cu44  1  0.43874465  0.11838208  0.78192087  1
  Cu  Cu45  1  0.23608218  0.28603829  0.36066310  1
  Cu  Cu46  1  0.45289786  0.67458611  0.31327650  1
  Cu  Cu47  1  0.79664715  0.74415772  0.97674970  1
  Cu  Cu48  1  0.92277714  0.34227120  0.89904362  1
  Cu  Cu49  1  0.62953867  0.56097285  0.07106582  1
  Cu  Cu50  1  0.41308690  0.28380375  0.00262568  1
  Cu  Cu51  1  0.62439855  0.51544112  0.57936429  1
  Cu  Cu52  1  0.56125535  0.88161792  0.21807913  1
  Cu  Cu53  1  0.07920925  0.22200716  0.50273758  1
  Cu  Cu54  1  0.73619130  0.08537736  0.73516905  1
  Cu  Cu55  1  0.58739038  0.31040525  0.86861149  1
  Cu  Cu56  1  0.04182392  0.67399606  0.30035719  1
  Cu  Cu57  1  0.04710214  0.17458611  0.31327650  1
  Cu  Cu58  1  0.10989895  0.66371467  0.62244421  1
  Cu  Cu59  1  0.35512485  0.93879684  0.94489674  1
  Cu  Cu60  1  0.89843839  0.54310837  0.86170746  1
  Cu  Cu61  1  0.54182392  0.82600394  0.69964281  1
  Cu  Cu62  1  0.91308690  0.21619625  0.99737432  1
  Cu  Cu63  1  0.95289786  0.82541389  0.68672350  1
  Cu  Cu64  1  0.06125535  0.61838208  0.78192087  1
  Cu  Cu65  1  0.60156161  0.04310837  0.86170746  1
  Cu  Cu66  1  0.60085057  0.05298314  0.39035062  1
  Cu  Cu67  1  0.34040074  0.00669744  0.44716908  1
  Cu  Cu68  1  0.70957733  0.73278698  0.47701984  1
  Cu  Cu69  1  0.70335285  0.24415772  0.97674970  1
  Cu  Cu70  1  0.92079075  0.77799284  0.49726242  1
  Cu  Cu71  1  0.20335285  0.25584228  0.02325030  1
  Cu  Cu72  1  0.20857910  0.06935787  0.20737173  1
  Cu  Cu73  1  0.29042267  0.26721302  0.52298016  1
  Cu  Cu74  1  0.60989895  0.83628533  0.37755579  1
  Cu  Cu75  1  0.45817608  0.17399606  0.30035719  1
  Cu  Cu76  1  0.10156161  0.45689163  0.13829254  1
  Cu  Cu77  1  0.96178169  0.85547323  0.17240510  1
  Cu  Cu78  1  0.19727141  0.13646020  0.70940652  1
  Cu  Cu79  1  0.43438388  0.43464965  0.61165752  1
  Cu  Cu80  1  0.10085057  0.44701686  0.60964938  1
  Cu  Cu81  1  0.91260962  0.81040525  0.86861149  1
  Cu  Cu82  1  0.06561612  0.93464965  0.61165752  1
  Cu  Cu83  1  0.24989560  0.35185352  0.77077290  1
  Cu  Cu84  1  0.30272859  0.63646020  0.70940652  1
  Cu  Cu85  1  0.93874465  0.38161792  0.21807913  1
  Cu  Cu86  1  0.84040074  0.49330256  0.55283092  1
  Cu  Cu87  1  0.25057763  0.07513900  0.85919591  1
  Cu  Cu88  1  0.70857910  0.43064213  0.79262827  1
  Cu  Cu89  1  0.37046133  0.43902715  0.92893418  1
  Cu  Cu90  1  0.12439855  0.98455888  0.42063571  1
  Cu  Cu91  1  0.89914943  0.55298314  0.39035062  1
  Cu  Cu92  1  0.12953867  0.93902715  0.92893418  1
  Cu  Cu93  1  0.89010105  0.33628533  0.37755579  1
  Cu  Cu94  1  0.07722286  0.65772880  0.10095638  1
  Cu  Cu95  1  0.80272859  0.86353980  0.29059348  1
  S  S96  1  0.57357230  0.90637079  0.06599935  1
  S  S97  1  0.21402492  0.13138006  0.55134218  1
  S  S98  1  0.56670122  0.14614330  0.55502499  1
  S  S99  1  0.08100096  0.29006211  0.79559030  1
  S  S100  1  0.71402492  0.36861994  0.44865782  1
  S  S101  1  0.41899904  0.79006211  0.79559030  1
  S  S102  1  0.77091501  0.08047397  0.94997290  1
  S  S103  1  0.23551550  0.72415422  0.19402773  1
  S  S104  1  0.57321999  0.98684186  0.69215383  1
  S  S105  1  0.57704975  0.71148862  0.21140198  1
  S  S106  1  0.07357230  0.59362921  0.93400065  1
  S  S107  1  0.73877346  0.53694660  0.30896838  1
  S  S108  1  0.42642770  0.09362921  0.93400065  1
  S  S109  1  0.08060316  0.99186485  0.27683970  1
  S  S110  1  0.92678001  0.48684186  0.69215383  1
  S  S111  1  0.08420800  0.11454974  0.95943956  1
  S  S112  1  0.07704975  0.78851138  0.78859802  1
  S  S113  1  0.09016326  0.83068059  0.44480910  1
  S  S114  1  0.40983674  0.33068059  0.44480910  1
  S  S115  1  0.22908499  0.91952603  0.05002710  1
  S  S116  1  0.91899904  0.70993789  0.20440970  1
  S  S117  1  0.23877346  0.96305340  0.69103162  1
  S  S118  1  0.72908499  0.58047397  0.94997290  1
  S  S119  1  0.26448450  0.22415422  0.19402773  1
  S  S120  1  0.91579200  0.88545026  0.04056044  1
  S  S121  1  0.91939684  0.00813515  0.72316030  1
  S  S122  1  0.58060316  0.50813515  0.72316030  1
  S  S123  1  0.06670122  0.35385670  0.44497501  1
  S  S124  1  0.07321999  0.51315814  0.30784617  1
  S  S125  1  0.59016326  0.66931941  0.55519090  1
  S  S126  1  0.43329878  0.85385670  0.44497501  1
  S  S127  1  0.92295025  0.21148862  0.21140198  1
  S  S128  1  0.92642770  0.40637079  0.06599935  1
  S  S129  1  0.90983674  0.16931941  0.55519090  1
  S  S130  1  0.27091501  0.41952603  0.05002710  1
  S  S131  1  0.58420800  0.38545026  0.04056044  1
  S  S132  1  0.42295025  0.28851138  0.78859802  1
  S  S133  1  0.41939684  0.49186485  0.27683970  1
  S  S134  1  0.42678001  0.01315814  0.30784617  1
  S  S135  1  0.41579200  0.61454974  0.95943956  1
  S  S136  1  0.78597508  0.86861994  0.44865782  1
  S  S137  1  0.93329878  0.64614330  0.55502499  1
  S  S138  1  0.76448450  0.27584578  0.80597227  1
  S  S139  1  0.26122654  0.46305340  0.69103162  1
  S  S140  1  0.73551550  0.77584578  0.80597227  1
  S  S141  1  0.28597508  0.63138006  0.55134218  1
  S  S142  1  0.76122654  0.03694660  0.30896838  1
  S  S143  1  0.58100096  0.20993789  0.20440970  1
