# generated using pymatgen
data_Cs7U8V2ClO32
_symmetry_space_group_name_H-M   'P 1'
_cell_length_a   7.74897800
_cell_length_b   11.97036500
_cell_length_c   21.59945300
_cell_angle_alpha   90.00000000
_cell_angle_beta   90.00000000
_cell_angle_gamma   90.00000000
_symmetry_Int_Tables_number   1
_chemical_formula_structural   Cs7U8V2ClO32
_chemical_formula_sum   'Cs14 U16 V4 Cl2 O64'
_cell_volume   2003.52411412
_cell_formula_units_Z   2
loop_
 _symmetry_equiv_pos_site_id
 _symmetry_equiv_pos_as_xyz
  1  'x, y, z'
loop_
 _atom_site_type_symbol
 _atom_site_label
 _atom_site_symmetry_multiplicity
 _atom_site_fract_x
 _atom_site_fract_y
 _atom_site_fract_z
 _atom_site_occupancy
  Cs  Cs0  1  0.54042600  0.50000000  0.27697700  1
  Cs  Cs1  1  0.44794000  0.69049000  0.10165900  1
  Cs  Cs2  1  0.45957400  0.00000000  0.22302300  1
  Cs  Cs3  1  0.74602100  0.50000000  0.50000000  1
  Cs  Cs4  1  0.55206000  0.19049000  0.39834100  1
  Cs  Cs5  1  0.55206000  0.19049000  0.60165900  1
  Cs  Cs6  1  0.44794000  0.30951000  0.89834100  1
  Cs  Cs7  1  0.54042600  0.50000000  0.72302300  1
  Cs  Cs8  1  0.45957400  0.00000000  0.77697700  1
  Cs  Cs9  1  0.55206000  0.80951000  0.39834100  1
  Cs  Cs10  1  0.25397900  0.00000000  0.00000000  1
  Cs  Cs11  1  0.44794000  0.69049000  0.89834100  1
  Cs  Cs12  1  0.55206000  0.80951000  0.60165900  1
  Cs  Cs13  1  0.44794000  0.30951000  0.10165900  1
  U  U14  1  0.05068700  0.69436600  0.32598100  1
  U  U15  1  0.94931300  0.19436600  0.17401900  1
  U  U16  1  0.94740800  0.71569500  0.00000000  1
  U  U17  1  0.00418600  0.00000000  0.65572200  1
  U  U18  1  0.99581400  0.50000000  0.84427800  1
  U  U19  1  0.00418600  0.00000000  0.34427800  1
  U  U20  1  0.94931300  0.80563400  0.82598100  1
  U  U21  1  0.05068700  0.69436600  0.67401900  1
  U  U22  1  0.05259200  0.78430500  0.50000000  1
  U  U23  1  0.94740800  0.28430500  0.00000000  1
  U  U24  1  0.94931300  0.19436600  0.82598100  1
  U  U25  1  0.05068700  0.30563400  0.32598100  1
  U  U26  1  0.05068700  0.30563400  0.67401900  1
  U  U27  1  0.05259200  0.21569500  0.50000000  1
  U  U28  1  0.94931300  0.80563400  0.17401900  1
  U  U29  1  0.99581400  0.50000000  0.15572200  1
  V  V30  1  0.77911800  0.00000000  0.08831200  1
  V  V31  1  0.22088200  0.50000000  0.58831200  1
  V  V32  1  0.22088200  0.50000000  0.41168800  1
  V  V33  1  0.77911800  0.00000000  0.91168800  1
  Cl  Cl34  1  0.88794400  0.00000000  0.50000000  1
  Cl  Cl35  1  0.11205600  0.50000000  0.00000000  1
  O  O36  1  0.12462200  0.62736000  0.56469400  1
  O  O37  1  0.71682600  0.77808800  0.81346900  1
  O  O38  1  0.75708000  0.50000000  0.84052800  1
  O  O39  1  0.56374400  0.00000000  0.91732200  1
  O  O40  1  0.28317400  0.72191200  0.68653100  1
  O  O41  1  0.97442800  0.33572200  0.89937100  1
  O  O42  1  0.87537800  0.12736000  0.06469400  1
  O  O43  1  0.82425300  0.26144700  0.50000000  1
  O  O44  1  0.98731400  0.14521400  0.27535400  1
  O  O45  1  0.76397300  0.00000000  0.65200800  1
  O  O46  1  0.87537800  0.87264000  0.06469400  1
  O  O47  1  0.56374400  0.00000000  0.08267800  1
  O  O48  1  0.97442800  0.66427800  0.89937100  1
  O  O49  1  0.02557200  0.16427800  0.39937100  1
  O  O50  1  0.82451700  0.65305400  0.34156000  1
  O  O51  1  0.72185900  0.33367100  0.00000000  1
  O  O52  1  0.75708000  0.50000000  0.15947200  1
  O  O53  1  0.82451700  0.65305400  0.65844000  1
  O  O54  1  0.02557200  0.16427800  0.60062900  1
  O  O55  1  0.87537800  0.87264000  0.93530600  1
  O  O56  1  0.76397300  0.00000000  0.34799200  1
  O  O57  1  0.28317400  0.72191200  0.31346900  1
  O  O58  1  0.72185900  0.66632900  0.00000000  1
  O  O59  1  0.27814100  0.83367100  0.50000000  1
  O  O60  1  0.87537800  0.12736000  0.93530600  1
  O  O61  1  0.97442800  0.66427800  0.10062900  1
  O  O62  1  0.84512000  0.00000000  0.16655600  1
  O  O63  1  0.12462200  0.62736000  0.43530600  1
  O  O64  1  0.17574700  0.23855300  0.00000000  1
  O  O65  1  0.02557200  0.83572200  0.60062900  1
  O  O66  1  0.24292000  0.00000000  0.34052800  1
  O  O67  1  0.98731400  0.85478600  0.72464600  1
  O  O68  1  0.43625600  0.50000000  0.41732200  1
  O  O69  1  0.23602700  0.50000000  0.15200800  1
  O  O70  1  0.82425300  0.73855300  0.50000000  1
  O  O71  1  0.28317400  0.27808800  0.31346900  1
  O  O72  1  0.71682600  0.22191200  0.81346900  1
  O  O73  1  0.17548300  0.84694600  0.15844000  1
  O  O74  1  0.15488000  0.50000000  0.66655600  1
  O  O75  1  0.82451700  0.34694600  0.34156000  1
  O  O76  1  0.98731400  0.14521400  0.72464600  1
  O  O77  1  0.12462200  0.37264000  0.43530600  1
  O  O78  1  0.17548300  0.15305400  0.84156000  1
  O  O79  1  0.97442800  0.33572200  0.10062900  1
  O  O80  1  0.43625600  0.50000000  0.58267800  1
  O  O81  1  0.84512000  0.00000000  0.83344400  1
  O  O82  1  0.01268600  0.35478600  0.22464600  1
  O  O83  1  0.17574700  0.76144700  0.00000000  1
  O  O84  1  0.27814100  0.16632900  0.50000000  1
  O  O85  1  0.12462200  0.37264000  0.56469400  1
  O  O86  1  0.17548300  0.84694600  0.84156000  1
  O  O87  1  0.01268600  0.35478600  0.77535400  1
  O  O88  1  0.82451700  0.34694600  0.65844000  1
  O  O89  1  0.15488000  0.50000000  0.33344400  1
  O  O90  1  0.01268600  0.64521400  0.77535400  1
  O  O91  1  0.28317400  0.27808800  0.68653100  1
  O  O92  1  0.01268600  0.64521400  0.22464600  1
  O  O93  1  0.17548300  0.15305400  0.15844000  1
  O  O94  1  0.98731400  0.85478600  0.27535400  1
  O  O95  1  0.24292000  0.00000000  0.65947200  1
  O  O96  1  0.71682600  0.77808800  0.18653100  1
  O  O97  1  0.71682600  0.22191200  0.18653100  1
  O  O98  1  0.02557200  0.83572200  0.39937100  1
  O  O99  1  0.23602700  0.50000000  0.84799200  1
