# generated using pymatgen
data_ZnS
_symmetry_space_group_name_H-M   'P 1'
_cell_length_a   37.83834020
_cell_length_b   37.83834018
_cell_length_c   37.83834087
_cell_angle_alpha   5.84490073
_cell_angle_beta   5.84490103
_cell_angle_gamma   5.84490009
_symmetry_Int_Tables_number   1
_chemical_formula_structural   ZnS
_chemical_formula_sum   'Zn12 S12'
_cell_volume   486.97346728
_cell_formula_units_Z   12
loop_
 _symmetry_equiv_pos_site_id
 _symmetry_equiv_pos_as_xyz
  1  'x, y, z'
loop_
 _atom_site_type_symbol
 _atom_site_label
 _atom_site_symmetry_multiplicity
 _atom_site_fract_x
 _atom_site_fract_y
 _atom_site_fract_z
 _atom_site_occupancy
  Zn  Zn0  1  0.08333854  0.08333854  0.08333854  1
  Zn  Zn1  1  0.61112492  0.61112492  0.61112492  1
  Zn  Zn2  1  0.50001107  0.50001107  0.50001107  1
  Zn  Zn3  1  0.19445376  0.19445376  0.19445376  1
  Zn  Zn4  1  0.91667137  0.91667137  0.91667137  1
  Zn  Zn5  1  0.36112728  0.36112728  0.36112728  1
  Zn  Zn6  1  0.00000151  0.00000151  0.00000151  1
  Zn  Zn7  1  0.80554950  0.80554950  0.80554950  1
  Zn  Zn8  1  0.72222096  0.72222096  0.72222096  1
  Zn  Zn9  1  0.55556323  0.55556323  0.55556323  1
  Zn  Zn10  1  0.30555417  0.30555417  0.30555417  1
  Zn  Zn11  1  0.44445299  0.44445299  0.44445299  1
  S  S12  1  0.93751127  0.93751127  0.93751127  1
  S  S13  1  0.10416357  0.10416357  0.10416357  1
  S  S14  1  0.52081595  0.52081595  0.52081595  1
  S  S15  1  0.38193929  0.38193929  0.38193929  1
  S  S16  1  0.21529054  0.21529054  0.21529054  1
  S  S17  1  0.46525487  0.46525487  0.46525487  1
  S  S18  1  0.74304768  0.74304768  0.74304768  1
  S  S19  1  0.02084356  0.02084356  0.02084356  1
  S  S20  1  0.82639230  0.82639230  0.82639230  1
  S  S21  1  0.57636818  0.57636818  0.57636818  1
  S  S22  1  0.63193937  0.63193937  0.63193937  1
  S  S23  1  0.32636613  0.32636613  0.32636613  1
