# generated using pymatgen
data_ZnS
_symmetry_space_group_name_H-M   'P 1'
_cell_length_a   37.82790613
_cell_length_b   37.82790611
_cell_length_c   37.82790674
_cell_angle_alpha   5.84745292
_cell_angle_beta   5.84745321
_cell_angle_gamma   5.84745283
_symmetry_Int_Tables_number   1
_chemical_formula_structural   ZnS
_chemical_formula_sum   'Zn12 S12'
_cell_volume   486.99466246
_cell_formula_units_Z   12
loop_
 _symmetry_equiv_pos_site_id
 _symmetry_equiv_pos_as_xyz
  1  'x, y, z'
loop_
 _atom_site_type_symbol
 _atom_site_label
 _atom_site_symmetry_multiplicity
 _atom_site_fract_x
 _atom_site_fract_y
 _atom_site_fract_z
 _atom_site_occupancy
  Zn  Zn0  1  0.08333910  0.08333910  0.08333910  1
  Zn  Zn1  1  0.52778484  0.52778484  0.52778484  1
  Zn  Zn2  1  0.61112138  0.61112138  0.61112138  1
  Zn  Zn3  1  0.16667451  0.16667451  0.16667451  1
  Zn  Zn4  1  0.91666968  0.91666968  0.91666968  1
  Zn  Zn5  1  0.36112652  0.36112652  0.36112652  1
  Zn  Zn6  1  0.00000197  0.00000197  0.00000197  1
  Zn  Zn7  1  0.80555130  0.80555130  0.80555130  1
  Zn  Zn8  1  0.72222173  0.72222173  0.72222173  1
  Zn  Zn9  1  0.30555504  0.30555504  0.30555504  1
  Zn  Zn10  1  0.22222617  0.22222617  0.22222617  1
  Zn  Zn11  1  0.44445417  0.44445417  0.44445417  1
  S  S12  1  0.93749705  0.93749705  0.93749705  1
  S  S13  1  0.10416434  0.10416434  0.10416434  1
  S  S14  1  0.38193914  0.38193914  0.38193914  1
  S  S15  1  0.46527101  0.46527101  0.46527101  1
  S  S16  1  0.74304781  0.74304781  0.74304781  1
  S  S17  1  0.54862104  0.54862104  0.54862104  1
  S  S18  1  0.02084388  0.02084388  0.02084388  1
  S  S19  1  0.82637887  0.82637887  0.82637887  1
  S  S20  1  0.63194177  0.63194177  0.63194177  1
  S  S21  1  0.24304476  0.24304476  0.24304476  1
  S  S22  1  0.18748344  0.18748344  0.18748344  1
  S  S23  1  0.32636648  0.32636648  0.32636648  1
