# generated using pymatgen
data_PuGa
_symmetry_space_group_name_H-M   'P 1'
_cell_length_a   5.92445635
_cell_length_b   5.92445635
_cell_length_c   5.92445635
_cell_angle_alpha   115.02353026
_cell_angle_beta   115.02353026
_cell_angle_gamma   98.85991414
_symmetry_Int_Tables_number   1
_chemical_formula_structural   PuGa
_chemical_formula_sum   'Pu4 Ga4'
_cell_volume   156.07156869
_cell_formula_units_Z   4
loop_
 _symmetry_equiv_pos_site_id
 _symmetry_equiv_pos_as_xyz
  1  'x, y, z'
loop_
 _atom_site_type_symbol
 _atom_site_label
 _atom_site_symmetry_multiplicity
 _atom_site_fract_x
 _atom_site_fract_y
 _atom_site_fract_z
 _atom_site_occupancy
  Pu  Pu0  1  0.14828500  0.14828500  0.00000000  1
  Pu  Pu1  1  0.85171500  0.85171500  0.00000000  1
  Pu  Pu2  1  0.25000000  0.75000000  0.50000000  1
  Pu  Pu3  1  0.75000000  0.25000000  0.50000000  1
  Ga  Ga4  1  0.70016900  0.29983100  0.00000000  1
  Ga  Ga5  1  0.29983100  0.29983100  0.59966200  1
  Ga  Ga6  1  0.29983100  0.70016900  0.00000000  1
  Ga  Ga7  1  0.70016900  0.70016900  0.40033800  1
