# generated using pymatgen
data_Er2Te4O11
_symmetry_space_group_name_H-M   'P 1'
_cell_length_a   6.72543688
_cell_length_b   6.72543688
_cell_length_c   16.25693941
_cell_angle_alpha   75.89571383
_cell_angle_beta   75.89571383
_cell_angle_gamma   44.96875541
_symmetry_Int_Tables_number   1
_chemical_formula_structural   Er2Te4O11
_chemical_formula_sum   'Er4 Te8 O22'
_cell_volume   501.27128361
_cell_formula_units_Z   2
loop_
 _symmetry_equiv_pos_site_id
 _symmetry_equiv_pos_as_xyz
  1  'x, y, z'
loop_
 _atom_site_type_symbol
 _atom_site_label
 _atom_site_symmetry_multiplicity
 _atom_site_fract_x
 _atom_site_fract_y
 _atom_site_fract_z
 _atom_site_occupancy
  Er  Er0  1  0.63139500  0.12954800  0.03703800  1
  Er  Er1  1  0.36860500  0.87045200  0.96296200  1
  Er  Er2  1  0.12954800  0.63139500  0.53703800  1
  Er  Er3  1  0.87045200  0.36860500  0.46296200  1
  Te  Te4  1  0.84468700  0.41038100  0.12494600  1
  Te  Te5  1  0.15787900  0.59784800  0.19781500  1
  Te  Te6  1  0.58961900  0.15531300  0.37505400  1
  Te  Te7  1  0.84212100  0.40215200  0.80218500  1
  Te  Te8  1  0.59784800  0.15787900  0.69781500  1
  Te  Te9  1  0.15531300  0.58961900  0.87505400  1
  Te  Te10  1  0.41038100  0.84468700  0.62494600  1
  Te  Te11  1  0.40215200  0.84212100  0.30218500  1
  O  O12  1  0.90918300  0.79239400  0.66640100  1
  O  O13  1  0.80893400  0.68504700  0.87288800  1
  O  O14  1  0.19106600  0.31495300  0.12711200  1
  O  O15  1  0.24550800  0.33881600  0.44837300  1
  O  O16  1  0.20760600  0.09081700  0.83359900  1
  O  O17  1  0.31495300  0.19106600  0.62711200  1
  O  O18  1  0.09081700  0.20760600  0.33359900  1
  O  O19  1  0.03594900  0.82650800  0.95562900  1
  O  O20  1  0.82650800  0.03594900  0.45562900  1
  O  O21  1  0.33881600  0.24550800  0.94837300  1
  O  O22  1  0.66118400  0.75449200  0.05162700  1
  O  O23  1  0.85435800  0.14564200  0.75000000  1
  O  O24  1  0.40079900  0.55082900  0.09524700  1
  O  O25  1  0.68504700  0.80893400  0.37288800  1
  O  O26  1  0.59920100  0.44917100  0.90475300  1
  O  O27  1  0.55082900  0.40079900  0.59524700  1
  O  O28  1  0.14564200  0.85435800  0.25000000  1
  O  O29  1  0.44917100  0.59920100  0.40475300  1
  O  O30  1  0.75449200  0.66118400  0.55162700  1
  O  O31  1  0.17349200  0.96405100  0.54437100  1
  O  O32  1  0.96405100  0.17349200  0.04437100  1
  O  O33  1  0.79239400  0.90918300  0.16640100  1
