# generated using pymatgen
data_La23Mg4Ni7
_symmetry_space_group_name_H-M   'P 1'
_cell_length_a   10.11457757
_cell_length_b   10.11457757
_cell_length_c   22.88769200
_cell_angle_alpha   90.00000000
_cell_angle_beta   90.00000000
_cell_angle_gamma   119.99999719
_symmetry_Int_Tables_number   1
_chemical_formula_structural   La23Mg4Ni7
_chemical_formula_sum   'La46 Mg8 Ni14'
_cell_volume   2027.81412257
_cell_formula_units_Z   2
loop_
 _symmetry_equiv_pos_site_id
 _symmetry_equiv_pos_as_xyz
  1  'x, y, z'
loop_
 _atom_site_type_symbol
 _atom_site_label
 _atom_site_symmetry_multiplicity
 _atom_site_fract_x
 _atom_site_fract_y
 _atom_site_fract_z
 _atom_site_occupancy
  La  La0  1  0.45799900  0.91599800  0.85547800  1
  La  La1  1  0.92105200  0.46052600  0.08671900  1
  La  La2  1  0.87191600  0.74383200  0.63153100  1
  La  La3  1  0.74383200  0.87191600  0.13153100  1
  La  La4  1  0.20637400  0.79362600  0.71923600  1
  La  La5  1  0.00000000  0.00000000  0.99828300  1
  La  La6  1  0.91599800  0.45799900  0.35547800  1
  La  La7  1  0.54200100  0.45799900  0.35547800  1
  La  La8  1  0.78728100  0.57456300  0.49341300  1
  La  La9  1  0.41159500  0.20579700  0.78177200  1
  La  La10  1  0.41340100  0.20670100  0.94824000  1
  La  La11  1  0.79329900  0.20670100  0.94824000  1
  La  La12  1  0.79362600  0.20637400  0.21923600  1
  La  La13  1  0.42543700  0.21271900  0.49341300  1
  La  La14  1  0.46052600  0.92105200  0.58671900  1
  La  La15  1  0.53947400  0.07894800  0.08671900  1
  La  La16  1  0.57456300  0.78728100  0.99341300  1
  La  La17  1  0.66666700  0.33333300  0.64593100  1
  La  La18  1  0.20670100  0.79329900  0.44824000  1
  La  La19  1  0.07894800  0.53947400  0.58671900  1
  La  La20  1  0.46052600  0.53947400  0.58671900  1
  La  La21  1  0.79420300  0.20579700  0.78177200  1
  La  La22  1  0.00000000  0.00000000  0.49828300  1
  La  La23  1  0.79420300  0.58840500  0.78177200  1
  La  La24  1  0.33333300  0.66666700  0.14593100  1
  La  La25  1  0.21271900  0.78728100  0.99341300  1
  La  La26  1  0.58840500  0.79420300  0.28177200  1
  La  La27  1  0.58725200  0.79362600  0.71923600  1
  La  La28  1  0.41274800  0.20637400  0.21923600  1
  La  La29  1  0.20637400  0.41274800  0.71923600  1
  La  La30  1  0.20579700  0.41159500  0.28177200  1
  La  La31  1  0.20579700  0.79420300  0.28177200  1
  La  La32  1  0.25616800  0.12808400  0.63153100  1
  La  La33  1  0.79329900  0.58659900  0.94824000  1
  La  La34  1  0.20670100  0.41340100  0.44824000  1
  La  La35  1  0.21271900  0.42543700  0.99341300  1
  La  La36  1  0.12808400  0.25616800  0.13153100  1
  La  La37  1  0.54200100  0.08400200  0.35547800  1
  La  La38  1  0.53947400  0.46052600  0.08671900  1
  La  La39  1  0.12808400  0.87191600  0.13153100  1
  La  La40  1  0.45799900  0.54200100  0.85547800  1
  La  La41  1  0.08400200  0.54200100  0.85547800  1
  La  La42  1  0.87191600  0.12808400  0.63153100  1
  La  La43  1  0.58659900  0.79329900  0.44824000  1
  La  La44  1  0.78728100  0.21271900  0.49341300  1
  La  La45  1  0.79362600  0.58725200  0.21923600  1
  Mg  Mg46  1  0.10503800  0.89496200  0.86299400  1
  Mg  Mg47  1  0.10503800  0.21007600  0.86299400  1
  Mg  Mg48  1  0.89496200  0.78992400  0.36299400  1
  Mg  Mg49  1  0.00000000  0.00000000  0.74942600  1
  Mg  Mg50  1  0.21007600  0.10503800  0.36299400  1
  Mg  Mg51  1  0.89496200  0.10503800  0.36299400  1
  Mg  Mg52  1  0.00000000  0.00000000  0.24942600  1
  Mg  Mg53  1  0.78992400  0.89496200  0.86299400  1
  Ni  Ni54  1  0.33333300  0.66666700  0.36371300  1
  Ni  Ni55  1  0.14325600  0.85674400  0.56281000  1
  Ni  Ni56  1  0.48018700  0.96037400  0.21224300  1
  Ni  Ni57  1  0.51981300  0.03962600  0.71224300  1
  Ni  Ni58  1  0.28651200  0.14325600  0.06281000  1
  Ni  Ni59  1  0.14325600  0.28651200  0.56281000  1
  Ni  Ni60  1  0.03962600  0.51981300  0.21224300  1
  Ni  Ni61  1  0.66666700  0.33333300  0.86371300  1
  Ni  Ni62  1  0.85674400  0.14325600  0.06281000  1
  Ni  Ni63  1  0.51981300  0.48018700  0.71224300  1
  Ni  Ni64  1  0.96037400  0.48018700  0.71224300  1
  Ni  Ni65  1  0.71348800  0.85674400  0.56281000  1
  Ni  Ni66  1  0.85674400  0.71348800  0.06281000  1
  Ni  Ni67  1  0.48018700  0.51981300  0.21224300  1
