# generated using pymatgen
data_Ta3Bi7O18
_symmetry_space_group_name_H-M   'P 1'
_cell_length_a   16.74533072
_cell_length_b   16.74533072
_cell_length_c   6.71401782
_cell_angle_alpha   86.37297375
_cell_angle_beta   86.37297375
_cell_angle_gamma   26.52073050
_symmetry_Int_Tables_number   1
_chemical_formula_structural   Ta3Bi7O18
_chemical_formula_sum   'Ta6 Bi14 O36'
_cell_volume   838.86713631
_cell_formula_units_Z   2
loop_
 _symmetry_equiv_pos_site_id
 _symmetry_equiv_pos_as_xyz
  1  'x, y, z'
loop_
 _atom_site_type_symbol
 _atom_site_label
 _atom_site_symmetry_multiplicity
 _atom_site_fract_x
 _atom_site_fract_y
 _atom_site_fract_z
 _atom_site_occupancy
  Ta  Ta0  1  0.30633100  0.80562400  0.88274900  1
  Ta  Ta1  1  0.80562400  0.30633100  0.88274900  1
  Ta  Ta2  1  0.50000000  0.00000000  0.50000000  1
  Ta  Ta3  1  0.69366900  0.19437600  0.11725100  1
  Ta  Ta4  1  0.00000000  0.50000000  0.50000000  1
  Ta  Ta5  1  0.19437600  0.69366900  0.11725100  1
  Bi  Bi6  1  0.74796900  0.74796900  0.97382400  1
  Bi  Bi7  1  0.44849100  0.44849100  0.65187700  1
  Bi  Bi8  1  0.60409900  0.10530600  0.83632000  1
  Bi  Bi9  1  0.39590100  0.89469400  0.16368000  1
  Bi  Bi10  1  0.10530600  0.60409900  0.83632000  1
  Bi  Bi11  1  0.64665400  0.64665400  0.68254000  1
  Bi  Bi12  1  0.25203100  0.25203100  0.02617600  1
  Bi  Bi13  1  0.89469400  0.39590100  0.16368000  1
  Bi  Bi14  1  0.35334600  0.35334600  0.31746000  1
  Bi  Bi15  1  0.94367800  0.94367800  0.59253000  1
  Bi  Bi16  1  0.83836400  0.83836400  0.31131700  1
  Bi  Bi17  1  0.05632200  0.05632200  0.40747000  1
  Bi  Bi18  1  0.16163600  0.16163600  0.68868300  1
  Bi  Bi19  1  0.55150900  0.55150900  0.34812300  1
  O  O20  1  0.87951400  0.87951400  0.57706600  1
  O  O21  1  0.81816100  0.81816100  0.98230800  1
  O  O22  1  0.85860600  0.28428400  0.18556400  1
  O  O23  1  0.65023400  0.24987000  0.39381700  1
  O  O24  1  0.04784800  0.04784800  0.83070100  1
  O  O25  1  0.18183900  0.18183900  0.01769200  1
  O  O26  1  0.34976600  0.75013000  0.60618300  1
  O  O27  1  0.67036500  0.09235300  0.14530000  1
  O  O28  1  0.43129600  0.43129600  0.05996400  1
  O  O29  1  0.67073500  0.67073500  0.99380300  1
  O  O30  1  0.71571600  0.14139400  0.81443600  1
  O  O31  1  0.75013000  0.34976600  0.60618300  1
  O  O32  1  0.10231600  0.51845900  0.42824000  1
  O  O33  1  0.94527600  0.53592200  0.21357400  1
  O  O34  1  0.89768400  0.48154100  0.57176000  1
  O  O35  1  0.38338500  0.38338500  0.65532400  1
  O  O36  1  0.76409200  0.76409200  0.54096000  1
  O  O37  1  0.53592200  0.94527600  0.21357400  1
  O  O38  1  0.46407800  0.05472400  0.78642600  1
  O  O39  1  0.05472400  0.46407800  0.78642600  1
  O  O40  1  0.61661500  0.61661500  0.34467600  1
  O  O41  1  0.14139400  0.71571600  0.81443600  1
  O  O42  1  0.24987000  0.65023400  0.39381700  1
  O  O43  1  0.23590800  0.23590800  0.45904000  1
  O  O44  1  0.32963500  0.90764700  0.85470000  1
  O  O45  1  0.27940900  0.72059100  0.00000000  1
  O  O46  1  0.51845900  0.10231600  0.42824000  1
  O  O47  1  0.72059100  0.27940900  0.00000000  1
  O  O48  1  0.09235300  0.67036500  0.14530000  1
  O  O49  1  0.90764700  0.32963500  0.85470000  1
  O  O50  1  0.95215200  0.95215200  0.16929900  1
  O  O51  1  0.28428400  0.85860600  0.18556400  1
  O  O52  1  0.12048600  0.12048600  0.42293400  1
  O  O53  1  0.32926500  0.32926500  0.00619700  1
  O  O54  1  0.56870400  0.56870400  0.94003600  1
  O  O55  1  0.48154100  0.89768400  0.57176000  1
