# generated using pymatgen
data_TaPd3
_symmetry_space_group_name_H-M   'P 1'
_cell_length_a   5.56987950
_cell_length_b   5.56987950
_cell_length_c   23.41284500
_cell_angle_alpha   90.00000000
_cell_angle_beta   90.00000000
_cell_angle_gamma   119.99999407
_symmetry_Int_Tables_number   1
_chemical_formula_structural   TaPd3
_chemical_formula_sum   'Ta10 Pd30'
_cell_volume   629.03737030
_cell_formula_units_Z   10
loop_
 _symmetry_equiv_pos_site_id
 _symmetry_equiv_pos_as_xyz
  1  'x, y, z'
loop_
 _atom_site_type_symbol
 _atom_site_label
 _atom_site_symmetry_multiplicity
 _atom_site_fract_x
 _atom_site_fract_y
 _atom_site_fract_z
 _atom_site_occupancy
  Ta  Ta0  1  0.00000000  0.00000000  0.25000000  1
  Ta  Ta1  1  0.66666700  0.33333300  0.45628100  1
  Ta  Ta2  1  0.66666700  0.33333300  0.04371900  1
  Ta  Ta3  1  0.66666700  0.33333300  0.65119200  1
  Ta  Ta4  1  0.33333300  0.66666700  0.34880800  1
  Ta  Ta5  1  0.33333300  0.66666700  0.95628100  1
  Ta  Ta6  1  0.00000000  0.00000000  0.75000000  1
  Ta  Ta7  1  0.33333300  0.66666700  0.54371900  1
  Ta  Ta8  1  0.66666700  0.33333300  0.84880800  1
  Ta  Ta9  1  0.33333300  0.66666700  0.15119200  1
  Pd  Pd10  1  0.16678600  0.83321400  0.65103300  1
  Pd  Pd11  1  0.33639100  0.16819500  0.94748600  1
  Pd  Pd12  1  0.16819500  0.83180500  0.05251400  1
  Pd  Pd13  1  0.16678600  0.33357100  0.84896700  1
  Pd  Pd14  1  0.00211300  0.50105700  0.25000000  1
  Pd  Pd15  1  0.66360900  0.83180500  0.44748600  1
  Pd  Pd16  1  0.83321400  0.66642900  0.34896700  1
  Pd  Pd17  1  0.83180500  0.16819500  0.55251400  1
  Pd  Pd18  1  0.83180500  0.66360900  0.94748600  1
  Pd  Pd19  1  0.16819500  0.83180500  0.44748600  1
  Pd  Pd20  1  0.83321400  0.16678600  0.15103300  1
  Pd  Pd21  1  0.66642900  0.83321400  0.84896700  1
  Pd  Pd22  1  0.33639100  0.16819500  0.55251400  1
  Pd  Pd23  1  0.33357100  0.16678600  0.34896700  1
  Pd  Pd24  1  0.66642900  0.83321400  0.65103300  1
  Pd  Pd25  1  0.83180500  0.16819500  0.94748600  1
  Pd  Pd26  1  0.49894300  0.99788700  0.25000000  1
  Pd  Pd27  1  0.50105700  0.49894300  0.75000000  1
  Pd  Pd28  1  0.66360900  0.83180500  0.05251400  1
  Pd  Pd29  1  0.83321400  0.16678600  0.34896700  1
  Pd  Pd30  1  0.16819500  0.33639100  0.05251400  1
  Pd  Pd31  1  0.83180500  0.66360900  0.55251400  1
  Pd  Pd32  1  0.16678600  0.33357100  0.65103300  1
  Pd  Pd33  1  0.83321400  0.66642900  0.15103300  1
  Pd  Pd34  1  0.16819500  0.33639100  0.44748600  1
  Pd  Pd35  1  0.99788700  0.49894300  0.75000000  1
  Pd  Pd36  1  0.16678600  0.83321400  0.84896700  1
  Pd  Pd37  1  0.50105700  0.00211300  0.75000000  1
  Pd  Pd38  1  0.49894300  0.50105700  0.25000000  1
  Pd  Pd39  1  0.33357100  0.16678600  0.15103300  1
