# generated using pymatgen
data_GdAgSe2
_symmetry_space_group_name_H-M   'P 1'
_cell_length_a   7.39012441
_cell_length_b   7.39012441
_cell_length_c   7.39012441
_cell_angle_alpha   134.31552184
_cell_angle_beta   134.31552184
_cell_angle_gamma   66.59560472
_symmetry_Int_Tables_number   1
_chemical_formula_structural   GdAgSe2
_chemical_formula_sum   'Gd2 Ag2 Se4'
_cell_volume   203.34450761
_cell_formula_units_Z   2
loop_
 _symmetry_equiv_pos_site_id
 _symmetry_equiv_pos_as_xyz
  1  'x, y, z'
loop_
 _atom_site_type_symbol
 _atom_site_label
 _atom_site_symmetry_multiplicity
 _atom_site_fract_x
 _atom_site_fract_y
 _atom_site_fract_z
 _atom_site_occupancy
  Gd  Gd0  1  0.74616700  0.74616700  0.00000000  1
  Gd  Gd1  1  0.49616700  0.99616700  0.50000000  1
  Ag  Ag2  1  0.21831000  0.21831000  0.00000000  1
  Ag  Ag3  1  0.96831000  0.46831000  0.50000000  1
  Se  Se4  1  0.51176400  0.51176400  0.00000000  1
  Se  Se5  1  0.26176400  0.76176400  0.50000000  1
  Se  Se6  1  0.98375900  0.98375900  0.00000000  1
  Se  Se7  1  0.73375900  0.23375900  0.50000000  1
