# generated using pymatgen
data_Yb8Cl17
_symmetry_space_group_name_H-M   'P 1'
_cell_length_a   27.41236682
_cell_length_b   27.41236682
_cell_length_c   6.88010426
_cell_angle_alpha   83.82744712
_cell_angle_beta   83.82744712
_cell_angle_gamma   13.76036011
_symmetry_Int_Tables_number   1
_chemical_formula_structural   Yb8Cl17
_chemical_formula_sum   'Yb16 Cl34'
_cell_volume   1222.50373209
_cell_formula_units_Z   2
loop_
 _symmetry_equiv_pos_site_id
 _symmetry_equiv_pos_as_xyz
  1  'x, y, z'
loop_
 _atom_site_type_symbol
 _atom_site_label
 _atom_site_symmetry_multiplicity
 _atom_site_fract_x
 _atom_site_fract_y
 _atom_site_fract_z
 _atom_site_occupancy
  Yb  Yb0  1  0.99109900  0.43960700  0.36250400  1
  Yb  Yb1  1  0.25294000  0.80816500  0.42885200  1
  Yb  Yb2  1  0.68475700  0.13151600  0.03860100  1
  Yb  Yb3  1  0.62335200  0.07031600  0.68735200  1
  Yb  Yb4  1  0.74706000  0.19183500  0.57114800  1
  Yb  Yb5  1  0.80816500  0.25294000  0.92885200  1
  Yb  Yb6  1  0.56039300  0.00890100  0.13749600  1
  Yb  Yb7  1  0.00890100  0.56039300  0.63749600  1
  Yb  Yb8  1  0.92968400  0.37664800  0.81264800  1
  Yb  Yb9  1  0.31524300  0.86848400  0.96139900  1
  Yb  Yb10  1  0.37664800  0.92968400  0.31264800  1
  Yb  Yb11  1  0.19183500  0.74706000  0.07114800  1
  Yb  Yb12  1  0.07031600  0.62335200  0.18735200  1
  Yb  Yb13  1  0.43960700  0.99109900  0.86250400  1
  Yb  Yb14  1  0.86848400  0.31524300  0.46139900  1
  Yb  Yb15  1  0.13151600  0.68475700  0.53860100  1
  Cl  Cl16  1  0.67344600  0.48636800  0.81753200  1
  Cl  Cl17  1  0.57916200  0.36932500  0.92309800  1
  Cl  Cl18  1  0.93372900  0.82265100  0.86016800  1
  Cl  Cl19  1  0.99612900  0.88241300  0.80419900  1
  Cl  Cl20  1  0.88241300  0.99612900  0.30419900  1
  Cl  Cl21  1  0.76573900  0.86715200  0.42664600  1
  Cl  Cl22  1  0.22610500  0.26364200  0.61094600  1
  Cl  Cl23  1  0.86715200  0.76573900  0.92664600  1
  Cl  Cl24  1  0.42083800  0.63067500  0.07690200  1
  Cl  Cl25  1  0.71948400  0.55576400  0.49118400  1
  Cl  Cl26  1  0.24263200  0.36537400  0.30736100  1
  Cl  Cl27  1  0.32655400  0.51363200  0.18246800  1
  Cl  Cl28  1  0.75736800  0.63462600  0.69263900  1
  Cl  Cl29  1  0.00387100  0.11758700  0.19580100  1
  Cl  Cl30  1  0.26364200  0.22610500  0.11094600  1
  Cl  Cl31  1  0.63067500  0.42083800  0.57690200  1
  Cl  Cl32  1  0.11758700  0.00387100  0.69580100  1
  Cl  Cl33  1  0.55576400  0.71948400  0.99118400  1
  Cl  Cl34  1  0.36537400  0.24263200  0.80736100  1
  Cl  Cl35  1  0.05830200  0.94169800  0.75000000  1
  Cl  Cl36  1  0.63462600  0.75736800  0.19263900  1
  Cl  Cl37  1  0.48636800  0.67344600  0.31753200  1
  Cl  Cl38  1  0.44423600  0.28051600  0.00881600  1
  Cl  Cl39  1  0.13284800  0.23426100  0.07335400  1
  Cl  Cl40  1  0.51363200  0.32655400  0.68246800  1
  Cl  Cl41  1  0.77389500  0.73635800  0.38905400  1
  Cl  Cl42  1  0.36932500  0.57916200  0.42309800  1
  Cl  Cl43  1  0.73635800  0.77389500  0.88905400  1
  Cl  Cl44  1  0.82265100  0.93372900  0.36016800  1
  Cl  Cl45  1  0.23426100  0.13284800  0.57335400  1
  Cl  Cl46  1  0.94169800  0.05830200  0.25000000  1
  Cl  Cl47  1  0.28051600  0.44423600  0.50881600  1
  Cl  Cl48  1  0.06627100  0.17734900  0.13983200  1
  Cl  Cl49  1  0.17734900  0.06627100  0.63983200  1
