# generated using pymatgen
data_Pr6Fe13Pb
_symmetry_space_group_name_H-M   'P 1'
_cell_length_a   8.09128703
_cell_length_b   8.09128774
_cell_length_c   13.25873218
_cell_angle_alpha   107.76602057
_cell_angle_beta   107.76601805
_cell_angle_gamma   90.00000136
_symmetry_Int_Tables_number   1
_chemical_formula_structural   Pr6Fe13Pb
_chemical_formula_sum   'Pr12 Fe26 Pb2'
_cell_volume   783.05741128
_cell_formula_units_Z   2
loop_
 _symmetry_equiv_pos_site_id
 _symmetry_equiv_pos_as_xyz
  1  'x, y, z'
loop_
 _atom_site_type_symbol
 _atom_site_label
 _atom_site_symmetry_multiplicity
 _atom_site_fract_x
 _atom_site_fract_y
 _atom_site_fract_z
 _atom_site_occupancy
  Pr  Pr0  1  0.01987900  0.51987900  0.36562200  1
  Pr  Pr1  1  0.98012100  0.48012100  0.63437800  1
  Pr  Pr2  1  0.89699400  0.89699400  0.79398900  1
  Pr  Pr3  1  0.65425800  0.15425800  0.63437800  1
  Pr  Pr4  1  0.60300600  0.60300600  0.20601100  1
  Pr  Pr5  1  0.10300600  0.10300600  0.20601100  1
  Pr  Pr6  1  0.48012100  0.65425800  0.63437800  1
  Pr  Pr7  1  0.84574200  0.01987900  0.36562200  1
  Pr  Pr8  1  0.39699400  0.39699400  0.79398900  1
  Pr  Pr9  1  0.15425800  0.98012100  0.63437800  1
  Pr  Pr10  1  0.51987900  0.34574200  0.36562200  1
  Pr  Pr11  1  0.34574200  0.84574200  0.36562200  1
  Fe  Fe12  1  0.23585400  0.73585400  0.11428900  1
  Fe  Fe13  1  0.93352000  0.79021700  0.00000000  1
  Fe  Fe14  1  0.79560800  0.52187200  0.81748000  1
  Fe  Fe15  1  0.97812800  0.70439200  0.18252000  1
  Fe  Fe16  1  0.87843500  0.37843500  0.11428900  1
  Fe  Fe17  1  0.73585400  0.87843500  0.11428900  1
  Fe  Fe18  1  0.62156500  0.76414600  0.88571100  1
  Fe  Fe19  1  0.06648000  0.20978300  0.00000000  1
  Fe  Fe20  1  0.26414600  0.12156500  0.88571100  1
  Fe  Fe21  1  0.20978300  0.93352000  0.00000000  1
  Fe  Fe22  1  0.76414600  0.26414600  0.88571100  1
  Fe  Fe23  1  0.56648000  0.29021700  0.00000000  1
  Fe  Fe24  1  0.52187200  0.02187200  0.81748000  1
  Fe  Fe25  1  0.37843500  0.23585400  0.11428900  1
  Fe  Fe26  1  0.20439200  0.47812800  0.18252000  1
  Fe  Fe27  1  0.50000000  0.00000000  0.00000000  1
  Fe  Fe28  1  0.70978300  0.56648000  0.00000000  1
  Fe  Fe29  1  0.29560800  0.79560800  0.81748000  1
  Fe  Fe30  1  0.47812800  0.97812800  0.18252000  1
  Fe  Fe31  1  0.70439200  0.20439200  0.18252000  1
  Fe  Fe32  1  0.79021700  0.06648000  0.00000000  1
  Fe  Fe33  1  0.29021700  0.43352000  0.00000000  1
  Fe  Fe34  1  0.00000000  0.50000000  0.00000000  1
  Fe  Fe35  1  0.12156500  0.62156500  0.88571100  1
  Fe  Fe36  1  0.02187200  0.29560800  0.81748000  1
  Fe  Fe37  1  0.43352000  0.70978300  0.00000000  1
  Pb  Pb38  1  0.75000000  0.75000000  0.50000000  1
  Pb  Pb39  1  0.25000000  0.25000000  0.50000000  1
