# generated using pymatgen
data_SiO2
_symmetry_space_group_name_H-M   'P 1'
_cell_length_a   11.81478102
_cell_length_b   11.81478102
_cell_length_c   11.81478102
_cell_angle_alpha   109.47122063
_cell_angle_beta   109.47122063
_cell_angle_gamma   109.47122063
_symmetry_Int_Tables_number   1
_chemical_formula_structural   SiO2
_chemical_formula_sum   'Si24 O48'
_cell_volume   1269.56557791
_cell_formula_units_Z   24
loop_
 _symmetry_equiv_pos_site_id
 _symmetry_equiv_pos_as_xyz
  1  'x, y, z'
loop_
 _atom_site_type_symbol
 _atom_site_label
 _atom_site_symmetry_multiplicity
 _atom_site_fract_x
 _atom_site_fract_y
 _atom_site_fract_z
 _atom_site_occupancy
  Si  Si0  1  0.71360000  0.78640000  0.25000000  1
  Si  Si1  1  0.46360000  0.25000000  0.03640000  1
  Si  Si2  1  0.03640000  0.07280000  0.78640000  1
  Si  Si3  1  0.42720000  0.46360000  0.71360000  1
  Si  Si4  1  0.25000000  0.03640000  0.46360000  1
  Si  Si5  1  0.78640000  0.03640000  0.07280000  1
  Si  Si6  1  0.46360000  0.71360000  0.42720000  1
  Si  Si7  1  0.25000000  0.71360000  0.78640000  1
  Si  Si8  1  0.78640000  0.25000000  0.71360000  1
  Si  Si9  1  0.07280000  0.78640000  0.03640000  1
  Si  Si10  1  0.71360000  0.42720000  0.46360000  1
  Si  Si11  1  0.03640000  0.46360000  0.25000000  1
  Si  Si12  1  0.28640000  0.21360000  0.75000000  1
  Si  Si13  1  0.53640000  0.75000000  0.96360000  1
  Si  Si14  1  0.96360000  0.92720000  0.21360000  1
  Si  Si15  1  0.57280000  0.53640000  0.28640000  1
  Si  Si16  1  0.75000000  0.96360000  0.53640000  1
  Si  Si17  1  0.21360000  0.96360000  0.92720000  1
  Si  Si18  1  0.53640000  0.28640000  0.57280000  1
  Si  Si19  1  0.75000000  0.28640000  0.21360000  1
  Si  Si20  1  0.21360000  0.75000000  0.28640000  1
  Si  Si21  1  0.92720000  0.21360000  0.96360000  1
  Si  Si22  1  0.28640000  0.57280000  0.53640000  1
  Si  Si23  1  0.96360000  0.53640000  0.75000000  1
  O  O24  1  0.58784000  0.76029700  0.11419800  1
  O  O25  1  0.35390100  0.11419800  0.02635700  1
  O  O26  1  0.14609900  0.17245600  0.76029700  1
  O  O27  1  0.32754400  0.47364300  0.58784000  1
  O  O28  1  0.11419800  0.02635700  0.35390100  1
  O  O29  1  0.76029700  0.14609900  0.17245600  1
  O  O30  1  0.47364300  0.58784000  0.32754400  1
  O  O31  1  0.11419800  0.58784000  0.76029700  1
  O  O32  1  0.76029700  0.11419800  0.58784000  1
  O  O33  1  0.02635700  0.17245600  0.91216000  1
  O  O34  1  0.38580200  0.14609900  0.47364300  1
  O  O35  1  0.47364300  0.38580200  0.14609900  1
  O  O36  1  0.32754400  0.35390100  0.73970300  1
  O  O37  1  0.17245600  0.91216000  0.02635700  1
  O  O38  1  0.73970300  0.32754400  0.35390100  1
  O  O39  1  0.91216000  0.02635700  0.17245600  1
  O  O40  1  0.35390100  0.73970300  0.32754400  1
  O  O41  1  0.14609900  0.47364300  0.38580200  1
  O  O42  1  0.02635700  0.35390100  0.11419800  1
  O  O43  1  0.73970300  0.91216000  0.38580200  1
  O  O44  1  0.17245600  0.76029700  0.14609900  1
  O  O45  1  0.38580200  0.73970300  0.91216000  1
  O  O46  1  0.58784000  0.32754400  0.47364300  1
  O  O47  1  0.91216000  0.38580200  0.73970300  1
  O  O48  1  0.41216000  0.23970300  0.88580200  1
  O  O49  1  0.64609900  0.88580200  0.97364300  1
  O  O50  1  0.85390100  0.82754400  0.23970300  1
  O  O51  1  0.67245600  0.52635700  0.41216000  1
  O  O52  1  0.88580200  0.97364300  0.64609900  1
  O  O53  1  0.23970300  0.85390100  0.82754400  1
  O  O54  1  0.52635700  0.41216000  0.67245600  1
  O  O55  1  0.88580200  0.41216000  0.23970300  1
  O  O56  1  0.23970300  0.88580200  0.41216000  1
  O  O57  1  0.97364300  0.82754400  0.08784000  1
  O  O58  1  0.61419800  0.85390100  0.52635700  1
  O  O59  1  0.52635700  0.61419800  0.85390100  1
  O  O60  1  0.67245600  0.64609900  0.26029700  1
  O  O61  1  0.82754400  0.08784000  0.97364300  1
  O  O62  1  0.26029700  0.67245600  0.64609900  1
  O  O63  1  0.08784000  0.97364300  0.82754400  1
  O  O64  1  0.64609900  0.26029700  0.67245600  1
  O  O65  1  0.85390100  0.52635700  0.61419800  1
  O  O66  1  0.97364300  0.64609900  0.88580200  1
  O  O67  1  0.26029700  0.08784000  0.61419800  1
  O  O68  1  0.82754400  0.23970300  0.85390100  1
  O  O69  1  0.61419800  0.26029700  0.08784000  1
  O  O70  1  0.41216000  0.67245600  0.52635700  1
  O  O71  1  0.08784000  0.61419800  0.26029700  1
