# generated using pymatgen
data_SiO2
_symmetry_space_group_name_H-M   'P 1'
_cell_length_a   9.33412592
_cell_length_b   9.33412592
_cell_length_c   8.62857700
_cell_angle_alpha   90.00000000
_cell_angle_beta   90.00000000
_cell_angle_gamma   118.54167982
_symmetry_Int_Tables_number   1
_chemical_formula_structural   SiO2
_chemical_formula_sum   'Si12 O24'
_cell_volume   660.40949913
_cell_formula_units_Z   12
loop_
 _symmetry_equiv_pos_site_id
 _symmetry_equiv_pos_as_xyz
  1  'x, y, z'
loop_
 _atom_site_type_symbol
 _atom_site_label
 _atom_site_symmetry_multiplicity
 _atom_site_fract_x
 _atom_site_fract_y
 _atom_site_fract_z
 _atom_site_occupancy
  Si  Si0  1  0.48792800  0.83212300  0.43718800  1
  Si  Si1  1  0.16787700  0.51207200  0.56281200  1
  Si  Si2  1  0.83212300  0.48792800  0.06281200  1
  Si  Si3  1  0.51207200  0.16787700  0.93718800  1
  Si  Si4  1  0.51207200  0.16787700  0.56281200  1
  Si  Si5  1  0.83212300  0.48792800  0.43718800  1
  Si  Si6  1  0.16787700  0.51207200  0.93718800  1
  Si  Si7  1  0.48792800  0.83212300  0.06281200  1
  Si  Si8  1  0.33991900  0.33991900  0.43726300  1
  Si  Si9  1  0.66008100  0.66008100  0.56273700  1
  Si  Si10  1  0.33991900  0.33991900  0.06273700  1
  Si  Si11  1  0.66008100  0.66008100  0.93726300  1
  O  O12  1  0.64738900  0.81818900  0.49884700  1
  O  O13  1  0.18181100  0.35261100  0.50115300  1
  O  O14  1  0.81818900  0.64738900  0.00115300  1
  O  O15  1  0.35261100  0.18181100  0.99884700  1
  O  O16  1  0.35261100  0.18181100  0.50115300  1
  O  O17  1  0.81818900  0.64738900  0.49884700  1
  O  O18  1  0.18181100  0.35261100  0.99884700  1
  O  O19  1  0.64738900  0.81818900  0.00115300  1
  O  O20  1  0.31892900  0.68107100  0.50000000  1
  O  O21  1  0.68107100  0.31892900  0.00000000  1
  O  O22  1  0.68107100  0.31892900  0.50000000  1
  O  O23  1  0.31892900  0.68107100  0.00000000  1
  O  O24  1  0.48806900  0.83164800  0.25000000  1
  O  O25  1  0.16835200  0.51193100  0.75000000  1
  O  O26  1  0.83164800  0.48806900  0.25000000  1
  O  O27  1  0.51193100  0.16835200  0.75000000  1
  O  O28  1  0.50000000  0.00000000  0.50000000  1
  O  O29  1  0.00000000  0.50000000  0.50000000  1
  O  O30  1  0.00000000  0.50000000  0.00000000  1
  O  O31  1  0.50000000  0.00000000  0.00000000  1
  O  O32  1  0.33531200  0.33531200  0.25000000  1
  O  O33  1  0.66468800  0.66468800  0.75000000  1
  O  O34  1  0.50000000  0.50000000  0.50000000  1
  O  O35  1  0.50000000  0.50000000  0.00000000  1
