# generated using pymatgen
data_SiO2
_symmetry_space_group_name_H-M   'P 1'
_cell_length_a   12.71709791
_cell_length_b   12.71709791
_cell_length_c   5.28514000
_cell_angle_alpha   90.00000000
_cell_angle_beta   90.00000000
_cell_angle_gamma   117.22620563
_symmetry_Int_Tables_number   1
_chemical_formula_structural   SiO2
_chemical_formula_sum   'Si12 O24'
_cell_volume   760.03834615
_cell_formula_units_Z   12
loop_
 _symmetry_equiv_pos_site_id
 _symmetry_equiv_pos_as_xyz
  1  'x, y, z'
loop_
 _atom_site_type_symbol
 _atom_site_label
 _atom_site_symmetry_multiplicity
 _atom_site_fract_x
 _atom_site_fract_y
 _atom_site_fract_z
 _atom_site_occupancy
  Si  Si0  1  0.57775700  0.65857800  0.75000000  1
  Si  Si1  1  0.65857800  0.57775700  0.25000000  1
  Si  Si2  1  0.34142200  0.42224300  0.75000000  1
  Si  Si3  1  0.42224300  0.34142200  0.25000000  1
  Si  Si4  1  0.13231900  0.48360500  0.75000000  1
  Si  Si5  1  0.48360500  0.13231900  0.25000000  1
  Si  Si6  1  0.51639500  0.86768100  0.75000000  1
  Si  Si7  1  0.86768100  0.51639500  0.25000000  1
  Si  Si8  1  0.37268900  0.85880900  0.25000000  1
  Si  Si9  1  0.85880900  0.37268900  0.75000000  1
  Si  Si10  1  0.14119100  0.62731100  0.25000000  1
  Si  Si11  1  0.62731100  0.14119100  0.75000000  1
  O  O12  1  0.58851700  0.79067300  0.75000000  1
  O  O13  1  0.79067300  0.58851700  0.25000000  1
  O  O14  1  0.20932700  0.41148300  0.75000000  1
  O  O15  1  0.41148300  0.20932700  0.25000000  1
  O  O16  1  0.64305300  0.64305300  0.50000000  1
  O  O17  1  0.35694700  0.35694700  0.00000000  1
  O  O18  1  0.35694700  0.35694700  0.50000000  1
  O  O19  1  0.64305300  0.64305300  0.00000000  1
  O  O20  1  0.43803800  0.56196200  0.75000000  1
  O  O21  1  0.56196200  0.43803800  0.25000000  1
  O  O22  1  0.16430100  0.56641500  0.00036200  1
  O  O23  1  0.56641500  0.16430100  0.99963800  1
  O  O24  1  0.43358500  0.83569900  0.49963800  1
  O  O25  1  0.83569900  0.43358500  0.50036200  1
  O  O26  1  0.83569900  0.43358500  0.99963800  1
  O  O27  1  0.43358500  0.83569900  0.00036200  1
  O  O28  1  0.56641500  0.16430100  0.50036200  1
  O  O29  1  0.16430100  0.56641500  0.49963800  1
  O  O30  1  0.99292400  0.38743100  0.75000000  1
  O  O31  1  0.38743100  0.99292400  0.25000000  1
  O  O32  1  0.61256900  0.00707600  0.75000000  1
  O  O33  1  0.00707600  0.61256900  0.25000000  1
  O  O34  1  0.23239200  0.76760800  0.25000000  1
  O  O35  1  0.76760800  0.23239200  0.75000000  1
