# generated using pymatgen
data_SiO2
_symmetry_space_group_name_H-M   'P 1'
_cell_length_a   8.87465848
_cell_length_b   8.87465848
_cell_length_c   19.31486500
_cell_angle_alpha   90.00000000
_cell_angle_beta   90.00000000
_cell_angle_gamma   117.73328925
_symmetry_Int_Tables_number   1
_chemical_formula_structural   SiO2
_chemical_formula_sum   'Si24 O48'
_cell_volume   1346.47656242
_cell_formula_units_Z   24
loop_
 _symmetry_equiv_pos_site_id
 _symmetry_equiv_pos_as_xyz
  1  'x, y, z'
loop_
 _atom_site_type_symbol
 _atom_site_label
 _atom_site_symmetry_multiplicity
 _atom_site_fract_x
 _atom_site_fract_y
 _atom_site_fract_z
 _atom_site_occupancy
  Si  Si0  1  0.31866300  0.03293900  0.32206300  1
  Si  Si1  1  0.03293900  0.31866300  0.67793700  1
  Si  Si2  1  0.46706100  0.18133700  0.17793700  1
  Si  Si3  1  0.18133700  0.46706100  0.82206300  1
  Si  Si4  1  0.68133700  0.96706100  0.67793700  1
  Si  Si5  1  0.96706100  0.68133700  0.32206300  1
  Si  Si6  1  0.53293900  0.81866300  0.82206300  1
  Si  Si7  1  0.81866300  0.53293900  0.17793700  1
  Si  Si8  1  0.17444500  0.16832300  0.08242900  1
  Si  Si9  1  0.16832300  0.17444500  0.91757100  1
  Si  Si10  1  0.33167700  0.32555500  0.41757100  1
  Si  Si11  1  0.32555500  0.33167700  0.58242900  1
  Si  Si12  1  0.82555500  0.83167700  0.91757100  1
  Si  Si13  1  0.83167700  0.82555500  0.08242900  1
  Si  Si14  1  0.66832300  0.67444500  0.58242900  1
  Si  Si15  1  0.67444500  0.66832300  0.41757100  1
  Si  Si16  1  0.16987000  0.48148500  0.32091800  1
  Si  Si17  1  0.48148500  0.16987000  0.67908200  1
  Si  Si18  1  0.01851500  0.33013000  0.17908200  1
  Si  Si19  1  0.33013000  0.01851500  0.82091800  1
  Si  Si20  1  0.83013000  0.51851500  0.67908200  1
  Si  Si21  1  0.51851500  0.83013000  0.32091800  1
  Si  Si22  1  0.98148500  0.66987000  0.82091800  1
  Si  Si23  1  0.66987000  0.98148500  0.17908200  1
  O  O24  1  0.35944600  0.14055400  0.25000000  1
  O  O25  1  0.14055400  0.35944600  0.75000000  1
  O  O26  1  0.64055400  0.85944600  0.75000000  1
  O  O27  1  0.85944600  0.64055400  0.25000000  1
  O  O28  1  0.13704800  0.86295200  0.31523400  1
  O  O29  1  0.86295200  0.13704800  0.68476600  1
  O  O30  1  0.63704800  0.36295200  0.18476600  1
  O  O31  1  0.36295200  0.63704800  0.81523400  1
  O  O32  1  0.47042700  0.98244600  0.33823800  1
  O  O33  1  0.98244500  0.47042700  0.66176200  1
  O  O34  1  0.51755500  0.02957300  0.16176200  1
  O  O35  1  0.02957300  0.51755500  0.83823800  1
  O  O36  1  0.52957300  0.01755500  0.66176200  1
  O  O37  1  0.01755500  0.52957300  0.33823800  1
  O  O38  1  0.48244500  0.97042700  0.83823800  1
  O  O39  1  0.97042700  0.48244500  0.16176200  1
  O  O40  1  0.31101100  0.14853200  0.38529200  1
  O  O41  1  0.14853200  0.31101100  0.61470800  1
  O  O42  1  0.35146800  0.18898900  0.11470800  1
  O  O43  1  0.18898900  0.35146800  0.88529200  1
  O  O44  1  0.68898900  0.85146800  0.61470800  1
  O  O45  1  0.85146800  0.68898900  0.38529200  1
  O  O46  1  0.64853200  0.81101100  0.88529200  1
  O  O47  1  0.81101100  0.64853200  0.11470800  1
  O  O48  1  0.12782700  0.31099600  0.11532700  1
  O  O49  1  0.31099600  0.12782700  0.88467300  1
  O  O50  1  0.18900400  0.37217300  0.38467300  1
  O  O51  1  0.37217300  0.18900400  0.61532700  1
  O  O52  1  0.87217300  0.68900400  0.88467300  1
  O  O53  1  0.68900400  0.87217300  0.11532700  1
  O  O54  1  0.81099600  0.62782700  0.61532700  1
  O  O55  1  0.62782700  0.81099600  0.38467300  1
  O  O56  1  0.20020300  0.20020300  0.00000000  1
  O  O57  1  0.29979700  0.29979700  0.50000000  1
  O  O58  1  0.79979700  0.79979700  0.00000000  1
  O  O59  1  0.70020300  0.70020300  0.50000000  1
  O  O60  1  0.02270200  0.97729800  0.09899400  1
  O  O61  1  0.97729800  0.02270200  0.90100600  1
  O  O62  1  0.52270200  0.47729800  0.40100600  1
  O  O63  1  0.47729800  0.52270200  0.59899400  1
  O  O64  1  0.12919200  0.37080800  0.25000000  1
  O  O65  1  0.37080800  0.12919200  0.75000000  1
  O  O66  1  0.87080800  0.62919200  0.75000000  1
  O  O67  1  0.62919200  0.87080800  0.25000000  1
  O  O68  1  0.34604400  0.65395600  0.30932200  1
  O  O69  1  0.65395600  0.34604400  0.69067800  1
  O  O70  1  0.84604400  0.15395600  0.19067800  1
  O  O71  1  0.15395600  0.84604400  0.80932200  1
