# generated using pymatgen
data_SiO2
_symmetry_space_group_name_H-M   'P 1'
_cell_length_a   12.52117207
_cell_length_b   12.52117207
_cell_length_c   12.66455100
_cell_angle_alpha   90.00000000
_cell_angle_beta   90.00000000
_cell_angle_gamma   124.21430793
_symmetry_Int_Tables_number   1
_chemical_formula_structural   SiO2
_chemical_formula_sum   'Si28 O56'
_cell_volume   1641.92706527
_cell_formula_units_Z   28
loop_
 _symmetry_equiv_pos_site_id
 _symmetry_equiv_pos_as_xyz
  1  'x, y, z'
loop_
 _atom_site_type_symbol
 _atom_site_label
 _atom_site_symmetry_multiplicity
 _atom_site_fract_x
 _atom_site_fract_y
 _atom_site_fract_z
 _atom_site_occupancy
  Si  Si0  1  0.50927300  0.22752000  0.50000000  1
  Si  Si1  1  0.77248000  0.49072700  0.50000000  1
  Si  Si2  1  0.67072900  0.06202400  0.87878600  1
  Si  Si3  1  0.93797600  0.32927100  0.12121400  1
  Si  Si4  1  0.67072900  0.06202400  0.12121400  1
  Si  Si5  1  0.93797600  0.32927100  0.87878600  1
  Si  Si6  1  0.61020900  0.88754800  0.68458100  1
  Si  Si7  1  0.11245200  0.38979100  0.31541900  1
  Si  Si8  1  0.61020900  0.88754800  0.31541900  1
  Si  Si9  1  0.11245200  0.38979100  0.68458100  1
  Si  Si10  1  0.65428700  0.08076300  0.50000000  1
  Si  Si11  1  0.91923700  0.34571300  0.50000000  1
  Si  Si12  1  0.53246300  0.20440400  0.87501200  1
  Si  Si13  1  0.79559600  0.46753700  0.12498800  1
  Si  Si14  1  0.53246300  0.20440400  0.12498800  1
  Si  Si15  1  0.79559600  0.46753700  0.87501200  1
  Si  Si16  1  0.89390700  0.67517300  0.69899000  1
  Si  Si17  1  0.32482700  0.10609300  0.30101000  1
  Si  Si18  1  0.89390700  0.67517300  0.30101000  1
  Si  Si19  1  0.32482700  0.10609300  0.69899000  1
  Si  Si20  1  0.85324300  0.88304900  0.62278600  1
  Si  Si21  1  0.11695100  0.14675700  0.37721400  1
  Si  Si22  1  0.85324300  0.88304900  0.37721400  1
  Si  Si23  1  0.11695100  0.14675700  0.62278600  1
  Si  Si24  1  0.32911900  0.67088100  0.62305000  1
  Si  Si25  1  0.32911900  0.67088100  0.37695000  1
  Si  Si26  1  0.18306900  0.81693100  0.62337400  1
  Si  Si27  1  0.18306900  0.81693100  0.37662600  1
  O  O28  1  0.04502300  0.72809400  0.68306800  1
  O  O29  1  0.27190600  0.95497700  0.31693200  1
  O  O30  1  0.04502300  0.72809400  0.31693200  1
  O  O31  1  0.27190600  0.95497700  0.68306800  1
  O  O32  1  0.96417300  0.03582700  0.64254200  1
  O  O33  1  0.96417300  0.03582700  0.35745800  1
  O  O34  1  0.87858600  0.79590000  0.70017700  1
  O  O35  1  0.20410000  0.12141400  0.29982300  1
  O  O36  1  0.87858600  0.79590000  0.29982300  1
  O  O37  1  0.20410000  0.12141400  0.70017700  1
  O  O38  1  0.61610000  0.99308000  0.60534900  1
  O  O39  1  0.00692000  0.38390000  0.39465100  1
  O  O40  1  0.61610000  0.99308000  0.39465100  1
  O  O41  1  0.00692000  0.38390000  0.60534900  1
  O  O42  1  0.64324600  0.35675400  0.85093600  1
  O  O43  1  0.64324600  0.35675400  0.14906400  1
  O  O44  1  0.49746100  0.18362400  0.00000000  1
  O  O45  1  0.81637600  0.50253900  0.00000000  1
  O  O46  1  0.71325300  0.85536400  0.64844200  1
  O  O47  1  0.14463600  0.28674700  0.35155800  1
  O  O48  1  0.71325300  0.85536400  0.35155800  1
  O  O49  1  0.14463600  0.28674700  0.64844200  1
  O  O50  1  0.64056100  0.94316800  0.80433800  1
  O  O51  1  0.05683200  0.35943900  0.19566200  1
  O  O52  1  0.64056100  0.94316800  0.19566200  1
  O  O53  1  0.05683200  0.35943900  0.80433800  1
  O  O54  1  0.46710800  0.75489200  0.68269300  1
  O  O55  1  0.24510800  0.53289200  0.31730700  1
  O  O56  1  0.46710800  0.75489200  0.31730700  1
  O  O57  1  0.24510800  0.53289200  0.68269300  1
  O  O58  1  0.58619000  0.11722000  0.83931000  1
  O  O59  1  0.88278000  0.41381000  0.16069000  1
  O  O60  1  0.58619000  0.11722000  0.16069000  1
  O  O61  1  0.88278000  0.41381000  0.83931000  1
  O  O62  1  0.85732000  0.84509800  0.50000000  1
  O  O63  1  0.15490200  0.14268000  0.50000000  1
  O  O64  1  0.84242700  0.59864100  0.81055800  1
  O  O65  1  0.40135900  0.15757300  0.18944200  1
  O  O66  1  0.84242700  0.59864100  0.18944200  1
  O  O67  1  0.40135900  0.15757300  0.81055800  1
  O  O68  1  0.61884200  0.38115800  0.50000000  1
  O  O69  1  0.63304400  0.01025600  0.00000000  1
  O  O70  1  0.98974400  0.36695600  0.00000000  1
  O  O71  1  0.42234100  0.19375600  0.39540300  1
  O  O72  1  0.80624400  0.57765900  0.60459700  1
  O  O73  1  0.42234100  0.19375600  0.60459700  1
  O  O74  1  0.80624400  0.57765900  0.39540300  1
  O  O75  1  0.25596300  0.74403700  0.62858800  1
  O  O76  1  0.25596300  0.74403700  0.37141200  1
  O  O77  1  0.80901500  0.19098500  0.50000000  1
  O  O78  1  0.57444500  0.14642400  0.50000000  1
  O  O79  1  0.85357600  0.42555500  0.50000000  1
  O  O80  1  0.82414500  0.17585500  0.87121400  1
  O  O81  1  0.82414500  0.17585500  0.12878600  1
  O  O82  1  0.35045000  0.64955000  0.50000000  1
  O  O83  1  0.16056200  0.83943800  0.50000000  1
