# generated using pymatgen
data_SiO2
_symmetry_space_group_name_H-M   'P 1'
_cell_length_a   13.80767551
_cell_length_b   13.80767551
_cell_length_c   7.57562500
_cell_angle_alpha   90.00000000
_cell_angle_beta   90.00000000
_cell_angle_gamma   96.63595163
_symmetry_Int_Tables_number   1
_chemical_formula_structural   SiO2
_chemical_formula_sum   'Si24 O48'
_cell_volume   1434.63111274
_cell_formula_units_Z   24
loop_
 _symmetry_equiv_pos_site_id
 _symmetry_equiv_pos_as_xyz
  1  'x, y, z'
loop_
 _atom_site_type_symbol
 _atom_site_label
 _atom_site_symmetry_multiplicity
 _atom_site_fract_x
 _atom_site_fract_y
 _atom_site_fract_z
 _atom_site_occupancy
  Si  Si0  1  0.23220400  0.37937800  0.04362800  1
  Si  Si1  1  0.37937800  0.23220400  0.95637200  1
  Si  Si2  1  0.62062200  0.76779600  0.45637200  1
  Si  Si3  1  0.76779600  0.62062200  0.54362800  1
  Si  Si4  1  0.76779600  0.62062200  0.95637200  1
  Si  Si5  1  0.62062200  0.76779600  0.04362800  1
  Si  Si6  1  0.37937800  0.23220400  0.54362800  1
  Si  Si7  1  0.23220400  0.37937800  0.45637200  1
  Si  Si8  1  0.99229200  0.61394600  0.04376400  1
  Si  Si9  1  0.61394600  0.99229200  0.95623600  1
  Si  Si10  1  0.38605400  0.00770800  0.45623600  1
  Si  Si11  1  0.00770800  0.38605400  0.54376400  1
  Si  Si12  1  0.00770800  0.38605400  0.95623600  1
  Si  Si13  1  0.38605400  0.00770800  0.04376400  1
  Si  Si14  1  0.61394600  0.99229200  0.54376400  1
  Si  Si15  1  0.99229200  0.61394600  0.45623600  1
  Si  Si16  1  0.70547100  0.46391600  0.25000000  1
  Si  Si17  1  0.46391600  0.70547100  0.75000000  1
  Si  Si18  1  0.53608400  0.29452900  0.25000000  1
  Si  Si19  1  0.29452900  0.53608400  0.75000000  1
  Si  Si20  1  0.86213500  0.30716000  0.25000000  1
  Si  Si21  1  0.30716000  0.86213500  0.75000000  1
  Si  Si22  1  0.69284000  0.13786500  0.25000000  1
  Si  Si23  1  0.13786500  0.69284000  0.75000000  1
  O  O24  1  0.27962100  0.27962100  0.00000000  1
  O  O25  1  0.72037900  0.72037900  0.50000000  1
  O  O26  1  0.72037900  0.72037900  0.00000000  1
  O  O27  1  0.27962100  0.27962100  0.50000000  1
  O  O28  1  0.24845000  0.40871300  0.25000000  1
  O  O29  1  0.40871300  0.24845000  0.75000000  1
  O  O30  1  0.59128700  0.75155000  0.25000000  1
  O  O31  1  0.75155000  0.59128700  0.75000000  1
  O  O32  1  0.28475900  0.46917000  0.92668800  1
  O  O33  1  0.46917000  0.28475900  0.07331200  1
  O  O34  1  0.53083000  0.71524100  0.57331200  1
  O  O35  1  0.71524100  0.53083000  0.42668800  1
  O  O36  1  0.71524100  0.53083000  0.07331200  1
  O  O37  1  0.53083000  0.71524100  0.92668800  1
  O  O38  1  0.46917000  0.28475900  0.42668800  1
  O  O39  1  0.28475900  0.46917000  0.57331200  1
  O  O40  1  0.11669500  0.35963500  0.99888600  1
  O  O41  1  0.35963500  0.11669500  0.00111400  1
  O  O42  1  0.64036500  0.88330500  0.50111400  1
  O  O43  1  0.88330500  0.64036500  0.49888600  1
  O  O44  1  0.88330500  0.64036500  0.00111400  1
  O  O45  1  0.64036500  0.88330500  0.99888600  1
  O  O46  1  0.35963500  0.11669500  0.49888600  1
  O  O47  1  0.11669500  0.35963500  0.50111400  1
  O  O48  1  0.01777900  0.63550900  0.25000000  1
  O  O49  1  0.63550900  0.01777900  0.75000000  1
  O  O50  1  0.36449100  0.98222100  0.25000000  1
  O  O51  1  0.98222100  0.36449100  0.75000000  1
  O  O52  1  0.00000000  0.50000000  0.00000000  1
  O  O53  1  0.50000000  0.00000000  0.00000000  1
  O  O54  1  0.50000000  0.00000000  0.50000000  1
  O  O55  1  0.00000000  0.50000000  0.50000000  1
  O  O56  1  0.07039400  0.68297900  0.92626900  1
  O  O57  1  0.68297900  0.07039400  0.07373100  1
  O  O58  1  0.31702100  0.92960600  0.57373100  1
  O  O59  1  0.92960600  0.31702100  0.42626900  1
  O  O60  1  0.92960600  0.31702100  0.07373100  1
  O  O61  1  0.31702100  0.92960600  0.92626900  1
  O  O62  1  0.68297900  0.07039400  0.42626900  1
  O  O63  1  0.07039400  0.68297900  0.57373100  1
  O  O64  1  0.59880700  0.40119300  0.25000000  1
  O  O65  1  0.40119300  0.59880700  0.75000000  1
  O  O66  1  0.79072700  0.39254300  0.25000000  1
  O  O67  1  0.39254300  0.79072700  0.75000000  1
  O  O68  1  0.60745700  0.20927300  0.25000000  1
  O  O69  1  0.20927300  0.60745700  0.75000000  1
  O  O70  1  0.79946100  0.20053900  0.25000000  1
  O  O71  1  0.20053900  0.79946100  0.75000000  1
