# generated using pymatgen
data_SiO2
_symmetry_space_group_name_H-M   'P 1'
_cell_length_a   12.25776494
_cell_length_b   10.72968218
_cell_length_c   8.86725145
_cell_angle_alpha   76.78467525
_cell_angle_beta   58.44702437
_cell_angle_gamma   44.76830038
_symmetry_Int_Tables_number   1
_chemical_formula_structural   SiO2
_chemical_formula_sum   'Si12 O24'
_cell_volume   679.75577869
_cell_formula_units_Z   12
loop_
 _symmetry_equiv_pos_site_id
 _symmetry_equiv_pos_as_xyz
  1  'x, y, z'
loop_
 _atom_site_type_symbol
 _atom_site_label
 _atom_site_symmetry_multiplicity
 _atom_site_fract_x
 _atom_site_fract_y
 _atom_site_fract_z
 _atom_site_occupancy
  Si  Si0  1  0.21558900  0.14191500  0.51246200  1
  Si  Si1  1  0.51246200  0.13003400  0.21558900  1
  Si  Si2  1  0.85808500  0.78441100  0.86996600  1
  Si  Si3  1  0.86996600  0.48753800  0.85808500  1
  Si  Si4  1  0.67102900  0.69060600  0.64861600  1
  Si  Si5  1  0.64861600  0.98974800  0.67102900  1
  Si  Si6  1  0.30939400  0.32897100  0.01025200  1
  Si  Si7  1  0.01025200  0.35138400  0.30939400  1
  Si  Si8  1  0.75038100  0.41393000  0.24979400  1
  Si  Si9  1  0.24979400  0.58589400  0.75038100  1
  Si  Si10  1  0.58607000  0.24961900  0.41410600  1
  Si  Si11  1  0.41410600  0.75020600  0.58607000  1
  O  O12  1  0.89674000  0.60326000  0.89674000  1
  O  O13  1  0.39674000  0.10326000  0.39674000  1
  O  O14  1  0.70714600  0.61837800  0.81528400  1
  O  O15  1  0.81528400  0.85919200  0.70714600  1
  O  O16  1  0.38162200  0.29285400  0.14080800  1
  O  O17  1  0.14080800  0.18471600  0.38162300  1
  O  O18  1  0.91995000  0.31127800  0.27262500  1
  O  O19  1  0.27262500  0.49614800  0.91995000  1
  O  O20  1  0.68872200  0.08005000  0.50385200  1
  O  O21  1  0.50385200  0.72737500  0.68872200  1
  O  O22  1  0.26919600  0.96119300  0.57923300  1
  O  O23  1  0.57923300  0.19037800  0.26919600  1
  O  O24  1  0.03880700  0.73080400  0.80962200  1
  O  O25  1  0.80962200  0.42076700  0.03880700  1
  O  O26  1  0.12432900  0.37567100  0.12432900  1
  O  O27  1  0.62432900  0.87567100  0.62432900  1
  O  O28  1  0.85367400  0.54064600  0.45935400  1
  O  O29  1  0.45935400  0.14632600  0.85367400  1
  O  O30  1  0.70444000  0.29556000  0.30543700  1
  O  O31  1  0.30543700  0.69456300  0.70444000  1
  O  O32  1  0.06039500  0.31210600  0.68789400  1
  O  O33  1  0.68789300  0.93960500  0.06039500  1
  O  O34  1  0.57254100  0.62088400  0.37911600  1
  O  O35  1  0.37911600  0.42745900  0.57254100  1
