# generated using pymatgen
data_SiO2
_symmetry_space_group_name_H-M   'P 1'
_cell_length_a   13.65787885
_cell_length_b   13.65787885
_cell_length_c   13.65787885
_cell_angle_alpha   135.57945313
_cell_angle_beta   124.74422092
_cell_angle_gamma   73.49281309
_symmetry_Int_Tables_number   1
_chemical_formula_structural   SiO2
_chemical_formula_sum   'Si24 O48'
_cell_volume   1431.40498630
_cell_formula_units_Z   24
loop_
 _symmetry_equiv_pos_site_id
 _symmetry_equiv_pos_as_xyz
  1  'x, y, z'
loop_
 _atom_site_type_symbol
 _atom_site_label
 _atom_site_symmetry_multiplicity
 _atom_site_fract_x
 _atom_site_fract_y
 _atom_site_fract_z
 _atom_site_occupancy
  Si  Si0  1  0.48260500  0.33278900  0.59289400  1
  Si  Si1  1  0.51739500  0.11028900  0.85018400  1
  Si  Si2  1  0.76010400  0.66721100  0.64981600  1
  Si  Si3  1  0.23989600  0.88971100  0.90710600  1
  Si  Si4  1  0.51739500  0.66721100  0.40710600  1
  Si  Si5  1  0.48260500  0.88971100  0.14981600  1
  Si  Si6  1  0.23989600  0.33278900  0.35018400  1
  Si  Si7  1  0.76010400  0.11028900  0.09289400  1
  Si  Si8  1  0.21548900  0.65687900  0.55861100  1
  Si  Si9  1  0.78451100  0.34312100  0.44138900  1
  Si  Si10  1  0.40173200  0.34312100  0.05861100  1
  Si  Si11  1  0.59826800  0.65687900  0.94138900  1
  Si  Si12  1  0.66819100  0.79299500  0.87519600  1
  Si  Si13  1  0.33180900  0.20700500  0.12480400  1
  Si  Si14  1  0.58220100  0.20700500  0.37519600  1
  Si  Si15  1  0.41779900  0.79299500  0.62480400  1
  Si  Si16  1  0.30784500  0.43306500  0.87478000  1
  Si  Si17  1  0.69215500  0.56693500  0.12522000  1
  Si  Si18  1  0.94171500  0.56693500  0.37478000  1
  Si  Si19  1  0.05828500  0.43306500  0.62522000  1
  Si  Si20  1  0.00000000  0.71836200  0.71836200  1
  Si  Si21  1  0.50000000  0.28163800  0.78163800  1
  Si  Si22  1  0.00000000  0.28163800  0.28163800  1
  Si  Si23  1  0.50000000  0.71836200  0.21836200  1
  O  O24  1  0.50350800  0.24547100  0.64148800  1
  O  O25  1  0.49649200  0.13798000  0.74196300  1
  O  O26  1  0.89601600  0.75452900  0.75803700  1
  O  O27  1  0.10398400  0.86202000  0.85851200  1
  O  O28  1  0.49649200  0.75452900  0.35851200  1
  O  O29  1  0.50350800  0.86202000  0.25803700  1
  O  O30  1  0.10398400  0.24547100  0.24196300  1
  O  O31  1  0.89601600  0.13798000  0.14148800  1
  O  O32  1  0.51128100  0.50438100  0.75227800  1
  O  O33  1  0.48871900  0.24099700  0.99310000  1
  O  O34  1  0.74789700  0.49561900  0.50690000  1
  O  O35  1  0.25210300  0.75900300  0.74772200  1
  O  O36  1  0.48871900  0.49561900  0.24772200  1
  O  O37  1  0.51128100  0.75900300  0.00690000  1
  O  O38  1  0.25210300  0.50438100  0.49310000  1
  O  O39  1  0.74789700  0.24099700  0.25227800  1
  O  O40  1  0.57323900  0.29765600  0.53441500  1
  O  O41  1  0.42676100  0.96117600  0.72441700  1
  O  O42  1  0.73675900  0.70234400  0.77558300  1
  O  O43  1  0.26324100  0.03882400  0.96558500  1
  O  O44  1  0.42676100  0.70234400  0.46558500  1
  O  O45  1  0.57323900  0.03882400  0.27558300  1
  O  O46  1  0.26324100  0.29765600  0.22441700  1
  O  O47  1  0.73675900  0.96117600  0.03441500  1
  O  O48  1  0.34114300  0.28181900  0.44067700  1
  O  O49  1  0.65885700  0.09953400  0.94067700  1
  O  O50  1  0.65885700  0.71818100  0.55932300  1
  O  O51  1  0.34114300  0.90046600  0.05932300  1
  O  O52  1  0.06935400  0.63203500  0.43731900  1
  O  O53  1  0.93064600  0.36796500  0.56268100  1
  O  O54  1  0.30528400  0.36796500  0.93731900  1
  O  O55  1  0.69471600  0.63203500  0.06268100  1
  O  O56  1  0.28621100  0.73087500  0.55533500  1
  O  O57  1  0.71378900  0.26912500  0.44466500  1
  O  O58  1  0.32446000  0.26912500  0.05533500  1
  O  O59  1  0.67554000  0.73087500  0.94466500  1
  O  O60  1  0.52527400  0.77527400  0.75000000  1
  O  O61  1  0.47472600  0.22472600  0.25000000  1
  O  O62  1  0.37762000  0.60115300  0.03350400  1
  O  O63  1  0.62238000  0.65588400  0.22353300  1
  O  O64  1  0.93235100  0.39884700  0.27646700  1
  O  O65  1  0.06764900  0.34411600  0.46649600  1
  O  O66  1  0.62238000  0.39884700  0.96649600  1
  O  O67  1  0.37762000  0.34411600  0.77646700  1
  O  O68  1  0.06764900  0.60115300  0.72353300  1
  O  O69  1  0.93235100  0.65588400  0.53350400  1
  O  O70  1  0.16868900  0.41868900  0.75000000  1
  O  O71  1  0.83131100  0.58131100  0.25000000  1
