# generated using pymatgen
data_SiO2
_symmetry_space_group_name_H-M   'P 1'
_cell_length_a   12.72915600
_cell_length_b   12.72915600
_cell_length_c   26.40793300
_cell_angle_alpha   90.00000000
_cell_angle_beta   90.00000000
_cell_angle_gamma   90.00000000
_symmetry_Int_Tables_number   1
_chemical_formula_structural   SiO2
_chemical_formula_sum   'Si64 O128'
_cell_volume   4278.91468446
_cell_formula_units_Z   64
loop_
 _symmetry_equiv_pos_site_id
 _symmetry_equiv_pos_as_xyz
  1  'x, y, z'
loop_
 _atom_site_type_symbol
 _atom_site_label
 _atom_site_symmetry_multiplicity
 _atom_site_fract_x
 _atom_site_fract_y
 _atom_site_fract_z
 _atom_site_occupancy
  Si  Si0  1  0.95319300  0.79633700  0.05526900  1
  Si  Si1  1  0.20366300  0.95319300  0.30526900  1
  Si  Si2  1  0.79633700  0.04680700  0.80526900  1
  Si  Si3  1  0.95319300  0.20366300  0.44473100  1
  Si  Si4  1  0.04680700  0.79633700  0.94473100  1
  Si  Si5  1  0.04680700  0.20366300  0.55526900  1
  Si  Si6  1  0.79633700  0.95319300  0.69473100  1
  Si  Si7  1  0.20366300  0.04680700  0.19473100  1
  Si  Si8  1  0.95395000  0.54249700  0.05542700  1
  Si  Si9  1  0.45750300  0.95395000  0.30542700  1
  Si  Si10  1  0.54249700  0.04605000  0.80542700  1
  Si  Si11  1  0.95395000  0.45750300  0.44457300  1
  Si  Si12  1  0.04605000  0.54249700  0.94457300  1
  Si  Si13  1  0.04605000  0.45750300  0.55542700  1
  Si  Si14  1  0.54249700  0.95395000  0.69457300  1
  Si  Si15  1  0.45750300  0.04605000  0.19457300  1
  Si  Si16  1  0.71441400  0.79231700  0.05847000  1
  Si  Si17  1  0.20768300  0.71441400  0.30847000  1
  Si  Si18  1  0.79231700  0.28558600  0.80847000  1
  Si  Si19  1  0.71441400  0.20768300  0.44153000  1
  Si  Si20  1  0.28558600  0.79231700  0.94153000  1
  Si  Si21  1  0.28558600  0.20768300  0.55847000  1
  Si  Si22  1  0.79231700  0.71441400  0.69153000  1
  Si  Si23  1  0.20768300  0.28558600  0.19153000  1
  Si  Si24  1  0.71523100  0.54468500  0.05919600  1
  Si  Si25  1  0.45531500  0.71523100  0.30919600  1
  Si  Si26  1  0.54468500  0.28476900  0.80919600  1
  Si  Si27  1  0.71523100  0.45531500  0.44080400  1
  Si  Si28  1  0.28476900  0.54468500  0.94080400  1
  Si  Si29  1  0.28476900  0.45531500  0.55919600  1
  Si  Si30  1  0.54468500  0.71523100  0.69080400  1
  Si  Si31  1  0.45531500  0.28476900  0.19080400  1
  Si  Si32  1  0.33207600  0.78907100  0.05899200  1
  Si  Si33  1  0.21092900  0.33207600  0.30899200  1
  Si  Si34  1  0.78907100  0.66792400  0.80899200  1
  Si  Si35  1  0.33207600  0.21092900  0.44100800  1
  Si  Si36  1  0.66792400  0.78907100  0.94100800  1
  Si  Si37  1  0.66792400  0.21092900  0.55899200  1
  Si  Si38  1  0.78907100  0.33207600  0.69100800  1
  Si  Si39  1  0.21092900  0.66792400  0.19100800  1
  Si  Si40  1  0.33304500  0.54032900  0.05814700  1
  Si  Si41  1  0.45967100  0.33304500  0.30814700  1
  Si  Si42  1  0.54032900  0.66695500  0.80814700  1
  Si  Si43  1  0.33304500  0.45967100  0.44185300  1
  Si  Si44  1  0.66695500  0.54032900  0.94185300  1
  Si  Si45  1  0.66695500  0.45967100  0.55814700  1
  Si  Si46  1  0.54032900  0.33304500  0.69185300  1
  Si  Si47  1  0.45967100  0.66695500  0.19185300  1
  Si  Si48  1  0.52722200  0.85965000  0.12548700  1
  Si  Si49  1  0.14035000  0.52722200  0.37548700  1
  Si  Si50  1  0.85965000  0.47277800  0.87548700  1
  Si  Si51  1  0.52722200  0.14035000  0.37451300  1
  Si  Si52  1  0.47277800  0.85965000  0.87451300  1
  Si  Si53  1  0.47277800  0.14035000  0.62548700  1
  Si  Si54  1  0.85965000  0.52722200  0.62451300  1
  Si  Si55  1  0.14035000  0.47277800  0.12451300  1
  Si  Si56  1  0.52740800  0.47259200  0.12500000  1
  Si  Si57  1  0.52740800  0.52740800  0.37500000  1
  Si  Si58  1  0.47259200  0.47259200  0.87500000  1
  Si  Si59  1  0.47259200  0.52740800  0.62500000  1
  Si  Si60  1  0.13890900  0.86109100  0.12500000  1
  Si  Si61  1  0.13890900  0.13890900  0.37500000  1
  Si  Si62  1  0.86109100  0.86109100  0.87500000  1
  Si  Si63  1  0.86109100  0.13890900  0.62500000  1
  O  O64  1  0.83322100  0.83959100  0.05972700  1
  O  O65  1  0.16040900  0.83322100  0.30972700  1
  O  O66  1  0.83959100  0.16677900  0.80972700  1
  O  O67  1  0.83322100  0.16040900  0.44027300  1
  O  O68  1  0.16677900  0.83959100  0.94027300  1
  O  O69  1  0.16677900  0.16040900  0.55972700  1
  O  O70  1  0.83959100  0.83322100  0.69027300  1
  O  O71  1  0.16040900  0.16677900  0.19027300  1
  O  O72  1  0.00000000  0.82724800  0.00000000  1
  O  O73  1  0.17275200  0.00000000  0.25000000  1
  O  O74  1  0.82724800  0.00000000  0.75000000  1
  O  O75  1  0.00000000  0.17275200  0.50000000  1
  O  O76  1  0.02366900  0.85071000  0.09929200  1
  O  O77  1  0.14929000  0.02366900  0.34929200  1
  O  O78  1  0.85071000  0.97633100  0.84929200  1
  O  O79  1  0.02366900  0.14929000  0.40070800  1
  O  O80  1  0.97633100  0.85071000  0.90070800  1
  O  O81  1  0.97633100  0.14929000  0.59929200  1
  O  O82  1  0.85071000  0.02366900  0.65070800  1
  O  O83  1  0.14929000  0.97633100  0.15070800  1
  O  O84  1  0.95474000  0.66944000  0.06224100  1
  O  O85  1  0.33056000  0.95474000  0.31224100  1
  O  O86  1  0.66944000  0.04526000  0.81224100  1
  O  O87  1  0.95474000  0.33056000  0.43775900  1
  O  O88  1  0.04526000  0.66944000  0.93775900  1
  O  O89  1  0.04526000  0.33056000  0.56224100  1
  O  O90  1  0.66944000  0.95474000  0.68775900  1
  O  O91  1  0.33056000  0.04526000  0.18775900  1
  O  O92  1  0.83444600  0.49845700  0.06059200  1
  O  O93  1  0.50154300  0.83444600  0.31059200  1
  O  O94  1  0.49845700  0.16555400  0.81059200  1
  O  O95  1  0.83444600  0.50154300  0.43940800  1
  O  O96  1  0.16555400  0.49845700  0.93940800  1
  O  O97  1  0.16555400  0.50154300  0.56059200  1
  O  O98  1  0.49845700  0.83444600  0.68940800  1
  O  O99  1  0.50154300  0.16555400  0.18940800  1
  O  O100  1  0.00000000  0.51170500  0.00000000  1
  O  O101  1  0.48829500  0.00000000  0.25000000  1
  O  O102  1  0.51170500  0.00000000  0.75000000  1
  O  O103  1  0.00000000  0.48829500  0.50000000  1
  O  O104  1  0.02561400  0.48861100  0.09901900  1
  O  O105  1  0.51138900  0.02561400  0.34901900  1
  O  O106  1  0.48861100  0.97438600  0.84901900  1
  O  O107  1  0.02561400  0.51138900  0.40098100  1
  O  O108  1  0.97438600  0.48861100  0.90098100  1
  O  O109  1  0.97438600  0.51138900  0.59901900  1
  O  O110  1  0.48861100  0.02561400  0.65098100  1
  O  O111  1  0.51138900  0.97438600  0.15098100  1
  O  O112  1  0.64204800  0.85575700  0.09874700  1
  O  O113  1  0.14424300  0.64204800  0.34874700  1
  O  O114  1  0.85575700  0.35795200  0.84874700  1
  O  O115  1  0.64204800  0.14424300  0.40125300  1
  O  O116  1  0.35795200  0.85575700  0.90125300  1
  O  O117  1  0.35795200  0.14424300  0.59874700  1
  O  O118  1  0.85575700  0.64204800  0.65125300  1
  O  O119  1  0.14424300  0.35795200  0.15125300  1
  O  O120  1  0.71733500  0.66874400  0.07407200  1
  O  O121  1  0.33125600  0.71733500  0.32407200  1
  O  O122  1  0.66874400  0.28266500  0.82407200  1
  O  O123  1  0.71733500  0.33125600  0.42592800  1
  O  O124  1  0.28266500  0.66874400  0.92592800  1
  O  O125  1  0.28266500  0.33125600  0.57407200  1
  O  O126  1  0.66874400  0.71733500  0.67592800  1
  O  O127  1  0.33125600  0.28266500  0.17592800  1
  O  O128  1  0.66499000  0.80419000  0.00182100  1
  O  O129  1  0.19581000  0.66499000  0.25182100  1
  O  O130  1  0.80419000  0.33501000  0.75182100  1
  O  O131  1  0.66499000  0.19581000  0.49817900  1
  O  O132  1  0.33501000  0.80419000  0.99817900  1
  O  O133  1  0.33501000  0.19581000  0.50182100  1
  O  O134  1  0.80419000  0.66499000  0.74817900  1
  O  O135  1  0.19581000  0.33501000  0.24817900  1
  O  O136  1  0.64357600  0.48283000  0.10018400  1
  O  O137  1  0.51717000  0.64357600  0.35018400  1
  O  O138  1  0.48283000  0.35642400  0.85018400  1
  O  O139  1  0.64357600  0.51717000  0.39981600  1
  O  O140  1  0.35642400  0.48283000  0.89981600  1
  O  O141  1  0.35642400  0.51717000  0.60018400  1
  O  O142  1  0.48283000  0.64357600  0.64981600  1
  O  O143  1  0.51717000  0.35642400  0.14981600  1
  O  O144  1  0.66537300  0.52896400  0.00284800  1
  O  O145  1  0.47103600  0.66537300  0.25284800  1
  O  O146  1  0.52896400  0.33462700  0.75284800  1
  O  O147  1  0.66537300  0.47103600  0.49715200  1
  O  O148  1  0.33462700  0.52896400  0.99715200  1
  O  O149  1  0.33462700  0.47103600  0.50284800  1
  O  O150  1  0.52896400  0.66537300  0.74715200  1
  O  O151  1  0.47103600  0.33462700  0.24715200  1
  O  O152  1  0.43698900  0.84063100  0.08276600  1
  O  O153  1  0.15936900  0.43698900  0.33276600  1
  O  O154  1  0.84063100  0.56301100  0.83276600  1
  O  O155  1  0.43698900  0.15936900  0.41723400  1
  O  O156  1  0.56301100  0.84063100  0.91723400  1
  O  O157  1  0.56301100  0.15936900  0.58276600  1
  O  O158  1  0.84063100  0.43698900  0.66723400  1
  O  O159  1  0.15936900  0.56301100  0.16723400  1
  O  O160  1  0.32760000  0.66451400  0.07287200  1
  O  O161  1  0.33548600  0.32760000  0.32287200  1
  O  O162  1  0.66451400  0.67240000  0.82287200  1
  O  O163  1  0.32760000  0.33548600  0.42712800  1
  O  O164  1  0.67240000  0.66451400  0.92712800  1
  O  O165  1  0.67240000  0.33548600  0.57287200  1
  O  O166  1  0.66451400  0.32760000  0.67712800  1
  O  O167  1  0.33548600  0.67240000  0.17712800  1
  O  O168  1  0.22889000  0.84710500  0.08164100  1
  O  O169  1  0.15289500  0.22889000  0.33164100  1
  O  O170  1  0.84710500  0.77111000  0.83164100  1
  O  O171  1  0.22889000  0.15289500  0.41835900  1
  O  O172  1  0.77111000  0.84710500  0.91835900  1
  O  O173  1  0.77111000  0.15289500  0.58164100  1
  O  O174  1  0.84710500  0.22889000  0.66835900  1
  O  O175  1  0.15289500  0.77111000  0.16835900  1
  O  O176  1  0.43885300  0.48833000  0.08097900  1
  O  O177  1  0.51167000  0.43885300  0.33097900  1
  O  O178  1  0.48833000  0.56114700  0.83097900  1
  O  O179  1  0.43885300  0.51167000  0.41902100  1
  O  O180  1  0.56114700  0.48833000  0.91902100  1
  O  O181  1  0.56114700  0.51167000  0.58097900  1
  O  O182  1  0.48833000  0.43885300  0.66902100  1
  O  O183  1  0.51167000  0.56114700  0.16902100  1
  O  O184  1  0.23079700  0.48060200  0.08092800  1
  O  O185  1  0.51939800  0.23079700  0.33092800  1
  O  O186  1  0.48060200  0.76920300  0.83092800  1
  O  O187  1  0.23079700  0.51939800  0.41907200  1
  O  O188  1  0.76920300  0.48060200  0.91907200  1
  O  O189  1  0.76920300  0.51939800  0.58092800  1
  O  O190  1  0.48060200  0.23079700  0.66907200  1
  O  O191  1  0.51939800  0.76920300  0.16907200  1
