# generated using pymatgen
data_SiO2
_symmetry_space_group_name_H-M   'P 1'
_cell_length_a   11.51127891
_cell_length_b   11.51127891
_cell_length_c   9.80449500
_cell_angle_alpha   90.00000000
_cell_angle_beta   90.00000000
_cell_angle_gamma   105.53691185
_symmetry_Int_Tables_number   1
_chemical_formula_structural   SiO2
_chemical_formula_sum   'Si24 O48'
_cell_volume   1251.71428898
_cell_formula_units_Z   24
loop_
 _symmetry_equiv_pos_site_id
 _symmetry_equiv_pos_as_xyz
  1  'x, y, z'
loop_
 _atom_site_type_symbol
 _atom_site_label
 _atom_site_symmetry_multiplicity
 _atom_site_fract_x
 _atom_site_fract_y
 _atom_site_fract_z
 _atom_site_occupancy
  Si  Si0  1  0.48456300  0.65660100  0.37133500  1
  Si  Si1  1  0.34339900  0.51543700  0.62866500  1
  Si  Si2  1  0.15660100  0.98456300  0.12866500  1
  Si  Si3  1  0.01543700  0.84339900  0.87133500  1
  Si  Si4  1  0.51543700  0.34339900  0.62866500  1
  Si  Si5  1  0.65660100  0.48456300  0.37133500  1
  Si  Si6  1  0.84339900  0.01543700  0.87133500  1
  Si  Si7  1  0.98456300  0.15660100  0.12866500  1
  Si  Si8  1  0.35735500  0.71367600  0.84260900  1
  Si  Si9  1  0.28632400  0.64264500  0.15739100  1
  Si  Si10  1  0.21367600  0.85735500  0.65739100  1
  Si  Si11  1  0.14264500  0.78632400  0.34260900  1
  Si  Si12  1  0.64264500  0.28632400  0.15739100  1
  Si  Si13  1  0.71367600  0.35735500  0.84260900  1
  Si  Si14  1  0.78632400  0.14264500  0.34260900  1
  Si  Si15  1  0.85735500  0.21367600  0.65739100  1
  Si  Si16  1  0.44114200  0.04710400  0.12963800  1
  Si  Si17  1  0.95289600  0.55885800  0.87036200  1
  Si  Si18  1  0.54710400  0.94114200  0.37036200  1
  Si  Si19  1  0.05885800  0.45289600  0.62963800  1
  Si  Si20  1  0.55885800  0.95289600  0.87036200  1
  Si  Si21  1  0.04710400  0.44114200  0.12963800  1
  Si  Si22  1  0.45289600  0.05885800  0.62963800  1
  Si  Si23  1  0.94114200  0.54710400  0.37036200  1
  O  O24  1  0.41100700  0.63005600  0.22699400  1
  O  O25  1  0.36994400  0.58899200  0.77300600  1
  O  O26  1  0.13005600  0.91100800  0.27300600  1
  O  O27  1  0.08899200  0.86994400  0.72699400  1
  O  O28  1  0.58899300  0.36994400  0.77300600  1
  O  O29  1  0.63005600  0.41100800  0.22699400  1
  O  O30  1  0.86994400  0.08899200  0.72699400  1
  O  O31  1  0.91100700  0.13005600  0.27300600  1
  O  O32  1  0.39735600  0.60264400  0.50000000  1
  O  O33  1  0.10264400  0.89735600  0.00000000  1
  O  O34  1  0.60264400  0.39735600  0.50000000  1
  O  O35  1  0.89735600  0.10264400  0.00000000  1
  O  O36  1  0.59676900  0.59676900  0.36401800  1
  O  O37  1  0.40323100  0.40323100  0.63598200  1
  O  O38  1  0.09676900  0.09676900  0.13598200  1
  O  O39  1  0.90323100  0.90323100  0.86401800  1
  O  O40  1  0.53874900  0.80039400  0.39543400  1
  O  O41  1  0.19960600  0.46125100  0.60456600  1
  O  O42  1  0.30039400  0.03874900  0.10456600  1
  O  O43  1  0.96125100  0.69960600  0.89543400  1
  O  O44  1  0.46125100  0.19960600  0.60456600  1
  O  O45  1  0.80039400  0.53874900  0.39543400  1
  O  O46  1  0.69960600  0.96125100  0.89543400  1
  O  O47  1  0.03874900  0.30039400  0.10456600  1
  O  O48  1  0.48860200  0.81268200  0.83863400  1
  O  O49  1  0.18731800  0.51139800  0.16136600  1
  O  O50  1  0.31268200  0.98860200  0.66136600  1
  O  O51  1  0.01139800  0.68731800  0.33863400  1
  O  O52  1  0.51139800  0.18731800  0.16136600  1
  O  O53  1  0.81268200  0.48860200  0.83863400  1
  O  O54  1  0.68731800  0.01139800  0.33863400  1
  O  O55  1  0.98860200  0.31268200  0.66136600  1
  O  O56  1  0.26291500  0.76291500  0.75000000  1
  O  O57  1  0.23708500  0.73708500  0.25000000  1
  O  O58  1  0.73708500  0.23708500  0.25000000  1
  O  O59  1  0.76291500  0.26291500  0.75000000  1
  O  O60  1  0.31022500  0.68977500  0.00000000  1
  O  O61  1  0.18977500  0.81022500  0.50000000  1
  O  O62  1  0.68977500  0.31022500  0.00000000  1
  O  O63  1  0.81022500  0.18977500  0.50000000  1
  O  O64  1  0.50000000  0.00000000  0.00000000  1
  O  O65  1  0.00000000  0.50000000  0.00000000  1
  O  O66  1  0.50000000  0.00000000  0.50000000  1
  O  O67  1  0.00000000  0.50000000  0.50000000  1
  O  O68  1  0.45543700  0.95543700  0.25000000  1
  O  O69  1  0.04456300  0.54456300  0.75000000  1
  O  O70  1  0.54456300  0.04456300  0.75000000  1
  O  O71  1  0.95543700  0.45543700  0.25000000  1
