# generated using pymatgen
data_SiO2
_symmetry_space_group_name_H-M   'P 1'
_cell_length_a   18.58173500
_cell_length_b   18.58173500
_cell_length_c   9.39174000
_cell_angle_alpha   90.00000000
_cell_angle_beta   90.00000000
_cell_angle_gamma   90.00000000
_symmetry_Int_Tables_number   1
_chemical_formula_structural   SiO2
_chemical_formula_sum   'Si48 O96'
_cell_volume   3242.78821070
_cell_formula_units_Z   48
loop_
 _symmetry_equiv_pos_site_id
 _symmetry_equiv_pos_as_xyz
  1  'x, y, z'
loop_
 _atom_site_type_symbol
 _atom_site_label
 _atom_site_symmetry_multiplicity
 _atom_site_fract_x
 _atom_site_fract_y
 _atom_site_fract_z
 _atom_site_occupancy
  Si  Si0  1  0.30470600  0.31574600  0.33726100  1
  Si  Si1  1  0.81574600  0.19529400  0.33726100  1
  Si  Si2  1  0.18425400  0.80470600  0.33726100  1
  Si  Si3  1  0.19529400  0.81574600  0.66273900  1
  Si  Si4  1  0.80470600  0.18425400  0.66273900  1
  Si  Si5  1  0.69529400  0.68425400  0.33726100  1
  Si  Si6  1  0.31574600  0.30470600  0.66273900  1
  Si  Si7  1  0.68425400  0.69529400  0.66273900  1
  Si  Si8  1  0.19529400  0.18425400  0.66273900  1
  Si  Si9  1  0.68425400  0.30470600  0.66273900  1
  Si  Si10  1  0.31574600  0.69529400  0.66273900  1
  Si  Si11  1  0.30470600  0.68425400  0.33726100  1
  Si  Si12  1  0.69529400  0.31574600  0.33726100  1
  Si  Si13  1  0.80470600  0.81574600  0.66273900  1
  Si  Si14  1  0.18425400  0.19529400  0.33726100  1
  Si  Si15  1  0.81574600  0.80470600  0.33726100  1
  Si  Si16  1  0.41576200  0.20327900  0.83945200  1
  Si  Si17  1  0.70327900  0.08423800  0.83945200  1
  Si  Si18  1  0.29672100  0.91576200  0.83945200  1
  Si  Si19  1  0.08423800  0.70327900  0.16054800  1
  Si  Si20  1  0.91576200  0.29672100  0.16054800  1
  Si  Si21  1  0.58423800  0.79672100  0.83945200  1
  Si  Si22  1  0.20327900  0.41576200  0.16054800  1
  Si  Si23  1  0.79672100  0.58423800  0.16054800  1
  Si  Si24  1  0.08423800  0.29672100  0.16054800  1
  Si  Si25  1  0.79672100  0.41576200  0.16054800  1
  Si  Si26  1  0.20327900  0.58423800  0.16054800  1
  Si  Si27  1  0.41576200  0.79672100  0.83945200  1
  Si  Si28  1  0.58423800  0.20327900  0.83945200  1
  Si  Si29  1  0.91576200  0.70327900  0.16054800  1
  Si  Si30  1  0.29672100  0.08423800  0.83945200  1
  Si  Si31  1  0.70327900  0.91576200  0.83945200  1
  Si  Si32  1  0.58410600  0.31460000  0.08728300  1
  Si  Si33  1  0.81460000  0.91589400  0.08728300  1
  Si  Si34  1  0.18540000  0.08410600  0.08728300  1
  Si  Si35  1  0.91589400  0.81460000  0.91271700  1
  Si  Si36  1  0.08410600  0.18540000  0.91271700  1
  Si  Si37  1  0.41589400  0.68540000  0.08728300  1
  Si  Si38  1  0.31460000  0.58410600  0.91271700  1
  Si  Si39  1  0.68540000  0.41589400  0.91271700  1
  Si  Si40  1  0.91589400  0.18540000  0.91271700  1
  Si  Si41  1  0.68540000  0.58410600  0.91271700  1
  Si  Si42  1  0.31460000  0.41589400  0.91271700  1
  Si  Si43  1  0.58410600  0.68540000  0.08728300  1
  Si  Si44  1  0.41589400  0.31460000  0.08728300  1
  Si  Si45  1  0.08410600  0.81460000  0.91271700  1
  Si  Si46  1  0.18540000  0.91589400  0.08728300  1
  Si  Si47  1  0.81460000  0.08410600  0.08728300  1
  O  O48  1  0.38232600  0.38232600  0.00000000  1
  O  O49  1  0.88232600  0.11767400  0.00000000  1
  O  O50  1  0.11767400  0.88232600  0.00000000  1
  O  O51  1  0.61767400  0.61767400  0.00000000  1
  O  O52  1  0.11767400  0.11767400  0.00000000  1
  O  O53  1  0.61767400  0.38232600  0.00000000  1
  O  O54  1  0.38232600  0.61767400  0.00000000  1
  O  O55  1  0.88232600  0.88232600  0.00000000  1
  O  O56  1  0.50000000  0.33084600  0.11698000  1
  O  O57  1  0.83084600  0.00000000  0.11698000  1
  O  O58  1  0.16915400  0.00000000  0.11698000  1
  O  O59  1  0.00000000  0.83084600  0.88302000  1
  O  O60  1  0.00000000  0.16915400  0.88302000  1
  O  O61  1  0.50000000  0.66915400  0.11698000  1
  O  O62  1  0.33084600  0.50000000  0.88302000  1
  O  O63  1  0.66915400  0.50000000  0.88302000  1
  O  O64  1  0.62706500  0.12706500  0.83867000  1
  O  O65  1  0.62706500  0.87293500  0.83867000  1
  O  O66  1  0.37293500  0.12706500  0.83867000  1
  O  O67  1  0.87293500  0.62706500  0.16133000  1
  O  O68  1  0.12706500  0.37293500  0.16133000  1
  O  O69  1  0.37293500  0.87293500  0.83867000  1
  O  O70  1  0.12706500  0.62706500  0.16133000  1
  O  O71  1  0.87293500  0.37293500  0.16133000  1
  O  O72  1  0.59359100  0.24035000  0.99617100  1
  O  O73  1  0.74035000  0.90640900  0.99617100  1
  O  O74  1  0.25965000  0.09359100  0.99617100  1
  O  O75  1  0.90640900  0.74035000  0.00382900  1
  O  O76  1  0.09359100  0.25965000  0.00382900  1
  O  O77  1  0.40640900  0.75965000  0.99617100  1
  O  O78  1  0.24035000  0.59359100  0.00382900  1
  O  O79  1  0.75965000  0.40640900  0.00382900  1
  O  O80  1  0.90640900  0.25965000  0.00382900  1
  O  O81  1  0.75965000  0.59359100  0.00382900  1
  O  O82  1  0.24035000  0.40640900  0.00382900  1
  O  O83  1  0.59359100  0.75965000  0.99617100  1
  O  O84  1  0.40640900  0.24035000  0.99617100  1
  O  O85  1  0.09359100  0.74035000  0.00382900  1
  O  O86  1  0.25965000  0.90640900  0.99617100  1
  O  O87  1  0.74035000  0.09359100  0.99617100  1
  O  O88  1  0.50000000  0.18784900  0.80528200  1
  O  O89  1  0.68784900  0.00000000  0.80528200  1
  O  O90  1  0.31215100  0.00000000  0.80528200  1
  O  O91  1  0.00000000  0.68784900  0.19471800  1
  O  O92  1  0.00000000  0.31215100  0.19471800  1
  O  O93  1  0.50000000  0.81215100  0.80528200  1
  O  O94  1  0.18784900  0.50000000  0.19471800  1
  O  O95  1  0.81215100  0.50000000  0.19471800  1
  O  O96  1  0.16963400  0.16963400  0.50000000  1
  O  O97  1  0.66963400  0.33036600  0.50000000  1
  O  O98  1  0.33036600  0.66963400  0.50000000  1
  O  O99  1  0.83036600  0.83036600  0.50000000  1
  O  O100  1  0.33036600  0.33036600  0.50000000  1
  O  O101  1  0.83036600  0.16963400  0.50000000  1
  O  O102  1  0.16963400  0.83036600  0.50000000  1
  O  O103  1  0.66963400  0.66963400  0.50000000  1
  O  O104  1  0.11599600  0.24322400  0.28338000  1
  O  O105  1  0.74322400  0.38400400  0.28338000  1
  O  O106  1  0.25677600  0.61599600  0.28338000  1
  O  O107  1  0.38400400  0.74322400  0.71662000  1
  O  O108  1  0.61599600  0.25677600  0.71662000  1
  O  O109  1  0.88400400  0.75677600  0.28338000  1
  O  O110  1  0.24322400  0.11599600  0.71662000  1
  O  O111  1  0.75677600  0.88400400  0.71662000  1
  O  O112  1  0.38400400  0.25677600  0.71662000  1
  O  O113  1  0.75677600  0.11599600  0.71662000  1
  O  O114  1  0.24322400  0.88400400  0.71662000  1
  O  O115  1  0.11599600  0.75677600  0.28338000  1
  O  O116  1  0.88400400  0.24322400  0.28338000  1
  O  O117  1  0.61599600  0.74322400  0.71662000  1
  O  O118  1  0.25677600  0.38400400  0.28338000  1
  O  O119  1  0.74322400  0.61599600  0.28338000  1
  O  O120  1  0.19449800  0.12443200  0.23910700  1
  O  O121  1  0.62443200  0.30550200  0.23910700  1
  O  O122  1  0.37556800  0.69449800  0.23910700  1
  O  O123  1  0.30550200  0.62443200  0.76089300  1
  O  O124  1  0.69449800  0.37556800  0.76089300  1
  O  O125  1  0.80550200  0.87556800  0.23910700  1
  O  O126  1  0.12443200  0.19449800  0.76089300  1
  O  O127  1  0.87556800  0.80550200  0.76089300  1
  O  O128  1  0.30550200  0.37556800  0.76089300  1
  O  O129  1  0.87556800  0.19449800  0.76089300  1
  O  O130  1  0.12443200  0.80550200  0.76089300  1
  O  O131  1  0.19449800  0.87556800  0.23910700  1
  O  O132  1  0.80550200  0.12443200  0.23910700  1
  O  O133  1  0.69449800  0.62443200  0.76089300  1
  O  O134  1  0.37556800  0.30550200  0.23910700  1
  O  O135  1  0.62443200  0.69449800  0.23910700  1
  O  O136  1  0.25812900  0.24187100  0.32841200  1
  O  O137  1  0.74187100  0.24187100  0.32841200  1
  O  O138  1  0.25812900  0.75812900  0.32841200  1
  O  O139  1  0.24187100  0.74187100  0.67158800  1
  O  O140  1  0.75812900  0.25812900  0.67158800  1
  O  O141  1  0.74187100  0.75812900  0.32841200  1
  O  O142  1  0.24187100  0.25812900  0.67158800  1
  O  O143  1  0.75812900  0.74187100  0.67158800  1
