# generated using pymatgen
data_SiO2
_symmetry_space_group_name_H-M   'P 1'
_cell_length_a   16.81615328
_cell_length_b   16.81615328
_cell_length_c   16.81615328
_cell_angle_alpha   137.36097270
_cell_angle_beta   137.36097270
_cell_angle_gamma   61.88312179
_symmetry_Int_Tables_number   1
_chemical_formula_structural   SiO2
_chemical_formula_sum   'Si32 O64'
_cell_volume   2156.47267223
_cell_formula_units_Z   32
loop_
 _symmetry_equiv_pos_site_id
 _symmetry_equiv_pos_as_xyz
  1  'x, y, z'
loop_
 _atom_site_type_symbol
 _atom_site_label
 _atom_site_symmetry_multiplicity
 _atom_site_fract_x
 _atom_site_fract_y
 _atom_site_fract_z
 _atom_site_occupancy
  Si  Si0  1  0.05512300  0.87592500  0.82080200  1
  Si  Si1  1  0.87592500  0.05512300  0.82080200  1
  Si  Si2  1  0.23432100  0.05512300  0.17919800  1
  Si  Si3  1  0.94487700  0.76567900  0.82080200  1
  Si  Si4  1  0.94487700  0.12407500  0.17919800  1
  Si  Si5  1  0.05512300  0.23432100  0.17919800  1
  Si  Si6  1  0.76567900  0.94487700  0.82080200  1
  Si  Si7  1  0.12407500  0.94487700  0.17919800  1
  Si  Si8  1  0.00927700  0.82411500  0.43277800  1
  Si  Si9  1  0.82411500  0.39133700  0.81483800  1
  Si  Si10  1  0.57650000  0.00927700  0.18516200  1
  Si  Si11  1  0.99072300  0.42350000  0.81483800  1
  Si  Si12  1  0.60866300  0.17588500  0.18516200  1
  Si  Si13  1  0.39133700  0.57650000  0.56722200  1
  Si  Si14  1  0.42350000  0.60866300  0.43277800  1
  Si  Si15  1  0.17588500  0.99072300  0.56722200  1
  Si  Si16  1  0.99072300  0.17588500  0.56722200  1
  Si  Si17  1  0.17588500  0.60866300  0.18516200  1
  Si  Si18  1  0.42350000  0.99072300  0.81483800  1
  Si  Si19  1  0.00927700  0.57650000  0.18516200  1
  Si  Si20  1  0.39133700  0.82411500  0.81483800  1
  Si  Si21  1  0.60866300  0.42350000  0.43277800  1
  Si  Si22  1  0.57650000  0.39133700  0.56722200  1
  Si  Si23  1  0.82411500  0.00927700  0.43277800  1
  Si  Si24  1  0.12827200  0.75727800  0.62900600  1
  Si  Si25  1  0.75727800  0.12827200  0.62900600  1
  Si  Si26  1  0.49926600  0.12827200  0.37099400  1
  Si  Si27  1  0.87172800  0.50073400  0.62900600  1
  Si  Si28  1  0.87172800  0.24272200  0.37099400  1
  Si  Si29  1  0.12827200  0.49926600  0.37099400  1
  Si  Si30  1  0.50073400  0.87172800  0.62900600  1
  Si  Si31  1  0.24272200  0.87172800  0.37099400  1
  O  O32  1  0.08243800  0.78732400  0.70488500  1
  O  O33  1  0.78732400  0.08243800  0.70488500  1
  O  O34  1  0.37755300  0.08243800  0.29511500  1
  O  O35  1  0.91756200  0.62244700  0.70488500  1
  O  O36  1  0.91756200  0.21267600  0.29511500  1
  O  O37  1  0.08243800  0.37755300  0.29511500  1
  O  O38  1  0.62244700  0.91756200  0.70488500  1
  O  O39  1  0.21267600  0.91756200  0.29511500  1
  O  O40  1  0.00000000  0.79501300  0.79501300  1
  O  O41  1  0.79501300  0.00000000  0.79501300  1
  O  O42  1  0.20498700  0.00000000  0.20498700  1
  O  O43  1  0.00000000  0.20498700  0.20498700  1
  O  O44  1  0.95956300  0.95956300  0.78180300  1
  O  O45  1  0.95956300  0.17775900  0.00000000  1
  O  O46  1  0.17775900  0.95956300  0.00000000  1
  O  O47  1  0.04043700  0.82224100  0.00000000  1
  O  O48  1  0.82224100  0.04043700  0.00000000  1
  O  O49  1  0.17775900  0.17775900  0.21819700  1
  O  O50  1  0.82224100  0.82224100  0.78180300  1
  O  O51  1  0.04043700  0.04043700  0.21819700  1
  O  O52  1  0.12208000  0.87792000  0.50000000  1
  O  O53  1  0.87792000  0.37792000  0.75583900  1
  O  O54  1  0.62208000  0.12208000  0.24416100  1
  O  O55  1  0.37792000  0.62208000  0.50000000  1
  O  O56  1  0.87792000  0.12208000  0.50000000  1
  O  O57  1  0.12208000  0.62208000  0.24416100  1
  O  O58  1  0.37792000  0.87792000  0.75583900  1
  O  O59  1  0.62208000  0.37792000  0.50000000  1
  O  O60  1  0.05024000  0.81658000  0.54933500  1
  O  O61  1  0.81658000  0.26724500  0.76634000  1
  O  O62  1  0.50090600  0.05024000  0.23366000  1
  O  O63  1  0.94976000  0.49909400  0.76634000  1
  O  O64  1  0.73275500  0.18342000  0.23366000  1
  O  O65  1  0.26724500  0.50090600  0.45066500  1
  O  O66  1  0.49909400  0.73275500  0.54933500  1
  O  O67  1  0.18342000  0.94976000  0.45066500  1
  O  O68  1  0.94976000  0.18342000  0.45066500  1
  O  O69  1  0.18342000  0.73275500  0.23366000  1
  O  O70  1  0.49909400  0.94976000  0.76634000  1
  O  O71  1  0.05024000  0.50090600  0.23366000  1
  O  O72  1  0.26724500  0.81658000  0.76634000  1
  O  O73  1  0.73275500  0.49909400  0.54933500  1
  O  O74  1  0.50090600  0.26724500  0.45066500  1
  O  O75  1  0.81658000  0.05024000  0.54933500  1
  O  O76  1  0.95662300  0.69159200  0.26503100  1
  O  O77  1  0.69159200  0.42656000  0.73496900  1
  O  O78  1  0.69159200  0.95662300  0.26503100  1
  O  O79  1  0.04337700  0.30840800  0.73496900  1
  O  O80  1  0.57344000  0.30840800  0.26503100  1
  O  O81  1  0.42656000  0.69159200  0.73496900  1
  O  O82  1  0.30840800  0.57344000  0.26503100  1
  O  O83  1  0.30840800  0.04337700  0.73496900  1
  O  O84  1  0.90637500  0.90637500  0.41061900  1
  O  O85  1  0.90637500  0.49575600  0.00000000  1
  O  O86  1  0.49575600  0.90637500  0.00000000  1
  O  O87  1  0.09362500  0.50424400  0.00000000  1
  O  O88  1  0.50424400  0.09362500  0.00000000  1
  O  O89  1  0.49575600  0.49575600  0.58938100  1
  O  O90  1  0.50424400  0.50424400  0.41061900  1
  O  O91  1  0.09362500  0.09362500  0.58938100  1
  O  O92  1  0.11340700  0.61340700  0.50000000  1
  O  O93  1  0.61340700  0.11340700  0.50000000  1
  O  O94  1  0.88659300  0.38659300  0.50000000  1
  O  O95  1  0.38659300  0.88659300  0.50000000  1
