# generated using pymatgen
data_SiO2
_symmetry_space_group_name_H-M   'P 1'
_cell_length_a   13.04614500
_cell_length_b   13.04614500
_cell_length_c   25.71342500
_cell_angle_alpha   90.00000000
_cell_angle_beta   90.00000000
_cell_angle_gamma   90.00000000
_symmetry_Int_Tables_number   1
_chemical_formula_structural   SiO2
_chemical_formula_sum   'Si64 O128'
_cell_volume   4376.47377408
_cell_formula_units_Z   64
loop_
 _symmetry_equiv_pos_site_id
 _symmetry_equiv_pos_as_xyz
  1  'x, y, z'
loop_
 _atom_site_type_symbol
 _atom_site_label
 _atom_site_symmetry_multiplicity
 _atom_site_fract_x
 _atom_site_fract_y
 _atom_site_fract_z
 _atom_site_occupancy
  Si  Si0  1  0.30708600  0.24886900  0.90363300  1
  Si  Si1  1  0.75113100  0.30708600  0.40363300  1
  Si  Si2  1  0.24886900  0.69291400  0.40363300  1
  Si  Si3  1  0.30708600  0.75113100  0.09636700  1
  Si  Si4  1  0.69291400  0.24886900  0.09636700  1
  Si  Si5  1  0.69291400  0.75113100  0.90363300  1
  Si  Si6  1  0.24886900  0.30708600  0.59636700  1
  Si  Si7  1  0.75113100  0.69291400  0.59636700  1
  Si  Si8  1  0.69291400  0.75113100  0.09636700  1
  Si  Si9  1  0.24886900  0.69291400  0.59636700  1
  Si  Si10  1  0.75113100  0.30708600  0.59636700  1
  Si  Si11  1  0.69291400  0.24886900  0.90363300  1
  Si  Si12  1  0.30708600  0.75113100  0.90363300  1
  Si  Si13  1  0.30708600  0.24886900  0.09636700  1
  Si  Si14  1  0.75113100  0.69291400  0.40363300  1
  Si  Si15  1  0.24886900  0.30708600  0.40363300  1
  Si  Si16  1  0.11853600  0.11770200  0.06185100  1
  Si  Si17  1  0.88229800  0.11853600  0.56185100  1
  Si  Si18  1  0.11770200  0.88146400  0.56185100  1
  Si  Si19  1  0.11853600  0.88229800  0.93814900  1
  Si  Si20  1  0.88146400  0.11770200  0.93814900  1
  Si  Si21  1  0.88146400  0.88229800  0.06185100  1
  Si  Si22  1  0.11770200  0.11853600  0.43814900  1
  Si  Si23  1  0.88229800  0.88146400  0.43814900  1
  Si  Si24  1  0.88146400  0.88229800  0.93814900  1
  Si  Si25  1  0.11770200  0.88146400  0.43814900  1
  Si  Si26  1  0.88229800  0.11853600  0.43814900  1
  Si  Si27  1  0.88146400  0.11770200  0.06185100  1
  Si  Si28  1  0.11853600  0.88229800  0.06185100  1
  Si  Si29  1  0.11853600  0.11770200  0.93814900  1
  Si  Si30  1  0.88229800  0.88146400  0.56185100  1
  Si  Si31  1  0.11770200  0.11853600  0.56185100  1
  Si  Si32  1  0.37727600  0.38200300  0.18999400  1
  Si  Si33  1  0.61799700  0.37727600  0.68999400  1
  Si  Si34  1  0.38200300  0.62272400  0.68999400  1
  Si  Si35  1  0.37727600  0.61799700  0.81000600  1
  Si  Si36  1  0.62272400  0.38200300  0.81000600  1
  Si  Si37  1  0.62272400  0.61799700  0.18999400  1
  Si  Si38  1  0.38200300  0.37727600  0.31000600  1
  Si  Si39  1  0.61799700  0.62272400  0.31000600  1
  Si  Si40  1  0.62272400  0.61799700  0.81000600  1
  Si  Si41  1  0.38200300  0.62272400  0.31000600  1
  Si  Si42  1  0.61799700  0.37727600  0.31000600  1
  Si  Si43  1  0.62272400  0.38200300  0.18999400  1
  Si  Si44  1  0.37727600  0.61799700  0.18999400  1
  Si  Si45  1  0.37727600  0.38200300  0.81000600  1
  Si  Si46  1  0.61799700  0.62272400  0.68999400  1
  Si  Si47  1  0.38200300  0.37727600  0.68999400  1
  Si  Si48  1  0.50000000  0.12163000  0.06166700  1
  Si  Si49  1  0.87837000  0.50000000  0.56166700  1
  Si  Si50  1  0.12163000  0.50000000  0.56166700  1
  Si  Si51  1  0.50000000  0.87837000  0.93833300  1
  Si  Si52  1  0.50000000  0.12163000  0.93833300  1
  Si  Si53  1  0.50000000  0.87837000  0.06166700  1
  Si  Si54  1  0.12163000  0.50000000  0.43833300  1
  Si  Si55  1  0.87837000  0.50000000  0.43833300  1
  Si  Si56  1  0.37789200  0.37852600  0.00000000  1
  Si  Si57  1  0.62147400  0.37789200  0.50000000  1
  Si  Si58  1  0.37852600  0.62210800  0.50000000  1
  Si  Si59  1  0.37789200  0.62147400  0.00000000  1
  Si  Si60  1  0.62210800  0.37852600  0.00000000  1
  Si  Si61  1  0.62210800  0.62147400  0.00000000  1
  Si  Si62  1  0.37852600  0.37789200  0.50000000  1
  Si  Si63  1  0.62147400  0.62210800  0.50000000  1
  O  O64  1  0.14593800  0.12263800  0.00000000  1
  O  O65  1  0.87736200  0.14593800  0.50000000  1
  O  O66  1  0.12263800  0.85406200  0.50000000  1
  O  O67  1  0.14593800  0.87736200  0.00000000  1
  O  O68  1  0.85406200  0.12263800  0.00000000  1
  O  O69  1  0.85406200  0.87736200  0.00000000  1
  O  O70  1  0.12263800  0.14593800  0.50000000  1
  O  O71  1  0.87736200  0.85406200  0.50000000  1
  O  O72  1  0.13465600  0.00000000  0.08231500  1
  O  O73  1  0.00000000  0.13465600  0.58231500  1
  O  O74  1  0.00000000  0.86534400  0.58231500  1
  O  O75  1  0.13465600  0.00000000  0.91768500  1
  O  O76  1  0.86534400  0.00000000  0.91768500  1
  O  O77  1  0.86534400  0.00000000  0.08231500  1
  O  O78  1  0.00000000  0.13465600  0.41768500  1
  O  O79  1  0.00000000  0.86534400  0.41768500  1
  O  O80  1  0.00000000  0.15364800  0.07162100  1
  O  O81  1  0.84635200  0.00000000  0.57162100  1
  O  O82  1  0.15364800  0.00000000  0.57162100  1
  O  O83  1  0.00000000  0.84635200  0.92837900  1
  O  O84  1  0.00000000  0.15364800  0.92837900  1
  O  O85  1  0.00000000  0.84635200  0.07162100  1
  O  O86  1  0.15364800  0.00000000  0.42837900  1
  O  O87  1  0.84635200  0.00000000  0.42837900  1
  O  O88  1  0.19514200  0.19453800  0.09265900  1
  O  O89  1  0.80546200  0.19514200  0.59265900  1
  O  O90  1  0.19453800  0.80485800  0.59265900  1
  O  O91  1  0.19514200  0.80546200  0.90734100  1
  O  O92  1  0.80485800  0.19453800  0.90734100  1
  O  O93  1  0.80485800  0.80546200  0.09265900  1
  O  O94  1  0.19453800  0.19514200  0.40734100  1
  O  O95  1  0.80546200  0.80485800  0.40734100  1
  O  O96  1  0.80485800  0.80546200  0.90734100  1
  O  O97  1  0.19453800  0.80485800  0.40734100  1
  O  O98  1  0.80546200  0.19514200  0.40734100  1
  O  O99  1  0.80485800  0.19453800  0.09265900  1
  O  O100  1  0.19514200  0.80546200  0.09265900  1
  O  O101  1  0.19514200  0.19453800  0.90734100  1
  O  O102  1  0.80546200  0.80485800  0.59265900  1
  O  O103  1  0.19453800  0.19514200  0.59265900  1
  O  O104  1  0.39739200  0.16420000  0.90992800  1
  O  O105  1  0.83580000  0.39739200  0.40992800  1
  O  O106  1  0.16420000  0.60260800  0.40992800  1
  O  O107  1  0.39739200  0.83580000  0.09007200  1
  O  O108  1  0.60260800  0.16420000  0.09007200  1
  O  O109  1  0.60260800  0.83580000  0.90992800  1
  O  O110  1  0.16420000  0.39739200  0.59007200  1
  O  O111  1  0.83580000  0.60260800  0.59007200  1
  O  O112  1  0.60260800  0.83580000  0.09007200  1
  O  O113  1  0.16420000  0.60260800  0.59007200  1
  O  O114  1  0.83580000  0.39739200  0.59007200  1
  O  O115  1  0.60260800  0.16420000  0.90992800  1
  O  O116  1  0.39739200  0.83580000  0.90992800  1
  O  O117  1  0.39739200  0.16420000  0.09007200  1
  O  O118  1  0.83580000  0.60260800  0.40992800  1
  O  O119  1  0.16420000  0.39739200  0.40992800  1
  O  O120  1  0.32076900  0.33486100  0.94861600  1
  O  O121  1  0.66513900  0.32076900  0.44861600  1
  O  O122  1  0.33486100  0.67923100  0.44861600  1
  O  O123  1  0.32076900  0.66513900  0.05138400  1
  O  O124  1  0.67923100  0.33486100  0.05138400  1
  O  O125  1  0.67923100  0.66513900  0.94861600  1
  O  O126  1  0.33486100  0.32076900  0.55138400  1
  O  O127  1  0.66513900  0.67923100  0.55138400  1
  O  O128  1  0.67923100  0.66513900  0.05138400  1
  O  O129  1  0.33486100  0.67923100  0.55138400  1
  O  O130  1  0.66513900  0.32076900  0.55138400  1
  O  O131  1  0.67923100  0.33486100  0.94861600  1
  O  O132  1  0.32076900  0.66513900  0.94861600  1
  O  O133  1  0.32076900  0.33486100  0.05138400  1
  O  O134  1  0.66513900  0.67923100  0.44861600  1
  O  O135  1  0.33486100  0.32076900  0.44861600  1
  O  O136  1  0.31449800  0.30405500  0.84713400  1
  O  O137  1  0.69594500  0.31449800  0.34713400  1
  O  O138  1  0.30405500  0.68550200  0.34713400  1
  O  O139  1  0.31449800  0.69594500  0.15286600  1
  O  O140  1  0.68550200  0.30405500  0.15286600  1
  O  O141  1  0.68550200  0.69594500  0.84713400  1
  O  O142  1  0.30405500  0.31449800  0.65286600  1
  O  O143  1  0.69594500  0.68550200  0.65286600  1
  O  O144  1  0.68550200  0.69594500  0.15286600  1
  O  O145  1  0.30405500  0.68550200  0.65286600  1
  O  O146  1  0.69594500  0.31449800  0.65286600  1
  O  O147  1  0.68550200  0.30405500  0.84713400  1
  O  O148  1  0.31449800  0.69594500  0.84713400  1
  O  O149  1  0.31449800  0.30405500  0.15286600  1
  O  O150  1  0.69594500  0.68550200  0.34713400  1
  O  O151  1  0.30405500  0.31449800  0.34713400  1
  O  O152  1  0.50000000  0.00000000  0.06764400  1
  O  O153  1  0.00000000  0.50000000  0.56764400  1
  O  O154  1  0.50000000  0.00000000  0.93235600  1
  O  O155  1  0.00000000  0.50000000  0.43235600  1
  O  O156  1  0.50000000  0.14939200  0.00000000  1
  O  O157  1  0.85060800  0.50000000  0.50000000  1
  O  O158  1  0.14939200  0.50000000  0.50000000  1
  O  O159  1  0.50000000  0.85060800  0.00000000  1
  O  O160  1  0.50000000  0.35278800  0.00000000  1
  O  O161  1  0.64721200  0.50000000  0.50000000  1
  O  O162  1  0.35278800  0.50000000  0.50000000  1
  O  O163  1  0.50000000  0.64721200  0.00000000  1
  O  O164  1  0.36453000  0.50000000  0.00000000  1
  O  O165  1  0.50000000  0.36453000  0.50000000  1
  O  O166  1  0.50000000  0.63547000  0.50000000  1
  O  O167  1  0.63547000  0.50000000  0.00000000  1
  O  O168  1  0.35141100  0.35141100  0.25000000  1
  O  O169  1  0.64858900  0.35141100  0.75000000  1
  O  O170  1  0.35141100  0.64858900  0.75000000  1
  O  O171  1  0.64858900  0.64858900  0.25000000  1
  O  O172  1  0.64858900  0.64858900  0.75000000  1
  O  O173  1  0.35141100  0.64858900  0.25000000  1
  O  O174  1  0.64858900  0.35141100  0.25000000  1
  O  O175  1  0.35141100  0.35141100  0.75000000  1
  O  O176  1  0.50000000  0.37159300  0.17878700  1
  O  O177  1  0.62840700  0.50000000  0.67878700  1
  O  O178  1  0.37159300  0.50000000  0.67878700  1
  O  O179  1  0.50000000  0.62840700  0.82121300  1
  O  O180  1  0.50000000  0.37159300  0.82121300  1
  O  O181  1  0.50000000  0.62840700  0.17878700  1
  O  O182  1  0.37159300  0.50000000  0.32121300  1
  O  O183  1  0.62840700  0.50000000  0.32121300  1
  O  O184  1  0.34163700  0.50000000  0.17857400  1
  O  O185  1  0.50000000  0.34163700  0.67857400  1
  O  O186  1  0.50000000  0.65836300  0.67857400  1
  O  O187  1  0.34163700  0.50000000  0.82142600  1
  O  O188  1  0.65836300  0.50000000  0.82142600  1
  O  O189  1  0.65836300  0.50000000  0.17857400  1
  O  O190  1  0.50000000  0.34163700  0.32142600  1
  O  O191  1  0.50000000  0.65836300  0.32142600  1
