# generated using pymatgen
data_Mo2H26C8N2O5F6
_symmetry_space_group_name_H-M   'P 1'
_cell_length_a   11.00594600
_cell_length_b   12.14028000
_cell_length_c   14.09209800
_cell_angle_alpha   90.00000000
_cell_angle_beta   90.00000000
_cell_angle_gamma   90.00000000
_symmetry_Int_Tables_number   1
_chemical_formula_structural   Mo2H26C8N2O5F6
_chemical_formula_sum   'Mo8 H104 C32 N8 O20 F24'
_cell_volume   1882.91942425
_cell_formula_units_Z   4
loop_
 _symmetry_equiv_pos_site_id
 _symmetry_equiv_pos_as_xyz
  1  'x, y, z'
loop_
 _atom_site_type_symbol
 _atom_site_label
 _atom_site_symmetry_multiplicity
 _atom_site_fract_x
 _atom_site_fract_y
 _atom_site_fract_z
 _atom_site_occupancy
  Mo  Mo0  1  0.45399500  0.25376400  0.78286700  1
  Mo  Mo1  1  0.04600500  0.75376400  0.78286700  1
  Mo  Mo2  1  0.07379900  0.24546300  0.71824100  1
  Mo  Mo3  1  0.57379900  0.24546300  0.28175900  1
  Mo  Mo4  1  0.92620100  0.74546300  0.28175900  1
  Mo  Mo5  1  0.95399500  0.25376400  0.21713300  1
  Mo  Mo6  1  0.42620100  0.74546300  0.71824100  1
  Mo  Mo7  1  0.54600500  0.75376400  0.21713300  1
  H  H8  1  0.91148600  0.11696800  0.52663600  1
  H  H9  1  0.14425300  0.04956600  0.34007600  1
  H  H10  1  0.62613600  0.48535900  0.26147400  1
  H  H11  1  0.27889400  0.37079900  0.14671600  1
  H  H12  1  0.37964300  0.12036400  0.06924300  1
  H  H13  1  0.38639900  0.51559700  0.93634900  1
  H  H14  1  0.78540600  0.38828300  0.44474600  1
  H  H15  1  0.62790000  0.47627600  0.06416400  1
  H  H16  1  0.89198300  0.62114200  0.97386500  1
  H  H17  1  0.23772800  0.61558900  0.15763400  1
  H  H18  1  0.62511100  0.36894400  0.55586700  1
  H  H19  1  0.39556800  0.47569100  0.14961400  1
  H  H20  1  0.89729300  0.00982200  0.43836800  1
  H  H21  1  0.11360100  0.01559700  0.93634900  1
  H  H22  1  0.61423000  0.38262100  0.96470200  1
  H  H23  1  0.22110600  0.87079900  0.14671600  1
  H  H24  1  0.37210000  0.97627600  0.93583600  1
  H  H25  1  0.09771000  0.47252000  0.35543000  1
  H  H26  1  0.60824900  0.87550300  0.94488200  1
  H  H27  1  0.73086800  0.38604300  0.65175900  1
  H  H28  1  0.26617000  0.86504900  0.95054200  1
  H  H29  1  0.89556800  0.47569100  0.85038600  1
  H  H30  1  0.89817800  0.41460600  0.53423800  1
  H  H31  1  0.87714800  0.01033800  0.84571300  1
  H  H32  1  0.39175100  0.37550300  0.05511800  1
  H  H33  1  0.35173400  0.64846100  0.43485600  1
  H  H34  1  0.72744800  0.12035700  0.06126000  1
  H  H35  1  0.12717600  0.01243600  0.56071100  1
  H  H36  1  0.20319000  0.62642500  0.56356000  1
  H  H37  1  0.12285200  0.51033800  0.15428700  1
  H  H38  1  0.85173400  0.64846100  0.56514400  1
  H  H39  1  0.26913200  0.88604300  0.34824100  1
  H  H40  1  0.76617000  0.86504900  0.04945800  1
  H  H41  1  0.62285200  0.51033800  0.84571300  1
  H  H42  1  0.23383000  0.36504900  0.95054200  1
  H  H43  1  0.40229000  0.97252000  0.35543000  1
  H  H44  1  0.12613600  0.48535900  0.73852600  1
  H  H45  1  0.61360100  0.01559700  0.06365100  1
  H  H46  1  0.71459400  0.88828300  0.44474600  1
  H  H47  1  0.10824900  0.87550300  0.05511800  1
  H  H48  1  0.58851400  0.61696800  0.52663600  1
  H  H49  1  0.64826600  0.14846100  0.56514400  1
  H  H50  1  0.87386400  0.98535900  0.26147400  1
  H  H51  1  0.37386400  0.98535900  0.73852600  1
  H  H52  1  0.62035700  0.62036400  0.93075700  1
  H  H53  1  0.59771000  0.47252000  0.64457000  1
  H  H54  1  0.73772800  0.61558900  0.84236600  1
  H  H55  1  0.88577000  0.88262100  0.96470200  1
  H  H56  1  0.90229000  0.97252000  0.64457000  1
  H  H57  1  0.37714800  0.01033800  0.15428700  1
  H  H58  1  0.35574700  0.54956600  0.34007600  1
  H  H59  1  0.25295000  0.41811800  0.75454500  1
  H  H60  1  0.28540600  0.38828300  0.55525400  1
  H  H61  1  0.38577000  0.88262100  0.03529800  1
  H  H62  1  0.12035700  0.62036400  0.06924300  1
  H  H63  1  0.10270700  0.50982200  0.56163200  1
  H  H64  1  0.74705000  0.91811800  0.24545500  1
  H  H65  1  0.12790000  0.47627600  0.93583600  1
  H  H66  1  0.23086800  0.38604300  0.34824100  1
  H  H67  1  0.10443200  0.97569100  0.14961400  1
  H  H68  1  0.14826600  0.14846100  0.43485600  1
  H  H69  1  0.62717600  0.01243600  0.43928900  1
  H  H70  1  0.27355000  0.13975600  0.35379500  1
  H  H71  1  0.60182200  0.91460600  0.53423800  1
  H  H72  1  0.77355000  0.13975600  0.64620500  1
  H  H73  1  0.10182200  0.91460600  0.46576200  1
  H  H74  1  0.12511100  0.36894400  0.44413300  1
  H  H75  1  0.27255200  0.62035700  0.93874000  1
  H  H76  1  0.39817800  0.41460600  0.46576200  1
  H  H77  1  0.08851400  0.61696800  0.47336400  1
  H  H78  1  0.60443200  0.97569100  0.85038600  1
  H  H79  1  0.22645000  0.63975600  0.35379500  1
  H  H80  1  0.72645000  0.63975600  0.64620500  1
  H  H81  1  0.87488900  0.86894400  0.55586700  1
  H  H82  1  0.39729300  0.00982200  0.56163200  1
  H  H83  1  0.85574700  0.54956600  0.65992400  1
  H  H84  1  0.60270700  0.50982200  0.43836800  1
  H  H85  1  0.10801700  0.12114200  0.02613500  1
  H  H86  1  0.70319000  0.62642500  0.43644000  1
  H  H87  1  0.37488900  0.86894400  0.44413300  1
  H  H88  1  0.75295000  0.41811800  0.24545500  1
  H  H89  1  0.73383000  0.36504900  0.04945800  1
  H  H90  1  0.77255200  0.62035700  0.06126000  1
  H  H91  1  0.87210000  0.97627600  0.06416400  1
  H  H92  1  0.76227200  0.11558900  0.84236600  1
  H  H93  1  0.24705000  0.91811800  0.75454500  1
  H  H94  1  0.79681000  0.12642500  0.43644000  1
  H  H95  1  0.29681000  0.12642500  0.56356000  1
  H  H96  1  0.88639900  0.51559700  0.06365100  1
  H  H97  1  0.64425300  0.04956600  0.65992400  1
  H  H98  1  0.37282400  0.51243600  0.56071100  1
  H  H99  1  0.60801700  0.12114200  0.97386500  1
  H  H100  1  0.22744800  0.12035700  0.93874000  1
  H  H101  1  0.41148600  0.11696800  0.47336400  1
  H  H102  1  0.21459400  0.88828300  0.55525400  1
  H  H103  1  0.89175100  0.37550300  0.94488200  1
  H  H104  1  0.72110600  0.87079900  0.85328400  1
  H  H105  1  0.26227200  0.11558900  0.15763400  1
  H  H106  1  0.87282400  0.51243600  0.43928900  1
  H  H107  1  0.11423000  0.38262100  0.03529800  1
  H  H108  1  0.87964300  0.12036400  0.93075700  1
  H  H109  1  0.76913200  0.88604300  0.65175900  1
  H  H110  1  0.39198300  0.62114200  0.02613500  1
  H  H111  1  0.77889400  0.37079900  0.85328400  1
  C  C112  1  0.16746000  0.42827200  0.39586000  1
  C  C113  1  0.83253100  0.56947100  0.01751000  1
  C  C114  1  0.15114700  0.57038000  0.51839400  1
  C  C115  1  0.66746900  0.06947100  0.01751000  1
  C  C116  1  0.83089100  0.45188100  0.48673700  1
  C  C117  1  0.16271300  0.92483000  0.10432700  1
  C  C118  1  0.29739700  0.59298200  0.39069500  1
  C  C119  1  0.17874000  0.56628800  0.11155700  1
  C  C120  1  0.16746900  0.06947100  0.98249000  1
  C  C121  1  0.16910900  0.95188100  0.51326300  1
  C  C122  1  0.33254000  0.92827200  0.39586000  1
  C  C123  1  0.32335000  0.92522700  0.98721900  1
  C  C124  1  0.70260300  0.09298200  0.60930500  1
  C  C125  1  0.83254000  0.92827200  0.60414000  1
  C  C126  1  0.67874000  0.56628800  0.88844300  1
  C  C127  1  0.65114700  0.57038000  0.48160600  1
  C  C128  1  0.84885300  0.07038000  0.48160600  1
  C  C129  1  0.32126000  0.06628800  0.11155700  1
  C  C130  1  0.33253100  0.56947100  0.98249000  1
  C  C131  1  0.82335000  0.92522700  0.01278100  1
  C  C132  1  0.66271300  0.92483000  0.89567300  1
  C  C133  1  0.66910900  0.95188100  0.48673700  1
  C  C134  1  0.33089100  0.45188100  0.51326300  1
  C  C135  1  0.20260300  0.09298200  0.39069500  1
  C  C136  1  0.34885300  0.07038000  0.51839400  1
  C  C137  1  0.33728700  0.42483000  0.10432700  1
  C  C138  1  0.67665000  0.42522700  0.01278100  1
  C  C139  1  0.17665000  0.42522700  0.98721900  1
  C  C140  1  0.79739700  0.59298200  0.60930500  1
  C  C141  1  0.83728700  0.42483000  0.89567300  1
  C  C142  1  0.66746000  0.42827200  0.60414000  1
  C  C143  1  0.82126000  0.06628800  0.88844300  1
  N  N144  1  0.74348300  0.99801700  0.95362100  1
  N  N145  1  0.25651700  0.49801700  0.04637900  1
  N  N146  1  0.73717400  0.51026400  0.54576300  1
  N  N147  1  0.24348300  0.99801700  0.04637900  1
  N  N148  1  0.26282600  0.01026400  0.45423700  1
  N  N149  1  0.76282600  0.01026400  0.54576300  1
  N  N150  1  0.23717400  0.51026400  0.45423700  1
  N  N151  1  0.75651700  0.49801700  0.95362100  1
  O  O152  1  0.97114500  0.60949300  0.29178800  1
  O  O153  1  0.39175900  0.76922600  0.19749500  1
  O  O154  1  0.44239200  0.31859200  0.30713200  1
  O  O155  1  0.55760800  0.81859200  0.69286800  1
  O  O156  1  0.10248100  0.88762300  0.79733500  1
  O  O157  1  0.83000500  0.91468200  0.27313900  1
  O  O158  1  0.52885500  0.10949300  0.29178800  1
  O  O159  1  0.10824100  0.26922600  0.19749500  1
  O  O160  1  0.47114500  0.60949300  0.70821200  1
  O  O161  1  0.60824100  0.26922600  0.80250500  1
  O  O162  1  0.05760800  0.81859200  0.30713200  1
  O  O163  1  0.33000500  0.91468200  0.72686100  1
  O  O164  1  0.89751900  0.38762300  0.20266500  1
  O  O165  1  0.60248100  0.88762300  0.20266500  1
  O  O166  1  0.94239200  0.31859200  0.69286800  1
  O  O167  1  0.89175900  0.76922600  0.80250500  1
  O  O168  1  0.66999500  0.41468200  0.27313900  1
  O  O169  1  0.39751900  0.38762300  0.79733500  1
  O  O170  1  0.16999500  0.41468200  0.72686100  1
  O  O171  1  0.02885500  0.10949300  0.70821200  1
  F  F172  1  0.14294800  0.25417100  0.59034100  1
  F  F173  1  0.24217700  0.70841700  0.75390800  1
  F  F174  1  0.06202800  0.25719900  0.85558100  1
  F  F175  1  0.03833500  0.58606200  0.76237600  1
  F  F176  1  0.08986000  0.70785800  0.91166000  1
  F  F177  1  0.75782300  0.20841700  0.24609200  1
  F  F178  1  0.85705200  0.75417100  0.40965900  1
  F  F179  1  0.46166500  0.08606200  0.76237600  1
  F  F180  1  0.74217700  0.70841700  0.24609200  1
  F  F181  1  0.45714800  0.25574400  0.64553000  1
  F  F182  1  0.58986000  0.70785800  0.08834000  1
  F  F183  1  0.91014000  0.20785800  0.08834000  1
  F  F184  1  0.43797200  0.75719900  0.85558100  1
  F  F185  1  0.25782300  0.20841700  0.75390800  1
  F  F186  1  0.35705200  0.75417100  0.59034100  1
  F  F187  1  0.64294800  0.25417100  0.40965900  1
  F  F188  1  0.96166500  0.08606200  0.23762400  1
  F  F189  1  0.95714800  0.25574400  0.35447000  1
  F  F190  1  0.41014000  0.20785800  0.91166000  1
  F  F191  1  0.54285200  0.75574400  0.35447000  1
  F  F192  1  0.56202800  0.25719900  0.14441900  1
  F  F193  1  0.93797200  0.75719900  0.14441900  1
  F  F194  1  0.53833500  0.58606200  0.23762400  1
  F  F195  1  0.04285200  0.75574400  0.64553000  1
