# generated using pymatgen
data_CoHCO3
_symmetry_space_group_name_H-M   'P 1'
_cell_length_a   7.37125307
_cell_length_b   7.37125307
_cell_length_c   7.37125222
_cell_angle_alpha   95.53130633
_cell_angle_beta   95.53130633
_cell_angle_gamma   95.53130715
_symmetry_Int_Tables_number   1
_chemical_formula_structural   CoHCO3
_chemical_formula_sum   'Co6 H6 C6 O18'
_cell_volume   394.53450391
_cell_formula_units_Z   6
loop_
 _symmetry_equiv_pos_site_id
 _symmetry_equiv_pos_as_xyz
  1  'x, y, z'
loop_
 _atom_site_type_symbol
 _atom_site_label
 _atom_site_symmetry_multiplicity
 _atom_site_fract_x
 _atom_site_fract_y
 _atom_site_fract_z
 _atom_site_occupancy
  Co  Co0  1  0.47673400  0.21407900  0.56473500  1
  Co  Co1  1  0.52326600  0.78592100  0.43526500  1
  Co  Co2  1  0.56473500  0.47673400  0.21407900  1
  Co  Co3  1  0.21407900  0.56473500  0.47673400  1
  Co  Co4  1  0.43526500  0.52326600  0.78592100  1
  Co  Co5  1  0.78592100  0.43526500  0.52326600  1
  H  H6  1  0.08754100  0.04054100  0.34649300  1
  H  H7  1  0.91245900  0.95945900  0.65350700  1
  H  H8  1  0.04054100  0.34649300  0.08754100  1
  H  H9  1  0.65350700  0.91245900  0.95945900  1
  H  H10  1  0.34649300  0.08754100  0.04054100  1
  H  H11  1  0.95945900  0.65350700  0.91245900  1
  C  C12  1  0.93097800  0.38089400  0.17219900  1
  C  C13  1  0.06902200  0.61910600  0.82780100  1
  C  C14  1  0.61910600  0.82780100  0.06902200  1
  C  C15  1  0.38089400  0.17219900  0.93097800  1
  C  C16  1  0.82780100  0.06902200  0.61910600  1
  C  C17  1  0.17219900  0.93097800  0.38089400  1
  O  O18  1  0.61809900  0.90596900  0.22730800  1
  O  O19  1  0.77269200  0.38190100  0.09403100  1
  O  O20  1  0.40609000  0.70332200  0.62823700  1
  O  O21  1  0.37176300  0.59391000  0.29667800  1
  O  O22  1  0.09403100  0.77269200  0.38190100  1
  O  O23  1  0.97857700  0.41504100  0.34553900  1
  O  O24  1  0.38190100  0.09403100  0.77269200  1
  O  O25  1  0.59391000  0.29667800  0.37176300  1
  O  O26  1  0.41504100  0.34553900  0.97857700  1
  O  O27  1  0.22730800  0.61809900  0.90596900  1
  O  O28  1  0.29667800  0.37176300  0.59391000  1
  O  O29  1  0.62823700  0.40609000  0.70332200  1
  O  O30  1  0.70332200  0.62823700  0.40609000  1
  O  O31  1  0.90596900  0.22730800  0.61809900  1
  O  O32  1  0.34553900  0.97857700  0.41504100  1
  O  O33  1  0.65446100  0.02142300  0.58495900  1
  O  O34  1  0.58495900  0.65446100  0.02142300  1
  O  O35  1  0.02142300  0.58495900  0.65446100  1
