# generated using pymatgen
data_B5H15C3N
_symmetry_space_group_name_H-M   'P 1'
_cell_length_a   16.96814300
_cell_length_b   8.56771000
_cell_length_c   12.22476881
_cell_angle_alpha   79.29704009
_cell_angle_beta   90.00000000
_cell_angle_gamma   90.00000000
_symmetry_Int_Tables_number   1
_chemical_formula_structural   B5H15C3N
_chemical_formula_sum   'B40 H120 C24 N8'
_cell_volume   1746.29618077
_cell_formula_units_Z   8
loop_
 _symmetry_equiv_pos_site_id
 _symmetry_equiv_pos_as_xyz
  1  'x, y, z'
loop_
 _atom_site_type_symbol
 _atom_site_label
 _atom_site_symmetry_multiplicity
 _atom_site_fract_x
 _atom_site_fract_y
 _atom_site_fract_z
 _atom_site_occupancy
  B  B0  1  0.16867500  0.15396000  0.64210000  1
  B  B1  1  0.80786400  0.86772500  0.20932800  1
  B  B2  1  0.43597700  0.12882300  0.17622000  1
  B  B3  1  0.36571200  0.00083200  0.23940000  1
  B  B4  1  0.86571200  0.99916800  0.26060000  1
  B  B5  1  0.19368000  0.32521300  0.70183300  1
  B  B6  1  0.86350600  0.70700600  0.16977100  1
  B  B7  1  0.80632000  0.67478700  0.29816700  1
  B  B8  1  0.93597700  0.87117700  0.32378000  1
  B  B9  1  0.36350600  0.29299400  0.33022900  1
  B  B10  1  0.95481700  0.70951100  0.25052700  1
  B  B11  1  0.61342900  0.56209700  0.78026900  1
  B  B12  1  0.60303800  0.67706700  0.87957300  1
  B  B13  1  0.33132500  0.15396000  0.14210000  1
  B  B14  1  0.45481700  0.29048900  0.24947300  1
  B  B15  1  0.58763000  0.89192900  0.67516500  1
  B  B16  1  0.66867500  0.84604000  0.85790000  1
  B  B17  1  0.63428800  0.99916800  0.76060000  1
  B  B18  1  0.91237000  0.89192900  0.17516500  1
  B  B19  1  0.06402300  0.12882300  0.67622000  1
  B  B20  1  0.38657100  0.43790300  0.21973100  1
  B  B21  1  0.39696200  0.32293300  0.12042700  1
  B  B22  1  0.83132500  0.84604000  0.35790000  1
  B  B23  1  0.89696200  0.67706700  0.37957300  1
  B  B24  1  0.54518300  0.70951100  0.75052700  1
  B  B25  1  0.69368000  0.67478700  0.79816700  1
  B  B26  1  0.63649400  0.70700600  0.66977100  1
  B  B27  1  0.88657100  0.56209700  0.28026900  1
  B  B28  1  0.04518300  0.29048900  0.74947300  1
  B  B29  1  0.30632000  0.32521300  0.20183300  1
  B  B30  1  0.10303800  0.32293300  0.62042700  1
  B  B31  1  0.41237000  0.10807100  0.32483500  1
  B  B32  1  0.30786400  0.13227500  0.29067200  1
  B  B33  1  0.19213600  0.13227500  0.79067200  1
  B  B34  1  0.11342900  0.43790300  0.71973100  1
  B  B35  1  0.69213600  0.86772500  0.70932800  1
  B  B36  1  0.08763000  0.10807100  0.82483500  1
  B  B37  1  0.13649400  0.29299400  0.83022900  1
  B  B38  1  0.56402300  0.87117700  0.82378000  1
  B  B39  1  0.13428800  0.00083200  0.73940000  1
  H  H40  1  0.83886200  0.84621000  0.85511300  1
  H  H41  1  0.72790000  0.48834200  0.56921500  1
  H  H42  1  0.41546700  0.04684800  0.58855900  1
  H  H43  1  0.00283300  0.27117800  0.03605300  1
  H  H44  1  0.89208300  0.42122000  0.28452100  1
  H  H45  1  0.87599600  0.68101900  0.71513000  1
  H  H46  1  0.88524700  0.01449800  0.76922000  1
  H  H47  1  0.07741500  0.15224200  0.37017500  1
  H  H48  1  0.85037400  0.67675200  0.07919000  1
  H  H49  1  0.11475300  0.98550200  0.23078000  1
  H  H50  1  0.52608800  0.39245100  0.63614100  1
  H  H51  1  0.92689900  0.60129800  0.91654300  1
  H  H52  1  0.24210700  0.69110000  0.33802900  1
  H  H53  1  0.35037400  0.32324800  0.42081000  1
  H  H54  1  0.47808900  0.67824900  0.72949200  1
  H  H55  1  0.91546700  0.95315200  0.91144100  1
  H  H56  1  0.67995000  0.34524500  0.43717800  1
  H  H57  1  0.75789300  0.30890000  0.66197100  1
  H  H58  1  0.22790000  0.51165800  0.93078500  1
  H  H59  1  0.41229700  0.71912600  0.94742900  1
  H  H60  1  0.99467300  0.12067500  0.22056300  1
  H  H61  1  0.31599800  0.57903300  0.06823000  1
  H  H62  1  0.70635800  0.15541100  0.51905200  1
  H  H63  1  0.62400400  0.68101900  0.21513000  1
  H  H64  1  0.17228200  0.53520000  0.38469700  1
  H  H65  1  0.33886200  0.15379000  0.64488700  1
  H  H66  1  0.49467300  0.87932500  0.27943700  1
  H  H67  1  0.25098700  0.08875300  0.84231400  1
  H  H68  1  0.66113800  0.84621000  0.35511300  1
  H  H69  1  0.48927200  0.07861500  0.12718200  1
  H  H70  1  0.82771800  0.46480000  0.61530300  1
  H  H71  1  0.14048100  0.85967200  0.74558200  1
  H  H72  1  0.14962600  0.32324800  0.92081000  1
  H  H73  1  0.18400200  0.57903300  0.56823000  1
  H  H74  1  0.88018700  0.16828300  0.44953300  1
  H  H75  1  0.74238700  0.21051300  0.37903300  1
  H  H76  1  0.42258500  0.15224200  0.87017500  1
  H  H77  1  0.61981300  0.16828300  0.94953300  1
  H  H78  1  0.74210700  0.30890000  0.16197100  1
  H  H79  1  0.50283300  0.72882200  0.46394700  1
  H  H80  1  0.08738100  0.37932900  0.52531400  1
  H  H81  1  0.08453300  0.04684800  0.08855900  1
  H  H82  1  0.05400400  0.04104200  0.90733800  1
  H  H83  1  0.61475300  0.01449800  0.26922000  1
  H  H84  1  0.52191100  0.32175100  0.27050800  1
  H  H85  1  0.79358100  0.87225800  0.43572800  1
  H  H86  1  0.29358100  0.12774200  0.06427200  1
  H  H87  1  0.24289500  0.38765900  0.17928200  1
  H  H88  1  0.24238700  0.78948700  0.12096700  1
  H  H89  1  0.74289500  0.61234100  0.32071800  1
  H  H90  1  0.91229700  0.28087400  0.55257100  1
  H  H91  1  0.79364200  0.15541100  0.01905200  1
  H  H92  1  0.64048100  0.14032800  0.75441800  1
  H  H93  1  0.98927200  0.92138500  0.37281800  1
  H  H94  1  0.51072800  0.92138500  0.87281800  1
  H  H95  1  0.02203200  0.33058300  0.32322900  1
  H  H96  1  0.34353900  0.87968200  0.91029000  1
  H  H97  1  0.84353900  0.12031800  0.58971000  1
  H  H98  1  0.41261900  0.37932900  0.02531400  1
  H  H99  1  0.15646100  0.87968200  0.41029000  1
  H  H100  1  0.65646100  0.12031800  0.08971000  1
  H  H101  1  0.44599600  0.04104200  0.40733800  1
  H  H102  1  0.75098700  0.91124700  0.65768600  1
  H  H103  1  0.94599600  0.95895800  0.09266200  1
  H  H104  1  0.25761300  0.78948700  0.62096700  1
  H  H105  1  0.10791700  0.57878000  0.71547900  1
  H  H106  1  0.20641900  0.12774200  0.56427200  1
  H  H107  1  0.17995000  0.65475500  0.06282200  1
  H  H108  1  0.70641900  0.87225800  0.93572800  1
  H  H109  1  0.01072800  0.07861500  0.62718200  1
  H  H110  1  0.52203200  0.66941700  0.17677100  1
  H  H111  1  0.02191100  0.67824900  0.22949200  1
  H  H112  1  0.58738100  0.62067100  0.97468600  1
  H  H113  1  0.37599600  0.31898100  0.78487000  1
  H  H114  1  0.57741500  0.84775800  0.12982500  1
  H  H115  1  0.58770300  0.28087400  0.05257100  1
  H  H116  1  0.38524700  0.98550200  0.73078000  1
  H  H117  1  0.97808900  0.32175100  0.77050800  1
  H  H118  1  0.97391200  0.39245100  0.13614100  1
  H  H119  1  0.25789300  0.69110000  0.83802900  1
  H  H120  1  0.50532700  0.12067500  0.72056300  1
  H  H121  1  0.60791700  0.42122000  0.78452100  1
  H  H122  1  0.16113800  0.15379000  0.14488700  1
  H  H123  1  0.38018700  0.83171700  0.05046700  1
  H  H124  1  0.75761300  0.21051300  0.87903300  1
  H  H125  1  0.27210000  0.51165800  0.43078500  1
  H  H126  1  0.81599800  0.42096700  0.43177000  1
  H  H127  1  0.55400400  0.95895800  0.59266200  1
  H  H128  1  0.42689900  0.39870200  0.58345700  1
  H  H129  1  0.82005000  0.34524500  0.93717800  1
  H  H130  1  0.24901300  0.08875300  0.34231400  1
  H  H131  1  0.77210000  0.48834200  0.06921500  1
  H  H132  1  0.97796800  0.66941700  0.67677100  1
  H  H133  1  0.67228200  0.46480000  0.11530300  1
  H  H134  1  0.29364200  0.84458900  0.48094800  1
  H  H135  1  0.25710500  0.38765900  0.67928200  1
  H  H136  1  0.58453300  0.95315200  0.41144100  1
  H  H137  1  0.20635800  0.84458900  0.98094800  1
  H  H138  1  0.57310100  0.60129800  0.41654300  1
  H  H139  1  0.75710500  0.61234100  0.82071800  1
  H  H140  1  0.12400400  0.31898100  0.28487000  1
  H  H141  1  0.92258500  0.84775800  0.62982500  1
  H  H142  1  0.32771800  0.53520000  0.88469700  1
  H  H143  1  0.64962600  0.67675200  0.57919000  1
  H  H144  1  0.68400200  0.42096700  0.93177000  1
  H  H145  1  0.02608800  0.60754900  0.86385900  1
  H  H146  1  0.35951900  0.85967200  0.24558200  1
  H  H147  1  0.47391200  0.60754900  0.36385900  1
  H  H148  1  0.74901300  0.91124700  0.15768600  1
  H  H149  1  0.49716700  0.27117800  0.53605300  1
  H  H150  1  0.32005000  0.65475500  0.56282200  1
  H  H151  1  0.07310100  0.39870200  0.08345700  1
  H  H152  1  0.99716700  0.72882200  0.96394700  1
  H  H153  1  0.39208300  0.57878000  0.21547900  1
  H  H154  1  0.85951900  0.14032800  0.25441800  1
  H  H155  1  0.47796800  0.33058300  0.82322900  1
  H  H156  1  0.08770300  0.71912600  0.44742900  1
  H  H157  1  0.00532700  0.87932500  0.77943700  1
  H  H158  1  0.91261900  0.62067100  0.47468600  1
  H  H159  1  0.11981300  0.83171700  0.55046700  1
  C  C160  1  0.72592100  0.25424100  0.45433500  1
  C  C161  1  0.60614200  0.91274100  0.33688600  1
  C  C162  1  0.47852500  0.32351200  0.60716700  1
  C  C163  1  0.39385800  0.08725900  0.66311400  1
  C  C164  1  0.36340500  0.78371400  0.97688400  1
  C  C165  1  0.72435500  0.40284100  0.09273600  1
  C  C166  1  0.56872500  0.74683500  0.19814900  1
  C  C167  1  0.86340500  0.21628600  0.52311600  1
  C  C168  1  0.27564500  0.59715900  0.90726400  1
  C  C169  1  0.43127500  0.25316500  0.80185100  1
  C  C170  1  0.06872500  0.25316500  0.30185100  1
  C  C171  1  0.02147500  0.32351200  0.10716700  1
  C  C172  1  0.22435500  0.59715900  0.40726400  1
  C  C173  1  0.97852500  0.67648800  0.89283300  1
  C  C174  1  0.77407900  0.25424100  0.95433500  1
  C  C175  1  0.93127500  0.74683500  0.69814900  1
  C  C176  1  0.77564500  0.40284100  0.59273600  1
  C  C177  1  0.89385800  0.91274100  0.83688600  1
  C  C178  1  0.27407900  0.74575900  0.54566500  1
  C  C179  1  0.63659500  0.21628600  0.02311600  1
  C  C180  1  0.22592100  0.74575900  0.04566500  1
  C  C181  1  0.52147500  0.67648800  0.39283300  1
  C  C182  1  0.10614200  0.08725900  0.16311400  1
  C  C183  1  0.13659500  0.78371400  0.47688400  1
  N  N184  1  0.45568100  0.19156200  0.69982700  1
  N  N185  1  0.04431900  0.19156200  0.19982700  1
  N  N186  1  0.29649400  0.67037200  0.00475600  1
  N  N187  1  0.70350600  0.32962800  0.99524400  1
  N  N188  1  0.20350600  0.67037200  0.50475600  1
  N  N189  1  0.95568100  0.80843800  0.80017300  1
  N  N190  1  0.79649400  0.32962800  0.49524400  1
  N  N191  1  0.54431900  0.80843800  0.30017300  1
