# generated using pymatgen
data_H10C5SeS2N3Cl
_symmetry_space_group_name_H-M   'P 1'
_cell_length_a   9.06012300
_cell_length_b   11.71785600
_cell_length_c   22.30699000
_cell_angle_alpha   90.00000000
_cell_angle_beta   90.00000000
_cell_angle_gamma   90.00000000
_symmetry_Int_Tables_number   1
_chemical_formula_structural   H10C5SeS2N3Cl
_chemical_formula_sum   'H80 C40 Se8 S16 N24 Cl8'
_cell_volume   2368.22642630
_cell_formula_units_Z   8
loop_
 _symmetry_equiv_pos_site_id
 _symmetry_equiv_pos_as_xyz
  1  'x, y, z'
loop_
 _atom_site_type_symbol
 _atom_site_label
 _atom_site_symmetry_multiplicity
 _atom_site_fract_x
 _atom_site_fract_y
 _atom_site_fract_z
 _atom_site_occupancy
  H  H0  1  0.40716000  0.97395200  0.33737500  1
  H  H1  1  0.59284000  0.47395200  0.16262500  1
  H  H2  1  0.29891900  0.29170000  0.10266300  1
  H  H3  1  0.71061000  0.76994500  0.31722500  1
  H  H4  1  0.65122000  0.51308200  0.88222100  1
  H  H5  1  0.70985700  0.52339000  0.29288100  1
  H  H6  1  0.79014300  0.02339000  0.29288100  1
  H  H7  1  0.04192300  0.16661400  0.81092000  1
  H  H8  1  0.78939000  0.26994500  0.31722500  1
  H  H9  1  0.45807700  0.83338600  0.31092000  1
  H  H10  1  0.34542400  0.85778600  0.14443600  1
  H  H11  1  0.84542400  0.64221400  0.85556400  1
  H  H12  1  0.94913700  0.86408100  0.11007600  1
  H  H13  1  0.84379400  0.05881200  0.75083400  1
  H  H14  1  0.34379400  0.44118800  0.24916600  1
  H  H15  1  0.89766200  0.92794700  0.78555700  1
  H  H16  1  0.34542400  0.64221400  0.64443600  1
  H  H17  1  0.79891900  0.20830000  0.89733700  1
  H  H18  1  0.09284000  0.47395200  0.33737500  1
  H  H19  1  0.70985700  0.97661000  0.79288100  1
  H  H20  1  0.84878000  0.48691800  0.38222100  1
  H  H21  1  0.20108100  0.79170000  0.10266300  1
  H  H22  1  0.05086300  0.13591900  0.88992400  1
  H  H23  1  0.84878000  0.01308200  0.88222100  1
  H  H24  1  0.90716000  0.97395200  0.16262500  1
  H  H25  1  0.15457600  0.35778600  0.14443600  1
  H  H26  1  0.28939000  0.26994500  0.18277500  1
  H  H27  1  0.55086300  0.13591900  0.61007600  1
  H  H28  1  0.95807700  0.66661400  0.68908000  1
  H  H29  1  0.10233800  0.07205300  0.21444300  1
  H  H30  1  0.15620600  0.55881200  0.74916600  1
  H  H31  1  0.10233800  0.42794700  0.71444300  1
  H  H32  1  0.29014300  0.47661000  0.70711900  1
  H  H33  1  0.71061000  0.73005500  0.81722500  1
  H  H34  1  0.44913700  0.86408100  0.38992400  1
  H  H35  1  0.15457600  0.14221400  0.64443600  1
  H  H36  1  0.59284000  0.02604800  0.66262500  1
  H  H37  1  0.94913700  0.63591900  0.61007600  1
  H  H38  1  0.39766200  0.57205300  0.21444300  1
  H  H39  1  0.04192300  0.33338600  0.31092000  1
  H  H40  1  0.65457600  0.35778600  0.35556400  1
  H  H41  1  0.55086300  0.36408100  0.11007600  1
  H  H42  1  0.70108100  0.70830000  0.89733700  1
  H  H43  1  0.21061000  0.73005500  0.68277500  1
  H  H44  1  0.15122000  0.98691800  0.11777900  1
  H  H45  1  0.40716000  0.52604800  0.83737500  1
  H  H46  1  0.29891900  0.20830000  0.60266300  1
  H  H47  1  0.44913700  0.63591900  0.88992400  1
  H  H48  1  0.78939000  0.23005500  0.81722500  1
  H  H49  1  0.05086300  0.36408100  0.38992400  1
  H  H50  1  0.79014300  0.47661000  0.79288100  1
  H  H51  1  0.15122000  0.51308200  0.61777900  1
  H  H52  1  0.34878000  0.48691800  0.11777900  1
  H  H53  1  0.39766200  0.92794700  0.71444300  1
  H  H54  1  0.09284000  0.02604800  0.83737500  1
  H  H55  1  0.34379400  0.05881200  0.74916600  1
  H  H56  1  0.20108100  0.70830000  0.60266300  1
  H  H57  1  0.20985700  0.97661000  0.70711900  1
  H  H58  1  0.65620600  0.55881200  0.75083400  1
  H  H59  1  0.34878000  0.01308200  0.61777900  1
  H  H60  1  0.60233800  0.07205300  0.28555700  1
  H  H61  1  0.65457600  0.14221400  0.85556400  1
  H  H62  1  0.79891900  0.29170000  0.39733700  1
  H  H63  1  0.45807700  0.66661400  0.81092000  1
  H  H64  1  0.15620600  0.94118800  0.24916600  1
  H  H65  1  0.20985700  0.52339000  0.20711900  1
  H  H66  1  0.84542400  0.85778600  0.35556400  1
  H  H67  1  0.28939000  0.23005500  0.68277500  1
  H  H68  1  0.90716000  0.52604800  0.66262500  1
  H  H69  1  0.29014300  0.02339000  0.20711900  1
  H  H70  1  0.54192300  0.33338600  0.18908000  1
  H  H71  1  0.60233800  0.42794700  0.78555700  1
  H  H72  1  0.54192300  0.16661400  0.68908000  1
  H  H73  1  0.65122000  0.98691800  0.38222100  1
  H  H74  1  0.70108100  0.79170000  0.39733700  1
  H  H75  1  0.21061000  0.76994500  0.18277500  1
  H  H76  1  0.95807700  0.83338600  0.18908000  1
  H  H77  1  0.65620600  0.94118800  0.25083400  1
  H  H78  1  0.84379400  0.44118800  0.25083400  1
  H  H79  1  0.89766200  0.57205300  0.28555700  1
  C  C80  1  0.37809700  0.25598400  0.84244500  1
  C  C81  1  0.87809700  0.25598400  0.65755500  1
  C  C82  1  0.37809700  0.24401600  0.34244500  1
  C  C83  1  0.02464000  0.39833000  0.34548300  1
  C  C84  1  0.94743500  0.57310600  0.10342100  1
  C  C85  1  0.17444900  0.99708200  0.21057400  1
  C  C86  1  0.02464000  0.10167000  0.84548300  1
  C  C87  1  0.05256500  0.42689400  0.89657900  1
  C  C88  1  0.82555100  0.49708200  0.28942600  1
  C  C89  1  0.62190300  0.74401600  0.15755500  1
  C  C90  1  0.97536000  0.89833000  0.15451700  1
  C  C91  1  0.26991600  0.32993800  0.14592900  1
  C  C92  1  0.67444900  0.99708200  0.28942600  1
  C  C93  1  0.52464000  0.39833000  0.15451700  1
  C  C94  1  0.47536000  0.60167000  0.84548300  1
  C  C95  1  0.23008400  0.67006200  0.64592900  1
  C  C96  1  0.82555100  0.00291800  0.78942600  1
  C  C97  1  0.97536000  0.60167000  0.65451700  1
  C  C98  1  0.62190300  0.75598400  0.65755500  1
  C  C99  1  0.26991600  0.17006200  0.64592900  1
  C  C100  1  0.94743500  0.92689400  0.60342100  1
  C  C101  1  0.52464000  0.10167000  0.65451700  1
  C  C102  1  0.67444900  0.50291800  0.78942600  1
  C  C103  1  0.32555100  0.00291800  0.71057400  1
  C  C104  1  0.23008400  0.82993800  0.14592900  1
  C  C105  1  0.05256500  0.07310600  0.39657900  1
  C  C106  1  0.47536000  0.89833000  0.34548300  1
  C  C107  1  0.76991600  0.32993800  0.35407100  1
  C  C108  1  0.17444900  0.50291800  0.71057400  1
  C  C109  1  0.55256500  0.07310600  0.10342100  1
  C  C110  1  0.87809700  0.24401600  0.15755500  1
  C  C111  1  0.12190300  0.75598400  0.84244500  1
  C  C112  1  0.76991600  0.17006200  0.85407100  1
  C  C113  1  0.73008400  0.67006200  0.85407100  1
  C  C114  1  0.32555100  0.49708200  0.21057400  1
  C  C115  1  0.12190300  0.74401600  0.34244500  1
  C  C116  1  0.55256500  0.42689400  0.60342100  1
  C  C117  1  0.44743500  0.57310600  0.39657900  1
  C  C118  1  0.73008400  0.82993800  0.35407100  1
  C  C119  1  0.44743500  0.92689400  0.89657900  1
  Se  Se120  1  0.33972500  0.12010700  0.46405500  1
  Se  Se121  1  0.33972500  0.37989300  0.96405500  1
  Se  Se122  1  0.83972500  0.12010700  0.03594500  1
  Se  Se123  1  0.83972500  0.37989300  0.53594500  1
  Se  Se124  1  0.66027500  0.87989300  0.53594500  1
  Se  Se125  1  0.66027500  0.62010700  0.03594500  1
  Se  Se126  1  0.16027500  0.87989300  0.96405500  1
  Se  Se127  1  0.16027500  0.62010700  0.46405500  1
  S  S128  1  0.12835000  0.78961600  0.41325500  1
  S  S129  1  0.08665500  0.12803500  0.46417700  1
  S  S130  1  0.58665500  0.37196500  0.53582300  1
  S  S131  1  0.91334500  0.87196500  0.53582300  1
  S  S132  1  0.12835000  0.71038400  0.91325500  1
  S  S133  1  0.87165000  0.28961600  0.08674500  1
  S  S134  1  0.08665500  0.37196500  0.96417700  1
  S  S135  1  0.41334500  0.87196500  0.96417700  1
  S  S136  1  0.37165000  0.28961600  0.41325500  1
  S  S137  1  0.58665500  0.12803500  0.03582300  1
  S  S138  1  0.91334500  0.62803500  0.03582300  1
  S  S139  1  0.41334500  0.62803500  0.46417700  1
  S  S140  1  0.62835000  0.78961600  0.08674500  1
  S  S141  1  0.37165000  0.21038400  0.91325500  1
  S  S142  1  0.62835000  0.71038400  0.58674500  1
  S  S143  1  0.87165000  0.21038400  0.58674500  1
  N  N144  1  0.36566800  0.06772200  0.65507700  1
  N  N145  1  0.52615600  0.46392000  0.65127700  1
  N  N146  1  0.61687600  0.78395400  0.70834400  1
  N  N147  1  0.38312400  0.21604600  0.29165600  1
  N  N148  1  0.02615600  0.46392000  0.84872300  1
  N  N149  1  0.63433200  0.93227800  0.34492300  1
  N  N150  1  0.36566800  0.43227800  0.15507700  1
  N  N151  1  0.02615600  0.03608000  0.34872300  1
  N  N152  1  0.52615600  0.03608000  0.15127700  1
  N  N153  1  0.38312400  0.28395400  0.79165600  1
  N  N154  1  0.86566800  0.43227800  0.34492300  1
  N  N155  1  0.13433200  0.56772200  0.65507700  1
  N  N156  1  0.63433200  0.56772200  0.84492300  1
  N  N157  1  0.88312400  0.28395400  0.70834400  1
  N  N158  1  0.88312400  0.21604600  0.20834400  1
  N  N159  1  0.11687600  0.78395400  0.79165600  1
  N  N160  1  0.61687600  0.71604600  0.20834400  1
  N  N161  1  0.97384400  0.53608000  0.15127700  1
  N  N162  1  0.47384400  0.96392000  0.84872300  1
  N  N163  1  0.47384400  0.53608000  0.34872300  1
  N  N164  1  0.11687600  0.71604600  0.29165600  1
  N  N165  1  0.13433200  0.93227800  0.15507700  1
  N  N166  1  0.86566800  0.06772200  0.84492300  1
  N  N167  1  0.97384400  0.96392000  0.65127700  1
  Cl  Cl168  1  0.82610100  0.58926100  0.45956200  1
  Cl  Cl169  1  0.17389900  0.41073900  0.54043800  1
  Cl  Cl170  1  0.82610100  0.91073900  0.95956200  1
  Cl  Cl171  1  0.17389900  0.08926100  0.04043800  1
  Cl  Cl172  1  0.32610100  0.91073900  0.54043800  1
  Cl  Cl173  1  0.67389900  0.41073900  0.95956200  1
  Cl  Cl174  1  0.32610100  0.58926100  0.04043800  1
  Cl  Cl175  1  0.67389900  0.08926100  0.45956200  1
