# generated using pymatgen
data_TeH21C7(NCl2)3
_symmetry_space_group_name_H-M   'P 1'
_cell_length_a   9.15764300
_cell_length_b   14.01247700
_cell_length_c   17.53465454
_cell_angle_alpha   64.39399008
_cell_angle_beta   90.00000000
_cell_angle_gamma   90.00000000
_symmetry_Int_Tables_number   1
_chemical_formula_structural   TeH21C7(NCl2)3
_chemical_formula_sum   'Te4 H84 C28 N12 Cl24'
_cell_volume   2029.08341865
_cell_formula_units_Z   4
loop_
 _symmetry_equiv_pos_site_id
 _symmetry_equiv_pos_as_xyz
  1  'x, y, z'
loop_
 _atom_site_type_symbol
 _atom_site_label
 _atom_site_symmetry_multiplicity
 _atom_site_fract_x
 _atom_site_fract_y
 _atom_site_fract_z
 _atom_site_occupancy
  Te  Te0  1  0.29056800  0.22171900  0.52094600  1
  Te  Te1  1  0.20943200  0.22171900  0.02094600  1
  Te  Te2  1  0.79056800  0.77828100  0.97905400  1
  Te  Te3  1  0.70943200  0.77828100  0.47905400  1
  H  H4  1  0.92994700  0.55571000  0.85904700  1
  H  H5  1  0.36863400  0.43539800  0.74043800  1
  H  H6  1  0.42994700  0.44429000  0.64095300  1
  H  H7  1  0.57336200  0.01329300  0.12169300  1
  H  H8  1  0.81187600  0.12452900  0.60535400  1
  H  H9  1  0.73781800  0.21058000  0.29297800  1
  H  H10  1  0.37029600  0.69599600  0.27290800  1
  H  H11  1  0.03894600  0.59373400  0.32651500  1
  H  H12  1  0.57005300  0.55571000  0.35904700  1
  H  H13  1  0.36706600  0.99723200  0.28705900  1
  H  H14  1  0.75709400  0.61333400  0.81694100  1
  H  H15  1  0.23244900  0.64706100  0.00093300  1
  H  H16  1  0.42663800  0.98670700  0.87830700  1
  H  H17  1  0.88261200  0.04014700  0.06518700  1
  H  H18  1  0.26334900  0.50987700  0.03343200  1
  H  H19  1  0.09336700  0.59020400  0.54306400  1
  H  H20  1  0.75243100  0.89129000  0.22957700  1
  H  H21  1  0.67024400  0.31202800  0.87267100  1
  H  H22  1  0.23665100  0.50987700  0.53343200  1
  H  H23  1  0.19509100  0.70218600  0.31354100  1
  H  H24  1  0.86706600  0.00276800  0.21294100  1
  H  H25  1  0.38261200  0.95985300  0.43481300  1
  H  H26  1  0.76218200  0.21058000  0.79297800  1
  H  H27  1  0.46966400  0.39451000  0.27254600  1
  H  H28  1  0.63293400  0.00276800  0.71294100  1
  H  H29  1  0.56941400  0.50961600  0.20327000  1
  H  H30  1  0.61738800  0.04014700  0.56518700  1
  H  H31  1  0.96966400  0.60549000  0.22745400  1
  H  H32  1  0.56089300  0.89367600  0.69694900  1
  H  H33  1  0.40663300  0.59020400  0.04306400  1
  H  H34  1  0.74290600  0.61333400  0.31694100  1
  H  H35  1  0.92663800  0.01329300  0.62169300  1
  H  H36  1  0.53033600  0.60549000  0.72745400  1
  H  H37  1  0.43910700  0.10632400  0.30305100  1
  H  H38  1  0.07336200  0.98670700  0.37830700  1
  H  H39  1  0.24756900  0.10871000  0.77042300  1
  H  H40  1  0.13293400  0.99723200  0.78705900  1
  H  H41  1  0.17024400  0.68797200  0.62732900  1
  H  H42  1  0.74756900  0.89129000  0.72957700  1
  H  H43  1  0.76755100  0.35293900  0.99906700  1
  H  H44  1  0.69509100  0.29781400  0.18645900  1
  H  H45  1  0.73244900  0.35293900  0.49906700  1
  H  H46  1  0.14053100  0.90381800  0.48211600  1
  H  H47  1  0.62970400  0.30400400  0.72709200  1
  H  H48  1  0.06941400  0.49038400  0.29673000  1
  H  H49  1  0.86863400  0.56460200  0.75956200  1
  H  H50  1  0.11738800  0.95985300  0.93481300  1
  H  H51  1  0.07005300  0.44429000  0.14095300  1
  H  H52  1  0.26755100  0.64706100  0.50093300  1
  H  H53  1  0.59336700  0.40979600  0.95693600  1
  H  H54  1  0.93058600  0.50961600  0.70327000  1
  H  H55  1  0.12970400  0.69599600  0.77290800  1
  H  H56  1  0.53894600  0.40626600  0.17348500  1
  H  H57  1  0.30490900  0.70218600  0.81354100  1
  H  H58  1  0.93910700  0.89367600  0.19694900  1
  H  H59  1  0.76334900  0.49012300  0.46656800  1
  H  H60  1  0.64053100  0.09618200  0.01788400  1
  H  H61  1  0.35946900  0.90381800  0.98211600  1
  H  H62  1  0.68812400  0.12452900  0.10535400  1
  H  H63  1  0.13136600  0.43539800  0.24043800  1
  H  H64  1  0.26218200  0.78942000  0.70702200  1
  H  H65  1  0.32975600  0.68797200  0.12732900  1
  H  H66  1  0.73665100  0.49012300  0.96656800  1
  H  H67  1  0.46105400  0.59373400  0.82651500  1
  H  H68  1  0.85946900  0.09618200  0.51788400  1
  H  H69  1  0.80490900  0.29781400  0.68645900  1
  H  H70  1  0.82975600  0.31202800  0.37267100  1
  H  H71  1  0.24290600  0.38666600  0.18305900  1
  H  H72  1  0.87029600  0.30400400  0.22709200  1
  H  H73  1  0.03033600  0.39451000  0.77254600  1
  H  H74  1  0.90663300  0.40979600  0.45693600  1
  H  H75  1  0.96105400  0.40626600  0.67348500  1
  H  H76  1  0.77548500  0.93553900  0.08147200  1
  H  H77  1  0.18812400  0.87547100  0.39464600  1
  H  H78  1  0.63136600  0.56460200  0.25956200  1
  H  H79  1  0.72451500  0.93553900  0.58147200  1
  H  H80  1  0.25709400  0.38666600  0.68305900  1
  H  H81  1  0.23781800  0.78942000  0.20702200  1
  H  H82  1  0.22451500  0.06446100  0.91852800  1
  H  H83  1  0.43058600  0.49038400  0.79673000  1
  H  H84  1  0.31187600  0.87547100  0.89464600  1
  H  H85  1  0.25243100  0.10871000  0.27042300  1
  H  H86  1  0.06089300  0.10632400  0.80305100  1
  H  H87  1  0.27548500  0.06446100  0.41852800  1
  C  C88  1  0.66494300  0.55105300  0.32271700  1
  C  C89  1  0.06048500  0.57600200  0.27273500  1
  C  C90  1  0.28824200  0.57694000  0.04769800  1
  C  C91  1  0.16494300  0.44894700  0.17728300  1
  C  C92  1  0.74590600  0.29093300  0.74288900  1
  C  C93  1  0.93951500  0.42399800  0.72726500  1
  C  C94  1  0.15797600  0.05859900  0.80786300  1
  C  C95  1  0.24590600  0.70906700  0.75711100  1
  C  C96  1  0.65797600  0.94140100  0.69213700  1
  C  C97  1  0.74594900  0.37639800  0.83624500  1
  C  C98  1  0.25409400  0.70906700  0.25711100  1
  C  C99  1  0.34202400  0.05859900  0.30786300  1
  C  C100  1  0.16515500  0.93807600  0.41440300  1
  C  C101  1  0.66515500  0.06192400  0.08559700  1
  C  C102  1  0.43951500  0.57600200  0.77273500  1
  C  C103  1  0.21175800  0.57694000  0.54769800  1
  C  C104  1  0.24594900  0.62360200  0.66375500  1
  C  C105  1  0.83505700  0.55105300  0.82271700  1
  C  C106  1  0.56048500  0.42399800  0.22726500  1
  C  C107  1  0.83484500  0.06192400  0.58559700  1
  C  C108  1  0.33484500  0.93807600  0.91440300  1
  C  C109  1  0.75409400  0.29093300  0.24288900  1
  C  C110  1  0.84202400  0.94140100  0.19213700  1
  C  C111  1  0.71175800  0.42306000  0.95230200  1
  C  C112  1  0.78824200  0.42306000  0.45230200  1
  C  C113  1  0.75405100  0.37639800  0.33624500  1
  C  C114  1  0.25405100  0.62360200  0.16375500  1
  C  C115  1  0.33505700  0.44894700  0.67728300  1
  N  N116  1  0.79715300  0.99374300  0.10151000  1
  N  N117  1  0.73484800  0.44746900  0.36622800  1
  N  N118  1  0.69636800  0.37144300  0.26801400  1
  N  N119  1  0.23484800  0.55253100  0.13377200  1
  N  N120  1  0.70284700  0.99374300  0.60151000  1
  N  N121  1  0.76515200  0.44746900  0.86622800  1
  N  N122  1  0.80363200  0.37144300  0.76801400  1
  N  N123  1  0.26515200  0.55253100  0.63377200  1
  N  N124  1  0.30363200  0.62855700  0.73198600  1
  N  N125  1  0.19636800  0.62855700  0.23198600  1
  N  N126  1  0.29715300  0.00625700  0.39849000  1
  N  N127  1  0.20284700  0.00625700  0.89849000  1
  Cl  Cl128  1  0.24752800  0.01974100  0.10483500  1
  Cl  Cl129  1  0.74752800  0.98025900  0.39516500  1
  Cl  Cl130  1  0.25247200  0.01974100  0.60483500  1
  Cl  Cl131  1  0.39194800  0.22185800  0.90257100  1
  Cl  Cl132  1  0.99277600  0.17905000  0.94194300  1
  Cl  Cl133  1  0.16297700  0.42035400  0.93370000  1
  Cl  Cl134  1  0.89194800  0.77814200  0.59742900  1
  Cl  Cl135  1  0.83702300  0.57964600  0.06630000  1
  Cl  Cl136  1  0.00722400  0.82095000  0.05805700  1
  Cl  Cl137  1  0.47285100  0.21512500  0.63175200  1
  Cl  Cl138  1  0.91601200  0.73793700  0.39912200  1
  Cl  Cl139  1  0.60805200  0.77814200  0.09742900  1
  Cl  Cl140  1  0.50722400  0.17905000  0.44194300  1
  Cl  Cl141  1  0.75247200  0.98025900  0.89516500  1
  Cl  Cl142  1  0.58398800  0.73793700  0.89912200  1
  Cl  Cl143  1  0.66297700  0.57964600  0.56630000  1
  Cl  Cl144  1  0.02714900  0.21512500  0.13175200  1
  Cl  Cl145  1  0.33702300  0.42035400  0.43370000  1
  Cl  Cl146  1  0.49277600  0.82095000  0.55805700  1
  Cl  Cl147  1  0.41601200  0.26206300  0.10087800  1
  Cl  Cl148  1  0.08398800  0.26206300  0.60087800  1
  Cl  Cl149  1  0.10805200  0.22185800  0.40257100  1
  Cl  Cl150  1  0.97285100  0.78487500  0.86824800  1
  Cl  Cl151  1  0.52714900  0.78487500  0.36824800  1
