# generated using pymatgen
data_NbH12C4NO13
_symmetry_space_group_name_H-M   'P 1'
_cell_length_a   13.64340400
_cell_length_b   6.97284400
_cell_length_c   8.88029208
_cell_angle_alpha   69.71384684
_cell_angle_beta   90.00000000
_cell_angle_gamma   90.00000000
_symmetry_Int_Tables_number   1
_chemical_formula_structural   NbH12C4NO13
_chemical_formula_sum   'Nb2 H24 C8 N2 O26'
_cell_volume   792.41038952
_cell_formula_units_Z   2
loop_
 _symmetry_equiv_pos_site_id
 _symmetry_equiv_pos_as_xyz
  1  'x, y, z'
loop_
 _atom_site_type_symbol
 _atom_site_label
 _atom_site_symmetry_multiplicity
 _atom_site_fract_x
 _atom_site_fract_y
 _atom_site_fract_z
 _atom_site_occupancy
  Nb  Nb0  1  0.25000000  0.32762900  0.82942000  1
  Nb  Nb1  1  0.75000000  0.67237100  0.17058000  1
  H  H2  1  0.25000000  0.92598700  0.94062500  1
  H  H3  1  0.19350300  0.80086500  0.61546700  1
  H  H4  1  0.07762300  0.61193100  0.59719900  1
  H  H5  1  0.27757300  0.58774000  0.17666600  1
  H  H6  1  0.75000000  0.07401300  0.05937500  1
  H  H7  1  0.87495000  0.37318700  0.63022600  1
  H  H8  1  0.42305700  0.34066800  0.93659400  1
  H  H9  1  0.12505000  0.62681300  0.36977400  1
  H  H10  1  0.92237700  0.38806900  0.40280100  1
  H  H11  1  0.72242700  0.41226000  0.82333400  1
  H  H12  1  0.22242700  0.58774000  0.17666600  1
  H  H13  1  0.25000000  0.53901900  0.59123500  1
  H  H14  1  0.80649700  0.19913500  0.38453300  1
  H  H15  1  0.92305700  0.65933200  0.06340600  1
  H  H16  1  0.69350300  0.19913500  0.38453300  1
  H  H17  1  0.57762300  0.38806900  0.40280100  1
  H  H18  1  0.37495000  0.62681300  0.36977400  1
  H  H19  1  0.77757300  0.41226000  0.82333400  1
  H  H20  1  0.07694300  0.34066800  0.93659400  1
  H  H21  1  0.57694300  0.65933200  0.06340600  1
  H  H22  1  0.30649700  0.80086500  0.61546700  1
  H  H23  1  0.75000000  0.46098100  0.40876500  1
  H  H24  1  0.62505000  0.37318700  0.63022600  1
  H  H25  1  0.42237700  0.61193100  0.59719900  1
  C  C26  1  0.44409600  0.69752200  0.30876700  1
  C  C27  1  0.55590400  0.30247800  0.69123300  1
  C  C28  1  0.49107500  0.21186200  0.58897400  1
  C  C29  1  0.00892500  0.21186200  0.58897400  1
  C  C30  1  0.99107500  0.78813800  0.41102600  1
  C  C31  1  0.50892500  0.78813800  0.41102600  1
  C  C32  1  0.05590400  0.69752200  0.30876700  1
  C  C33  1  0.94409600  0.30247800  0.69123300  1
  N  N34  1  0.75000000  0.02848400  0.65065200  1
  N  N35  1  0.25000000  0.97151600  0.34934800  1
  O  O36  1  0.33480700  0.50480000  0.64013300  1
  O  O37  1  0.56908200  0.92149900  0.35016500  1
  O  O38  1  0.43091800  0.07850100  0.64983500  1
  O  O39  1  0.51106900  0.29297900  0.43379200  1
  O  O40  1  0.53601100  0.29900800  0.82601300  1
  O  O41  1  0.01106900  0.70702100  0.56620800  1
  O  O42  1  0.75000000  0.95018900  0.15497600  1
  O  O43  1  0.25000000  0.04981100  0.84502400  1
  O  O44  1  0.06908200  0.07850100  0.64983500  1
  O  O45  1  0.83480700  0.49520000  0.35986700  1
  O  O46  1  0.85424500  0.65752400  0.03065800  1
  O  O47  1  0.03601100  0.70099200  0.17398700  1
  O  O48  1  0.46398900  0.70099200  0.17398700  1
  O  O49  1  0.64575500  0.65752400  0.03065800  1
  O  O50  1  0.75000000  0.10356400  0.41153000  1
  O  O51  1  0.66519300  0.49520000  0.35986700  1
  O  O52  1  0.35424500  0.34247600  0.96934200  1
  O  O53  1  0.75000000  0.85561800  0.70576800  1
  O  O54  1  0.48893100  0.70702100  0.56620800  1
  O  O55  1  0.14575500  0.34247600  0.96934200  1
  O  O56  1  0.96398900  0.29900800  0.82601300  1
  O  O57  1  0.16519300  0.50480000  0.64013300  1
  O  O58  1  0.98893100  0.29297900  0.43379200  1
  O  O59  1  0.93091800  0.92149900  0.35016500  1
  O  O60  1  0.25000000  0.14438200  0.29423200  1
  O  O61  1  0.25000000  0.89643600  0.58847000  1
