# generated using pymatgen
data_H8RuC5N(ClO)3
_symmetry_space_group_name_H-M   'P 1'
_cell_length_a   9.99866000
_cell_length_b   11.76637900
_cell_length_c   11.79406928
_cell_angle_alpha   60.89997870
_cell_angle_beta   90.00000000
_cell_angle_gamma   90.00000000
_symmetry_Int_Tables_number   1
_chemical_formula_structural   H8RuC5N(ClO)3
_chemical_formula_sum   'H32 Ru4 C20 N4 Cl12 O12'
_cell_volume   1212.40146610
_cell_formula_units_Z   4
loop_
 _symmetry_equiv_pos_site_id
 _symmetry_equiv_pos_as_xyz
  1  'x, y, z'
loop_
 _atom_site_type_symbol
 _atom_site_label
 _atom_site_symmetry_multiplicity
 _atom_site_fract_x
 _atom_site_fract_y
 _atom_site_fract_z
 _atom_site_occupancy
  H  H0  1  0.65635000  0.47743300  0.53890300  1
  H  H1  1  0.38663400  0.49922600  0.32556600  1
  H  H2  1  0.26930000  0.73868600  0.62166900  1
  H  H3  1  0.61336600  0.50077400  0.67443400  1
  H  H4  1  0.57291900  0.34424300  0.34967400  1
  H  H5  1  0.72490500  0.42182100  0.36008400  1
  H  H6  1  0.92708100  0.34424300  0.84967400  1
  H  H7  1  0.39355800  0.65927600  0.30817700  1
  H  H8  1  0.42708100  0.65575700  0.65032600  1
  H  H9  1  0.65397800  0.35215000  0.15694500  1
  H  H10  1  0.15397800  0.64785000  0.34305500  1
  H  H11  1  0.73070000  0.26131400  0.37833100  1
  H  H12  1  0.15635000  0.52256700  0.96109700  1
  H  H13  1  0.84602200  0.35215000  0.65694500  1
  H  H14  1  0.22490500  0.57817900  0.13991600  1
  H  H15  1  0.14906000  0.49696300  0.36047400  1
  H  H16  1  0.34602200  0.64785000  0.84305500  1
  H  H17  1  0.84365000  0.47743300  0.03890300  1
  H  H18  1  0.77509500  0.42182100  0.86008400  1
  H  H19  1  0.27509500  0.57817900  0.63991600  1
  H  H20  1  0.10644200  0.65927600  0.80817700  1
  H  H21  1  0.88663400  0.50077400  0.17443400  1
  H  H22  1  0.07291900  0.65575700  0.15032600  1
  H  H23  1  0.34365000  0.52256700  0.46109700  1
  H  H24  1  0.89355800  0.34072400  0.19182300  1
  H  H25  1  0.64906000  0.50303700  0.13952600  1
  H  H26  1  0.76930000  0.26131400  0.87833100  1
  H  H27  1  0.85094000  0.50303700  0.63952600  1
  H  H28  1  0.11336600  0.49922600  0.82556600  1
  H  H29  1  0.35094000  0.49696300  0.86047400  1
  H  H30  1  0.23070000  0.73868600  0.12166900  1
  H  H31  1  0.60644200  0.34072400  0.69182300  1
  Ru  Ru32  1  0.37372200  0.17163300  0.13780400  1
  Ru  Ru33  1  0.62627800  0.82836700  0.86219600  1
  Ru  Ru34  1  0.12627800  0.17163300  0.63780400  1
  Ru  Ru35  1  0.87372200  0.82836700  0.36219600  1
  C  C36  1  0.87989500  0.98592300  0.36891000  1
  C  C37  1  0.36555200  0.08660600  0.32142100  1
  C  C38  1  0.81381600  0.81358600  0.87998500  1
  C  C39  1  0.86555200  0.91339400  0.17857900  1
  C  C40  1  0.15856900  0.56557600  0.85526500  1
  C  C41  1  0.63444800  0.91339400  0.67857900  1
  C  C42  1  0.68045600  0.35593100  0.32939200  1
  C  C43  1  0.62010500  0.98592300  0.86891000  1
  C  C44  1  0.31954400  0.64406900  0.67060800  1
  C  C45  1  0.65856900  0.43442400  0.64473500  1
  C  C46  1  0.18618400  0.18641400  0.12001500  1
  C  C47  1  0.68618400  0.81358600  0.37998500  1
  C  C48  1  0.37989500  0.01407700  0.13109000  1
  C  C49  1  0.31381600  0.18641400  0.62001500  1
  C  C50  1  0.81954400  0.35593100  0.82939200  1
  C  C51  1  0.84143100  0.43442400  0.14473500  1
  C  C52  1  0.12010500  0.01407700  0.63109000  1
  C  C53  1  0.34143100  0.56557600  0.35526500  1
  C  C54  1  0.18045600  0.64406900  0.17060800  1
  C  C55  1  0.13444800  0.08660600  0.82142100  1
  N  N56  1  0.30116600  0.58631900  0.81355500  1
  N  N57  1  0.80116600  0.41368100  0.68644500  1
  N  N58  1  0.19883400  0.58631900  0.31355500  1
  N  N59  1  0.69883400  0.41368100  0.18644500  1
  Cl  Cl60  1  0.38039900  0.83801200  0.84657700  1
  Cl  Cl61  1  0.12133900  0.38028200  0.63493200  1
  Cl  Cl62  1  0.61960100  0.16198800  0.15342300  1
  Cl  Cl63  1  0.87866100  0.61971800  0.36506800  1
  Cl  Cl64  1  0.10938800  0.28883800  0.40089700  1
  Cl  Cl65  1  0.11960100  0.83801200  0.34657700  1
  Cl  Cl66  1  0.89061200  0.71116200  0.59910300  1
  Cl  Cl67  1  0.88039900  0.16198800  0.65342300  1
  Cl  Cl68  1  0.37866100  0.38028200  0.13493200  1
  Cl  Cl69  1  0.60938800  0.71116200  0.09910300  1
  Cl  Cl70  1  0.62133900  0.61971800  0.86506800  1
  Cl  Cl71  1  0.39061200  0.28883800  0.90089700  1
  O  O72  1  0.92846800  0.80110400  0.89291200  1
  O  O73  1  0.61308500  0.08045500  0.87520600  1
  O  O74  1  0.86244000  0.96410000  0.06663400  1
  O  O75  1  0.13756000  0.03590000  0.93336600  1
  O  O76  1  0.63756000  0.96410000  0.56663400  1
  O  O77  1  0.38691500  0.91954500  0.12479400  1
  O  O78  1  0.36244000  0.03590000  0.43336600  1
  O  O79  1  0.88691500  0.08045500  0.37520600  1
  O  O80  1  0.42846800  0.19889600  0.60708800  1
  O  O81  1  0.57153200  0.80110400  0.39291200  1
  O  O82  1  0.11308500  0.91954500  0.62479400  1
  O  O83  1  0.07153200  0.19889600  0.10708800  1
