# generated using pymatgen
data_Mo12PH24C6N3O40
_symmetry_space_group_name_H-M   'P 1'
_cell_length_a   12.90058444
_cell_length_b   12.90058444
_cell_length_c   12.90058442
_cell_angle_alpha   81.14179399
_cell_angle_beta   81.14179399
_cell_angle_gamma   81.14179013
_symmetry_Int_Tables_number   1
_chemical_formula_structural   Mo12PH24C6N3O40
_chemical_formula_sum   'Mo24 P2 H48 C12 N6 O80'
_cell_volume   2077.32409066
_cell_formula_units_Z   2
loop_
 _symmetry_equiv_pos_site_id
 _symmetry_equiv_pos_as_xyz
  1  'x, y, z'
loop_
 _atom_site_type_symbol
 _atom_site_label
 _atom_site_symmetry_multiplicity
 _atom_site_fract_x
 _atom_site_fract_y
 _atom_site_fract_z
 _atom_site_occupancy
  Mo  Mo0  1  0.98123900  0.54982200  0.75749600  1
  Mo  Mo1  1  0.45017800  0.24250400  0.01876100  1
  Mo  Mo2  1  0.19812000  0.42148400  0.42137600  1
  Mo  Mo3  1  0.95208500  0.74527500  0.95204400  1
  Mo  Mo4  1  0.24250400  0.01876100  0.45017800  1
  Mo  Mo5  1  0.54982200  0.75749600  0.98123900  1
  Mo  Mo6  1  0.57851600  0.57862400  0.80188000  1
  Mo  Mo7  1  0.74527500  0.95204400  0.95208500  1
  Mo  Mo8  1  0.75749600  0.98123900  0.54982200  1
  Mo  Mo9  1  0.25472500  0.04795600  0.04791500  1
  Mo  Mo10  1  0.80188000  0.57851600  0.57862400  1
  Mo  Mo11  1  0.04791500  0.25472500  0.04795600  1
  Mo  Mo12  1  0.01877000  0.24248800  0.45005400  1
  Mo  Mo13  1  0.04795600  0.04791500  0.25472500  1
  Mo  Mo14  1  0.45005400  0.01877000  0.24248800  1
  Mo  Mo15  1  0.57862400  0.80188000  0.57851600  1
  Mo  Mo16  1  0.54994600  0.98123000  0.75751200  1
  Mo  Mo17  1  0.42148400  0.42137600  0.19812000  1
  Mo  Mo18  1  0.98123000  0.75751200  0.54994600  1
  Mo  Mo19  1  0.24248800  0.45005400  0.01877000  1
  Mo  Mo20  1  0.42137600  0.19812000  0.42148400  1
  Mo  Mo21  1  0.01876100  0.45017800  0.24250400  1
  Mo  Mo22  1  0.95204400  0.95208500  0.74527500  1
  Mo  Mo23  1  0.75751200  0.54994600  0.98123000  1
  P  P24  1  0.76545700  0.76545700  0.76545700  1
  P  P25  1  0.23454300  0.23454300  0.23454300  1
  H  H26  1  0.63108400  0.62432200  0.24058800  1
  H  H27  1  0.73971800  0.84837800  0.32262900  1
  H  H28  1  0.25866800  0.67647100  0.15296700  1
  H  H29  1  0.38836400  0.65845100  0.28377500  1
  H  H30  1  0.84575400  0.84638700  0.21427700  1
  H  H31  1  0.67737100  0.26028200  0.15162200  1
  H  H32  1  0.36891600  0.37567800  0.75941200  1
  H  H33  1  0.83156100  0.30788400  0.20945100  1
  H  H34  1  0.61163600  0.34154900  0.71622500  1
  H  H35  1  0.21427700  0.84575400  0.84638700  1
  H  H36  1  0.69218700  0.16885900  0.79132300  1
  H  H37  1  0.32262900  0.73971800  0.84837800  1
  H  H38  1  0.37567800  0.75941200  0.36891600  1
  H  H39  1  0.20945100  0.83156100  0.30788400  1
  H  H40  1  0.79054900  0.16843900  0.69211600  1
  H  H41  1  0.62432200  0.24058800  0.63108400  1
  H  H42  1  0.33594000  0.60682200  0.71654800  1
  H  H43  1  0.32352900  0.84703300  0.74133200  1
  H  H44  1  0.78572300  0.15424600  0.15361300  1
  H  H45  1  0.15424600  0.15361300  0.78572300  1
  H  H46  1  0.83114100  0.20867700  0.30781300  1
  H  H47  1  0.16885900  0.79132300  0.69218700  1
  H  H48  1  0.79132300  0.69218700  0.16885900  1
  H  H49  1  0.84837800  0.32262900  0.73971800  1
  H  H50  1  0.84703300  0.74133200  0.32352900  1
  H  H51  1  0.20867700  0.30781300  0.83114100  1
  H  H52  1  0.66406000  0.39317800  0.28345200  1
  H  H53  1  0.74133200  0.32352900  0.84703300  1
  H  H54  1  0.26028200  0.15162200  0.67737100  1
  H  H55  1  0.65845100  0.28377500  0.38836400  1
  H  H56  1  0.24058800  0.63108400  0.62432200  1
  H  H57  1  0.39317800  0.28345200  0.66406000  1
  H  H58  1  0.15162200  0.67737100  0.26028200  1
  H  H59  1  0.84638700  0.21427700  0.84575400  1
  H  H60  1  0.28345200  0.66406000  0.39317800  1
  H  H61  1  0.34154900  0.71622500  0.61163600  1
  H  H62  1  0.67647100  0.15296700  0.25866800  1
  H  H63  1  0.30788400  0.20945100  0.83156100  1
  H  H64  1  0.16843900  0.69211600  0.79054900  1
  H  H65  1  0.15296700  0.25866800  0.67647100  1
  H  H66  1  0.71622500  0.61163600  0.34154900  1
  H  H67  1  0.30781300  0.83114100  0.20867700  1
  H  H68  1  0.15361300  0.78572300  0.15424600  1
  H  H69  1  0.75941200  0.36891600  0.37567800  1
  H  H70  1  0.28377500  0.38836400  0.65845100  1
  H  H71  1  0.71654800  0.33594000  0.60682200  1
  H  H72  1  0.69211600  0.79054900  0.16843900  1
  H  H73  1  0.60682200  0.71654800  0.33594000  1
  C  C74  1  0.33287700  0.71058500  0.33235000  1
  C  C75  1  0.28941500  0.66765000  0.66712300  1
  C  C76  1  0.27374100  0.79696300  0.79796100  1
  C  C77  1  0.66712300  0.28941500  0.66765000  1
  C  C78  1  0.79796100  0.27374100  0.79696300  1
  C  C79  1  0.20303700  0.20203900  0.72625900  1
  C  C80  1  0.72625900  0.20303700  0.20203900  1
  C  C81  1  0.66765000  0.66712300  0.28941500  1
  C  C82  1  0.20203900  0.72625900  0.20303700  1
  C  C83  1  0.71058500  0.33235000  0.33287700  1
  C  C84  1  0.79696300  0.79796100  0.27374100  1
  C  C85  1  0.33235000  0.33287700  0.71058500  1
  N  N86  1  0.73769400  0.73760400  0.21756900  1
  N  N87  1  0.26230600  0.26239600  0.78243100  1
  N  N88  1  0.21756900  0.73769400  0.73760400  1
  N  N89  1  0.78243100  0.26230600  0.26239600  1
  N  N90  1  0.26239600  0.78243100  0.26230600  1
  N  N91  1  0.73760400  0.21756900  0.73769400  1
  O  O92  1  0.91165200  0.65714100  0.49767200  1
  O  O93  1  0.63779400  0.04869200  0.63764400  1
  O  O94  1  0.34938100  0.15303100  0.99548100  1
  O  O95  1  0.30484700  0.30506300  0.15416200  1
  O  O96  1  0.84583800  0.69515300  0.69493700  1
  O  O97  1  0.49767200  0.91165200  0.65714100  1
  O  O98  1  0.50232800  0.08834800  0.34285900  1
  O  O99  1  0.85697100  0.85699500  0.01696800  1
  O  O100  1  0.50651600  0.21287600  0.50643800  1
  O  O101  1  0.91838800  0.55166900  0.22078700  1
  O  O102  1  0.49356200  0.49348400  0.78712400  1
  O  O103  1  0.99524600  0.15317200  0.34924400  1
  O  O104  1  0.86779800  0.51566800  0.86790900  1
  O  O105  1  0.95881300  0.28983400  0.95926600  1
  O  O106  1  0.34924400  0.99524600  0.15317200  1
  O  O107  1  0.55166900  0.22078700  0.91838800  1
  O  O108  1  0.63764400  0.63779400  0.04869200  1
  O  O109  1  0.15416200  0.30484700  0.30506300  1
  O  O110  1  0.22078700  0.91838800  0.55166900  1
  O  O111  1  0.69493700  0.84583800  0.69515300  1
  O  O112  1  0.21287600  0.50643800  0.50651600  1
  O  O113  1  0.84682800  0.65075600  0.00475400  1
  O  O114  1  0.44833100  0.77921300  0.08161200  1
  O  O115  1  0.49755000  0.65719000  0.91170800  1
  O  O116  1  0.30208900  0.30209700  0.45814400  1
  O  O117  1  0.36220600  0.95130800  0.36235600  1
  O  O118  1  0.65075600  0.00475400  0.84682800  1
  O  O119  1  0.14302900  0.14300500  0.98303200  1
  O  O120  1  0.28983400  0.95926600  0.95881300  1
  O  O121  1  0.04118700  0.71016600  0.04073400  1
  O  O122  1  0.13209100  0.13220200  0.48433200  1
  O  O123  1  0.08834800  0.34285900  0.50232800  1
  O  O124  1  0.30506300  0.15416200  0.30484700  1
  O  O125  1  0.95926600  0.95881300  0.28983400  1
  O  O126  1  0.54185600  0.69791100  0.69790300  1
  O  O127  1  0.85699500  0.01696800  0.85697100  1
  O  O128  1  0.15303100  0.99548100  0.34938100  1
  O  O129  1  0.65061900  0.84696900  0.00451900  1
  O  O130  1  0.77897900  0.44869000  0.08191500  1
  O  O131  1  0.04073400  0.04118700  0.71016600  1
  O  O132  1  0.65714100  0.49767200  0.91165200  1
  O  O133  1  0.77921300  0.08161200  0.44833100  1
  O  O134  1  0.49348400  0.78712400  0.49356200  1
  O  O135  1  0.84696900  0.00451900  0.65061900  1
  O  O136  1  0.34281000  0.08829200  0.50245000  1
  O  O137  1  0.08161200  0.44833100  0.77921300  1
  O  O138  1  0.50245000  0.34281000  0.08829200  1
  O  O139  1  0.78712400  0.49356200  0.49348400  1
  O  O140  1  0.65719000  0.91170800  0.49755000  1
  O  O141  1  0.00451900  0.65061900  0.84696900  1
  O  O142  1  0.45814400  0.30208900  0.30209700  1
  O  O143  1  0.44869000  0.08191500  0.77897900  1
  O  O144  1  0.69790300  0.54185600  0.69791100  1
  O  O145  1  0.71016600  0.04073400  0.04118700  1
  O  O146  1  0.50643800  0.50651600  0.21287600  1
  O  O147  1  0.13220200  0.48433200  0.13209100  1
  O  O148  1  0.36235600  0.36220600  0.95130800  1
  O  O149  1  0.08191500  0.77897900  0.44869000  1
  O  O150  1  0.98303200  0.14302900  0.14300500  1
  O  O151  1  0.34285900  0.50232800  0.08834800  1
  O  O152  1  0.91808500  0.22102100  0.55131000  1
  O  O153  1  0.69515300  0.69493700  0.84583800  1
  O  O154  1  0.82604100  0.82604100  0.82604100  1
  O  O155  1  0.95130800  0.36235600  0.36220600  1
  O  O156  1  0.99548100  0.34938100  0.15303100  1
  O  O157  1  0.69791100  0.69790300  0.54185600  1
  O  O158  1  0.22102100  0.55131000  0.91808500  1
  O  O159  1  0.15317200  0.34924400  0.99524600  1
  O  O160  1  0.48433200  0.13209100  0.13220200  1
  O  O161  1  0.08829200  0.50245000  0.34281000  1
  O  O162  1  0.01696800  0.85697100  0.85699500  1
  O  O163  1  0.17395900  0.17395900  0.17395900  1
  O  O164  1  0.30209700  0.45814400  0.30208900  1
  O  O165  1  0.91170800  0.49755000  0.65719000  1
  O  O166  1  0.51566800  0.86790900  0.86779800  1
  O  O167  1  0.86790900  0.86779800  0.51566800  1
  O  O168  1  0.00475400  0.84682800  0.65075600  1
  O  O169  1  0.04869200  0.63764400  0.63779400  1
  O  O170  1  0.55131000  0.91808500  0.22102100  1
  O  O171  1  0.14300500  0.98303200  0.14302900  1
