# generated using pymatgen
data_Cu2H10C6S3N4
_symmetry_space_group_name_H-M   'P 1'
_cell_length_a   30.63518000
_cell_length_b   5.79854300
_cell_length_c   7.63740786
_cell_angle_alpha   67.73850528
_cell_angle_beta   90.00000000
_cell_angle_gamma   90.00000000
_symmetry_Int_Tables_number   1
_chemical_formula_structural   Cu2H10C6S3N4
_chemical_formula_sum   'Cu8 H40 C24 S12 N16'
_cell_volume   1255.58198549
_cell_formula_units_Z   4
loop_
 _symmetry_equiv_pos_site_id
 _symmetry_equiv_pos_as_xyz
  1  'x, y, z'
loop_
 _atom_site_type_symbol
 _atom_site_label
 _atom_site_symmetry_multiplicity
 _atom_site_fract_x
 _atom_site_fract_y
 _atom_site_fract_z
 _atom_site_occupancy
  Cu  Cu0  1  0.04068600  0.92490900  0.16672900  1
  Cu  Cu1  1  0.21410200  0.32025400  0.23617500  1
  Cu  Cu2  1  0.71410200  0.67974600  0.76382500  1
  Cu  Cu3  1  0.54068600  0.07509100  0.83327100  1
  Cu  Cu4  1  0.96028700  0.07384300  0.32943300  1
  Cu  Cu5  1  0.46028700  0.92615700  0.67056700  1
  Cu  Cu6  1  0.78659500  0.68469500  0.26216200  1
  Cu  Cu7  1  0.28659500  0.31530500  0.73783800  1
  H  H8  1  0.36269600  0.91840900  0.03685700  1
  H  H9  1  0.09697200  0.70277100  0.67952000  1
  H  H10  1  0.94840500  0.95956000  0.76740500  1
  H  H11  1  0.39154200  0.86112000  0.41984000  1
  H  H12  1  0.84655600  0.70392700  0.74077000  1
  H  H13  1  0.41837500  0.29101500  0.25527300  1
  H  H14  1  0.13740800  0.91758800  0.53735800  1
  H  H15  1  0.91237700  0.77058400  0.95505800  1
  H  H16  1  0.05131500  0.04910400  0.72795800  1
  H  H17  1  0.40355100  0.70775900  0.17647200  1
  H  H18  1  0.34691100  0.67520300  0.25366100  1
  H  H19  1  0.82883600  0.97780600  0.55080600  1
  H  H20  1  0.31487800  0.07304200  0.21235800  1
  H  H21  1  0.60874900  0.14114200  0.07662100  1
  H  H22  1  0.68445300  0.92448200  0.29061400  1
  H  H23  1  0.44840500  0.04044000  0.23259500  1
  H  H24  1  0.32883600  0.02219400  0.44919400  1
  H  H25  1  0.86269600  0.08159100  0.96314300  1
  H  H26  1  0.89154200  0.13888000  0.58016000  1
  H  H27  1  0.58050400  0.71324500  0.24221200  1
  H  H28  1  0.17045300  0.03361800  0.95010100  1
  H  H29  1  0.90355100  0.29224100  0.82352800  1
  H  H30  1  0.81487800  0.92695800  0.78764200  1
  H  H31  1  0.67045300  0.96638200  0.04989900  1
  H  H32  1  0.58701300  0.77190300  0.45573600  1
  H  H33  1  0.65381600  0.32300400  0.24437400  1
  H  H34  1  0.41237700  0.22941600  0.04494200  1
  H  H35  1  0.59697200  0.29722900  0.32048000  1
  H  H36  1  0.63740800  0.08241200  0.46264200  1
  H  H37  1  0.15381600  0.67699600  0.75562600  1
  H  H38  1  0.65201200  0.69805500  0.24479900  1
  H  H39  1  0.91837500  0.70898500  0.74472700  1
  H  H40  1  0.08050400  0.28675500  0.75778800  1
  H  H41  1  0.10874900  0.85885800  0.92337900  1
  H  H42  1  0.08701300  0.22809700  0.54426400  1
  H  H43  1  0.84691100  0.32479700  0.74633900  1
  H  H44  1  0.18445300  0.07551800  0.70938600  1
  H  H45  1  0.15201200  0.30194500  0.75520100  1
  H  H46  1  0.55131500  0.95089600  0.27204200  1
  H  H47  1  0.34655600  0.29607300  0.25923000  1
  C  C48  1  0.11325000  0.27421400  0.18656300  1
  C  C49  1  0.08221900  0.15045400  0.69510400  1
  C  C50  1  0.58221900  0.84954600  0.30489600  1
  C  C51  1  0.65940000  0.89573800  0.19913400  1
  C  C52  1  0.26347000  0.77216000  0.85415700  1
  C  C53  1  0.23660100  0.77014100  0.35486400  1
  C  C54  1  0.48892100  0.51781400  0.52760600  1
  C  C55  1  0.01070900  0.52383900  0.03114600  1
  C  C56  1  0.41747400  0.15090100  0.19212300  1
  C  C57  1  0.83961200  0.90179600  0.69778000  1
  C  C58  1  0.73660100  0.22985900  0.64513600  1
  C  C59  1  0.51070900  0.47616100  0.96885400  1
  C  C60  1  0.61325000  0.72578600  0.81343700  1
  C  C61  1  0.91747400  0.84909900  0.80787700  1
  C  C62  1  0.33961200  0.09820400  0.30222000  1
  C  C63  1  0.62683100  0.19968900  0.31550900  1
  C  C64  1  0.87260000  0.19943900  0.81966300  1
  C  C65  1  0.98892100  0.48218600  0.47239400  1
  C  C66  1  0.37260000  0.80056100  0.18033700  1
  C  C67  1  0.15940000  0.10426200  0.80086600  1
  C  C68  1  0.88725100  0.72773000  0.30892300  1
  C  C69  1  0.12683100  0.80031100  0.68449100  1
  C  C70  1  0.38725100  0.27227000  0.69107700  1
  C  C71  1  0.76347000  0.22784000  0.14584300  1
  S  S72  1  0.24354300  0.49057900  0.90743200  1
  S  S73  1  0.48718500  0.72602700  0.98496800  1
  S  S74  1  0.74354300  0.50942100  0.09256800  1
  S  S75  1  0.64496000  0.51000700  0.78773400  1
  S  S76  1  0.25659900  0.49001500  0.40775400  1
  S  S77  1  0.85558600  0.51516000  0.28230400  1
  S  S78  1  0.75659900  0.50998500  0.59224600  1
  S  S79  1  0.51298300  0.27411400  0.51045100  1
  S  S80  1  0.98718500  0.27397300  0.01503200  1
  S  S81  1  0.35558600  0.48484000  0.71769600  1
  S  S82  1  0.01298300  0.72588600  0.48954900  1
  S  S83  1  0.14496000  0.48999300  0.21226600  1
  N  N84  1  0.38147100  0.97146400  0.28386100  1
  N  N85  1  0.52937700  0.31268500  0.94747600  1
  N  N86  1  0.58951500  0.87831700  0.82551400  1
  N  N87  1  0.97233700  0.30835400  0.44662100  1
  N  N88  1  0.47233700  0.69164600  0.55337900  1
  N  N89  1  0.88147100  0.02853600  0.71613900  1
  N  N90  1  0.41103500  0.12493600  0.66981700  1
  N  N91  1  0.61820300  0.03014900  0.21336600  1
  N  N92  1  0.11820300  0.96985100  0.78663400  1
  N  N93  1  0.27784700  0.97538900  0.81139500  1
  N  N94  1  0.72162200  0.03256400  0.68164500  1
  N  N95  1  0.22162200  0.96743600  0.31835500  1
  N  N96  1  0.77784700  0.02461100  0.18860500  1
  N  N97  1  0.91103500  0.87506400  0.33018300  1
  N  N98  1  0.08951500  0.12168300  0.17448600  1
  N  N99  1  0.02937700  0.68731500  0.05252400  1
