# generated using pymatgen
data_SrCuH4(CO2)4
_symmetry_space_group_name_H-M   'P 1'
_cell_length_a   8.96403400
_cell_length_b   7.32883000
_cell_length_c   7.40385088
_cell_angle_alpha   87.33660625
_cell_angle_beta   90.00000000
_cell_angle_gamma   90.00000000
_symmetry_Int_Tables_number   1
_chemical_formula_structural   SrCuH4(CO2)4
_chemical_formula_sum   'Sr2 Cu2 H8 C8 O16'
_cell_volume   485.87708080
_cell_formula_units_Z   2
loop_
 _symmetry_equiv_pos_site_id
 _symmetry_equiv_pos_as_xyz
  1  'x, y, z'
loop_
 _atom_site_type_symbol
 _atom_site_label
 _atom_site_symmetry_multiplicity
 _atom_site_fract_x
 _atom_site_fract_y
 _atom_site_fract_z
 _atom_site_occupancy
  Sr  Sr0  1  0.17722900  0.00000000  0.25000000  1
  Sr  Sr1  1  0.82277100  0.00000000  0.75000000  1
  Cu  Cu2  1  0.61175600  0.50000000  0.75000000  1
  Cu  Cu3  1  0.38824400  0.50000000  0.25000000  1
  H  H4  1  0.85029900  0.60897100  0.48334300  1
  H  H5  1  0.41810000  0.27790600  0.62117700  1
  H  H6  1  0.85029900  0.39102900  0.01665700  1
  H  H7  1  0.14970100  0.60897100  0.98334300  1
  H  H8  1  0.58190000  0.72209400  0.37882300  1
  H  H9  1  0.14970100  0.39102900  0.51665700  1
  H  H10  1  0.41810000  0.72209400  0.87882300  1
  H  H11  1  0.58190000  0.27790600  0.12117700  1
  C  C12  1  0.45488100  0.69114700  0.74131800  1
  C  C13  1  0.45488100  0.30885300  0.75868200  1
  C  C14  1  0.63004800  0.79425500  0.10707900  1
  C  C15  1  0.36995200  0.79425500  0.60707900  1
  C  C16  1  0.63004800  0.20574500  0.39292100  1
  C  C17  1  0.54511900  0.30885300  0.25868200  1
  C  C18  1  0.36995200  0.20574500  0.89292100  1
  C  C19  1  0.54511900  0.69114700  0.24131800  1
  O  O20  1  0.89243800  0.67990100  0.58099300  1
  O  O21  1  0.10756200  0.67990100  0.08099300  1
  O  O22  1  0.89243800  0.32009900  0.91900700  1
  O  O23  1  0.34503100  0.06395500  0.98220800  1
  O  O24  1  0.65496900  0.93604500  0.01779200  1
  O  O25  1  0.70145200  0.63764300  0.12481600  1
  O  O26  1  0.24305800  0.69485700  0.20206300  1
  O  O27  1  0.10756200  0.32009900  0.41900700  1
  O  O28  1  0.65496900  0.06395500  0.48220800  1
  O  O29  1  0.34503100  0.93604500  0.51779200  1
  O  O30  1  0.70145200  0.36235700  0.37518400  1
  O  O31  1  0.75694200  0.69485700  0.70206300  1
  O  O32  1  0.29854800  0.63764300  0.62481600  1
  O  O33  1  0.75694200  0.30514300  0.79793700  1
  O  O34  1  0.29854800  0.36235700  0.87518400  1
  O  O35  1  0.24305800  0.30514300  0.29793700  1
