# generated using pymatgen
data_H7WC7NO5
_symmetry_space_group_name_H-M   'P 1'
_cell_length_a   10.30442300
_cell_length_b   9.16090600
_cell_length_c   12.14712862
_cell_angle_alpha   74.27364045
_cell_angle_beta   90.00000000
_cell_angle_gamma   90.00000000
_symmetry_Int_Tables_number   1
_chemical_formula_structural   H7WC7NO5
_chemical_formula_sum   'H28 W4 C28 N4 O20'
_cell_volume   1103.73997578
_cell_formula_units_Z   4
loop_
 _symmetry_equiv_pos_site_id
 _symmetry_equiv_pos_as_xyz
  1  'x, y, z'
loop_
 _atom_site_type_symbol
 _atom_site_label
 _atom_site_symmetry_multiplicity
 _atom_site_fract_x
 _atom_site_fract_y
 _atom_site_fract_z
 _atom_site_occupancy
  H  H0  1  0.88125400  0.63363500  0.07295100  1
  H  H1  1  0.11874600  0.36636500  0.92704900  1
  H  H2  1  0.20159700  0.66091900  0.15447700  1
  H  H3  1  0.96438600  0.45851200  0.89782400  1
  H  H4  1  0.53561400  0.45851200  0.39782400  1
  H  H5  1  0.64376800  0.38890000  0.20037200  1
  H  H6  1  0.48912500  0.81620300  0.60298300  1
  H  H7  1  0.61874600  0.63363500  0.57295100  1
  H  H8  1  0.41461900  0.49061900  0.28870900  1
  H  H9  1  0.68332200  0.19643000  0.27137000  1
  H  H10  1  0.31667800  0.80357000  0.72863000  1
  H  H11  1  0.35623200  0.61110000  0.79962800  1
  H  H12  1  0.29840300  0.66091900  0.65447700  1
  H  H13  1  0.46438600  0.54148800  0.60217600  1
  H  H14  1  0.58538100  0.50938100  0.71129100  1
  H  H15  1  0.91461900  0.50938100  0.21129100  1
  H  H16  1  0.03561400  0.54148800  0.10217600  1
  H  H17  1  0.70159700  0.33908100  0.34552300  1
  H  H18  1  0.85623200  0.38890000  0.70037200  1
  H  H19  1  0.98912500  0.18379700  0.89701700  1
  H  H20  1  0.08538100  0.49061900  0.78870900  1
  H  H21  1  0.38125400  0.36636500  0.42704900  1
  H  H22  1  0.81667800  0.19643000  0.77137000  1
  H  H23  1  0.79840300  0.33908100  0.84552300  1
  H  H24  1  0.18332200  0.80357000  0.22863000  1
  H  H25  1  0.51087500  0.18379700  0.39701700  1
  H  H26  1  0.01087500  0.81620300  0.10298300  1
  H  H27  1  0.14376800  0.61110000  0.29962800  1
  W  W28  1  0.13562800  0.18189900  0.70417600  1
  W  W29  1  0.63562800  0.81810100  0.79582400  1
  W  W30  1  0.36437200  0.18189900  0.20417600  1
  W  W31  1  0.86437200  0.81810100  0.29582400  1
  C  C32  1  0.61657800  0.03631600  0.68817500  1
  C  C33  1  0.45632100  0.40525900  0.36165700  1
  C  C34  1  0.64228900  0.30165800  0.28270200  1
  C  C35  1  0.75955300  0.89593400  0.89474700  1
  C  C36  1  0.01597000  0.85715300  0.39722600  1
  C  C37  1  0.24044700  0.10406600  0.10525300  1
  C  C38  1  0.29644800  0.22486800  0.79275300  1
  C  C39  1  0.95632100  0.59474100  0.13834300  1
  C  C40  1  0.88342200  0.03631600  0.18817500  1
  C  C41  1  0.04367900  0.40525900  0.86165700  1
  C  C42  1  0.11657800  0.96368400  0.81182500  1
  C  C43  1  0.85771100  0.30165800  0.78270200  1
  C  C44  1  0.65317600  0.60564100  0.90906500  1
  C  C45  1  0.14228900  0.69834200  0.21729800  1
  C  C46  1  0.48403000  0.85715300  0.89722600  1
  C  C47  1  0.51597000  0.14284700  0.10277400  1
  C  C48  1  0.84682400  0.60564100  0.40906500  1
  C  C49  1  0.38342200  0.96368400  0.31182500  1
  C  C50  1  0.54367900  0.59474100  0.63834300  1
  C  C51  1  0.15317600  0.39435900  0.59093500  1
  C  C52  1  0.70355200  0.77513200  0.20724700  1
  C  C53  1  0.35771100  0.69834200  0.71729800  1
  C  C54  1  0.34682400  0.39435900  0.09093500  1
  C  C55  1  0.79644800  0.77513200  0.70724700  1
  C  C56  1  0.20355200  0.22486800  0.29275300  1
  C  C57  1  0.74044700  0.89593400  0.39474700  1
  C  C58  1  0.98403000  0.14284700  0.60277400  1
  C  C59  1  0.25955300  0.10406600  0.60525300  1
  N  N60  1  0.49358700  0.72695300  0.67509600  1
  N  N61  1  0.50641300  0.27304700  0.32490400  1
  N  N62  1  0.99358700  0.27304700  0.82490400  1
  N  N63  1  0.00641300  0.72695300  0.17509600  1
  O  O64  1  0.60792100  0.75030600  0.16418100  1
  O  O65  1  0.59589800  0.12211700  0.04113200  1
  O  O66  1  0.40410200  0.87788300  0.95886800  1
  O  O67  1  0.33486800  0.06078300  0.54821700  1
  O  O68  1  0.60723900  0.16057100  0.63102400  1
  O  O69  1  0.16513200  0.06078300  0.04821700  1
  O  O70  1  0.09589800  0.87788300  0.45886800  1
  O  O71  1  0.33278300  0.51053000  0.02238600  1
  O  O72  1  0.39207900  0.24969400  0.83581900  1
  O  O73  1  0.10723900  0.83942900  0.86897600  1
  O  O74  1  0.66721700  0.48947000  0.97761400  1
  O  O75  1  0.89207900  0.75030600  0.66418100  1
  O  O76  1  0.39276100  0.83942900  0.36897600  1
  O  O77  1  0.83486800  0.93921700  0.95178300  1
  O  O78  1  0.10792100  0.24969400  0.33581900  1
  O  O79  1  0.83278300  0.48947000  0.47761400  1
  O  O80  1  0.16721700  0.51053000  0.52238600  1
  O  O81  1  0.89276100  0.16057100  0.13102400  1
  O  O82  1  0.66513200  0.93921700  0.45178300  1
  O  O83  1  0.90410200  0.12211700  0.54113200  1
