# generated using pymatgen
data_SbH12C5N3Cl4
_symmetry_space_group_name_H-M   'P 1'
_cell_length_a   10.12582200
_cell_length_b   15.60442000
_cell_length_c   17.46712265
_cell_angle_alpha   72.72129075
_cell_angle_beta   90.00000000
_cell_angle_gamma   90.00000000
_symmetry_Int_Tables_number   1
_chemical_formula_structural   SbH12C5N3Cl4
_chemical_formula_sum   'Sb8 H96 C40 N24 Cl32'
_cell_volume   2635.38518858
_cell_formula_units_Z   8
loop_
 _symmetry_equiv_pos_site_id
 _symmetry_equiv_pos_as_xyz
  1  'x, y, z'
loop_
 _atom_site_type_symbol
 _atom_site_label
 _atom_site_symmetry_multiplicity
 _atom_site_fract_x
 _atom_site_fract_y
 _atom_site_fract_z
 _atom_site_occupancy
  Sb  Sb0  1  0.53305500  0.73485600  0.66729300  1
  Sb  Sb1  1  0.14587000  0.21647800  0.83092900  1
  Sb  Sb2  1  0.03305500  0.76514400  0.33270700  1
  Sb  Sb3  1  0.64587000  0.28352200  0.16907100  1
  Sb  Sb4  1  0.35413000  0.71647800  0.83092900  1
  Sb  Sb5  1  0.46694500  0.26514400  0.33270700  1
  Sb  Sb6  1  0.85413000  0.78352200  0.16907100  1
  Sb  Sb7  1  0.96694500  0.23485600  0.66729300  1
  H  H8  1  0.81487700  0.33574900  0.35295600  1
  H  H9  1  0.34183900  0.39135900  0.51106900  1
  H  H10  1  0.62175500  0.07377600  0.84364800  1
  H  H11  1  0.37824500  0.92622400  0.15635200  1
  H  H12  1  0.45970600  0.96922400  0.58550800  1
  H  H13  1  0.00563100  0.11318600  0.41672300  1
  H  H14  1  0.92465400  0.80360400  0.66467200  1
  H  H15  1  0.66235900  0.99590000  0.79059600  1
  H  H16  1  0.18223600  0.70651200  0.17023200  1
  H  H17  1  0.04029400  0.46922400  0.58550800  1
  H  H18  1  0.09617900  0.65946600  0.73675500  1
  H  H19  1  0.83764100  0.49590000  0.79059600  1
  H  H20  1  0.21699800  0.87787500  0.97899900  1
  H  H21  1  0.79572100  0.53483100  0.51438700  1
  H  H22  1  0.64898800  0.76950900  0.93532000  1
  H  H23  1  0.98996500  0.98565400  0.20636300  1
  H  H24  1  0.48185300  0.39329300  0.68275900  1
  H  H25  1  0.84183900  0.10864100  0.48893100  1
  H  H26  1  0.57534600  0.30360400  0.66467200  1
  H  H27  1  0.81776400  0.29348800  0.82976800  1
  H  H28  1  0.29269600  0.47037100  0.01925500  1
  H  H29  1  0.59745300  0.42237000  0.83590200  1
  H  H30  1  0.85101200  0.26950900  0.93532000  1
  H  H31  1  0.90382100  0.34053400  0.26324500  1
  H  H32  1  0.31436600  0.73218900  0.09828600  1
  H  H33  1  0.64250800  0.09316100  0.97257900  1
  H  H34  1  0.48906000  0.18615400  0.64340500  1
  H  H35  1  0.31776400  0.20651200  0.17023200  1
  H  H36  1  0.67336300  0.96250600  0.39947900  1
  H  H37  1  0.59617900  0.84053400  0.26324500  1
  H  H38  1  0.71699800  0.62212500  0.02100100  1
  H  H39  1  0.01003500  0.01434600  0.79363700  1
  H  H40  1  0.34877700  0.50089300  0.52563800  1
  H  H41  1  0.35101200  0.23049100  0.06468000  1
  H  H42  1  0.16235900  0.50410000  0.20940400  1
  H  H43  1  0.84877700  0.99910700  0.47436200  1
  H  H44  1  0.42465400  0.69639600  0.33532800  1
  H  H45  1  0.68512300  0.83574900  0.35295600  1
  H  H46  1  0.15816100  0.89135900  0.51106900  1
  H  H47  1  0.60233600  0.04478500  0.31512400  1
  H  H48  1  0.68223600  0.79348800  0.82976800  1
  H  H49  1  0.18512300  0.66425100  0.64704400  1
  H  H50  1  0.63258000  0.49680300  0.73839400  1
  H  H51  1  0.65122300  0.49910700  0.47436200  1
  H  H52  1  0.79269600  0.02962900  0.98074500  1
  H  H53  1  0.49436900  0.61318600  0.41672300  1
  H  H54  1  0.65816100  0.60864100  0.48893100  1
  H  H55  1  0.17336300  0.53749400  0.60052100  1
  H  H56  1  0.40254700  0.57763000  0.16409800  1
  H  H57  1  0.14250800  0.40683900  0.02742100  1
  H  H58  1  0.31487700  0.16425100  0.64704400  1
  H  H59  1  0.89766400  0.54478500  0.31512400  1
  H  H60  1  0.17154000  0.53836900  0.10276700  1
  H  H61  1  0.48996500  0.51434600  0.79363700  1
  H  H62  1  0.70427900  0.03483100  0.51438700  1
  H  H63  1  0.54029400  0.03077600  0.41449200  1
  H  H64  1  0.32663700  0.03749400  0.60052100  1
  H  H65  1  0.01094000  0.68615400  0.64340500  1
  H  H66  1  0.10233600  0.45521500  0.68487600  1
  H  H67  1  0.86742000  0.99680300  0.73839400  1
  H  H68  1  0.68563400  0.26781100  0.90171400  1
  H  H69  1  0.33764100  0.00410000  0.20940400  1
  H  H70  1  0.29572100  0.96516900  0.48561300  1
  H  H71  1  0.39766400  0.95521500  0.68487600  1
  H  H72  1  0.78300200  0.12212500  0.02100100  1
  H  H73  1  0.35749200  0.90683900  0.02742100  1
  H  H74  1  0.20427900  0.46516900  0.48561300  1
  H  H75  1  0.82846000  0.46163100  0.89723300  1
  H  H76  1  0.18563400  0.23218900  0.09828600  1
  H  H77  1  0.14898800  0.73049100  0.06468000  1
  H  H78  1  0.99436900  0.88681400  0.58327700  1
  H  H79  1  0.32846000  0.03836900  0.10276700  1
  H  H80  1  0.50563100  0.38681400  0.58327700  1
  H  H81  1  0.98906000  0.31384600  0.35659500  1
  H  H82  1  0.98185300  0.10670700  0.31724100  1
  H  H83  1  0.40382100  0.15946600  0.73675500  1
  H  H84  1  0.07534600  0.19639600  0.33532800  1
  H  H85  1  0.20730400  0.97037100  0.01925500  1
  H  H86  1  0.51094000  0.81384600  0.35659500  1
  H  H87  1  0.36742000  0.50319700  0.26160600  1
  H  H88  1  0.67154000  0.96163100  0.89723300  1
  H  H89  1  0.95970600  0.53077600  0.41449200  1
  H  H90  1  0.51814700  0.60670700  0.31724100  1
  H  H91  1  0.90254700  0.92237000  0.83590200  1
  H  H92  1  0.87824500  0.57377600  0.84364800  1
  H  H93  1  0.09745300  0.07763000  0.16409800  1
  H  H94  1  0.15122300  0.00089300  0.52563800  1
  H  H95  1  0.28300200  0.37787500  0.97899900  1
  H  H96  1  0.01814700  0.89329300  0.68275900  1
  H  H97  1  0.85749200  0.59316100  0.97257900  1
  H  H98  1  0.82663700  0.46250600  0.39947900  1
  H  H99  1  0.81436600  0.76781100  0.90171400  1
  H  H100  1  0.51003500  0.48565400  0.20636300  1
  H  H101  1  0.13258000  0.00319700  0.26160600  1
  H  H102  1  0.12175500  0.42622400  0.15635200  1
  H  H103  1  0.70730400  0.52962900  0.98074500  1
  C  C104  1  0.18738700  0.48185600  0.15713100  1
  C  C105  1  0.24880000  0.90330500  0.02840400  1
  C  C106  1  0.74894100  0.17630700  0.34316300  1
  C  C107  1  0.78880000  0.25312100  0.88990600  1
  C  C108  1  0.31261300  0.98185600  0.15713100  1
  C  C109  1  0.28588100  0.44247900  0.52852900  1
  C  C110  1  0.86320000  0.12801000  0.84092300  1
  C  C111  1  0.25120000  0.40330500  0.02840400  1
  C  C112  1  0.21411900  0.94247900  0.52852900  1
  C  C113  1  0.21120000  0.74687900  0.11009400  1
  C  C114  1  0.87118200  0.52976800  0.37824500  1
  C  C115  1  0.39554500  0.19393400  0.67233000  1
  C  C116  1  0.24894100  0.32369300  0.65683700  1
  C  C117  1  0.51058300  0.65270400  0.35398200  1
  C  C118  1  0.37118200  0.97023200  0.62175500  1
  C  C119  1  0.89554500  0.30606600  0.32767000  1
  C  C120  1  0.98941700  0.15270400  0.35398200  1
  C  C121  1  0.62881800  0.02976800  0.37824500  1
  C  C122  1  0.75105900  0.67630700  0.34316300  1
  C  C123  1  0.12881800  0.47023200  0.62175500  1
  C  C124  1  0.68738700  0.01814400  0.84286900  1
  C  C125  1  0.75120000  0.09669500  0.97159600  1
  C  C126  1  0.90716300  0.99257900  0.79818100  1
  C  C127  1  0.01058300  0.84729600  0.64601800  1
  C  C128  1  0.81261300  0.51814400  0.84286900  1
  C  C129  1  0.25105900  0.82369300  0.65683700  1
  C  C130  1  0.74880000  0.59669500  0.97159600  1
  C  C131  1  0.59283700  0.49257900  0.79818100  1
  C  C132  1  0.60445500  0.80606600  0.32767000  1
  C  C133  1  0.48941700  0.34729600  0.64601800  1
  C  C134  1  0.09283700  0.00742100  0.20181900  1
  C  C135  1  0.13680000  0.87199000  0.15907700  1
  C  C136  1  0.28880000  0.24687900  0.11009400  1
  C  C137  1  0.71411900  0.55752100  0.47147100  1
  C  C138  1  0.71120000  0.75312100  0.88990600  1
  C  C139  1  0.40716300  0.50742100  0.20181900  1
  C  C140  1  0.63680000  0.62801000  0.84092300  1
  C  C141  1  0.10445500  0.69393400  0.67233000  1
  C  C142  1  0.78588100  0.05752100  0.47147100  1
  C  C143  1  0.36320000  0.37199000  0.15907700  1
  N  N144  1  0.27244000  0.90832200  0.60818700  1
  N  N145  1  0.62773300  0.70990500  0.34319000  1
  N  N146  1  0.17466100  0.95272000  0.16578700  1
  N  N147  1  0.15148000  0.27427800  0.70370200  1
  N  N148  1  0.53941100  0.67781400  0.79390600  1
  N  N149  1  0.19997800  0.84189100  0.10338200  1
  N  N150  1  0.67466100  0.54728000  0.83421300  1
  N  N151  1  0.30002200  0.34189100  0.10338200  1
  N  N152  1  0.77244000  0.59167800  0.39181300  1
  N  N153  1  0.34852000  0.77427800  0.70370200  1
  N  N154  1  0.37226700  0.29009500  0.65681000  1
  N  N155  1  0.12773300  0.79009500  0.65681000  1
  N  N156  1  0.84852000  0.72572200  0.29629800  1
  N  N157  1  0.65148000  0.22572200  0.29629800  1
  N  N158  1  0.87226700  0.20990500  0.34319000  1
  N  N159  1  0.80002200  0.15810900  0.89661800  1
  N  N160  1  0.82533900  0.04728000  0.83421300  1
  N  N161  1  0.69997800  0.65810900  0.89661800  1
  N  N162  1  0.32533900  0.45272000  0.16578700  1
  N  N163  1  0.46058900  0.32218600  0.20609400  1
  N  N164  1  0.03941100  0.82218600  0.20609400  1
  N  N165  1  0.96058900  0.17781400  0.79390600  1
  N  N166  1  0.22756000  0.40832200  0.60818700  1
  N  N167  1  0.72756000  0.09167800  0.39181300  1
  Cl  Cl168  1  0.57217800  0.38944000  0.36693500  1
  Cl  Cl169  1  0.49383600  0.18343400  0.47301600  1
  Cl  Cl170  1  0.40424500  0.65257900  0.97221600  1
  Cl  Cl171  1  0.25874800  0.33083000  0.35484600  1
  Cl  Cl172  1  0.42782200  0.61056000  0.63306500  1
  Cl  Cl173  1  0.33861700  0.13715000  0.32160400  1
  Cl  Cl174  1  0.91958600  0.63917500  0.15577000  1
  Cl  Cl175  1  0.23511200  0.07048800  0.83691200  1
  Cl  Cl176  1  0.08041400  0.36082500  0.84423000  1
  Cl  Cl177  1  0.90424500  0.84742100  0.02778400  1
  Cl  Cl178  1  0.76488800  0.92951200  0.16308800  1
  Cl  Cl179  1  0.58041400  0.13917500  0.15577000  1
  Cl  Cl180  1  0.92782200  0.88944000  0.36693500  1
  Cl  Cl181  1  0.13092200  0.75996200  0.85441700  1
  Cl  Cl182  1  0.09575500  0.15257900  0.97221600  1
  Cl  Cl183  1  0.74125200  0.66917000  0.64515400  1
  Cl  Cl184  1  0.73511200  0.42951200  0.16308800  1
  Cl  Cl185  1  0.07217800  0.11056000  0.63306500  1
  Cl  Cl186  1  0.50616400  0.81656600  0.52698400  1
  Cl  Cl187  1  0.41958600  0.86082500  0.84423000  1
  Cl  Cl188  1  0.66138300  0.86285000  0.67839600  1
  Cl  Cl189  1  0.75874800  0.16917000  0.64515400  1
  Cl  Cl190  1  0.16138300  0.63715000  0.32160400  1
  Cl  Cl191  1  0.63092200  0.74003800  0.14558300  1
  Cl  Cl192  1  0.83861700  0.36285000  0.67839600  1
  Cl  Cl193  1  0.99383600  0.31656600  0.52698400  1
  Cl  Cl194  1  0.24125200  0.83083000  0.35484600  1
  Cl  Cl195  1  0.59575500  0.34742100  0.02778400  1
  Cl  Cl196  1  0.00616400  0.68343400  0.47301600  1
  Cl  Cl197  1  0.26488800  0.57048800  0.83691200  1
  Cl  Cl198  1  0.36907800  0.25996200  0.85441700  1
  Cl  Cl199  1  0.86907800  0.24003800  0.14558300  1
