# generated using pymatgen
data_K2VH4C4O9
_symmetry_space_group_name_H-M   'P 1'
_cell_length_a   6.98034100
_cell_length_b   15.06526300
_cell_length_c   20.71351000
_cell_angle_alpha   90.00000000
_cell_angle_beta   90.00000000
_cell_angle_gamma   90.00000000
_symmetry_Int_Tables_number   1
_chemical_formula_structural   K2VH4C4O9
_chemical_formula_sum   'K16 V8 H32 C32 O72'
_cell_volume   2178.24665168
_cell_formula_units_Z   8
loop_
 _symmetry_equiv_pos_site_id
 _symmetry_equiv_pos_as_xyz
  1  'x, y, z'
loop_
 _atom_site_type_symbol
 _atom_site_label
 _atom_site_symmetry_multiplicity
 _atom_site_fract_x
 _atom_site_fract_y
 _atom_site_fract_z
 _atom_site_occupancy
  K  K0  1  0.26045100  0.47043300  0.94299000  1
  K  K1  1  0.39397700  0.60366100  0.19335700  1
  K  K2  1  0.76045100  0.02956700  0.05701000  1
  K  K3  1  0.73954900  0.52956700  0.05701000  1
  K  K4  1  0.76045100  0.47043300  0.55701000  1
  K  K5  1  0.39397700  0.89633900  0.69335700  1
  K  K6  1  0.26045100  0.02956700  0.44299000  1
  K  K7  1  0.10602300  0.39633900  0.69335700  1
  K  K8  1  0.23954900  0.97043300  0.94299000  1
  K  K9  1  0.60602300  0.39633900  0.80664300  1
  K  K10  1  0.60602300  0.10366100  0.30664300  1
  K  K11  1  0.23954900  0.52956700  0.44299000  1
  K  K12  1  0.10602300  0.10366100  0.19335700  1
  K  K13  1  0.89397700  0.60366100  0.30664300  1
  K  K14  1  0.89397700  0.89633900  0.80664300  1
  K  K15  1  0.73954900  0.97043300  0.55701000  1
  V  V16  1  0.55878400  0.69843300  0.61175300  1
  V  V17  1  0.05878400  0.80156700  0.38824700  1
  V  V18  1  0.94121600  0.19843300  0.61175300  1
  V  V19  1  0.55878400  0.80156700  0.11175300  1
  V  V20  1  0.44121600  0.19843300  0.88824700  1
  V  V21  1  0.05878400  0.69843300  0.88824700  1
  V  V22  1  0.94121600  0.30156700  0.11175300  1
  V  V23  1  0.44121600  0.30156700  0.38824700  1
  H  H24  1  0.71611900  0.59158600  0.85304600  1
  H  H25  1  0.21611900  0.59158600  0.64695400  1
  H  H26  1  0.02999200  0.22455100  0.84100500  1
  H  H27  1  0.30549100  0.23592900  0.53207700  1
  H  H28  1  0.78388100  0.09158600  0.85304600  1
  H  H29  1  0.37668700  0.10783000  0.75853200  1
  H  H30  1  0.47000800  0.72455100  0.84100500  1
  H  H31  1  0.62331300  0.89217000  0.24146800  1
  H  H32  1  0.80549100  0.26407100  0.46792300  1
  H  H33  1  0.19450900  0.76407100  0.03207700  1
  H  H34  1  0.80549100  0.23592900  0.96792300  1
  H  H35  1  0.62331300  0.60783000  0.74146800  1
  H  H36  1  0.30549100  0.26407100  0.03207700  1
  H  H37  1  0.69450900  0.76407100  0.46792300  1
  H  H38  1  0.37668700  0.39217000  0.25853200  1
  H  H39  1  0.97000800  0.72455100  0.65899500  1
  H  H40  1  0.71611900  0.90841400  0.35304600  1
  H  H41  1  0.28388100  0.40841400  0.14695400  1
  H  H42  1  0.52999200  0.22455100  0.65899500  1
  H  H43  1  0.12331300  0.89217000  0.25853200  1
  H  H44  1  0.12331300  0.60783000  0.75853200  1
  H  H45  1  0.28388100  0.09158600  0.64695400  1
  H  H46  1  0.78388100  0.40841400  0.35304600  1
  H  H47  1  0.69450900  0.73592900  0.96792300  1
  H  H48  1  0.52999200  0.27544900  0.15899500  1
  H  H49  1  0.21611900  0.90841400  0.14695400  1
  H  H50  1  0.87668700  0.10783000  0.74146800  1
  H  H51  1  0.02999200  0.27544900  0.34100500  1
  H  H52  1  0.47000800  0.77544900  0.34100500  1
  H  H53  1  0.87668700  0.39217000  0.24146800  1
  H  H54  1  0.19450900  0.73592900  0.53207700  1
  H  H55  1  0.97000800  0.77544900  0.15899500  1
  C  C56  1  0.08363000  0.29353300  0.84617100  1
  C  C57  1  0.70276200  0.21168200  0.48229200  1
  C  C58  1  0.41637000  0.70646700  0.34617100  1
  C  C59  1  0.24901500  0.43656300  0.09881400  1
  C  C60  1  0.91637000  0.70646700  0.15382900  1
  C  C61  1  0.70276200  0.28831800  0.98229200  1
  C  C62  1  0.29723800  0.78831800  0.51770800  1
  C  C63  1  0.72334600  0.92680700  0.20860500  1
  C  C64  1  0.75098500  0.93656300  0.40118600  1
  C  C65  1  0.79723800  0.71168200  0.48229200  1
  C  C66  1  0.20276200  0.28831800  0.51770800  1
  C  C67  1  0.77665400  0.42680700  0.20860500  1
  C  C68  1  0.58363000  0.20646700  0.15382900  1
  C  C69  1  0.22334600  0.57319300  0.79139500  1
  C  C70  1  0.74901500  0.06343700  0.90118600  1
  C  C71  1  0.24901500  0.06343700  0.59881400  1
  C  C72  1  0.72334600  0.57319300  0.70860500  1
  C  C73  1  0.58363000  0.29353300  0.65382900  1
  C  C74  1  0.22334600  0.92680700  0.29139500  1
  C  C75  1  0.27665400  0.42680700  0.29139500  1
  C  C76  1  0.77665400  0.07319300  0.70860500  1
  C  C77  1  0.25098500  0.93656300  0.09881400  1
  C  C78  1  0.27665400  0.07319300  0.79139500  1
  C  C79  1  0.08363000  0.20646700  0.34617100  1
  C  C80  1  0.25098500  0.56343700  0.59881400  1
  C  C81  1  0.29723800  0.71168200  0.01770800  1
  C  C82  1  0.74901500  0.43656300  0.40118600  1
  C  C83  1  0.75098500  0.56343700  0.90118600  1
  C  C84  1  0.91637000  0.79353300  0.65382900  1
  C  C85  1  0.41637000  0.79353300  0.84617100  1
  C  C86  1  0.79723800  0.78831800  0.98229200  1
  C  C87  1  0.20276200  0.21168200  0.01770800  1
  O  O88  1  0.41837100  0.71450500  0.67467100  1
  O  O89  1  0.24427800  0.69936800  0.36961000  1
  O  O90  1  0.34719200  0.49814300  0.07591700  1
  O  O91  1  0.01677700  0.85828300  0.66943800  1
  O  O92  1  0.32118400  0.50921500  0.77166400  1
  O  O93  1  0.10323900  0.09907900  0.56955600  1
  O  O94  1  0.34719200  0.00185700  0.57591700  1
  O  O95  1  0.75564800  0.83709300  0.02948100  1
  O  O96  1  0.89676100  0.59907900  0.93044400  1
  O  O97  1  0.51677700  0.85828300  0.83056200  1
  O  O98  1  0.72986500  0.89692900  0.14996300  1
  O  O99  1  0.04677700  0.20524500  0.04984900  1
  O  O100  1  0.22986500  0.60307100  0.85003700  1
  O  O101  1  0.15280800  0.50185700  0.57591700  1
  O  O102  1  0.95322300  0.79475500  0.95015100  1
  O  O103  1  0.77013500  0.39692900  0.14996300  1
  O  O104  1  0.95322300  0.70524500  0.45015100  1
  O  O105  1  0.08162900  0.28549500  0.17467100  1
  O  O106  1  0.75572200  0.19936800  0.13039000  1
  O  O107  1  0.84719200  0.49814300  0.42408300  1
  O  O108  1  0.48322300  0.14171700  0.16943800  1
  O  O109  1  0.74435200  0.33709300  0.02948100  1
  O  O110  1  0.58162900  0.21450500  0.82532900  1
  O  O111  1  0.75564800  0.66290700  0.52948100  1
  O  O112  1  0.60323900  0.09907900  0.93044400  1
  O  O113  1  0.72986500  0.60307100  0.64996300  1
  O  O114  1  0.74427800  0.80063200  0.63039000  1
  O  O115  1  0.15280800  0.99814300  0.07591700  1
  O  O116  1  0.01677700  0.64171700  0.16943800  1
  O  O117  1  0.54677700  0.20524500  0.45015100  1
  O  O118  1  0.41837100  0.78549500  0.17467100  1
  O  O119  1  0.67881600  0.00921500  0.72833600  1
  O  O120  1  0.25572200  0.19936800  0.36961000  1
  O  O121  1  0.39676100  0.90092100  0.06955600  1
  O  O122  1  0.17881600  0.49078500  0.27166400  1
  O  O123  1  0.82118400  0.50921500  0.72833600  1
  O  O124  1  0.24427800  0.80063200  0.86961000  1
  O  O125  1  0.10323900  0.40092100  0.06955600  1
  O  O126  1  0.74427800  0.69936800  0.13039000  1
  O  O127  1  0.75572200  0.30063200  0.63039000  1
  O  O128  1  0.17881600  0.00921500  0.77166400  1
  O  O129  1  0.74435200  0.16290700  0.52948100  1
  O  O130  1  0.84719200  0.00185700  0.92408300  1
  O  O131  1  0.27013500  0.10307100  0.85003700  1
  O  O132  1  0.04677700  0.29475500  0.54984900  1
  O  O133  1  0.65280800  0.99814300  0.42408300  1
  O  O134  1  0.98322300  0.35828300  0.83056200  1
  O  O135  1  0.27013500  0.39692900  0.35003700  1
  O  O136  1  0.25564800  0.83709300  0.47051900  1
  O  O137  1  0.51677700  0.64171700  0.33056200  1
  O  O138  1  0.54677700  0.29475500  0.95015100  1
  O  O139  1  0.45322300  0.79475500  0.54984900  1
  O  O140  1  0.58162900  0.28549500  0.32532900  1
  O  O141  1  0.77013500  0.10307100  0.64996300  1
  O  O142  1  0.67881600  0.49078500  0.22833600  1
  O  O143  1  0.60323900  0.40092100  0.43044400  1
  O  O144  1  0.65280800  0.50185700  0.92408300  1
  O  O145  1  0.24435200  0.33709300  0.47051900  1
  O  O146  1  0.45322300  0.70524500  0.04984900  1
  O  O147  1  0.22986500  0.89692900  0.35003700  1
  O  O148  1  0.25572200  0.30063200  0.86961000  1
  O  O149  1  0.32118400  0.99078500  0.27166400  1
  O  O150  1  0.91837100  0.78549500  0.32532900  1
  O  O151  1  0.48322300  0.35828300  0.66943800  1
  O  O152  1  0.08162900  0.21450500  0.67467100  1
  O  O153  1  0.98322300  0.14171700  0.33056200  1
  O  O154  1  0.24435200  0.16290700  0.97051900  1
  O  O155  1  0.91837100  0.71450500  0.82532900  1
  O  O156  1  0.82118400  0.99078500  0.22833600  1
  O  O157  1  0.25564800  0.66290700  0.97051900  1
  O  O158  1  0.89676100  0.90092100  0.43044400  1
  O  O159  1  0.39676100  0.59907900  0.56955600  1
