# generated using pymatgen
data_K2Cr4Co(HO4)4
_symmetry_space_group_name_H-M   'P 1'
_cell_length_a   6.96476700
_cell_length_b   7.82987221
_cell_length_c   7.98691902
_cell_angle_alpha   89.85502923
_cell_angle_beta   81.67754958
_cell_angle_gamma   63.74867656
_symmetry_Int_Tables_number   1
_chemical_formula_structural   K2Cr4Co(HO4)4
_chemical_formula_sum   'K2 Cr4 Co1 H4 O16'
_cell_volume   385.58803658
_cell_formula_units_Z   1
loop_
 _symmetry_equiv_pos_site_id
 _symmetry_equiv_pos_as_xyz
  1  'x, y, z'
loop_
 _atom_site_type_symbol
 _atom_site_label
 _atom_site_symmetry_multiplicity
 _atom_site_fract_x
 _atom_site_fract_y
 _atom_site_fract_z
 _atom_site_occupancy
  K  K0  1  0.29297200  0.26154900  0.82721800  1
  K  K1  1  0.70704400  0.73844700  0.17277800  1
  Cr  Cr2  1  0.26147800  0.79499000  0.83550500  1
  Cr  Cr3  1  0.73852900  0.20501100  0.16452200  1
  Cr  Cr4  1  0.27074000  0.49792200  0.33230300  1
  Cr  Cr5  1  0.72922500  0.50209200  0.66767800  1
  Co  Co6  1  0.00000600  0.99999800  0.50000000  1
  H  H7  1  0.19355200  0.08116800  0.22489700  1
  H  H8  1  0.80646200  0.91883000  0.77509100  1
  H  H9  1  0.74187400  0.84765200  0.61703500  1
  H  H10  1  0.25813400  0.15234500  0.38295400  1
  O  O11  1  0.85138300  0.28025600  0.58534100  1
  O  O12  1  0.72169800  0.65457300  0.52468000  1
  O  O13  1  0.45448100  0.55654100  0.75679900  1
  O  O14  1  0.04386500  0.78395600  0.92684800  1
  O  O15  1  0.20567000  0.93949900  0.67791300  1
  O  O16  1  0.75551000  0.95794700  0.66624100  1
  O  O17  1  0.24449300  0.04205200  0.33375000  1
  O  O18  1  0.27828100  0.34541600  0.47533400  1
  O  O19  1  0.79435700  0.06049500  0.32207900  1
  O  O20  1  0.14861200  0.71972500  0.41466800  1
  O  O21  1  0.15192800  0.46892000  0.18221100  1
  O  O22  1  0.54549400  0.44345500  0.24321300  1
  O  O23  1  0.95614600  0.21606700  0.07314700  1
  O  O24  1  0.63242200  0.12811600  0.03226300  1
  O  O25  1  0.36760100  0.87189600  0.96773600  1
  O  O26  1  0.84804000  0.53108100  0.81779600  1
