# generated using pymatgen
data_Cr3H8(NO5)2
_symmetry_space_group_name_H-M   'P 1'
_cell_length_a   9.43416400
_cell_length_b   11.39856800
_cell_length_c   19.22408700
_cell_angle_alpha   90.00000000
_cell_angle_beta   90.00000000
_cell_angle_gamma   90.00000000
_symmetry_Int_Tables_number   1
_chemical_formula_structural   Cr3H8(NO5)2
_chemical_formula_sum   'Cr24 H64 N16 O80'
_cell_volume   2067.28064831
_cell_formula_units_Z   8
loop_
 _symmetry_equiv_pos_site_id
 _symmetry_equiv_pos_as_xyz
  1  'x, y, z'
loop_
 _atom_site_type_symbol
 _atom_site_label
 _atom_site_symmetry_multiplicity
 _atom_site_fract_x
 _atom_site_fract_y
 _atom_site_fract_z
 _atom_site_occupancy
  Cr  Cr0  1  0.00282700  0.80493300  0.47693600  1
  Cr  Cr1  1  0.79806800  0.63015500  0.11367700  1
  Cr  Cr2  1  0.99717300  0.19506700  0.52306400  1
  Cr  Cr3  1  0.99128300  0.00169500  0.26704600  1
  Cr  Cr4  1  0.99128300  0.50169500  0.23295400  1
  Cr  Cr5  1  0.49128300  0.99830500  0.23295400  1
  Cr  Cr6  1  0.00282700  0.30493300  0.02306400  1
  Cr  Cr7  1  0.50282700  0.19506700  0.02306400  1
  Cr  Cr8  1  0.50282700  0.69506700  0.47693600  1
  Cr  Cr9  1  0.70193200  0.13015500  0.88632300  1
  Cr  Cr10  1  0.49717300  0.80493300  0.97693600  1
  Cr  Cr11  1  0.70193200  0.63015500  0.61367700  1
  Cr  Cr12  1  0.50871700  0.00169500  0.76704600  1
  Cr  Cr13  1  0.00871700  0.99830500  0.73295400  1
  Cr  Cr14  1  0.20193200  0.86984500  0.61367700  1
  Cr  Cr15  1  0.00871700  0.49830500  0.76704600  1
  Cr  Cr16  1  0.20193200  0.36984500  0.88632300  1
  Cr  Cr17  1  0.29806800  0.86984500  0.11367700  1
  Cr  Cr18  1  0.99717300  0.69506700  0.97693600  1
  Cr  Cr19  1  0.49128300  0.49830500  0.26704600  1
  Cr  Cr20  1  0.49717300  0.30493300  0.52306400  1
  Cr  Cr21  1  0.50871700  0.50169500  0.73295400  1
  Cr  Cr22  1  0.79806800  0.13015500  0.38632300  1
  Cr  Cr23  1  0.29806800  0.36984500  0.38632300  1
  H  H24  1  0.28758500  0.06200600  0.45829500  1
  H  H25  1  0.69986700  0.21394000  0.69217700  1
  H  H26  1  0.85463000  0.77501700  0.78227200  1
  H  H27  1  0.20894300  0.04064800  0.87117200  1
  H  H28  1  0.21241500  0.56200600  0.54170500  1
  H  H29  1  0.76191600  0.85453700  0.32932100  1
  H  H30  1  0.40341800  0.46405800  0.07659200  1
  H  H31  1  0.59658200  0.03594200  0.57659200  1
  H  H32  1  0.29105700  0.04064800  0.37117200  1
  H  H33  1  0.71241500  0.43799400  0.95829500  1
  H  H34  1  0.30013300  0.28606000  0.19217700  1
  H  H35  1  0.59658200  0.53594200  0.92340800  1
  H  H36  1  0.73808400  0.85453700  0.82932100  1
  H  H37  1  0.07329500  0.10905900  0.91122500  1
  H  H38  1  0.92670500  0.89094100  0.08877500  1
  H  H39  1  0.70894300  0.45935200  0.87117200  1
  H  H40  1  0.42670500  0.10905900  0.41122500  1
  H  H41  1  0.78758500  0.93799400  0.04170500  1
  H  H42  1  0.80013300  0.21394000  0.19217700  1
  H  H43  1  0.07329500  0.60905900  0.58877500  1
  H  H44  1  0.92670500  0.39094100  0.41122500  1
  H  H45  1  0.76191600  0.35453700  0.17067900  1
  H  H46  1  0.64537000  0.27501700  0.21772800  1
  H  H47  1  0.28758500  0.56200600  0.04170500  1
  H  H48  1  0.23808400  0.14546300  0.67067900  1
  H  H49  1  0.80013300  0.71394000  0.30782300  1
  H  H50  1  0.82810000  0.24334000  0.63332400  1
  H  H51  1  0.09658200  0.46405800  0.57659200  1
  H  H52  1  0.09658200  0.96405800  0.92340800  1
  H  H53  1  0.67190000  0.74334000  0.36667600  1
  H  H54  1  0.26191600  0.14546300  0.17067900  1
  H  H55  1  0.21241500  0.06200600  0.95829500  1
  H  H56  1  0.32810000  0.25666000  0.63332400  1
  H  H57  1  0.90341800  0.53594200  0.42340800  1
  H  H58  1  0.35463000  0.22498300  0.71772800  1
  H  H59  1  0.78758500  0.43799400  0.45829500  1
  H  H60  1  0.17190000  0.25666000  0.13332400  1
  H  H61  1  0.67190000  0.24334000  0.13332400  1
  H  H62  1  0.26191600  0.64546300  0.32932100  1
  H  H63  1  0.64537000  0.77501700  0.28227200  1
  H  H64  1  0.32810000  0.75666000  0.86667600  1
  H  H65  1  0.90341800  0.03594200  0.07659200  1
  H  H66  1  0.19986700  0.78606000  0.80782300  1
  H  H67  1  0.20894300  0.54064800  0.62882800  1
  H  H68  1  0.85463000  0.27501700  0.71772800  1
  H  H69  1  0.19986700  0.28606000  0.69217700  1
  H  H70  1  0.29105700  0.54064800  0.12882800  1
  H  H71  1  0.57329500  0.89094100  0.58877500  1
  H  H72  1  0.30013300  0.78606000  0.30782300  1
  H  H73  1  0.14537000  0.72498300  0.28227200  1
  H  H74  1  0.79105700  0.45935200  0.37117200  1
  H  H75  1  0.23808400  0.64546300  0.82932100  1
  H  H76  1  0.70894300  0.95935200  0.62882800  1
  H  H77  1  0.57329500  0.39094100  0.91122500  1
  H  H78  1  0.35463000  0.72498300  0.78227200  1
  H  H79  1  0.17190000  0.75666000  0.36667600  1
  H  H80  1  0.14537000  0.22498300  0.21772800  1
  H  H81  1  0.42670500  0.60905900  0.08877500  1
  H  H82  1  0.71241500  0.93799400  0.54170500  1
  H  H83  1  0.82810000  0.74334000  0.86667600  1
  H  H84  1  0.79105700  0.95935200  0.12882800  1
  H  H85  1  0.73808400  0.35453700  0.67067900  1
  H  H86  1  0.69986700  0.71394000  0.80782300  1
  H  H87  1  0.40341800  0.96405800  0.42340800  1
  N  N88  1  0.14799500  0.04374900  0.91600000  1
  N  N89  1  0.72004500  0.27179800  0.17855200  1
  N  N90  1  0.77995500  0.27179800  0.67855200  1
  N  N91  1  0.64799500  0.95625100  0.58400000  1
  N  N92  1  0.64799500  0.45625100  0.91600000  1
  N  N93  1  0.77995500  0.77179800  0.82144800  1
  N  N94  1  0.27995500  0.22820200  0.67855200  1
  N  N95  1  0.14799500  0.54374900  0.58400000  1
  N  N96  1  0.27995500  0.72820200  0.82144800  1
  N  N97  1  0.22004500  0.72820200  0.32144800  1
  N  N98  1  0.72004500  0.77179800  0.32144800  1
  N  N99  1  0.22004500  0.22820200  0.17855200  1
  N  N100  1  0.35200500  0.54374900  0.08400000  1
  N  N101  1  0.85200500  0.95625100  0.08400000  1
  N  N102  1  0.85200500  0.45625100  0.41600000  1
  N  N103  1  0.35200500  0.04374900  0.41600000  1
  O  O104  1  0.47427800  0.62911300  0.23533000  1
  O  O105  1  0.67378400  0.58244100  0.06447000  1
  O  O106  1  0.76635600  0.72440400  0.66641700  1
  O  O107  1  0.02572200  0.12911300  0.76467000  1
  O  O108  1  0.60040200  0.60630300  0.43167700  1
  O  O109  1  0.86656900  0.51151300  0.16045900  1
  O  O110  1  0.01210500  0.17462100  0.05793600  1
  O  O111  1  0.10040200  0.89369700  0.43167700  1
  O  O112  1  0.95310300  0.10093300  0.20856000  1
  O  O113  1  0.92931700  0.20097300  0.43432300  1
  O  O114  1  0.67378400  0.08244100  0.43553000  1
  O  O115  1  0.32621600  0.41755900  0.93553000  1
  O  O116  1  0.73364400  0.72440400  0.16641700  1
  O  O117  1  0.97427800  0.87088700  0.23533000  1
  O  O118  1  0.13343100  0.48848700  0.83954100  1
  O  O119  1  0.42931700  0.29902700  0.43432300  1
  O  O120  1  0.39959800  0.39369700  0.56832300  1
  O  O121  1  0.17378400  0.41755900  0.43553000  1
  O  O122  1  0.54689700  0.60093300  0.79144000  1
  O  O123  1  0.52572200  0.37088700  0.76467000  1
  O  O124  1  0.97427800  0.37088700  0.26467000  1
  O  O125  1  0.65231300  0.97877500  0.20554000  1
  O  O126  1  0.89959800  0.10630300  0.56832300  1
  O  O127  1  0.76635600  0.22440400  0.83358300  1
  O  O128  1  0.89959800  0.60630300  0.93167700  1
  O  O129  1  0.07068300  0.29902700  0.93432300  1
  O  O130  1  0.17378400  0.91755900  0.06447000  1
  O  O131  1  0.26635600  0.27559600  0.83358300  1
  O  O132  1  0.54689700  0.10093300  0.70856000  1
  O  O133  1  0.15231300  0.02122500  0.29446000  1
  O  O134  1  0.98789500  0.82537900  0.94206400  1
  O  O135  1  0.52572200  0.87088700  0.73533000  1
  O  O136  1  0.66039400  0.84986200  0.97862300  1
  O  O137  1  0.36656900  0.98848700  0.16045900  1
  O  O138  1  0.65231300  0.47877500  0.29446000  1
  O  O139  1  0.32621600  0.91755900  0.56447000  1
  O  O140  1  0.83960600  0.34986200  0.02137700  1
  O  O141  1  0.04689700  0.89906700  0.79144000  1
  O  O142  1  0.15231300  0.52122500  0.20554000  1
  O  O143  1  0.01210500  0.67462100  0.44206400  1
  O  O144  1  0.36656900  0.48848700  0.33954100  1
  O  O145  1  0.57068300  0.70097300  0.56567700  1
  O  O146  1  0.73364400  0.22440400  0.33358300  1
  O  O147  1  0.02572200  0.62911300  0.73533000  1
  O  O148  1  0.66039400  0.34986200  0.52137700  1
  O  O149  1  0.23364400  0.27559600  0.33358300  1
  O  O150  1  0.16039400  0.65013800  0.97862300  1
  O  O151  1  0.16039400  0.15013800  0.52137700  1
  O  O152  1  0.45310300  0.89906700  0.29144000  1
  O  O153  1  0.10040200  0.39369700  0.06832300  1
  O  O154  1  0.13343100  0.98848700  0.66045900  1
  O  O155  1  0.26635600  0.77559600  0.66641700  1
  O  O156  1  0.57068300  0.20097300  0.93432300  1
  O  O157  1  0.45310300  0.39906700  0.20856000  1
  O  O158  1  0.48789500  0.17462100  0.55793600  1
  O  O159  1  0.84768700  0.47877500  0.79446000  1
  O  O160  1  0.82621600  0.08244100  0.93553000  1
  O  O161  1  0.82621600  0.58244100  0.56447000  1
  O  O162  1  0.83960600  0.84986200  0.47862300  1
  O  O163  1  0.07068300  0.79902700  0.56567700  1
  O  O164  1  0.47427800  0.12911300  0.26467000  1
  O  O165  1  0.84768700  0.97877500  0.70554000  1
  O  O166  1  0.39959800  0.89369700  0.93167700  1
  O  O167  1  0.51210500  0.82537900  0.44206400  1
  O  O168  1  0.92931700  0.70097300  0.06567700  1
  O  O169  1  0.60040200  0.10630300  0.06832300  1
  O  O170  1  0.04689700  0.39906700  0.70856000  1
  O  O171  1  0.51210500  0.32537900  0.05793600  1
  O  O172  1  0.63343100  0.01151300  0.83954100  1
  O  O173  1  0.95310300  0.60093300  0.29144000  1
  O  O174  1  0.42931700  0.79902700  0.06567700  1
  O  O175  1  0.63343100  0.51151300  0.66045900  1
  O  O176  1  0.34768700  0.52122500  0.70554000  1
  O  O177  1  0.86656900  0.01151300  0.33954100  1
  O  O178  1  0.34768700  0.02122500  0.79446000  1
  O  O179  1  0.48789500  0.67462100  0.94206400  1
  O  O180  1  0.98789500  0.32537900  0.55793600  1
  O  O181  1  0.23364400  0.77559600  0.16641700  1
  O  O182  1  0.33960600  0.15013800  0.02137700  1
  O  O183  1  0.33960600  0.65013800  0.47862300  1
