# generated using pymatgen
data_CaAlH5
_symmetry_space_group_name_H-M   'P 1'
_cell_length_a   6.47206700
_cell_length_b   10.81252600
_cell_length_c   13.51750592
_cell_angle_alpha   51.85389036
_cell_angle_beta   90.00000000
_cell_angle_gamma   90.00000000
_symmetry_Int_Tables_number   1
_chemical_formula_structural   CaAlH5
_chemical_formula_sum   'Ca8 Al8 H40'
_cell_volume   743.92874045
_cell_formula_units_Z   8
loop_
 _symmetry_equiv_pos_site_id
 _symmetry_equiv_pos_as_xyz
  1  'x, y, z'
loop_
 _atom_site_type_symbol
 _atom_site_label
 _atom_site_symmetry_multiplicity
 _atom_site_fract_x
 _atom_site_fract_y
 _atom_site_fract_z
 _atom_site_occupancy
  Ca  Ca0  1  0.30583000  0.16752900  0.85284400  1
  Ca  Ca1  1  0.19490600  0.51688500  0.30369300  1
  Ca  Ca2  1  0.69490600  0.48311500  0.19630700  1
  Ca  Ca3  1  0.19417000  0.16752900  0.35284400  1
  Ca  Ca4  1  0.80509400  0.48311500  0.69630700  1
  Ca  Ca5  1  0.30509400  0.51688500  0.80369300  1
  Ca  Ca6  1  0.69417000  0.83247100  0.14715600  1
  Ca  Ca7  1  0.80583000  0.83247100  0.64715600  1
  Al  Al8  1  0.30286300  0.24976000  0.59034100  1
  Al  Al9  1  0.29360200  0.81009000  0.49882900  1
  Al  Al10  1  0.70639800  0.18991000  0.50117100  1
  Al  Al11  1  0.79360200  0.18991000  0.00117100  1
  Al  Al12  1  0.69713700  0.75024000  0.40965900  1
  Al  Al13  1  0.20639800  0.81009000  0.99882900  1
  Al  Al14  1  0.80286300  0.75024000  0.90965900  1
  Al  Al15  1  0.19713700  0.24976000  0.09034100  1
  H  H16  1  0.85078600  0.06663100  0.62271400  1
  H  H17  1  0.77195800  0.37611100  0.91718600  1
  H  H18  1  0.88335600  0.80392200  0.30446400  1
  H  H19  1  0.65913000  0.75984700  0.01217800  1
  H  H20  1  0.91009100  0.64637700  0.20048300  1
  H  H21  1  0.22804200  0.62388900  0.08281400  1
  H  H22  1  0.27841300  0.89243400  0.57066500  1
  H  H23  1  0.52828700  0.86679500  0.43481800  1
  H  H24  1  0.41009100  0.35362300  0.29951700  1
  H  H25  1  0.14921400  0.93336900  0.37728600  1
  H  H26  1  0.99230100  0.36460000  0.28514200  1
  H  H27  1  0.50769900  0.36460000  0.78514200  1
  H  H28  1  0.18269300  0.44265500  0.98873800  1
  H  H29  1  0.02828700  0.13320500  0.06518200  1
  H  H30  1  0.31730700  0.44265500  0.48873800  1
  H  H31  1  0.27195800  0.62388900  0.58281400  1
  H  H32  1  0.84087000  0.75984700  0.51217800  1
  H  H33  1  0.00769900  0.63540000  0.71485800  1
  H  H34  1  0.58990900  0.64637700  0.70048300  1
  H  H35  1  0.47171300  0.13320500  0.56518200  1
  H  H36  1  0.48927400  0.21277400  0.69237200  1
  H  H37  1  0.34087000  0.24015300  0.98782200  1
  H  H38  1  0.11664400  0.19607800  0.69553600  1
  H  H39  1  0.61664400  0.80392200  0.80446400  1
  H  H40  1  0.72158700  0.10756600  0.42933500  1
  H  H41  1  0.15913000  0.24015300  0.48782200  1
  H  H42  1  0.51072600  0.78722600  0.30762800  1
  H  H43  1  0.22158700  0.89243400  0.07066500  1
  H  H44  1  0.38335600  0.19607800  0.19553600  1
  H  H45  1  0.68269300  0.55734500  0.51126200  1
  H  H46  1  0.81730700  0.55734500  0.01126200  1
  H  H47  1  0.49230100  0.63540000  0.21485800  1
  H  H48  1  0.97171300  0.86679500  0.93481800  1
  H  H49  1  0.98927400  0.78722600  0.80762800  1
  H  H50  1  0.01072600  0.21277400  0.19237200  1
  H  H51  1  0.77841300  0.10756600  0.92933500  1
  H  H52  1  0.64921400  0.06663100  0.12271400  1
  H  H53  1  0.35078600  0.93336900  0.87728600  1
  H  H54  1  0.72804200  0.37611100  0.41718600  1
  H  H55  1  0.08990900  0.35362300  0.79951700  1
