# generated using pymatgen
data_CoH21C2N6Cl2O5
_symmetry_space_group_name_H-M   'P 1'
_cell_length_a   9.01981400
_cell_length_b   10.30919700
_cell_length_c   14.37749300
_cell_angle_alpha   90.00000000
_cell_angle_beta   90.00000000
_cell_angle_gamma   90.00000000
_symmetry_Int_Tables_number   1
_chemical_formula_structural   CoH21C2N6Cl2O5
_chemical_formula_sum   'Co4 H84 C8 N24 Cl8 O20'
_cell_volume   1336.92050849
_cell_formula_units_Z   4
loop_
 _symmetry_equiv_pos_site_id
 _symmetry_equiv_pos_as_xyz
  1  'x, y, z'
loop_
 _atom_site_type_symbol
 _atom_site_label
 _atom_site_symmetry_multiplicity
 _atom_site_fract_x
 _atom_site_fract_y
 _atom_site_fract_z
 _atom_site_occupancy
  Co  Co0  1  0.75142700  0.48672900  0.38168200  1
  Co  Co1  1  0.74857300  0.51327100  0.88168200  1
  Co  Co2  1  0.25142700  0.01327100  0.61831800  1
  Co  Co3  1  0.24857300  0.98672900  0.11831800  1
  H  H4  1  0.45496100  0.10548400  0.51243100  1
  H  H5  1  0.17153200  0.78182500  0.03424300  1
  H  H6  1  0.98093400  0.07451500  0.63658800  1
  H  H7  1  0.89512900  0.32388400  0.94876000  1
  H  H8  1  0.09288700  0.18943900  0.09843200  1
  H  H9  1  0.90786900  0.33731000  0.80690300  1
  H  H10  1  0.26015200  0.13250100  0.25967400  1
  H  H11  1  0.76015200  0.36749900  0.74032600  1
  H  H12  1  0.32846800  0.21817500  0.53424300  1
  H  H13  1  0.03270400  0.10716200  0.19053900  1
  H  H14  1  0.23984800  0.86749900  0.75967400  1
  H  H15  1  0.90372500  0.46692900  0.73882900  1
  H  H16  1  0.59627500  0.53307100  0.23882900  1
  H  H17  1  0.98472100  0.05964800  0.08476200  1
  H  H18  1  0.26153000  0.50773900  0.43107300  1
  H  H19  1  0.55125600  0.35526100  0.45709300  1
  H  H20  1  0.01906600  0.57451500  0.86341200  1
  H  H21  1  0.40786900  0.16269000  0.19309700  1
  H  H22  1  0.51906600  0.92548500  0.13658800  1
  H  H23  1  0.41232600  0.79003900  0.14579000  1
  H  H24  1  0.60487100  0.67611600  0.44876000  1
  H  H25  1  0.26004300  0.53554900  0.76065000  1
  H  H26  1  0.58837700  0.69284100  0.81252100  1
  H  H27  1  0.59360100  0.54992800  0.52018100  1
  H  H28  1  0.40372500  0.03307100  0.26117100  1
  H  H29  1  0.17419300  0.37756800  0.86722700  1
  H  H30  1  0.76004300  0.96445100  0.23935000  1
  H  H31  1  0.29190100  0.10532200  0.45712100  1
  H  H32  1  0.05125600  0.14473900  0.54290700  1
  H  H33  1  0.23995700  0.46445100  0.26065000  1
  H  H34  1  0.53270400  0.39283800  0.80946100  1
  H  H35  1  0.23847000  0.49226100  0.93107300  1
  H  H36  1  0.09213100  0.83731000  0.69309700  1
  H  H37  1  0.40711300  0.81056100  0.59843200  1
  H  H38  1  0.90639900  0.45007200  0.02018100  1
  H  H39  1  0.73847000  0.00773900  0.06892700  1
  H  H40  1  0.40639900  0.04992800  0.97981900  1
  H  H41  1  0.10416700  0.92910000  0.26314200  1
  H  H42  1  0.44874400  0.85526100  0.04290700  1
  H  H43  1  0.74232800  0.67451500  0.74910000  1
  H  H44  1  0.74596900  0.63947200  0.51957800  1
  H  H45  1  0.41162300  0.19284100  0.68747900  1
  H  H46  1  0.09627500  0.96692900  0.76117100  1
  H  H47  1  0.59213100  0.66269000  0.30690300  1
  H  H48  1  0.24232800  0.82548500  0.25090000  1
  H  H49  1  0.32580700  0.62243200  0.36722700  1
  H  H50  1  0.67419300  0.12243200  0.13277300  1
  H  H51  1  0.82846800  0.28182500  0.46575700  1
  H  H52  1  0.90711300  0.68943900  0.40156800  1
  H  H53  1  0.60416700  0.57090000  0.73685800  1
  H  H54  1  0.01527900  0.55964800  0.41523800  1
  H  H55  1  0.73995700  0.03554900  0.73935000  1
  H  H56  1  0.20809900  0.89467800  0.95712100  1
  H  H57  1  0.54503900  0.60548400  0.98756900  1
  H  H58  1  0.75767200  0.32548500  0.24910000  1
  H  H59  1  0.96729600  0.60716200  0.30946100  1
  H  H60  1  0.89583300  0.42910000  0.23685800  1
  H  H61  1  0.91162300  0.30715900  0.31252100  1
  H  H62  1  0.75403100  0.36052800  0.01957800  1
  H  H63  1  0.09360100  0.95007200  0.47981900  1
  H  H64  1  0.82580700  0.87756800  0.63277300  1
  H  H65  1  0.10487100  0.82388400  0.55124000  1
  H  H66  1  0.59288700  0.31056100  0.90156800  1
  H  H67  1  0.25767200  0.17451500  0.75090000  1
  H  H68  1  0.39512900  0.17611600  0.05124000  1
  H  H69  1  0.76153000  0.99226100  0.56892700  1
  H  H70  1  0.39583300  0.07090000  0.76314200  1
  H  H71  1  0.51527900  0.94035200  0.58476200  1
  H  H72  1  0.67153200  0.71817500  0.96575700  1
  H  H73  1  0.08767400  0.20996100  0.64579000  1
  H  H74  1  0.58767400  0.29003900  0.35421000  1
  H  H75  1  0.95496100  0.39451600  0.48756900  1
  H  H76  1  0.04503900  0.89451600  0.01243100  1
  H  H77  1  0.73984800  0.63250100  0.24032600  1
  H  H78  1  0.24596900  0.86052800  0.48042200  1
  H  H79  1  0.25403100  0.13947200  0.98042200  1
  H  H80  1  0.46729600  0.89283800  0.69053900  1
  H  H81  1  0.48472100  0.44035200  0.91523800  1
  H  H82  1  0.91232600  0.70996100  0.85421000  1
  H  H83  1  0.08837700  0.80715900  0.18747900  1
  H  H84  1  0.94874400  0.64473900  0.95709300  1
  H  H85  1  0.48093400  0.42548500  0.36341200  1
  H  H86  1  0.70809900  0.60532200  0.04287900  1
  H  H87  1  0.79190100  0.39467800  0.54287900  1
  C  C88  1  0.28219200  0.57017100  0.62765900  1
  C  C89  1  0.71780800  0.07017100  0.87234100  1
  C  C90  1  0.19280300  0.44386400  0.60743900  1
  C  C91  1  0.80719700  0.94386400  0.89256100  1
  C  C92  1  0.30719700  0.55613600  0.10743900  1
  C  C93  1  0.78219200  0.92982900  0.37234100  1
  C  C94  1  0.69280300  0.05613600  0.39256100  1
  C  C95  1  0.21780800  0.42982900  0.12765900  1
  N  N96  1  0.92704800  0.62241800  0.88865000  1
  N  N97  1  0.16431500  0.89927800  0.52255600  1
  N  N98  1  0.16086700  0.87448700  0.21498100  1
  N  N99  1  0.57295200  0.37758200  0.38865000  1
  N  N100  1  0.43005700  0.90265500  0.62326800  1
  N  N101  1  0.15999700  0.90982300  0.71822100  1
  N  N102  1  0.33913300  0.12551300  0.71498100  1
  N  N103  1  0.83568500  0.39927800  0.97744400  1
  N  N104  1  0.66086700  0.62551300  0.78501900  1
  N  N105  1  0.84263700  0.37865800  0.47987600  1
  N  N106  1  0.84000300  0.40982300  0.78177900  1
  N  N107  1  0.15736300  0.87865800  0.02012400  1
  N  N108  1  0.56994300  0.40265500  0.87673200  1
  N  N109  1  0.33568500  0.10072200  0.02255600  1
  N  N110  1  0.93005700  0.59734500  0.37673200  1
  N  N111  1  0.66431500  0.60072200  0.47744400  1
  N  N112  1  0.65736300  0.62134200  0.97987600  1
  N  N113  1  0.34000300  0.09017700  0.21822100  1
  N  N114  1  0.65999700  0.59017700  0.28177900  1
  N  N115  1  0.06994300  0.09734500  0.12326800  1
  N  N116  1  0.42704800  0.87758200  0.11135000  1
  N  N117  1  0.34263700  0.12134200  0.52012400  1
  N  N118  1  0.07295200  0.12241800  0.61135000  1
  N  N119  1  0.83913300  0.37448700  0.28501900  1
  Cl  Cl120  1  0.55678700  0.36909800  0.63383500  1
  Cl  Cl121  1  0.06582100  0.17292900  0.87136300  1
  Cl  Cl122  1  0.94321300  0.63090200  0.13383500  1
  Cl  Cl123  1  0.44321300  0.86909800  0.86616500  1
  Cl  Cl124  1  0.05678700  0.13090200  0.36616500  1
  Cl  Cl125  1  0.56582100  0.32707100  0.12863700  1
  Cl  Cl126  1  0.93417900  0.67292900  0.62863700  1
  Cl  Cl127  1  0.43417900  0.82707100  0.37136300  1
  O  O128  1  0.71006100  0.03210900  0.13374200  1
  O  O129  1  0.82418300  0.91453800  0.97749800  1
  O  O130  1  0.21006100  0.46789100  0.86625800  1
  O  O131  1  0.66902700  0.13983000  0.93524900  1
  O  O132  1  0.33097300  0.63983000  0.56475100  1
  O  O133  1  0.19656100  0.39869800  0.21620200  1
  O  O134  1  0.83097300  0.86017000  0.43524900  1
  O  O135  1  0.32418300  0.58546200  0.02250200  1
  O  O136  1  0.64635700  0.11788800  0.32245000  1
  O  O137  1  0.85364300  0.88211200  0.82245000  1
  O  O138  1  0.69656100  0.10130200  0.78379800  1
  O  O139  1  0.35364300  0.61788800  0.17755000  1
  O  O140  1  0.30343900  0.60130200  0.71620200  1
  O  O141  1  0.17581700  0.41453800  0.52250200  1
  O  O142  1  0.28993900  0.53210900  0.36625800  1
  O  O143  1  0.14635700  0.38211200  0.67755000  1
  O  O144  1  0.80343900  0.89869800  0.28379800  1
  O  O145  1  0.16902700  0.36017000  0.06475100  1
  O  O146  1  0.78993900  0.96789100  0.63374200  1
  O  O147  1  0.67581700  0.08546200  0.47749800  1
