# generated using pymatgen
data_KFe3H6(SO7)2
_symmetry_space_group_name_H-M   'P 1'
_cell_length_a   8.99396319
_cell_length_b   8.99396319
_cell_length_c   8.99396352
_cell_angle_alpha   59.70542259
_cell_angle_beta   59.70542259
_cell_angle_gamma   59.70542574
_symmetry_Int_Tables_number   1
_chemical_formula_structural   KFe3H6(SO7)2
_chemical_formula_sum   'K1 Fe3 H6 S2 O14'
_cell_volume   511.00210023
_cell_formula_units_Z   1
loop_
 _symmetry_equiv_pos_site_id
 _symmetry_equiv_pos_as_xyz
  1  'x, y, z'
loop_
 _atom_site_type_symbol
 _atom_site_label
 _atom_site_symmetry_multiplicity
 _atom_site_fract_x
 _atom_site_fract_y
 _atom_site_fract_z
 _atom_site_occupancy
  K  K0  1  0.00000000  0.00000000  0.00000000  1
  Fe  Fe1  1  0.00000000  0.00000000  0.50000000  1
  Fe  Fe2  1  0.50000000  0.00000000  0.00000000  1
  Fe  Fe3  1  0.00000000  0.50000000  0.00000000  1
  H  H4  1  0.05110900  0.48472600  0.48472600  1
  H  H5  1  0.94889100  0.51527400  0.51527400  1
  H  H6  1  0.48472600  0.48472600  0.05110900  1
  H  H7  1  0.48472600  0.05110900  0.48472600  1
  H  H8  1  0.51527400  0.94889100  0.51527400  1
  H  H9  1  0.51527400  0.51527400  0.94889100  1
  S  S10  1  0.26281900  0.26281900  0.26281900  1
  S  S11  1  0.73718100  0.73718100  0.73718100  1
  O  O12  1  0.85221000  0.85221000  0.57802900  1
  O  O13  1  0.14779000  0.42197100  0.14779000  1
  O  O14  1  0.85221000  0.57802900  0.85221000  1
  O  O15  1  0.67209900  0.67209900  0.67209900  1
  O  O16  1  0.26440100  0.03637300  0.03637300  1
  O  O17  1  0.96362700  0.73559900  0.96362700  1
  O  O18  1  0.73559900  0.96362700  0.96362700  1
  O  O19  1  0.57802900  0.85221000  0.85221000  1
  O  O20  1  0.32790100  0.32790100  0.32790100  1
  O  O21  1  0.42197100  0.14779000  0.14779000  1
  O  O22  1  0.14779000  0.14779000  0.42197100  1
  O  O23  1  0.03637300  0.03637300  0.26440100  1
  O  O24  1  0.96362700  0.96362700  0.73559900  1
  O  O25  1  0.03637300  0.26440100  0.03637300  1
