# generated using pymatgen
data_Y2AlNi2
_symmetry_space_group_name_H-M   'P 1'
_cell_length_a   5.36468805
_cell_length_b   5.36468805
_cell_length_c   5.36468805
_cell_angle_alpha   135.04571045
_cell_angle_beta   119.08476529
_cell_angle_gamma   78.82690366
_symmetry_Int_Tables_number   1
_chemical_formula_structural   Y2AlNi2
_chemical_formula_sum   'Y2 Al1 Ni2'
_cell_volume   92.46633341
_cell_formula_units_Z   1
loop_
 _symmetry_equiv_pos_site_id
 _symmetry_equiv_pos_as_xyz
  1  'x, y, z'
loop_
 _atom_site_type_symbol
 _atom_site_label
 _atom_site_symmetry_multiplicity
 _atom_site_fract_x
 _atom_site_fract_y
 _atom_site_fract_z
 _atom_site_occupancy
  Y  Y0  1  0.70653500  0.20653500  0.50000000  1
  Y  Y1  1  0.29346500  0.79346500  0.50000000  1
  Al  Al2  1  0.00000000  0.00000000  0.00000000  1
  Ni  Ni3  1  0.27636000  0.50000000  0.77636000  1
  Ni  Ni4  1  0.72364000  0.50000000  0.22364000  1
