# generated using pymatgen
data_P2H6C5N2Cl4O
_symmetry_space_group_name_H-M   'P 1'
_cell_length_a   8.43096800
_cell_length_b   8.84455700
_cell_length_c   16.28861574
_cell_angle_alpha   89.83722232
_cell_angle_beta   90.00000000
_cell_angle_gamma   90.00000000
_symmetry_Int_Tables_number   1
_chemical_formula_structural   P2H6C5N2Cl4O
_chemical_formula_sum   'P8 H24 C20 N8 Cl16 O4'
_cell_volume   1214.60748014
_cell_formula_units_Z   4
loop_
 _symmetry_equiv_pos_site_id
 _symmetry_equiv_pos_as_xyz
  1  'x, y, z'
loop_
 _atom_site_type_symbol
 _atom_site_label
 _atom_site_symmetry_multiplicity
 _atom_site_fract_x
 _atom_site_fract_y
 _atom_site_fract_z
 _atom_site_occupancy
  P  P0  1  0.18111700  0.24341500  0.18785500  1
  P  P1  1  0.68111700  0.75658500  0.31214500  1
  P  P2  1  0.81888300  0.75658500  0.81214500  1
  P  P3  1  0.31888300  0.24341500  0.68785500  1
  P  P4  1  0.41918000  0.29075200  0.07227800  1
  P  P5  1  0.91918000  0.70924800  0.42772200  1
  P  P6  1  0.58082000  0.70924800  0.92772200  1
  P  P7  1  0.08082000  0.29075200  0.57227800  1
  H  H8  1  0.87076000  0.17855000  0.18297200  1
  H  H9  1  0.37076000  0.82145000  0.31702800  1
  H  H10  1  0.12924000  0.82145000  0.81702800  1
  H  H11  1  0.62924000  0.17855000  0.68297200  1
  H  H12  1  0.86676900  0.06609100  0.09185100  1
  H  H13  1  0.36676900  0.93390900  0.40814900  1
  H  H14  1  0.13323100  0.93390900  0.90814900  1
  H  H15  1  0.63323100  0.06609100  0.59185100  1
  H  H16  1  0.81967800  0.26331500  0.08675300  1
  H  H17  1  0.31967800  0.73668500  0.41324700  1
  H  H18  1  0.18032200  0.73668500  0.91324700  1
  H  H19  1  0.68032200  0.26331500  0.58675300  1
  H  H20  1  0.43076900  0.30523800  0.90820700  1
  H  H21  1  0.93076900  0.69476200  0.59179300  1
  H  H22  1  0.56923100  0.69476200  0.09179300  1
  H  H23  1  0.06923100  0.30523800  0.40820700  1
  H  H24  1  0.23052000  0.35997500  0.88747400  1
  H  H25  1  0.73052000  0.64002500  0.61252600  1
  H  H26  1  0.76948000  0.64002500  0.11252600  1
  H  H27  1  0.26948000  0.35997500  0.38747400  1
  H  H28  1  0.28663400  0.16565400  0.88258700  1
  H  H29  1  0.78663400  0.83434600  0.61741300  1
  H  H30  1  0.71336600  0.83434600  0.11741300  1
  H  H31  1  0.21336600  0.16565400  0.38258700  1
  C  C32  1  0.11076000  0.21918600  0.02070600  1
  C  C33  1  0.61076000  0.78081400  0.47929400  1
  C  C34  1  0.88924000  0.78081400  0.97929400  1
  C  C35  1  0.38924000  0.21918600  0.52070600  1
  C  C36  1  0.36556100  0.13648700  0.15048600  1
  C  C37  1  0.86556100  0.86351300  0.34951400  1
  C  C38  1  0.63443900  0.86351300  0.84951400  1
  C  C39  1  0.13443900  0.13648700  0.65048600  1
  C  C40  1  0.29806400  0.41312200  0.14635100  1
  C  C41  1  0.79806400  0.58687800  0.35364900  1
  C  C42  1  0.70193600  0.58687800  0.85364900  1
  C  C43  1  0.20193600  0.41312200  0.64635100  1
  C  C44  1  0.89497200  0.17810900  0.11679700  1
  C  C45  1  0.39497200  0.82189100  0.38320300  1
  C  C46  1  0.10502800  0.82189100  0.88320300  1
  C  C47  1  0.60502800  0.17810900  0.61679700  1
  C  C48  1  0.30605700  0.27245500  0.91526200  1
  C  C49  1  0.80605700  0.72754500  0.58473800  1
  C  C50  1  0.69394300  0.72754500  0.08473800  1
  C  C51  1  0.19394300  0.27245500  0.41526200  1
  N  N52  1  0.06408700  0.21337200  0.10300500  1
  N  N53  1  0.56408700  0.78662800  0.39699500  1
  N  N54  1  0.93591300  0.78662800  0.89699500  1
  N  N55  1  0.43591300  0.21337200  0.60300500  1
  N  N56  1  0.26913500  0.25546600  0.00332800  1
  N  N57  1  0.76913500  0.74453400  0.49667200  1
  N  N58  1  0.73086500  0.74453400  0.99667200  1
  N  N59  1  0.23086500  0.25546600  0.50332800  1
  Cl  Cl60  1  0.32525300  0.95668700  0.10947600  1
  Cl  Cl61  1  0.82525300  0.04331300  0.39052400  1
  Cl  Cl62  1  0.67474700  0.04331300  0.89052400  1
  Cl  Cl63  1  0.17474700  0.95668700  0.60947600  1
  Cl  Cl64  1  0.51087100  0.12484800  0.22962200  1
  Cl  Cl65  1  0.01087100  0.87515200  0.27037800  1
  Cl  Cl66  1  0.48912900  0.87515200  0.77037800  1
  Cl  Cl67  1  0.98912900  0.12484800  0.72962200  1
  Cl  Cl68  1  0.18425200  0.55588800  0.09935700  1
  Cl  Cl69  1  0.68425200  0.44411200  0.40064300  1
  Cl  Cl70  1  0.81574800  0.44411200  0.90064300  1
  Cl  Cl71  1  0.31574800  0.55588800  0.59935700  1
  Cl  Cl72  1  0.41916400  0.49174300  0.22515500  1
  Cl  Cl73  1  0.91916400  0.50825700  0.27484500  1
  Cl  Cl74  1  0.58083600  0.50825700  0.77484500  1
  Cl  Cl75  1  0.08083600  0.49174300  0.72515500  1
  O  O76  1  0.01550600  0.19470500  0.96489100  1
  O  O77  1  0.51550600  0.80529500  0.53510900  1
  O  O78  1  0.98449400  0.80529500  0.03510900  1
  O  O79  1  0.48449400  0.19470500  0.46489100  1
