# generated using pymatgen
data_As3H9RhC3(BrO)3
_symmetry_space_group_name_H-M   'P 1'
_cell_length_a   9.23499900
_cell_length_b   9.34493300
_cell_length_c   17.28579063
_cell_angle_alpha   67.31894440
_cell_angle_beta   90.00000000
_cell_angle_gamma   90.00000000
_symmetry_Int_Tables_number   1
_chemical_formula_structural   As3H9RhC3(BrO)3
_chemical_formula_sum   'As12 H36 Rh4 C12 Br12 O12'
_cell_volume   1376.40625927
_cell_formula_units_Z   4
loop_
 _symmetry_equiv_pos_site_id
 _symmetry_equiv_pos_as_xyz
  1  'x, y, z'
loop_
 _atom_site_type_symbol
 _atom_site_label
 _atom_site_symmetry_multiplicity
 _atom_site_fract_x
 _atom_site_fract_y
 _atom_site_fract_z
 _atom_site_occupancy
  As  As0  1  0.85608300  0.27155100  0.07047000  1
  As  As1  1  0.08012000  0.55019900  0.11976400  1
  As  As2  1  0.71572900  0.62145400  0.52503500  1
  As  As3  1  0.41988000  0.55019900  0.61976400  1
  As  As4  1  0.21572900  0.37854600  0.97496500  1
  As  As5  1  0.58012000  0.44980100  0.38023600  1
  As  As6  1  0.78427100  0.62145400  0.02503500  1
  As  As7  1  0.64391700  0.27155100  0.57047000  1
  As  As8  1  0.91988000  0.44980100  0.88023600  1
  As  As9  1  0.35608300  0.72844900  0.42953000  1
  As  As10  1  0.28427100  0.37854600  0.47496500  1
  As  As11  1  0.14391700  0.72844900  0.92953000  1
  H  H12  1  0.73730700  0.40985800  0.78354200  1
  H  H13  1  0.24567700  0.98299200  0.41098900  1
  H  H14  1  0.58462400  0.81775700  0.98558500  1
  H  H15  1  0.25432300  0.98299200  0.91098900  1
  H  H16  1  0.60247200  0.29311300  0.29191700  1
  H  H17  1  0.87167700  0.12674100  0.63053900  1
  H  H18  1  0.89752800  0.29311300  0.79191700  1
  H  H19  1  0.60008400  0.49921000  0.22844200  1
  H  H20  1  0.78470200  0.02598500  0.18939000  1
  H  H21  1  0.76269300  0.40985800  0.28354200  1
  H  H22  1  0.97680700  0.63465000  0.56303000  1
  H  H23  1  0.91537600  0.81775700  0.48558500  1
  H  H24  1  0.26269300  0.59014200  0.21645800  1
  H  H25  1  0.86563400  0.76250600  0.59451000  1
  H  H26  1  0.71529800  0.02598500  0.68939000  1
  H  H27  1  0.10008400  0.50079000  0.27155800  1
  H  H28  1  0.39752800  0.70688700  0.70808300  1
  H  H29  1  0.89991600  0.49921000  0.72844200  1
  H  H30  1  0.10247200  0.70688700  0.20808300  1
  H  H31  1  0.63436600  0.76250600  0.09451000  1
  H  H32  1  0.47680700  0.36535000  0.93697000  1
  H  H33  1  0.12832300  0.87325900  0.36946100  1
  H  H34  1  0.13436600  0.23749400  0.40549000  1
  H  H35  1  0.37167700  0.87325900  0.86946100  1
  H  H36  1  0.02319300  0.36535000  0.43697000  1
  H  H37  1  0.28470200  0.97401500  0.31061000  1
  H  H38  1  0.23730700  0.59014200  0.71645800  1
  H  H39  1  0.41537600  0.18224300  0.01441500  1
  H  H40  1  0.08462400  0.18224300  0.51441500  1
  H  H41  1  0.36563400  0.23749400  0.90549000  1
  H  H42  1  0.62832300  0.12674100  0.13053900  1
  H  H43  1  0.74567700  0.01700800  0.08901100  1
  H  H44  1  0.52319300  0.63465000  0.06303000  1
  H  H45  1  0.75432300  0.01700800  0.58901100  1
  H  H46  1  0.39991600  0.50079000  0.77155800  1
  H  H47  1  0.21529800  0.97401500  0.81061000  1
  Rh  Rh48  1  0.59946600  0.69603000  0.39180300  1
  Rh  Rh49  1  0.90053400  0.69603000  0.89180300  1
  Rh  Rh50  1  0.40053400  0.30397000  0.60819700  1
  Rh  Rh51  1  0.09946600  0.30397000  0.10819700  1
  C  C52  1  0.64399600  0.40773900  0.28427200  1
  C  C53  1  0.26080300  0.91236400  0.87306400  1
  C  C54  1  0.73919700  0.08763600  0.12693600  1
  C  C55  1  0.11010100  0.27854000  0.45565400  1
  C  C56  1  0.38989900  0.27854000  0.95565400  1
  C  C57  1  0.85600400  0.40773900  0.78427200  1
  C  C58  1  0.61010100  0.72146000  0.04434600  1
  C  C59  1  0.23919700  0.91236400  0.37306400  1
  C  C60  1  0.88989900  0.72146000  0.54434600  1
  C  C61  1  0.35600400  0.59226100  0.71572800  1
  C  C62  1  0.76080300  0.08763600  0.62693600  1
  C  C63  1  0.14399600  0.59226100  0.21572800  1
  Br  Br64  1  0.64132600  0.68870100  0.84191000  1
  Br  Br65  1  0.14132600  0.31129900  0.65809000  1
  Br  Br66  1  0.12780300  0.03459500  0.10448100  1
  Br  Br67  1  0.35867400  0.31129900  0.15809000  1
  Br  Br68  1  0.85867400  0.68870100  0.34191000  1
  Br  Br69  1  0.62780300  0.96540500  0.39551900  1
  Br  Br70  1  0.51170400  0.20680700  0.75524400  1
  Br  Br71  1  0.37219700  0.03459500  0.60448100  1
  Br  Br72  1  0.87219700  0.96540500  0.89551900  1
  Br  Br73  1  0.01170400  0.79319300  0.74475600  1
  Br  Br74  1  0.98829600  0.20680700  0.25524400  1
  Br  Br75  1  0.48829600  0.79319300  0.24475600  1
  O  O76  1  0.72933000  0.41951000  0.07249700  1
  O  O77  1  0.27067000  0.58049000  0.92750300  1
  O  O78  1  0.10227100  0.37141600  0.89073600  1
  O  O79  1  0.32941600  0.70839000  0.53733000  1
  O  O80  1  0.77067000  0.41951000  0.57249700  1
  O  O81  1  0.17058400  0.70839000  0.03733000  1
  O  O82  1  0.67058400  0.29161000  0.46267000  1
  O  O83  1  0.39772900  0.37141600  0.39073600  1
  O  O84  1  0.89772900  0.62858400  0.10926400  1
  O  O85  1  0.60227100  0.62858400  0.60926400  1
  O  O86  1  0.82941600  0.29161000  0.96267000  1
  O  O87  1  0.22933000  0.58049000  0.42750300  1
