# generated using pymatgen
data_PH3W(CO)5
_symmetry_space_group_name_H-M   'P 1'
_cell_length_a   6.84270000
_cell_length_b   11.18842000
_cell_length_c   12.78179189
_cell_angle_alpha   82.85429381
_cell_angle_beta   90.00000000
_cell_angle_gamma   90.00000000
_symmetry_Int_Tables_number   1
_chemical_formula_structural   PH3W(CO)5
_chemical_formula_sum   'P4 H12 W4 C20 O20'
_cell_volume   970.96076190
_cell_formula_units_Z   4
loop_
 _symmetry_equiv_pos_site_id
 _symmetry_equiv_pos_as_xyz
  1  'x, y, z'
loop_
 _atom_site_type_symbol
 _atom_site_label
 _atom_site_symmetry_multiplicity
 _atom_site_fract_x
 _atom_site_fract_y
 _atom_site_fract_z
 _atom_site_occupancy
  P  P0  1  0.10676300  0.70549700  0.32547700  1
  P  P1  1  0.89323700  0.29450300  0.67452300  1
  P  P2  1  0.60676300  0.29450300  0.17452300  1
  P  P3  1  0.39323700  0.70549700  0.82547700  1
  H  H4  1  0.69873200  0.33289700  0.64963300  1
  H  H5  1  0.49355400  0.61270600  0.88969000  1
  H  H6  1  0.00644600  0.61270600  0.38969000  1
  H  H7  1  0.80126800  0.33289700  0.14963300  1
  H  H8  1  0.30126800  0.66710300  0.35036700  1
  H  H9  1  0.59611000  0.20300500  0.10742800  1
  H  H10  1  0.40389000  0.79699500  0.89257200  1
  H  H11  1  0.09611000  0.79699500  0.39257200  1
  H  H12  1  0.99355400  0.38729400  0.61031000  1
  H  H13  1  0.50644600  0.38729400  0.11031000  1
  H  H14  1  0.19873200  0.66710300  0.85036700  1
  H  H15  1  0.90389000  0.20300500  0.60742800  1
  W  W16  1  0.49338000  0.24473300  0.36752100  1
  W  W17  1  0.00662000  0.24473300  0.86752100  1
  W  W18  1  0.99338000  0.75526700  0.13247900  1
  W  W19  1  0.50662000  0.75526700  0.63247900  1
  C  C20  1  0.13307300  0.08628900  0.83026000  1
  C  C21  1  0.63307300  0.91371100  0.66974000  1
  C  C22  1  0.73195100  0.66656000  0.16812800  1
  C  C23  1  0.88065700  0.40240200  0.90424100  1
  C  C24  1  0.60006600  0.79384800  0.48116400  1
  C  C25  1  0.39993400  0.20615200  0.51883600  1
  C  C26  1  0.23195100  0.33344000  0.33187200  1
  C  C27  1  0.38065700  0.59759800  0.59575900  1
  C  C28  1  0.76804900  0.66656000  0.66812800  1
  C  C29  1  0.24668200  0.84747800  0.59767300  1
  C  C30  1  0.89993400  0.79384800  0.98116400  1
  C  C31  1  0.75331800  0.15252200  0.40232700  1
  C  C32  1  0.74668200  0.15252200  0.90232700  1
  C  C33  1  0.36692700  0.08628900  0.33026000  1
  C  C34  1  0.61934300  0.40240200  0.40424100  1
  C  C35  1  0.11934300  0.59759800  0.09575900  1
  C  C36  1  0.10006600  0.20615200  0.01883600  1
  C  C37  1  0.25331800  0.84747800  0.09767300  1
  C  C38  1  0.86692700  0.91371100  0.16974000  1
  C  C39  1  0.26804900  0.33344000  0.83187200  1
  O  O40  1  0.20413800  0.99784400  0.81040100  1
  O  O41  1  0.68969500  0.49044900  0.42683300  1
  O  O42  1  0.08310300  0.38212800  0.31402100  1
  O  O43  1  0.29586200  0.99784400  0.31040100  1
  O  O44  1  0.89836700  0.10103000  0.42256900  1
  O  O45  1  0.84560800  0.81473000  0.89407800  1
  O  O46  1  0.31030500  0.50955100  0.57316700  1
  O  O47  1  0.79586200  0.00215600  0.18959900  1
  O  O48  1  0.41689700  0.38212800  0.81402100  1
  O  O49  1  0.34560800  0.18527000  0.60592200  1
  O  O50  1  0.70413800  0.00215600  0.68959900  1
  O  O51  1  0.58310300  0.61787200  0.18597900  1
  O  O52  1  0.91689700  0.61787200  0.68597900  1
  O  O53  1  0.60163300  0.10103000  0.92256900  1
  O  O54  1  0.81030500  0.49044900  0.92683300  1
  O  O55  1  0.10163300  0.89897000  0.57743100  1
  O  O56  1  0.18969500  0.50955100  0.07316700  1
  O  O57  1  0.15439200  0.18527000  0.10592200  1
  O  O58  1  0.39836700  0.89897000  0.07743100  1
  O  O59  1  0.65439200  0.81473000  0.39407800  1
