# generated using pymatgen
data_HgH24C8(I2N)2
_symmetry_space_group_name_H-M   'P 1'
_cell_length_a   9.96676500
_cell_length_b   13.73490200
_cell_length_c   17.24271900
_cell_angle_alpha   90.00000000
_cell_angle_beta   90.00000000
_cell_angle_gamma   90.00000000
_symmetry_Int_Tables_number   1
_chemical_formula_structural   HgH24C8(I2N)2
_chemical_formula_sum   'Hg4 H96 C32 I16 N8'
_cell_volume   2360.39960959
_cell_formula_units_Z   4
loop_
 _symmetry_equiv_pos_site_id
 _symmetry_equiv_pos_as_xyz
  1  'x, y, z'
loop_
 _atom_site_type_symbol
 _atom_site_label
 _atom_site_symmetry_multiplicity
 _atom_site_fract_x
 _atom_site_fract_y
 _atom_site_fract_z
 _atom_site_occupancy
  Hg  Hg0  1  0.99924700  0.50436000  0.59528800  1
  Hg  Hg1  1  0.00075300  0.00436000  0.90471200  1
  Hg  Hg2  1  0.50075300  0.49564000  0.09528800  1
  Hg  Hg3  1  0.49924700  0.99564000  0.40471200  1
  H  H4  1  0.46928700  0.62116500  0.85140500  1
  H  H5  1  0.03186500  0.58387000  0.10539500  1
  H  H6  1  0.84187300  0.32235600  0.37002500  1
  H  H7  1  0.10939100  0.47160000  0.81552500  1
  H  H8  1  0.67299900  0.18771500  0.68321300  1
  H  H9  1  0.68747800  0.13129600  0.13987600  1
  H  H10  1  0.36309600  0.83305500  0.75863300  1
  H  H11  1  0.47849600  0.60089000  0.52252600  1
  H  H12  1  0.86309600  0.66694500  0.24136700  1
  H  H13  1  0.39060900  0.52840000  0.31552500  1
  H  H14  1  0.03277200  0.62668100  0.25364200  1
  H  H15  1  0.52150400  0.10089000  0.97747400  1
  H  H16  1  0.98624400  0.74896600  0.27973500  1
  H  H17  1  0.18979700  0.69841300  0.10446700  1
  H  H18  1  0.32700100  0.68771500  0.81678700  1
  H  H19  1  0.15812700  0.82235600  0.12997500  1
  H  H20  1  0.03071300  0.37883500  0.35140500  1
  H  H21  1  0.82700100  0.81228500  0.18321300  1
  H  H22  1  0.80182600  0.23534800  0.29656600  1
  H  H23  1  0.50896800  0.22044000  0.01812600  1
  H  H24  1  0.35527500  0.15748300  0.18932000  1
  H  H25  1  0.90154600  0.25487600  0.88232700  1
  H  H26  1  0.14472500  0.84251700  0.68932000  1
  H  H27  1  0.10221000  0.00087600  0.52596800  1
  H  H28  1  0.34337500  0.64917700  0.46659200  1
  H  H29  1  0.39779000  0.99912400  0.02596800  1
  H  H30  1  0.96722800  0.12668100  0.24635800  1
  H  H31  1  0.13690400  0.16694500  0.25863300  1
  H  H32  1  0.71834100  0.65178400  0.40576800  1
  H  H33  1  0.65812700  0.67764400  0.87002500  1
  H  H34  1  0.81252200  0.86870400  0.63987600  1
  H  H35  1  0.06206800  0.35101600  0.78728800  1
  H  H36  1  0.19817400  0.73534800  0.20343400  1
  H  H37  1  0.31020300  0.30158700  0.60446700  1
  H  H38  1  0.69817400  0.76465200  0.79656600  1
  H  H39  1  0.09845400  0.75487600  0.61767300  1
  H  H40  1  0.53287900  0.32366900  0.54131000  1
  H  H41  1  0.02150400  0.39911000  0.02252600  1
  H  H42  1  0.60221000  0.49912400  0.47403200  1
  H  H43  1  0.96813500  0.08387000  0.39460500  1
  H  H44  1  0.46813500  0.41613000  0.60539500  1
  H  H45  1  0.48370100  0.45032500  0.40586100  1
  H  H46  1  0.64765000  0.48625600  0.37419200  1
  H  H47  1  0.18747800  0.36870400  0.86012400  1
  H  H48  1  0.15662500  0.35082300  0.96659200  1
  H  H49  1  0.12823600  0.30782000  0.41741100  1
  H  H50  1  0.85235000  0.51374400  0.87419200  1
  H  H51  1  0.60939100  0.02840000  0.18447500  1
  H  H52  1  0.84337500  0.85082300  0.53340800  1
  H  H53  1  0.53277200  0.87331900  0.74635800  1
  H  H54  1  0.65662500  0.14917700  0.03340800  1
  H  H55  1  0.48624400  0.75103400  0.72026500  1
  H  H56  1  0.34187300  0.17764400  0.62997500  1
  H  H57  1  0.21834100  0.84821600  0.59423200  1
  H  H58  1  0.35889000  0.88000000  0.88788600  1
  H  H59  1  0.98370100  0.04967500  0.59413900  1
  H  H60  1  0.37176400  0.69218000  0.91741100  1
  H  H61  1  0.46712100  0.82366900  0.95869000  1
  H  H62  1  0.63690400  0.33305500  0.74136700  1
  H  H63  1  0.03287900  0.17633100  0.45869000  1
  H  H64  1  0.97849600  0.89911000  0.47747400  1
  H  H65  1  0.78165900  0.34821600  0.90576800  1
  H  H66  1  0.46722800  0.37331900  0.75364200  1
  H  H67  1  0.89060900  0.97160000  0.68447500  1
  H  H68  1  0.59845400  0.74512400  0.38232700  1
  H  H69  1  0.51375600  0.25103400  0.77973500  1
  H  H70  1  0.53071300  0.12116500  0.64859500  1
  H  H71  1  0.62823600  0.19218000  0.58258900  1
  H  H72  1  0.14765000  0.01374400  0.62580800  1
  H  H73  1  0.56206800  0.14898400  0.21271200  1
  H  H74  1  0.64111000  0.38000000  0.61211400  1
  H  H75  1  0.99103200  0.77956000  0.51812600  1
  H  H76  1  0.51629900  0.95032500  0.09413900  1
  H  H77  1  0.01629900  0.54967500  0.90586100  1
  H  H78  1  0.53186500  0.91613000  0.89460500  1
  H  H79  1  0.30182600  0.26465200  0.70343400  1
  H  H80  1  0.49103200  0.72044000  0.48187400  1
  H  H81  1  0.64472500  0.65748300  0.31068000  1
  H  H82  1  0.87176400  0.80782000  0.08258900  1
  H  H83  1  0.31252200  0.63129600  0.36012400  1
  H  H84  1  0.81020300  0.19841300  0.39553300  1
  H  H85  1  0.01375600  0.24896600  0.22026500  1
  H  H86  1  0.96712100  0.67633100  0.04131000  1
  H  H87  1  0.85889000  0.62000000  0.11211400  1
  H  H88  1  0.35235000  0.98625600  0.12580800  1
  H  H89  1  0.40154600  0.24512400  0.11767300  1
  H  H90  1  0.17299900  0.31228500  0.31678700  1
  H  H91  1  0.68979700  0.80158700  0.89553300  1
  H  H92  1  0.28165900  0.15178400  0.09423200  1
  H  H93  1  0.93793200  0.85101600  0.71271200  1
  H  H94  1  0.14111000  0.12000000  0.38788600  1
  H  H95  1  0.85527500  0.34251700  0.81068000  1
  H  H96  1  0.89779000  0.50087600  0.97403200  1
  H  H97  1  0.00896800  0.27956000  0.98187400  1
  H  H98  1  0.96928700  0.87883500  0.14859500  1
  H  H99  1  0.43793200  0.64898400  0.28728800  1
  C  C100  1  0.53910100  0.35546600  0.59999100  1
  C  C101  1  0.56529200  0.50251200  0.41421500  1
  C  C102  1  0.62771200  0.66927100  0.37277300  1
  C  C103  1  0.35346400  0.25347300  0.64812100  1
  C  C104  1  0.87228800  0.33072900  0.87277300  1
  C  C105  1  0.96089900  0.64453400  0.09999100  1
  C  C106  1  0.59419300  0.10308000  0.16431600  1
  C  C107  1  0.06529200  0.99748800  0.58578500  1
  C  C108  1  0.53147300  0.31139000  0.73892900  1
  C  C109  1  0.93470800  0.49748800  0.91421500  1
  C  C110  1  0.09419300  0.39692000  0.83568400  1
  C  C111  1  0.45218400  0.64653100  0.47304400  1
  C  C112  1  0.46089900  0.85546600  0.90000900  1
  C  C113  1  0.03910100  0.14453400  0.40000900  1
  C  C114  1  0.54781600  0.14653100  0.02695600  1
  C  C115  1  0.08975300  0.31205300  0.35800400  1
  C  C116  1  0.64653600  0.75347300  0.85187900  1
  C  C117  1  0.90580700  0.89692000  0.66431600  1
  C  C118  1  0.58975300  0.18794700  0.64199600  1
  C  C119  1  0.14653600  0.74652700  0.14812100  1
  C  C120  1  0.85346400  0.24652700  0.35187900  1
  C  C121  1  0.40580700  0.60308000  0.33568400  1
  C  C122  1  0.04781600  0.35346900  0.97304400  1
  C  C123  1  0.43470800  0.00251200  0.08578500  1
  C  C124  1  0.95218400  0.85346900  0.52695600  1
  C  C125  1  0.46852700  0.81139000  0.76107100  1
  C  C126  1  0.03147300  0.18861000  0.26107100  1
  C  C127  1  0.37228800  0.16927100  0.12722700  1
  C  C128  1  0.91024700  0.81205300  0.14199600  1
  C  C129  1  0.12771200  0.83072900  0.62722700  1
  C  C130  1  0.96852700  0.68861000  0.23892900  1
  C  C131  1  0.41024700  0.68794700  0.85800400  1
  I  I132  1  0.00159300  0.07422100  0.06088300  1
  I  I133  1  0.99840700  0.57422100  0.43911700  1
  I  I134  1  0.50159300  0.42577900  0.93911700  1
  I  I135  1  0.49599200  0.20416300  0.39364400  1
  I  I136  1  0.73667700  0.42454000  0.17066200  1
  I  I137  1  0.23772400  0.57517000  0.66934100  1
  I  I138  1  0.50400800  0.70416300  0.10635600  1
  I  I139  1  0.73772400  0.92483000  0.33065900  1
  I  I140  1  0.26332300  0.92454000  0.32933800  1
  I  I141  1  0.26227600  0.42483000  0.16934100  1
  I  I142  1  0.49840700  0.92577900  0.56088300  1
  I  I143  1  0.76332300  0.57546000  0.67066200  1
  I  I144  1  0.99599200  0.29583700  0.60635600  1
  I  I145  1  0.00400800  0.79583700  0.89364400  1
  I  I146  1  0.76227600  0.07517000  0.83065900  1
  I  I147  1  0.23667700  0.07546000  0.82933800  1
  N  N148  1  0.98704000  0.39535000  0.89899300  1
  N  N149  1  0.01296000  0.89535000  0.60100700  1
  N  N150  1  0.99772200  0.72338900  0.15741700  1
  N  N151  1  0.49772200  0.77661100  0.84258300  1
  N  N152  1  0.00227800  0.22338900  0.34258300  1
  N  N153  1  0.51296000  0.60465000  0.39899300  1
  N  N154  1  0.50227800  0.27661100  0.65741700  1
  N  N155  1  0.48704000  0.10465000  0.10100700  1
