# generated using pymatgen
data_GdH6C6Cl3(O3F2)3
_symmetry_space_group_name_H-M   'P 1'
_cell_length_a   19.67860900
_cell_length_b   9.66571700
_cell_length_c   10.49319164
_cell_angle_alpha   65.39498020
_cell_angle_beta   90.00000000
_cell_angle_gamma   90.00000000
_symmetry_Int_Tables_number   1
_chemical_formula_structural   GdH6C6Cl3(O3F2)3
_chemical_formula_sum   'Gd4 H24 C24 Cl12 O36 F24'
_cell_volume   1814.66026172
_cell_formula_units_Z   4
loop_
 _symmetry_equiv_pos_site_id
 _symmetry_equiv_pos_as_xyz
  1  'x, y, z'
loop_
 _atom_site_type_symbol
 _atom_site_label
 _atom_site_symmetry_multiplicity
 _atom_site_fract_x
 _atom_site_fract_y
 _atom_site_fract_z
 _atom_site_occupancy
  Gd  Gd0  1  0.42806600  0.70051300  0.47414900  1
  Gd  Gd1  1  0.07193400  0.70051300  0.97414900  1
  Gd  Gd2  1  0.57193400  0.29948700  0.52585100  1
  Gd  Gd3  1  0.92806600  0.29948700  0.02585100  1
  H  H4  1  0.51264700  0.00087300  0.36401800  1
  H  H5  1  0.21491700  0.55908300  0.00645700  1
  H  H6  1  0.94315100  0.95777800  0.21775300  1
  H  H7  1  0.28484000  0.68220900  0.57563900  1
  H  H8  1  0.11264900  0.87196900  0.66334400  1
  H  H9  1  0.88735100  0.12803100  0.33665600  1
  H  H10  1  0.28508300  0.55908300  0.50645700  1
  H  H11  1  0.31578400  0.82755700  0.23624700  1
  H  H12  1  0.78508300  0.44091700  0.99354300  1
  H  H13  1  0.81578400  0.17244300  0.26375300  1
  H  H14  1  0.21516000  0.68220900  0.07563900  1
  H  H15  1  0.78484000  0.31779100  0.92436100  1
  H  H16  1  0.05684900  0.04222200  0.78224700  1
  H  H17  1  0.48735300  0.99912700  0.63598200  1
  H  H18  1  0.71491700  0.44091700  0.49354300  1
  H  H19  1  0.98735300  0.00087300  0.86401800  1
  H  H20  1  0.44315100  0.04222200  0.28224700  1
  H  H21  1  0.68421600  0.17244300  0.76375300  1
  H  H22  1  0.18421600  0.82755700  0.73624700  1
  H  H23  1  0.01264700  0.99912700  0.13598200  1
  H  H24  1  0.71516000  0.31779100  0.42436100  1
  H  H25  1  0.55684900  0.95777800  0.71775300  1
  H  H26  1  0.61264900  0.12803100  0.83665600  1
  H  H27  1  0.38735100  0.87196900  0.16334400  1
  C  C28  1  0.46088200  0.35804300  0.75729900  1
  C  C29  1  0.67037600  0.15973000  0.32992200  1
  C  C30  1  0.34927200  0.33159400  0.34573300  1
  C  C31  1  0.06065100  0.27520900  0.41463600  1
  C  C32  1  0.56065100  0.72479100  0.08536400  1
  C  C33  1  0.93934900  0.72479100  0.58536400  1
  C  C34  1  0.41484100  0.36512300  0.41087100  1
  C  C35  1  0.58515900  0.63487700  0.58912900  1
  C  C36  1  0.91484100  0.63487700  0.08912900  1
  C  C37  1  0.66400400  0.06088400  0.24452200  1
  C  C38  1  0.65072800  0.66840600  0.65426700  1
  C  C39  1  0.03911800  0.35804300  0.25729900  1
  C  C40  1  0.84927200  0.66840600  0.15426700  1
  C  C41  1  0.53911800  0.64195700  0.24270100  1
  C  C42  1  0.33599600  0.93911600  0.75547800  1
  C  C43  1  0.17037600  0.84027000  0.17007800  1
  C  C44  1  0.83599600  0.06088400  0.74452200  1
  C  C45  1  0.08515900  0.36512300  0.91087100  1
  C  C46  1  0.32962400  0.84027000  0.67007800  1
  C  C47  1  0.96088200  0.64195700  0.74270100  1
  C  C48  1  0.15072800  0.33159400  0.84573300  1
  C  C49  1  0.82962400  0.15973000  0.82992200  1
  C  C50  1  0.43934900  0.27520900  0.91463600  1
  C  C51  1  0.16400400  0.93911600  0.25547800  1
  Cl  Cl52  1  0.34521900  0.45757900  0.16522700  1
  Cl  Cl53  1  0.85787600  0.18288500  0.56811700  1
  Cl  Cl54  1  0.34987600  0.26030300  0.93108300  1
  Cl  Cl55  1  0.15478100  0.45757900  0.66522700  1
  Cl  Cl56  1  0.84987600  0.73969700  0.56891700  1
  Cl  Cl57  1  0.65012400  0.73969700  0.06891700  1
  Cl  Cl58  1  0.84521900  0.54242100  0.33477300  1
  Cl  Cl59  1  0.15012400  0.26030300  0.43108300  1
  Cl  Cl60  1  0.65478100  0.54242100  0.83477300  1
  Cl  Cl61  1  0.64212400  0.18288500  0.06811700  1
  Cl  Cl62  1  0.35787600  0.81711500  0.93188300  1
  Cl  Cl63  1  0.14212400  0.81711500  0.43188300  1
  O  O64  1  0.96330800  0.72623400  0.06718400  1
  O  O65  1  0.99739100  0.71810800  0.78808700  1
  O  O66  1  0.08848000  0.48321700  0.93287100  1
  O  O67  1  0.96609100  0.03317800  0.13686600  1
  O  O68  1  0.69076200  0.35638900  0.48706100  1
  O  O69  1  0.11560800  0.82383100  0.11494500  1
  O  O70  1  0.41152000  0.48321700  0.43287100  1
  O  O71  1  0.93915000  0.50792800  0.80395900  1
  O  O72  1  0.50260900  0.71810800  0.28808700  1
  O  O73  1  0.88439200  0.17616900  0.88505500  1
  O  O74  1  0.53390900  0.03317800  0.63686600  1
  O  O75  1  0.36414500  0.84254500  0.25272200  1
  O  O76  1  0.80923800  0.35638900  0.98706100  1
  O  O77  1  0.00260900  0.28189200  0.21191300  1
  O  O78  1  0.27181300  0.78613000  0.66822700  1
  O  O79  1  0.06085000  0.49207200  0.19604100  1
  O  O80  1  0.56085000  0.50792800  0.30395900  1
  O  O81  1  0.22818700  0.78613000  0.16822700  1
  O  O82  1  0.63585500  0.15745500  0.74727800  1
  O  O83  1  0.72818700  0.21387000  0.33177300  1
  O  O84  1  0.43915000  0.49207200  0.69604100  1
  O  O85  1  0.77181300  0.21387000  0.83177300  1
  O  O86  1  0.53669200  0.72623400  0.56718400  1
  O  O87  1  0.19076200  0.64361100  0.01293900  1
  O  O88  1  0.91152000  0.51678300  0.06712900  1
  O  O89  1  0.03390900  0.96682200  0.86313400  1
  O  O90  1  0.49739100  0.28189200  0.71191300  1
  O  O91  1  0.38439200  0.82383100  0.61494500  1
  O  O92  1  0.03669200  0.27376600  0.93281600  1
  O  O93  1  0.86414500  0.15745500  0.24727800  1
  O  O94  1  0.58848000  0.51678300  0.56712900  1
  O  O95  1  0.13585500  0.84254500  0.75272200  1
  O  O96  1  0.61560800  0.17616900  0.38505500  1
  O  O97  1  0.46609100  0.96682200  0.36313400  1
  O  O98  1  0.30923800  0.64361100  0.51293900  1
  O  O99  1  0.46330800  0.27376600  0.43281600  1
  F  F100  1  0.03611900  0.35439800  0.48710400  1
  F  F101  1  0.70672100  0.64634800  0.58663900  1
  F  F102  1  0.53358000  0.86803400  0.02273600  1
  F  F103  1  0.11466500  0.04798500  0.20199400  1
  F  F104  1  0.79327900  0.64634800  0.08663900  1
  F  F105  1  0.22302000  0.01303800  0.25406600  1
  F  F106  1  0.46642000  0.13196600  0.97726400  1
  F  F107  1  0.29327900  0.35365200  0.41336100  1
  F  F108  1  0.96642000  0.86803400  0.52273600  1
  F  F109  1  0.34649600  0.18564100  0.35886900  1
  F  F110  1  0.38533500  0.04798500  0.70199400  1
  F  F111  1  0.77698000  0.98696200  0.74593400  1
  F  F112  1  0.88533500  0.95201500  0.79800600  1
  F  F113  1  0.65350400  0.81435900  0.64113100  1
  F  F114  1  0.72302000  0.98696200  0.24593400  1
  F  F115  1  0.96388100  0.64560200  0.51289600  1
  F  F116  1  0.15350400  0.18564100  0.85886900  1
  F  F117  1  0.46388100  0.35439800  0.98710400  1
  F  F118  1  0.20672100  0.35365200  0.91336100  1
  F  F119  1  0.27698000  0.01303800  0.75406600  1
  F  F120  1  0.84649600  0.81435900  0.14113100  1
  F  F121  1  0.03358000  0.13196600  0.47726400  1
  F  F122  1  0.53611900  0.64560200  0.01289600  1
  F  F123  1  0.61466500  0.95201500  0.29800600  1
