# generated using pymatgen
data_Fe2(TeO3)3
_symmetry_space_group_name_H-M   'P 1'
_cell_length_a   5.35301200
_cell_length_b   7.93573600
_cell_length_c   18.02205000
_cell_angle_alpha   90.00000000
_cell_angle_beta   90.00000000
_cell_angle_gamma   90.00000000
_symmetry_Int_Tables_number   1
_chemical_formula_structural   Fe2(TeO3)3
_chemical_formula_sum   'Fe8 Te12 O36'
_cell_volume   765.57830665
_cell_formula_units_Z   4
loop_
 _symmetry_equiv_pos_site_id
 _symmetry_equiv_pos_as_xyz
  1  'x, y, z'
loop_
 _atom_site_type_symbol
 _atom_site_label
 _atom_site_symmetry_multiplicity
 _atom_site_fract_x
 _atom_site_fract_y
 _atom_site_fract_z
 _atom_site_occupancy
  Fe  Fe0  1  0.70802500  0.80090400  0.56475300  1
  Fe  Fe1  1  0.79197500  0.30090400  0.93524700  1
  Fe  Fe2  1  0.29197500  0.19909600  0.43524700  1
  Fe  Fe3  1  0.29197500  0.19909600  0.06475300  1
  Fe  Fe4  1  0.20802500  0.69909600  0.43524700  1
  Fe  Fe5  1  0.79197500  0.30090400  0.56475300  1
  Fe  Fe6  1  0.70802500  0.80090400  0.93524700  1
  Fe  Fe7  1  0.20802500  0.69909600  0.06475300  1
  Te  Te8  1  0.18795700  0.61836100  0.87368000  1
  Te  Te9  1  0.31204300  0.11836100  0.62632000  1
  Te  Te10  1  0.22394100  0.16215400  0.25000000  1
  Te  Te11  1  0.81204300  0.38163900  0.37368000  1
  Te  Te12  1  0.68795700  0.88163900  0.37368000  1
  Te  Te13  1  0.27605900  0.66215400  0.25000000  1
  Te  Te14  1  0.77605900  0.83784600  0.75000000  1
  Te  Te15  1  0.72394100  0.33784600  0.75000000  1
  Te  Te16  1  0.31204300  0.11836100  0.87368000  1
  Te  Te17  1  0.18795700  0.61836100  0.62632000  1
  Te  Te18  1  0.68795700  0.88163900  0.12632000  1
  Te  Te19  1  0.81204300  0.38163900  0.12632000  1
  O  O20  1  0.52431600  0.66310500  0.12327800  1
  O  O21  1  0.45903200  0.87341300  0.25000000  1
  O  O22  1  0.87710700  0.81594600  0.46398300  1
  O  O23  1  0.97568400  0.16310500  0.12327800  1
  O  O24  1  0.97568400  0.16310500  0.37672200  1
  O  O25  1  0.10975900  0.45357300  0.42881100  1
  O  O26  1  0.04096800  0.37341300  0.25000000  1
  O  O27  1  0.02431600  0.83689500  0.62327800  1
  O  O28  1  0.47568400  0.33689500  0.87672200  1
  O  O29  1  0.12289300  0.18405400  0.53601700  1
  O  O30  1  0.37710700  0.68405400  0.53601700  1
  O  O31  1  0.45202900  0.22310600  0.32940600  1
  O  O32  1  0.39024100  0.95357300  0.07118900  1
  O  O33  1  0.45202900  0.22310600  0.17059400  1
  O  O34  1  0.95202900  0.27689400  0.82940600  1
  O  O35  1  0.89024100  0.54642700  0.57118900  1
  O  O36  1  0.87710700  0.81594600  0.03601700  1
  O  O37  1  0.60975900  0.04642700  0.57118900  1
  O  O38  1  0.54096800  0.12658700  0.75000000  1
  O  O39  1  0.54797100  0.77689400  0.67059400  1
  O  O40  1  0.62289300  0.31594600  0.46398300  1
  O  O41  1  0.54797100  0.77689400  0.82940600  1
  O  O42  1  0.60975900  0.04642700  0.92881100  1
  O  O43  1  0.62289300  0.31594600  0.03601700  1
  O  O44  1  0.89024100  0.54642700  0.92881100  1
  O  O45  1  0.95202900  0.27689400  0.67059400  1
  O  O46  1  0.37710700  0.68405400  0.96398300  1
  O  O47  1  0.12289300  0.18405400  0.96398300  1
  O  O48  1  0.47568400  0.33689500  0.62327800  1
  O  O49  1  0.95903200  0.62658700  0.75000000  1
  O  O50  1  0.04797100  0.72310600  0.32940600  1
  O  O51  1  0.04797100  0.72310600  0.17059400  1
  O  O52  1  0.02431600  0.83689500  0.87672200  1
  O  O53  1  0.39024100  0.95357300  0.42881100  1
  O  O54  1  0.10975900  0.45357300  0.07118900  1
  O  O55  1  0.52431600  0.66310500  0.37672200  1
