# generated using pymatgen
data_Tl2Cd2(SO4)3
_symmetry_space_group_name_H-M   'P 1'
_cell_length_a   10.59570300
_cell_length_b   10.59570300
_cell_length_c   10.59570300
_cell_angle_alpha   90.00000000
_cell_angle_beta   90.00000000
_cell_angle_gamma   90.00000000
_symmetry_Int_Tables_number   1
_chemical_formula_structural   Tl2Cd2(SO4)3
_chemical_formula_sum   'Tl8 Cd8 S12 O48'
_cell_volume   1189.56815432
_cell_formula_units_Z   4
loop_
 _symmetry_equiv_pos_site_id
 _symmetry_equiv_pos_as_xyz
  1  'x, y, z'
loop_
 _atom_site_type_symbol
 _atom_site_label
 _atom_site_symmetry_multiplicity
 _atom_site_fract_x
 _atom_site_fract_y
 _atom_site_fract_z
 _atom_site_occupancy
  Tl  Tl0  1  0.05303400  0.05303400  0.05303400  1
  Tl  Tl1  1  0.94696600  0.55303400  0.44696600  1
  Tl  Tl2  1  0.55303400  0.44696600  0.94696600  1
  Tl  Tl3  1  0.44696600  0.94696600  0.55303400  1
  Tl  Tl4  1  0.81598700  0.81598700  0.81598700  1
  Tl  Tl5  1  0.31598700  0.68401300  0.18401300  1
  Tl  Tl6  1  0.68401300  0.18401300  0.31598700  1
  Tl  Tl7  1  0.18401300  0.31598700  0.68401300  1
  Cd  Cd8  1  0.41345100  0.08654900  0.91345100  1
  Cd  Cd9  1  0.08654900  0.91345100  0.41345100  1
  Cd  Cd10  1  0.91345100  0.41345100  0.08654900  1
  Cd  Cd11  1  0.58654900  0.58654900  0.58654900  1
  Cd  Cd12  1  0.66984300  0.83015700  0.16984300  1
  Cd  Cd13  1  0.83015700  0.16984300  0.66984300  1
  Cd  Cd14  1  0.16984300  0.66984300  0.83015700  1
  Cd  Cd15  1  0.33015700  0.33015700  0.33015700  1
  S  S16  1  0.22599100  0.37499600  0.01384000  1
  S  S17  1  0.72599100  0.12500400  0.98616000  1
  S  S18  1  0.77400900  0.87499600  0.48616000  1
  S  S19  1  0.12500400  0.98616000  0.72599100  1
  S  S20  1  0.48616000  0.77400900  0.87499600  1
  S  S21  1  0.98616000  0.72599100  0.12500400  1
  S  S22  1  0.37499600  0.01384000  0.22599100  1
  S  S23  1  0.01384000  0.22599100  0.37499600  1
  S  S24  1  0.87499600  0.48616000  0.77400900  1
  S  S25  1  0.62500400  0.51384000  0.27400900  1
  S  S26  1  0.51384000  0.27400900  0.62500400  1
  S  S27  1  0.27400900  0.62500400  0.51384000  1
  O  O28  1  0.25534600  0.41600700  0.14547400  1
  O  O29  1  0.75534600  0.08399300  0.85452600  1
  O  O30  1  0.74465400  0.91600700  0.35452600  1
  O  O31  1  0.08399300  0.85452600  0.75534600  1
  O  O32  1  0.35452600  0.74465400  0.91600700  1
  O  O33  1  0.85452600  0.75534600  0.08399300  1
  O  O34  1  0.41600700  0.14547400  0.25534600  1
  O  O35  1  0.14547400  0.25534600  0.41600700  1
  O  O36  1  0.91600700  0.35452600  0.74465400  1
  O  O37  1  0.58399300  0.64547400  0.24465400  1
  O  O38  1  0.64547400  0.24465400  0.58399300  1
  O  O39  1  0.24465400  0.58399300  0.64547400  1
  O  O40  1  0.23848800  0.48591600  0.92867500  1
  O  O41  1  0.73848800  0.01408400  0.07132500  1
  O  O42  1  0.76151200  0.98591600  0.57132500  1
  O  O43  1  0.01408400  0.07132500  0.73848800  1
  O  O44  1  0.57132500  0.76151200  0.98591600  1
  O  O45  1  0.07132500  0.73848800  0.01408400  1
  O  O46  1  0.49268300  0.90559700  0.82265200  1
  O  O47  1  0.48591600  0.92867500  0.23848800  1
  O  O48  1  0.98591600  0.57132500  0.76151200  1
  O  O49  1  0.51408400  0.42867500  0.26151200  1
  O  O50  1  0.42867500  0.26151200  0.51408400  1
  O  O51  1  0.26151200  0.51408400  0.42867500  1
  O  O52  1  0.09440300  0.32265200  0.00731700  1
  O  O53  1  0.59440300  0.17734800  0.99268300  1
  O  O54  1  0.90559700  0.82265200  0.49268300  1
  O  O55  1  0.17734800  0.99268300  0.59440300  1
  O  O56  1  0.18396500  0.72320300  0.47098400  1
  O  O57  1  0.47098400  0.18396500  0.72320300  1
  O  O58  1  0.72320300  0.47098400  0.18396500  1
  O  O59  1  0.77679700  0.52901600  0.68396500  1
  O  O60  1  0.97098400  0.31603500  0.27679700  1
  O  O61  1  0.27679700  0.97098400  0.31603500  1
  O  O62  1  0.02901600  0.81603500  0.22320300  1
  O  O63  1  0.52901600  0.68396500  0.77679700  1
  O  O64  1  0.22320300  0.02901600  0.81603500  1
  O  O65  1  0.68396500  0.77679700  0.52901600  1
  O  O66  1  0.81603500  0.22320300  0.02901600  1
  O  O67  1  0.31603500  0.27679700  0.97098400  1
  O  O68  1  0.40559700  0.67734800  0.50731700  1
  O  O69  1  0.50731700  0.40559700  0.67734800  1
  O  O70  1  0.67734800  0.50731700  0.40559700  1
  O  O71  1  0.82265200  0.49268300  0.90559700  1
  O  O72  1  0.00731700  0.09440300  0.32265200  1
  O  O73  1  0.32265200  0.00731700  0.09440300  1
  O  O74  1  0.99268300  0.59440300  0.17734800  1
  O  O75  1  0.92867500  0.23848800  0.48591600  1
