# generated using pymatgen
data_V2PbO6
_symmetry_space_group_name_H-M   'P 1'
_cell_length_a   3.67847900
_cell_length_b   9.96348700
_cell_length_c   13.08921300
_cell_angle_alpha   90.00000000
_cell_angle_beta   90.00000000
_cell_angle_gamma   90.00000000
_symmetry_Int_Tables_number   1
_chemical_formula_structural   V2PbO6
_chemical_formula_sum   'V8 Pb4 O24'
_cell_volume   479.72590912
_cell_formula_units_Z   4
loop_
 _symmetry_equiv_pos_site_id
 _symmetry_equiv_pos_as_xyz
  1  'x, y, z'
loop_
 _atom_site_type_symbol
 _atom_site_label
 _atom_site_symmetry_multiplicity
 _atom_site_fract_x
 _atom_site_fract_y
 _atom_site_fract_z
 _atom_site_occupancy
  V  V0  1  0.25000000  0.74078400  0.90926400  1
  V  V1  1  0.25000000  0.50421600  0.12725700  1
  V  V2  1  0.75000000  0.49578400  0.87274300  1
  V  V3  1  0.75000000  0.25921600  0.09073600  1
  V  V4  1  0.75000000  0.75921600  0.40926400  1
  V  V5  1  0.25000000  0.00421600  0.37274300  1
  V  V6  1  0.25000000  0.24078400  0.59073600  1
  V  V7  1  0.75000000  0.99578400  0.62725700  1
  Pb  Pb8  1  0.75000000  0.36988400  0.38070900  1
  Pb  Pb9  1  0.25000000  0.13011600  0.88070900  1
  Pb  Pb10  1  0.75000000  0.86988400  0.11929100  1
  Pb  Pb11  1  0.25000000  0.63011600  0.61929100  1
  O  O12  1  0.75000000  0.52287300  0.74631600  1
  O  O13  1  0.75000000  0.69116700  0.93139100  1
  O  O14  1  0.75000000  0.10729900  0.02419700  1
  O  O15  1  0.75000000  0.96711400  0.41007600  1
  O  O16  1  0.75000000  0.19116700  0.56860900  1
  O  O17  1  0.75000000  0.32663700  0.89549100  1
  O  O18  1  0.25000000  0.80883300  0.43139100  1
  O  O19  1  0.25000000  0.47712700  0.25368400  1
  O  O20  1  0.75000000  0.22172000  0.21267500  1
  O  O21  1  0.75000000  0.60729900  0.47580300  1
  O  O22  1  0.25000000  0.89270100  0.97580300  1
  O  O23  1  0.75000000  0.72172000  0.28732500  1
  O  O24  1  0.25000000  0.97712700  0.24631600  1
  O  O25  1  0.25000000  0.30883300  0.06860900  1
  O  O26  1  0.25000000  0.39270100  0.52419700  1
  O  O27  1  0.25000000  0.27828000  0.71267500  1
  O  O28  1  0.25000000  0.17336300  0.39549100  1
  O  O29  1  0.75000000  0.02287300  0.75368400  1
  O  O30  1  0.25000000  0.77828000  0.78732500  1
  O  O31  1  0.75000000  0.82663700  0.60450900  1
  O  O32  1  0.25000000  0.03288600  0.58992400  1
  O  O33  1  0.75000000  0.46711400  0.08992400  1
  O  O34  1  0.25000000  0.67336300  0.10450900  1
  O  O35  1  0.25000000  0.53288600  0.91007600  1
