# generated using pymatgen
data_Na2In5Au6
_symmetry_space_group_name_H-M   'P 1'
_cell_length_a   9.47890100
_cell_length_b   9.47890100
_cell_length_c   9.47890100
_cell_angle_alpha   90.00000000
_cell_angle_beta   90.00000000
_cell_angle_gamma   90.00000000
_symmetry_Int_Tables_number   1
_chemical_formula_structural   Na2In5Au6
_chemical_formula_sum   'Na6 In15 Au18'
_cell_volume   851.67512364
_cell_formula_units_Z   3
loop_
 _symmetry_equiv_pos_site_id
 _symmetry_equiv_pos_as_xyz
  1  'x, y, z'
loop_
 _atom_site_type_symbol
 _atom_site_label
 _atom_site_symmetry_multiplicity
 _atom_site_fract_x
 _atom_site_fract_y
 _atom_site_fract_z
 _atom_site_occupancy
  Na  Na0  1  0.50000000  0.82809400  0.00000000  1
  Na  Na1  1  0.50000000  0.17190600  0.00000000  1
  Na  Na2  1  0.82809400  0.00000000  0.50000000  1
  Na  Na3  1  0.00000000  0.50000000  0.82809400  1
  Na  Na4  1  0.00000000  0.50000000  0.17190600  1
  Na  Na5  1  0.17190600  0.00000000  0.50000000  1
  In  In6  1  0.28338600  0.28338600  0.71661400  1
  In  In7  1  0.71661400  0.71661400  0.28338600  1
  In  In8  1  0.71661400  0.28338600  0.71661400  1
  In  In9  1  0.50000000  0.00000000  0.33766900  1
  In  In10  1  0.50000000  0.00000000  0.66233100  1
  In  In11  1  0.33766900  0.50000000  0.00000000  1
  In  In12  1  0.66233100  0.50000000  0.00000000  1
  In  In13  1  0.00000000  0.33766900  0.50000000  1
  In  In14  1  0.71661400  0.71661400  0.71661400  1
  In  In15  1  0.28338600  0.71661400  0.28338600  1
  In  In16  1  0.00000000  0.66233100  0.50000000  1
  In  In17  1  0.28338600  0.71661400  0.71661400  1
  In  In18  1  0.71661400  0.28338600  0.28338600  1
  In  In19  1  0.28338600  0.28338600  0.28338600  1
  In  In20  1  0.00000000  0.00000000  0.00000000  1
  Au  Au21  1  0.82686700  0.74062500  0.00000000  1
  Au  Au22  1  0.25937500  0.00000000  0.17313300  1
  Au  Au23  1  0.00000000  0.17313300  0.74062500  1
  Au  Au24  1  0.17313300  0.25937500  0.00000000  1
  Au  Au25  1  0.82686700  0.25937500  0.00000000  1
  Au  Au26  1  0.73502900  0.50000000  0.50000000  1
  Au  Au27  1  0.00000000  0.82686700  0.74062500  1
  Au  Au28  1  0.17313300  0.74062500  0.00000000  1
  Au  Au29  1  0.74062500  0.00000000  0.17313300  1
  Au  Au30  1  0.00000000  0.17313300  0.25937500  1
  Au  Au31  1  0.50000000  0.50000000  0.26497100  1
  Au  Au32  1  0.50000000  0.50000000  0.73502900  1
  Au  Au33  1  0.50000000  0.73502900  0.50000000  1
  Au  Au34  1  0.25937500  0.00000000  0.82686700  1
  Au  Au35  1  0.26497100  0.50000000  0.50000000  1
  Au  Au36  1  0.74062500  0.00000000  0.82686700  1
  Au  Au37  1  0.00000000  0.82686700  0.25937500  1
  Au  Au38  1  0.50000000  0.26497100  0.50000000  1
