# generated using pymatgen
data_SmClF
_symmetry_space_group_name_H-M   'P 1'
_cell_length_a   3.65238700
_cell_length_b   3.65238700
_cell_length_c   8.92631200
_cell_angle_alpha   90.00000000
_cell_angle_beta   90.00000000
_cell_angle_gamma   90.00000000
_symmetry_Int_Tables_number   1
_chemical_formula_structural   SmClF
_chemical_formula_sum   'Sm2 Cl2 F2'
_cell_volume   119.07638436
_cell_formula_units_Z   2
loop_
 _symmetry_equiv_pos_site_id
 _symmetry_equiv_pos_as_xyz
  1  'x, y, z'
loop_
 _atom_site_type_symbol
 _atom_site_label
 _atom_site_symmetry_multiplicity
 _atom_site_fract_x
 _atom_site_fract_y
 _atom_site_fract_z
 _atom_site_occupancy
  Sm  Sm0  1  0.50000000  0.00000000  0.19322900  1
  Sm  Sm1  1  0.00000000  0.50000000  0.80677100  1
  Cl  Cl2  1  0.50000000  0.00000000  0.66285600  1
  Cl  Cl3  1  0.00000000  0.50000000  0.33714400  1
  F  F4  1  0.00000000  0.00000000  0.00000000  1
  F  F5  1  0.50000000  0.50000000  0.00000000  1
