# generated using pymatgen
data_CsC2I3N2
_symmetry_space_group_name_H-M   'P 1'
_cell_length_a   4.62675000
_cell_length_b   6.79609200
_cell_length_c   16.57050400
_cell_angle_alpha   90.00000000
_cell_angle_beta   90.00000000
_cell_angle_gamma   90.00000000
_symmetry_Int_Tables_number   1
_chemical_formula_structural   CsC2I3N2
_chemical_formula_sum   'Cs2 C4 I6 N4'
_cell_volume   521.03992290
_cell_formula_units_Z   2
loop_
 _symmetry_equiv_pos_site_id
 _symmetry_equiv_pos_as_xyz
  1  'x, y, z'
loop_
 _atom_site_type_symbol
 _atom_site_label
 _atom_site_symmetry_multiplicity
 _atom_site_fract_x
 _atom_site_fract_y
 _atom_site_fract_z
 _atom_site_occupancy
  Cs  Cs0  1  0.31796700  0.50000000  0.00000000  1
  Cs  Cs1  1  0.68203300  0.00000000  0.50000000  1
  C  C2  1  0.21908500  0.00000000  0.28825800  1
  C  C3  1  0.78091500  0.50000000  0.21174200  1
  C  C4  1  0.78091500  0.50000000  0.78825800  1
  C  C5  1  0.21908500  0.00000000  0.71174200  1
  I  I6  1  0.40669900  0.00000000  0.82479100  1
  I  I7  1  0.74718600  0.00000000  0.00000000  1
  I  I8  1  0.40669900  0.00000000  0.17520900  1
  I  I9  1  0.25281400  0.50000000  0.50000000  1
  I  I10  1  0.59330100  0.50000000  0.67520900  1
  I  I11  1  0.59330100  0.50000000  0.32479100  1
  N  N12  1  0.87277000  0.50000000  0.85411300  1
  N  N13  1  0.87277000  0.50000000  0.14588700  1
  N  N14  1  0.12723000  0.00000000  0.64588700  1
  N  N15  1  0.12723000  0.00000000  0.35411300  1
