# generated using pymatgen
data_ZnS
_symmetry_space_group_name_H-M   'P 1'
_cell_length_a   37.78446740
_cell_length_b   37.78446736
_cell_length_c   37.78446787
_cell_angle_alpha   5.88244202
_cell_angle_beta   5.88244263
_cell_angle_gamma   5.88244202
_symmetry_Int_Tables_number   1
_chemical_formula_structural   ZnS
_chemical_formula_sum   'Zn12 S12'
_cell_volume   491.12888683
_cell_formula_units_Z   12
loop_
 _symmetry_equiv_pos_site_id
 _symmetry_equiv_pos_as_xyz
  1  'x, y, z'
loop_
 _atom_site_type_symbol
 _atom_site_label
 _atom_site_symmetry_multiplicity
 _atom_site_fract_x
 _atom_site_fract_y
 _atom_site_fract_z
 _atom_site_occupancy
  Zn  Zn0  1  0.08335358  0.08335358  0.08335358  1
  Zn  Zn1  1  0.52780507  0.52780507  0.52780507  1
  Zn  Zn2  1  0.16668563  0.16668563  0.16668563  1
  Zn  Zn3  1  0.38889832  0.38889832  0.38889832  1
  Zn  Zn4  1  0.58335929  0.58335929  0.58335929  1
  Zn  Zn5  1  0.77780734  0.77780734  0.77780734  1
  Zn  Zn6  1  0.27781263  0.27781263  0.27781263  1
  Zn  Zn7  1  0.00002216  0.00002216  0.00002216  1
  Zn  Zn8  1  0.88889024  0.88889024  0.88889024  1
  Zn  Zn9  1  0.63891304  0.63891304  0.63891304  1
  Zn  Zn10  1  0.47223065  0.47223065  0.47223065  1
  Zn  Zn11  1  0.69447714  0.69447714  0.69447714  1
  S  S12  1  0.29860591  0.29860591  0.29860591  1
  S  S13  1  0.79859006  0.79859006  0.79859006  1
  S  S14  1  0.54857573  0.54857573  0.54857573  1
  S  S15  1  0.40969931  0.40969931  0.40969931  1
  S  S16  1  0.65968872  0.65968872  0.65968872  1
  S  S17  1  0.60413406  0.60413406  0.60413406  1
  S  S18  1  0.02082507  0.02082507  0.02082507  1
  S  S19  1  0.49301781  0.49301781  0.49301781  1
  S  S20  1  0.90971083  0.90971083  0.90971083  1
  S  S21  1  0.10414846  0.10414846  0.10414846  1
  S  S22  1  0.18749238  0.18749238  0.18749238  1
  S  S23  1  0.71525857  0.71525857  0.71525857  1
