# generated using pymatgen
data_Pb2O3
_symmetry_space_group_name_H-M   'P 1'
_cell_length_a   4.89378000
_cell_length_b   4.82393400
_cell_length_c   7.03269898
_cell_angle_alpha   89.32158709
_cell_angle_beta   90.00000000
_cell_angle_gamma   90.00000000
_symmetry_Int_Tables_number   1
_chemical_formula_structural   Pb2O3
_chemical_formula_sum   'Pb4 O6'
_cell_volume   166.01119791
_cell_formula_units_Z   2
loop_
 _symmetry_equiv_pos_site_id
 _symmetry_equiv_pos_as_xyz
  1  'x, y, z'
loop_
 _atom_site_type_symbol
 _atom_site_label
 _atom_site_symmetry_multiplicity
 _atom_site_fract_x
 _atom_site_fract_y
 _atom_site_fract_z
 _atom_site_occupancy
  Pb  Pb0  1  0.25000000  0.74975500  0.99461100  1
  Pb  Pb1  1  0.75000000  0.25024500  0.00538900  1
  Pb  Pb2  1  0.75000000  0.75803700  0.60705000  1
  Pb  Pb3  1  0.25000000  0.24196300  0.39295000  1
  O  O4  1  0.25000000  0.76493400  0.70558700  1
  O  O5  1  0.75000000  0.74948800  0.96032200  1
  O  O6  1  0.25000000  0.25051200  0.03967800  1
  O  O7  1  0.25000000  0.74364100  0.28414600  1
  O  O8  1  0.75000000  0.23506600  0.29441300  1
  O  O9  1  0.75000000  0.25635900  0.71585400  1
