# generated using pymatgen
data_Mg2PO4F
_symmetry_space_group_name_H-M   'P 1'
_cell_length_a   12.81013700
_cell_length_b   9.75317300
_cell_length_c   12.05428849
_cell_angle_alpha   71.77055823
_cell_angle_beta   90.00000000
_cell_angle_gamma   90.00000000
_symmetry_Int_Tables_number   1
_chemical_formula_structural   Mg2PO4F
_chemical_formula_sum   'Mg32 P16 O64 F16'
_cell_volume   1430.46973981
_cell_formula_units_Z   16
loop_
 _symmetry_equiv_pos_site_id
 _symmetry_equiv_pos_as_xyz
  1  'x, y, z'
loop_
 _atom_site_type_symbol
 _atom_site_label
 _atom_site_symmetry_multiplicity
 _atom_site_fract_x
 _atom_site_fract_y
 _atom_site_fract_z
 _atom_site_occupancy
  Mg  Mg0  1  0.74429700  0.70666800  0.30663400  1
  Mg  Mg1  1  0.24429700  0.29333200  0.19336600  1
  Mg  Mg2  1  0.25570300  0.29333200  0.69336600  1
  Mg  Mg3  1  0.75570300  0.70666800  0.80663400  1
  Mg  Mg4  1  0.73277600  0.30545200  0.18716400  1
  Mg  Mg5  1  0.23277600  0.69454800  0.31283600  1
  Mg  Mg6  1  0.26722400  0.69454800  0.81283600  1
  Mg  Mg7  1  0.76722400  0.30545200  0.68716400  1
  Mg  Mg8  1  0.50502600  0.79026300  0.19217300  1
  Mg  Mg9  1  0.00502600  0.20973700  0.30782700  1
  Mg  Mg10  1  0.49497400  0.20973700  0.80782700  1
  Mg  Mg11  1  0.99497400  0.79026300  0.69217300  1
  Mg  Mg12  1  0.51867500  0.19186100  0.30917100  1
  Mg  Mg13  1  0.01867500  0.80813900  0.19082900  1
  Mg  Mg14  1  0.48132500  0.80813900  0.69082900  1
  Mg  Mg15  1  0.98132500  0.19186100  0.80917100  1
  Mg  Mg16  1  0.67711800  0.96385500  0.89398300  1
  Mg  Mg17  1  0.17711800  0.03614500  0.60601700  1
  Mg  Mg18  1  0.32288200  0.03614500  0.10601700  1
  Mg  Mg19  1  0.82288200  0.96385500  0.39398300  1
  Mg  Mg20  1  0.68151100  0.04630100  0.58076600  1
  Mg  Mg21  1  0.18151100  0.95369900  0.91923400  1
  Mg  Mg22  1  0.31848900  0.95369900  0.41923400  1
  Mg  Mg23  1  0.81848900  0.04630100  0.08076600  1
  Mg  Mg24  1  0.92887600  0.55060300  0.08719400  1
  Mg  Mg25  1  0.06997900  0.53507300  0.59938900  1
  Mg  Mg26  1  0.43002100  0.53507300  0.09938900  1
  Mg  Mg27  1  0.93002100  0.46492700  0.40061100  1
  Mg  Mg28  1  0.57112400  0.55060300  0.58719400  1
  Mg  Mg29  1  0.07112400  0.44939700  0.91280600  1
  Mg  Mg30  1  0.42887600  0.44939700  0.41280600  1
  Mg  Mg31  1  0.56997900  0.46492700  0.90061100  1
  P  P32  1  0.67690500  0.62100900  0.07581600  1
  P  P33  1  0.17690500  0.37899100  0.42418400  1
  P  P34  1  0.32309500  0.37899100  0.92418400  1
  P  P35  1  0.82309500  0.62100900  0.57581600  1
  P  P36  1  0.67475200  0.38226100  0.42487400  1
  P  P37  1  0.17475200  0.61773900  0.07512600  1
  P  P38  1  0.32524800  0.61773900  0.57512600  1
  P  P39  1  0.82524800  0.38226100  0.92487400  1
  P  P40  1  0.57207100  0.87945800  0.42405400  1
  P  P41  1  0.07207100  0.12054200  0.07594600  1
  P  P42  1  0.42792900  0.12054200  0.57594600  1
  P  P43  1  0.92792900  0.87945800  0.92405400  1
  P  P44  1  0.57664100  0.11655800  0.07403200  1
  P  P45  1  0.07664100  0.88344200  0.42596800  1
  P  P46  1  0.42335900  0.88344200  0.92596800  1
  P  P47  1  0.92335900  0.11655800  0.57403200  1
  O  O48  1  0.91735800  0.47174700  0.94891900  1
  O  O49  1  0.20188200  0.26063400  0.54077000  1
  O  O50  1  0.29811800  0.26063400  0.04077000  1
  O  O51  1  0.79811800  0.73936600  0.45923000  1
  O  O52  1  0.70132900  0.26220600  0.54081900  1
  O  O53  1  0.20132900  0.73779400  0.95918100  1
  O  O54  1  0.29867100  0.73779400  0.45918100  1
  O  O55  1  0.79867100  0.26220600  0.04081900  1
  O  O56  1  0.55254500  0.76800800  0.54679000  1
  O  O57  1  0.05254500  0.23199200  0.95321000  1
  O  O58  1  0.44745500  0.23199200  0.45321000  1
  O  O59  1  0.94745500  0.76800800  0.04679000  1
  O  O60  1  0.54693300  0.24147000  0.96341600  1
  O  O61  1  0.04693300  0.75853000  0.53658400  1
  O  O62  1  0.45306700  0.75853000  0.03658400  1
  O  O63  1  0.95306700  0.24147000  0.46341600  1
  O  O64  1  0.66323100  0.98175800  0.43252100  1
  O  O65  1  0.16323100  0.01824200  0.06747900  1
  O  O66  1  0.33676900  0.01824200  0.56747900  1
  O  O67  1  0.83676900  0.98175800  0.93252100  1
  O  O68  1  0.66617700  0.02626500  0.04497400  1
  O  O69  1  0.16617700  0.97373500  0.45502600  1
  O  O70  1  0.33382300  0.97373500  0.95502600  1
  O  O71  1  0.83382300  0.02626500  0.54497400  1
  O  O72  1  0.58700500  0.52066200  0.05986700  1
  O  O73  1  0.08700500  0.47933800  0.44013300  1
  O  O74  1  0.41299500  0.47933800  0.94013300  1
  O  O75  1  0.91299500  0.52066200  0.55986700  1
  O  O76  1  0.58264200  0.47174700  0.44891900  1
  O  O77  1  0.08264200  0.52825300  0.05108100  1
  O  O78  1  0.41735800  0.52825300  0.55108100  1
  O  O79  1  0.70188200  0.73936600  0.95923000  1
  O  O80  1  0.72673200  0.51968200  0.61835500  1
  O  O81  1  0.22673200  0.48031800  0.88164500  1
  O  O82  1  0.27326800  0.48031800  0.38164500  1
  O  O83  1  0.77326800  0.51968200  0.11835500  1
  O  O84  1  0.73101800  0.48379900  0.88178500  1
  O  O85  1  0.23101800  0.51620100  0.61821500  1
  O  O86  1  0.26898200  0.51620100  0.11821500  1
  O  O87  1  0.76898200  0.48379900  0.38178500  1
  O  O88  1  0.52524300  0.02172000  0.61639100  1
  O  O89  1  0.02524300  0.97828000  0.88360900  1
  O  O90  1  0.47475700  0.97828000  0.38360900  1
  O  O91  1  0.97475700  0.02172000  0.11639100  1
  O  O92  1  0.51706600  0.98572100  0.87952600  1
  O  O93  1  0.01706600  0.01427900  0.62047400  1
  O  O94  1  0.48293400  0.01427900  0.12047400  1
  O  O95  1  0.98293400  0.98572100  0.37952600  1
  O  O96  1  0.88962400  0.17896200  0.67283200  1
  O  O97  1  0.38962400  0.82103800  0.82716800  1
  O  O98  1  0.11037600  0.82103800  0.32716800  1
  O  O99  1  0.61037600  0.17896200  0.17283200  1
  O  O100  1  0.90496200  0.79848300  0.83540700  1
  O  O101  1  0.40496200  0.20151700  0.66459300  1
  O  O102  1  0.09503800  0.20151700  0.16459300  1
  O  O103  1  0.59503800  0.79848300  0.33540700  1
  O  O104  1  0.85585900  0.31354000  0.82930100  1
  O  O105  1  0.35585900  0.68646000  0.67069900  1
  O  O106  1  0.65130900  0.69374400  0.16974300  1
  O  O107  1  0.64414100  0.31354000  0.32930100  1
  O  O108  1  0.84869100  0.69374400  0.66974300  1
  O  O109  1  0.34869100  0.30625600  0.83025700  1
  O  O110  1  0.15130900  0.30625600  0.33025700  1
  O  O111  1  0.14414100  0.68646000  0.17069900  1
  F  F112  1  0.95044300  0.41405600  0.24527000  1
  F  F113  1  0.45044300  0.58594400  0.25473000  1
  F  F114  1  0.04955700  0.58594400  0.75473000  1
  F  F115  1  0.54955700  0.41405600  0.74527000  1
  F  F116  1  0.91551300  0.66859100  0.28316900  1
  F  F117  1  0.41551300  0.33140900  0.21683100  1
  F  F118  1  0.08448700  0.33140900  0.71683100  1
  F  F119  1  0.58448700  0.66859100  0.78316900  1
  F  F120  1  0.83824000  0.16927300  0.27862900  1
  F  F121  1  0.33824000  0.83072700  0.22137100  1
  F  F122  1  0.16176000  0.83072700  0.72137100  1
  F  F123  1  0.66176000  0.16927300  0.77862900  1
  F  F124  1  0.79809500  0.91126200  0.24068600  1
  F  F125  1  0.29809500  0.08873800  0.25931400  1
  F  F126  1  0.20190500  0.08873800  0.75931400  1
  F  F127  1  0.70190500  0.91126200  0.74068600  1
