# generated using pymatgen
data_HgC2(SN)2
_symmetry_space_group_name_H-M   'P 1'
_cell_length_a   4.09004115
_cell_length_b   5.89051018
_cell_length_c   6.55884894
_cell_angle_alpha   94.00161976
_cell_angle_beta   89.97503142
_cell_angle_gamma   110.33495433
_symmetry_Int_Tables_number   1
_chemical_formula_structural   HgC2(SN)2
_chemical_formula_sum   'Hg1 C2 S2 N2'
_cell_volume   147.76128484
_cell_formula_units_Z   1
loop_
 _symmetry_equiv_pos_site_id
 _symmetry_equiv_pos_as_xyz
  1  'x, y, z'
loop_
 _atom_site_type_symbol
 _atom_site_label
 _atom_site_symmetry_multiplicity
 _atom_site_fract_x
 _atom_site_fract_y
 _atom_site_fract_z
 _atom_site_occupancy
  Hg  Hg0  1  0.00742400  0.99681500  0.00043400  1
  C  C1  1  0.74309200  0.48098100  0.77453900  1
  C  C2  1  0.25692300  0.51609300  0.22241900  1
  S  S3  1  0.88534700  0.74708000  0.67379900  1
  S  S4  1  0.13368800  0.25106700  0.32265000  1
  N  N5  1  0.64165100  0.28892900  0.84190500  1
  N  N6  1  0.34826500  0.71147600  0.16033000  1
