# generated using pymatgen
data_UI4
_symmetry_space_group_name_H-M   'P 1'
_cell_length_a   9.60904520
_cell_length_b   9.60904520
_cell_length_c   8.17908172
_cell_angle_alpha   87.20068934
_cell_angle_beta   87.20068934
_cell_angle_gamma   117.68682333
_symmetry_Int_Tables_number   1
_chemical_formula_structural   UI4
_chemical_formula_sum   'U2 I8'
_cell_volume   665.74866861
_cell_formula_units_Z   2
loop_
 _symmetry_equiv_pos_site_id
 _symmetry_equiv_pos_as_xyz
  1  'x, y, z'
loop_
 _atom_site_type_symbol
 _atom_site_label
 _atom_site_symmetry_multiplicity
 _atom_site_fract_x
 _atom_site_fract_y
 _atom_site_fract_z
 _atom_site_occupancy
  U  U0  1  0.08036100  0.91963900  0.75000000  1
  U  U1  1  0.91963900  0.08036100  0.25000000  1
  I  I2  1  0.99237400  0.40606600  0.27124700  1
  I  I3  1  0.40606600  0.99237400  0.77124700  1
  I  I4  1  0.16000500  0.21800200  0.94298300  1
  I  I5  1  0.83999500  0.78199800  0.05701700  1
  I  I6  1  0.21800200  0.16000500  0.44298300  1
  I  I7  1  0.00762600  0.59393400  0.72875300  1
  I  I8  1  0.78199800  0.83999500  0.55701700  1
  I  I9  1  0.59393400  0.00762600  0.22875300  1
