# generated using pymatgen
data_MgGa2
_symmetry_space_group_name_H-M   'P 1'
_cell_length_a   5.61054947
_cell_length_b   5.61054947
_cell_length_c   7.22768949
_cell_angle_alpha   71.33572071
_cell_angle_beta   71.33572071
_cell_angle_gamma   32.91788838
_symmetry_Int_Tables_number   1
_chemical_formula_structural   MgGa2
_chemical_formula_sum   'Mg2 Ga4'
_cell_volume   116.55307178
_cell_formula_units_Z   2
loop_
 _symmetry_equiv_pos_site_id
 _symmetry_equiv_pos_as_xyz
  1  'x, y, z'
loop_
 _atom_site_type_symbol
 _atom_site_label
 _atom_site_symmetry_multiplicity
 _atom_site_fract_x
 _atom_site_fract_y
 _atom_site_fract_z
 _atom_site_occupancy
  Mg  Mg0  1  0.81119500  0.81119500  0.64747700  1
  Mg  Mg1  1  0.18880500  0.18880500  0.35252300  1
  Ga  Ga2  1  0.13410000  0.13410000  0.97404600  1
  Ga  Ga3  1  0.52680000  0.52680000  0.70386800  1
  Ga  Ga4  1  0.47320000  0.47320000  0.29613200  1
  Ga  Ga5  1  0.86590000  0.86590000  0.02595400  1
