# generated using pymatgen
data_K2SbF5
_symmetry_space_group_name_H-M   'P 1'
_cell_length_a   6.60302700
_cell_length_b   15.49794900
_cell_length_c   17.44413683
_cell_angle_alpha   89.18752473
_cell_angle_beta   90.00000000
_cell_angle_gamma   90.00000000
_symmetry_Int_Tables_number   1
_chemical_formula_structural   K2SbF5
_chemical_formula_sum   'K24 Sb12 F60'
_cell_volume   1784.93793250
_cell_formula_units_Z   12
loop_
 _symmetry_equiv_pos_site_id
 _symmetry_equiv_pos_as_xyz
  1  'x, y, z'
loop_
 _atom_site_type_symbol
 _atom_site_label
 _atom_site_symmetry_multiplicity
 _atom_site_fract_x
 _atom_site_fract_y
 _atom_site_fract_z
 _atom_site_occupancy
  K  K0  1  0.25374800  0.63169900  0.75207500  1
  K  K1  1  0.73783000  0.70919100  0.91567200  1
  K  K2  1  0.23933400  0.40122600  0.64910400  1
  K  K3  1  0.73425000  0.54300000  0.57770100  1
  K  K4  1  0.75954100  0.77145300  0.68485900  1
  K  K5  1  0.24625200  0.13169900  0.75207500  1
  K  K6  1  0.74625200  0.36830100  0.24792500  1
  K  K7  1  0.74045900  0.27145300  0.68485900  1
  K  K8  1  0.74756600  0.43835300  0.01833900  1
  K  K9  1  0.24045900  0.22854700  0.31514100  1
  K  K10  1  0.76066600  0.59877400  0.35089600  1
  K  K11  1  0.76217000  0.20919100  0.91567200  1
  K  K12  1  0.26575000  0.45700000  0.42229900  1
  K  K13  1  0.23425000  0.95700000  0.42229900  1
  K  K14  1  0.26217000  0.29080900  0.08432800  1
  K  K15  1  0.75374800  0.86830100  0.24792500  1
  K  K16  1  0.26066600  0.90122600  0.64910400  1
  K  K17  1  0.76575000  0.04300000  0.57770100  1
  K  K18  1  0.25954100  0.72854700  0.31514100  1
  K  K19  1  0.23783000  0.79080900  0.08432800  1
  K  K20  1  0.73933400  0.09877400  0.35089600  1
  K  K21  1  0.75243400  0.93835300  0.01833900  1
  K  K22  1  0.25243400  0.56164700  0.98166100  1
  K  K23  1  0.24756600  0.06164700  0.98166100  1
  Sb  Sb24  1  0.75821700  0.32725600  0.47178200  1
  Sb  Sb25  1  0.74002900  0.65878300  0.13632500  1
  Sb  Sb26  1  0.24178300  0.67274400  0.52821800  1
  Sb  Sb27  1  0.25997100  0.34121700  0.86367500  1
  Sb  Sb28  1  0.74178300  0.82725600  0.47178200  1
  Sb  Sb29  1  0.74120700  0.99864600  0.80222400  1
  Sb  Sb30  1  0.75879300  0.49864600  0.80222400  1
  Sb  Sb31  1  0.75997100  0.15878300  0.13632500  1
  Sb  Sb32  1  0.25879300  0.00135400  0.19777600  1
  Sb  Sb33  1  0.25821700  0.17274400  0.52821800  1
  Sb  Sb34  1  0.24120700  0.50135400  0.19777600  1
  Sb  Sb35  1  0.24002900  0.84121700  0.86367500  1
  F  F36  1  0.77348500  0.12260700  0.77265500  1
  F  F37  1  0.52645700  0.72138100  0.20615600  1
  F  F38  1  0.97724100  0.98993300  0.71926200  1
  F  F39  1  0.02645700  0.77861900  0.79384400  1
  F  F40  1  0.52275900  0.48993300  0.71926200  1
  F  F41  1  0.72651500  0.62260700  0.77265500  1
  F  F42  1  0.45787900  0.86012100  0.95153600  1
  F  F43  1  0.51967700  0.66531200  0.04943300  1
  F  F44  1  0.00726200  0.44820400  0.13114200  1
  F  F45  1  0.51835400  0.89198400  0.53553000  1
  F  F46  1  0.47724100  0.51006700  0.28073800  1
  F  F47  1  0.46671100  0.17283000  0.61883600  1
  F  F48  1  0.95428900  0.70027200  0.22032500  1
  F  F49  1  0.43749200  0.45793900  0.10845800  1
  F  F50  1  0.94922700  0.87231600  0.55750800  1
  F  F51  1  0.01967700  0.83468800  0.95056700  1
  F  F52  1  0.21287200  0.22027700  0.89867900  1
  F  F53  1  0.71287200  0.27972300  0.10132100  1
  F  F54  1  0.97354300  0.22138100  0.20615600  1
  F  F55  1  0.48164600  0.10801600  0.46447000  1
  F  F56  1  0.52952400  0.30719600  0.38789800  1
  F  F57  1  0.53842100  0.00117000  0.70924400  1
  F  F58  1  0.02275900  0.01006700  0.28073800  1
  F  F59  1  0.48032300  0.33468800  0.95056700  1
  F  F60  1  0.27348500  0.37739300  0.22734500  1
  F  F61  1  0.96671100  0.32717000  0.38116400  1
  F  F62  1  0.06250800  0.95793900  0.10845800  1
  F  F63  1  0.44922700  0.62768400  0.44249200  1
  F  F64  1  0.79038200  0.94719100  0.43485200  1
  F  F65  1  0.97047600  0.80719600  0.38789800  1
  F  F66  1  0.47047600  0.69280400  0.61210200  1
  F  F67  1  0.54212100  0.13987900  0.04846400  1
  F  F68  1  0.98164600  0.39198400  0.53553000  1
  F  F69  1  0.70961800  0.44719100  0.43485200  1
  F  F70  1  0.53328900  0.82717000  0.38116400  1
  F  F71  1  0.50726200  0.05179600  0.86885800  1
  F  F72  1  0.03328900  0.67283000  0.61883600  1
  F  F73  1  0.93749200  0.04206100  0.89154200  1
  F  F74  1  0.95787900  0.63987900  0.04846400  1
  F  F75  1  0.99273800  0.55179600  0.86885800  1
  F  F76  1  0.45428900  0.79972800  0.77967500  1
  F  F77  1  0.01835400  0.60801600  0.46447000  1
  F  F78  1  0.22651500  0.87739300  0.22734500  1
  F  F79  1  0.20961800  0.05280900  0.56514800  1
  F  F80  1  0.96157900  0.50117000  0.70924400  1
  F  F81  1  0.54571100  0.20027200  0.22032500  1
  F  F82  1  0.49273800  0.94820400  0.13114200  1
  F  F83  1  0.56250800  0.54206100  0.89154200  1
  F  F84  1  0.28712800  0.72027700  0.89867900  1
  F  F85  1  0.02952400  0.19280400  0.61210200  1
  F  F86  1  0.04571100  0.29972800  0.77967500  1
  F  F87  1  0.98032300  0.16531200  0.04943300  1
  F  F88  1  0.47354300  0.27861900  0.79384400  1
  F  F89  1  0.04212100  0.36012100  0.95153600  1
  F  F90  1  0.46157900  0.99883000  0.29075600  1
  F  F91  1  0.29038200  0.55280900  0.56514800  1
  F  F92  1  0.05077300  0.12768400  0.44249200  1
  F  F93  1  0.78712800  0.77972300  0.10132100  1
  F  F94  1  0.55077300  0.37231600  0.55750800  1
  F  F95  1  0.03842100  0.49883000  0.29075600  1
