# generated using pymatgen
data_Na2La2Ti3O10
_symmetry_space_group_name_H-M   'P 1'
_cell_length_a   14.69641334
_cell_length_b   14.69641334
_cell_length_c   14.69641334
_cell_angle_alpha   164.86303529
_cell_angle_beta   164.86303529
_cell_angle_gamma   21.47009583
_symmetry_Int_Tables_number   1
_chemical_formula_structural   Na2La2Ti3O10
_chemical_formula_sum   'Na2 La2 Ti3 O10'
_cell_volume   216.40687743
_cell_formula_units_Z   1
loop_
 _symmetry_equiv_pos_site_id
 _symmetry_equiv_pos_as_xyz
  1  'x, y, z'
loop_
 _atom_site_type_symbol
 _atom_site_label
 _atom_site_symmetry_multiplicity
 _atom_site_fract_x
 _atom_site_fract_y
 _atom_site_fract_z
 _atom_site_occupancy
  Na  Na0  1  0.71177800  0.71177800  0.00000000  1
  Na  Na1  1  0.28822200  0.28822200  0.00000000  1
  La  La2  1  0.57527700  0.57527700  0.00000000  1
  La  La3  1  0.42472300  0.42472300  0.00000000  1
  Ti  Ti4  1  0.85219600  0.85219600  0.00000000  1
  Ti  Ti5  1  0.14780400  0.14780400  0.00000000  1
  Ti  Ti6  1  0.00000000  0.00000000  0.00000000  1
  O  O7  1  0.36674700  0.86674700  0.50000000  1
  O  O8  1  0.86674700  0.36674700  0.50000000  1
  O  O9  1  0.63325300  0.13325300  0.50000000  1
  O  O10  1  0.13325300  0.63325300  0.50000000  1
  O  O11  1  0.79138100  0.79138100  0.00000000  1
  O  O12  1  0.20861900  0.20861900  0.00000000  1
  O  O13  1  0.50000000  0.00000000  0.50000000  1
  O  O14  1  0.06734300  0.06734300  0.00000000  1
  O  O15  1  0.93265700  0.93265700  0.00000000  1
  O  O16  1  0.00000000  0.50000000  0.50000000  1
