# generated using pymatgen
data_FeC3SeO3
_symmetry_space_group_name_H-M   'P 1'
_cell_length_a   6.65361700
_cell_length_b   7.76099291
_cell_length_c   11.90140408
_cell_angle_alpha   84.13161286
_cell_angle_beta   75.02128095
_cell_angle_gamma   77.45161000
_symmetry_Int_Tables_number   1
_chemical_formula_structural   FeC3SeO3
_chemical_formula_sum   'Fe4 C12 Se4 O12'
_cell_volume   578.81647691
_cell_formula_units_Z   4
loop_
 _symmetry_equiv_pos_site_id
 _symmetry_equiv_pos_as_xyz
  1  'x, y, z'
loop_
 _atom_site_type_symbol
 _atom_site_label
 _atom_site_symmetry_multiplicity
 _atom_site_fract_x
 _atom_site_fract_y
 _atom_site_fract_z
 _atom_site_occupancy
  Fe  Fe0  1  0.36602200  0.49339400  0.27249800  1
  Fe  Fe1  1  0.63397800  0.50660600  0.72750200  1
  Fe  Fe2  1  0.79237800  0.17494100  0.76931900  1
  Fe  Fe3  1  0.20762200  0.82505900  0.23068100  1
  C  C4  1  0.40210800  0.28968800  0.35643900  1
  C  C5  1  0.15437000  0.79843600  0.09326200  1
  C  C6  1  0.84563000  0.20156400  0.90673800  1
  C  C7  1  0.54896900  0.09987200  0.83077400  1
  C  C8  1  0.36470500  0.48656200  0.79064000  1
  C  C9  1  0.03713500  0.03439200  0.26522300  1
  C  C10  1  0.96286500  0.96560800  0.73477700  1
  C  C11  1  0.66418700  0.59423600  0.85414100  1
  C  C12  1  0.33581300  0.40576400  0.14585900  1
  C  C13  1  0.59789200  0.71031200  0.64356100  1
  C  C14  1  0.63529500  0.51343800  0.20936000  1
  C  C15  1  0.45103100  0.90012800  0.16922600  1
  Se  Se16  1  0.00567200  0.62784100  0.35297100  1
  Se  Se17  1  0.99432800  0.37215900  0.64702900  1
  Se  Se18  1  0.27287400  0.71275600  0.41659400  1
  Se  Se19  1  0.72712600  0.28724400  0.58340600  1
  O  O20  1  0.19067900  0.47171400  0.83169500  1
  O  O21  1  0.39301200  0.04797300  0.86825200  1
  O  O22  1  0.92903800  0.17129800  0.28739600  1
  O  O23  1  0.42871500  0.15446800  0.40767500  1
  O  O24  1  0.60698800  0.95202700  0.13174800  1
  O  O25  1  0.07096200  0.82870200  0.71260400  1
  O  O26  1  0.68050700  0.65563200  0.93521200  1
  O  O27  1  0.80932100  0.52828600  0.16830500  1
  O  O28  1  0.87806000  0.21848200  0.99539800  1
  O  O29  1  0.12194000  0.78151800  0.00460200  1
  O  O30  1  0.57128500  0.84553200  0.59232500  1
  O  O31  1  0.31949300  0.34436800  0.06478800  1
