# generated using pymatgen
data_SiO2
_symmetry_space_group_name_H-M   'P 1'
_cell_length_a   13.24385858
_cell_length_b   13.24385858
_cell_length_c   12.25701589
_cell_angle_alpha   71.45306143
_cell_angle_beta   71.45306143
_cell_angle_gamma   22.99731817
_symmetry_Int_Tables_number   1
_chemical_formula_structural   SiO2
_chemical_formula_sum   'Si14 O28'
_cell_volume   794.45156330
_cell_formula_units_Z   14
loop_
 _symmetry_equiv_pos_site_id
 _symmetry_equiv_pos_as_xyz
  1  'x, y, z'
loop_
 _atom_site_type_symbol
 _atom_site_label
 _atom_site_symmetry_multiplicity
 _atom_site_fract_x
 _atom_site_fract_y
 _atom_site_fract_z
 _atom_site_occupancy
  Si  Si0  1  0.36890100  0.36890100  0.28637100  1
  Si  Si1  1  0.71758400  0.71758400  0.48154600  1
  Si  Si2  1  0.28241600  0.28241600  0.51845400  1
  Si  Si3  1  0.71765900  0.71765900  0.21855700  1
  Si  Si4  1  0.93731500  0.93731500  0.90841800  1
  Si  Si5  1  0.63109900  0.63109900  0.71362900  1
  Si  Si6  1  0.37602700  0.37602700  0.88365100  1
  Si  Si7  1  0.62397300  0.62397300  0.11634900  1
  Si  Si8  1  0.06818000  0.06818000  0.83029100  1
  Si  Si9  1  0.06268500  0.06268500  0.09158200  1
  Si  Si10  1  0.28773600  0.28773600  0.14017300  1
  Si  Si11  1  0.71226400  0.71226400  0.85982700  1
  Si  Si12  1  0.28234100  0.28234100  0.78144300  1
  Si  Si13  1  0.93182000  0.93182000  0.16970900  1
  O  O14  1  0.91783900  0.91783900  0.04922900  1
  O  O15  1  0.66665800  0.66665800  0.98618200  1
  O  O16  1  0.08216100  0.08216100  0.95077100  1
  O  O17  1  0.99967700  0.50041400  0.15387100  1
  O  O18  1  0.34412700  0.34412700  0.42648800  1
  O  O19  1  0.99691100  0.99691100  0.14377200  1
  O  O20  1  0.15609700  0.65607100  0.24367300  1
  O  O21  1  0.65667100  0.65667100  0.20905500  1
  O  O22  1  0.31750300  0.31750300  0.23794000  1
  O  O23  1  0.00308900  0.00308900  0.85622800  1
  O  O24  1  0.33334200  0.33334200  0.01381800  1
  O  O25  1  0.34392900  0.84390300  0.75632700  1
  O  O26  1  0.16491900  0.66412700  0.86293100  1
  O  O27  1  0.65607100  0.15609700  0.24367300  1
  O  O28  1  0.84390300  0.34392900  0.75632700  1
  O  O29  1  0.66412700  0.16491900  0.86293100  1
  O  O30  1  0.33587300  0.83508100  0.13706900  1
  O  O31  1  0.00000000  0.50000000  0.50000000  1
  O  O32  1  0.28729100  0.28729100  0.64660900  1
  O  O33  1  0.00032300  0.49958600  0.84612900  1
  O  O34  1  0.49958600  0.00032300  0.84612900  1
  O  O35  1  0.71270900  0.71270900  0.35339100  1
  O  O36  1  0.34332900  0.34332900  0.79094500  1
  O  O37  1  0.50000000  0.00000000  0.50000000  1
  O  O38  1  0.50041400  0.99967700  0.15387100  1
  O  O39  1  0.83508100  0.33587300  0.13706900  1
  O  O40  1  0.68249700  0.68249700  0.76206000  1
  O  O41  1  0.65587300  0.65587300  0.57351200  1
