# generated using pymatgen
data_TeMoCl7O
_symmetry_space_group_name_H-M   'P 1'
_cell_length_a   13.07034300
_cell_length_b   7.57448300
_cell_length_c   12.09657746
_cell_angle_alpha   85.48272229
_cell_angle_beta   90.00000000
_cell_angle_gamma   90.00000000
_symmetry_Int_Tables_number   1
_chemical_formula_structural   TeMoCl7O
_chemical_formula_sum   'Te4 Mo4 Cl28 O4'
_cell_volume   1193.85425365
_cell_formula_units_Z   4
loop_
 _symmetry_equiv_pos_site_id
 _symmetry_equiv_pos_as_xyz
  1  'x, y, z'
loop_
 _atom_site_type_symbol
 _atom_site_label
 _atom_site_symmetry_multiplicity
 _atom_site_fract_x
 _atom_site_fract_y
 _atom_site_fract_z
 _atom_site_occupancy
  Te  Te0  1  0.84801300  0.27472100  0.37363900  1
  Te  Te1  1  0.65198700  0.27472100  0.87363900  1
  Te  Te2  1  0.15198700  0.72527900  0.62636100  1
  Te  Te3  1  0.34801300  0.72527900  0.12636100  1
  Mo  Mo4  1  0.59149700  0.95181000  0.35950000  1
  Mo  Mo5  1  0.90850300  0.95181000  0.85950000  1
  Mo  Mo6  1  0.40850300  0.04819000  0.64050000  1
  Mo  Mo7  1  0.09149700  0.04819000  0.14050000  1
  Cl  Cl8  1  0.27009500  0.02366500  0.51006100  1
  Cl  Cl9  1  0.73367600  0.47185400  0.98609000  1
  Cl  Cl10  1  0.00082600  0.74652100  0.51902600  1
  Cl  Cl11  1  0.06814100  0.00873900  0.76173900  1
  Cl  Cl12  1  0.34751000  0.77646100  0.73742100  1
  Cl  Cl13  1  0.76632400  0.47185400  0.48609000  1
  Cl  Cl14  1  0.22990500  0.02366500  0.01006100  1
  Cl  Cl15  1  0.50059200  0.77691400  0.50152300  1
  Cl  Cl16  1  0.72990500  0.97633500  0.48993900  1
  Cl  Cl17  1  0.40413800  0.50046300  0.25844500  1
  Cl  Cl18  1  0.50082600  0.25347900  0.98097400  1
  Cl  Cl19  1  0.65249000  0.22353900  0.26257900  1
  Cl  Cl20  1  0.99917400  0.25347900  0.48097400  1
  Cl  Cl21  1  0.59586200  0.49953700  0.74155500  1
  Cl  Cl22  1  0.93185900  0.99126100  0.23826100  1
  Cl  Cl23  1  0.77009500  0.97633500  0.98993900  1
  Cl  Cl24  1  0.84751000  0.22353900  0.76257900  1
  Cl  Cl25  1  0.00059200  0.22308600  0.99847700  1
  Cl  Cl26  1  0.15249000  0.77646100  0.23742100  1
  Cl  Cl27  1  0.43185900  0.00873900  0.26173900  1
  Cl  Cl28  1  0.23367600  0.52814600  0.51391000  1
  Cl  Cl29  1  0.09586200  0.50046300  0.75844500  1
  Cl  Cl30  1  0.49917400  0.74652100  0.01902600  1
  Cl  Cl31  1  0.99940800  0.77691400  0.00152300  1
  Cl  Cl32  1  0.26632400  0.52814600  0.01391000  1
  Cl  Cl33  1  0.56814100  0.99126100  0.73826100  1
  Cl  Cl34  1  0.90413800  0.49953700  0.24155500  1
  Cl  Cl35  1  0.49940800  0.22308600  0.49847700  1
  O  O36  1  0.14000800  0.20524900  0.21772000  1
  O  O37  1  0.35999200  0.20524900  0.71772000  1
  O  O38  1  0.85999200  0.79475100  0.78228000  1
  O  O39  1  0.64000800  0.79475100  0.28228000  1
