# generated using pymatgen
data_C
_symmetry_space_group_name_H-M   'P 1'
_cell_length_a   2.52325171
_cell_length_b   2.52325171
_cell_length_c   16.55991200
_cell_angle_alpha   90.00000000
_cell_angle_beta   90.00000000
_cell_angle_gamma   119.99999246
_symmetry_Int_Tables_number   1
_chemical_formula_structural   C
_chemical_formula_sum   C16
_cell_volume   91.30821286
_cell_formula_units_Z   16
loop_
 _symmetry_equiv_pos_site_id
 _symmetry_equiv_pos_as_xyz
  1  'x, y, z'
loop_
 _atom_site_type_symbol
 _atom_site_label
 _atom_site_symmetry_multiplicity
 _atom_site_fract_x
 _atom_site_fract_y
 _atom_site_fract_z
 _atom_site_occupancy
  C  C0  1  0.00000000  0.00000000  0.95318700  1
  C  C1  1  0.66666700  0.33333300  0.29732100  1
  C  C2  1  0.33333300  0.66666700  0.79732100  1
  C  C3  1  0.66666700  0.33333300  0.20267900  1
  C  C4  1  0.33333300  0.66666700  0.07793100  1
  C  C5  1  0.33333300  0.66666700  0.32868500  1
  C  C6  1  0.33333300  0.66666700  0.42206900  1
  C  C7  1  0.66666700  0.33333300  0.67131500  1
  C  C8  1  0.33333300  0.66666700  0.70267900  1
  C  C9  1  0.00000000  0.00000000  0.45318700  1
  C  C10  1  0.00000000  0.00000000  0.04681300  1
  C  C11  1  0.33333300  0.66666700  0.17131500  1
  C  C12  1  0.66666700  0.33333300  0.82868500  1
  C  C13  1  0.00000000  0.00000000  0.54681300  1
  C  C14  1  0.66666700  0.33333300  0.57793100  1
  C  C15  1  0.66666700  0.33333300  0.92206900  1
