# generated using pymatgen
data_U2PbSe5
_symmetry_space_group_name_H-M   'P 1'
_cell_length_a   7.85108200
_cell_length_b   8.62426600
_cell_length_c   12.29625838
_cell_angle_alpha   89.87689765
_cell_angle_beta   90.00000000
_cell_angle_gamma   90.00000000
_symmetry_Int_Tables_number   1
_chemical_formula_structural   U2PbSe5
_chemical_formula_sum   'U8 Pb4 Se20'
_cell_volume   832.57551452
_cell_formula_units_Z   4
loop_
 _symmetry_equiv_pos_site_id
 _symmetry_equiv_pos_as_xyz
  1  'x, y, z'
loop_
 _atom_site_type_symbol
 _atom_site_label
 _atom_site_symmetry_multiplicity
 _atom_site_fract_x
 _atom_site_fract_y
 _atom_site_fract_z
 _atom_site_occupancy
  U  U0  1  0.01972900  0.50148400  0.81835400  1
  U  U1  1  0.48027100  0.50148400  0.31835400  1
  U  U2  1  0.42053900  0.74513300  0.00859400  1
  U  U3  1  0.92053900  0.25486700  0.49140600  1
  U  U4  1  0.07946100  0.74513300  0.50859400  1
  U  U5  1  0.98027100  0.49851600  0.18164600  1
  U  U6  1  0.51972900  0.49851600  0.68164600  1
  U  U7  1  0.57946100  0.25486700  0.99140600  1
  Pb  Pb8  1  0.01841300  0.98985200  0.82002600  1
  Pb  Pb9  1  0.98158700  0.01014800  0.17997400  1
  Pb  Pb10  1  0.48158700  0.98985200  0.32002600  1
  Pb  Pb11  1  0.51841300  0.01014800  0.67997400  1
  Se  Se12  1  0.66443900  0.54991500  0.90260700  1
  Se  Se13  1  0.83556100  0.54991500  0.40260700  1
  Se  Se14  1  0.33645200  0.04215300  0.08607100  1
  Se  Se15  1  0.66696700  0.72334600  0.18273300  1
  Se  Se16  1  0.83645200  0.95784700  0.41392900  1
  Se  Se17  1  0.45706800  0.71990600  0.50167900  1
  Se  Se18  1  0.16443900  0.45008500  0.59739300  1
  Se  Se19  1  0.19600500  0.73228400  0.28177100  1
  Se  Se20  1  0.66354800  0.95784700  0.91392900  1
  Se  Se21  1  0.95706800  0.28009400  0.99832100  1
  Se  Se22  1  0.16696700  0.27665400  0.31726700  1
  Se  Se23  1  0.69600500  0.26771600  0.21822900  1
  Se  Se24  1  0.83303300  0.72334600  0.68273300  1
  Se  Se25  1  0.16354800  0.04215300  0.58607100  1
  Se  Se26  1  0.54293200  0.28009400  0.49832100  1
  Se  Se27  1  0.04293200  0.71990600  0.00167900  1
  Se  Se28  1  0.33556100  0.45008500  0.09739300  1
  Se  Se29  1  0.33303300  0.27665400  0.81726700  1
  Se  Se30  1  0.80399500  0.26771600  0.71822900  1
  Se  Se31  1  0.30399500  0.73228400  0.78177100  1
