# generated using pymatgen
data_MgGa3
_symmetry_space_group_name_H-M   'P 1'
_cell_length_a   5.90189748
_cell_length_b   5.90189748
_cell_length_c   5.04631500
_cell_angle_alpha   90.00000000
_cell_angle_beta   90.00000000
_cell_angle_gamma   119.99999419
_symmetry_Int_Tables_number   1
_chemical_formula_structural   MgGa3
_chemical_formula_sum   'Mg2 Ga6'
_cell_volume   152.22582496
_cell_formula_units_Z   2
loop_
 _symmetry_equiv_pos_site_id
 _symmetry_equiv_pos_as_xyz
  1  'x, y, z'
loop_
 _atom_site_type_symbol
 _atom_site_label
 _atom_site_symmetry_multiplicity
 _atom_site_fract_x
 _atom_site_fract_y
 _atom_site_fract_z
 _atom_site_occupancy
  Mg  Mg0  1  0.66666700  0.33333300  0.75000000  1
  Mg  Mg1  1  0.33333300  0.66666700  0.25000000  1
  Ga  Ga2  1  0.16324500  0.83675500  0.75000000  1
  Ga  Ga3  1  0.67351100  0.83675500  0.75000000  1
  Ga  Ga4  1  0.16324500  0.32648900  0.75000000  1
  Ga  Ga5  1  0.83675500  0.16324500  0.25000000  1
  Ga  Ga6  1  0.83675500  0.67351100  0.25000000  1
  Ga  Ga7  1  0.32648900  0.16324500  0.25000000  1
