# generated using pymatgen
data_Na2EuCl5
_symmetry_space_group_name_H-M   'P 1'
_cell_length_a   7.91409200
_cell_length_b   8.56540600
_cell_length_c   12.38765000
_cell_angle_alpha   90.00000000
_cell_angle_beta   90.00000000
_cell_angle_gamma   90.00000000
_symmetry_Int_Tables_number   1
_chemical_formula_structural   Na2EuCl5
_chemical_formula_sum   'Na8 Eu4 Cl20'
_cell_volume   839.72672313
_cell_formula_units_Z   4
loop_
 _symmetry_equiv_pos_site_id
 _symmetry_equiv_pos_as_xyz
  1  'x, y, z'
loop_
 _atom_site_type_symbol
 _atom_site_label
 _atom_site_symmetry_multiplicity
 _atom_site_fract_x
 _atom_site_fract_y
 _atom_site_fract_z
 _atom_site_occupancy
  Na  Na0  1  0.03394700  0.00152200  0.82746900  1
  Na  Na1  1  0.46605300  0.49847800  0.32746900  1
  Na  Na2  1  0.46605300  0.00152200  0.32746900  1
  Na  Na3  1  0.53394700  0.50152200  0.67253100  1
  Na  Na4  1  0.03394700  0.49847800  0.82746900  1
  Na  Na5  1  0.53394700  0.99847800  0.67253100  1
  Na  Na6  1  0.96605300  0.99847800  0.17253100  1
  Na  Na7  1  0.96605300  0.50152200  0.17253100  1
  Eu  Eu8  1  0.42061400  0.75000000  0.00654800  1
  Eu  Eu9  1  0.07938600  0.75000000  0.50654800  1
  Eu  Eu10  1  0.57938600  0.25000000  0.99345200  1
  Eu  Eu11  1  0.92061400  0.25000000  0.49345200  1
  Cl  Cl12  1  0.05521200  0.75000000  0.00610800  1
  Cl  Cl13  1  0.14115600  0.25000000  0.31649200  1
  Cl  Cl14  1  0.35884400  0.25000000  0.81649200  1
  Cl  Cl15  1  0.82013300  0.25000000  0.71351400  1
  Cl  Cl16  1  0.16623000  0.45433600  0.58863400  1
  Cl  Cl17  1  0.66623000  0.95433600  0.91136600  1
  Cl  Cl18  1  0.44478800  0.75000000  0.50610800  1
  Cl  Cl19  1  0.85884400  0.75000000  0.68350800  1
  Cl  Cl20  1  0.32013300  0.75000000  0.78648600  1
  Cl  Cl21  1  0.66623000  0.54566400  0.91136600  1
  Cl  Cl22  1  0.33377000  0.45433600  0.08863400  1
  Cl  Cl23  1  0.67986700  0.25000000  0.21351400  1
  Cl  Cl24  1  0.17986700  0.75000000  0.28648600  1
  Cl  Cl25  1  0.33377000  0.04566400  0.08863400  1
  Cl  Cl26  1  0.94478800  0.25000000  0.99389200  1
  Cl  Cl27  1  0.16623000  0.04566400  0.58863400  1
  Cl  Cl28  1  0.64115600  0.75000000  0.18350800  1
  Cl  Cl29  1  0.83377000  0.54566400  0.41136600  1
  Cl  Cl30  1  0.83377000  0.95433600  0.41136600  1
  Cl  Cl31  1  0.55521200  0.25000000  0.49389200  1
