# generated using pymatgen
data_Gd2Br3
_symmetry_space_group_name_H-M   'P 1'
_cell_length_a   8.53166585
_cell_length_b   8.53166585
_cell_length_c   10.87223092
_cell_angle_alpha   61.87060726
_cell_angle_beta   61.87060726
_cell_angle_gamma   27.22480625
_symmetry_Int_Tables_number   1
_chemical_formula_structural   Gd2Br3
_chemical_formula_sum   'Gd4 Br6'
_cell_volume   316.59436014
_cell_formula_units_Z   2
loop_
 _symmetry_equiv_pos_site_id
 _symmetry_equiv_pos_as_xyz
  1  'x, y, z'
loop_
 _atom_site_type_symbol
 _atom_site_label
 _atom_site_symmetry_multiplicity
 _atom_site_fract_x
 _atom_site_fract_y
 _atom_site_fract_z
 _atom_site_occupancy
  Gd  Gd0  1  0.13403200  0.13403200  0.71303400  1
  Gd  Gd1  1  0.41724400  0.41724400  0.95194200  1
  Gd  Gd2  1  0.58275600  0.58275600  0.04805800  1
  Gd  Gd3  1  0.86596800  0.86596800  0.28696600  1
  Br  Br4  1  0.95228600  0.95228600  0.73058200  1
  Br  Br5  1  0.04771400  0.04771400  0.26941800  1
  Br  Br6  1  0.77086700  0.77086700  0.11897200  1
  Br  Br7  1  0.22913300  0.22913300  0.88102800  1
  Br  Br8  1  0.34046200  0.34046200  0.51209200  1
  Br  Br9  1  0.65953800  0.65953800  0.48790800  1
