# generated using pymatgen
data_Yb2S3
_symmetry_space_group_name_H-M   'P 1'
_cell_length_a   11.11673336
_cell_length_b   11.11673336
_cell_length_c   11.11673336
_cell_angle_alpha   109.47122063
_cell_angle_beta   109.47122063
_cell_angle_gamma   109.47122063
_symmetry_Int_Tables_number   1
_chemical_formula_structural   Yb2S3
_chemical_formula_sum   'Yb16 S24'
_cell_volume   1057.57134919
_cell_formula_units_Z   8
loop_
 _symmetry_equiv_pos_site_id
 _symmetry_equiv_pos_as_xyz
  1  'x, y, z'
loop_
 _atom_site_type_symbol
 _atom_site_label
 _atom_site_symmetry_multiplicity
 _atom_site_fract_x
 _atom_site_fract_y
 _atom_site_fract_z
 _atom_site_occupancy
  Yb  Yb0  1  0.50000000  0.00000000  0.50000000  1
  Yb  Yb1  1  0.50000000  0.50000000  0.00000000  1
  Yb  Yb2  1  0.00000000  0.50000000  0.50000000  1
  Yb  Yb3  1  0.00000000  0.00000000  0.00000000  1
  Yb  Yb4  1  0.25000000  0.54798800  0.29798800  1
  Yb  Yb5  1  0.75000000  0.95201200  0.20201200  1
  Yb  Yb6  1  0.54798800  0.29798800  0.25000000  1
  Yb  Yb7  1  0.95201200  0.20201200  0.75000000  1
  Yb  Yb8  1  0.29798800  0.25000000  0.54798800  1
  Yb  Yb9  1  0.20201200  0.75000000  0.95201200  1
  Yb  Yb10  1  0.75000000  0.45201200  0.70201200  1
  Yb  Yb11  1  0.25000000  0.04798800  0.79798800  1
  Yb  Yb12  1  0.45201200  0.70201200  0.75000000  1
  Yb  Yb13  1  0.04798800  0.79798800  0.25000000  1
  Yb  Yb14  1  0.70201200  0.75000000  0.45201200  1
  Yb  Yb15  1  0.79798800  0.25000000  0.04798800  1
  S  S16  1  0.28004500  0.76302100  0.21836300  1
  S  S17  1  0.45534200  0.73697900  0.01702400  1
  S  S18  1  0.21995500  0.43831700  0.48297600  1
  S  S19  1  0.04465800  0.06168300  0.28163700  1
  S  S20  1  0.76302100  0.21836300  0.28004500  1
  S  S21  1  0.73697900  0.01702400  0.45534200  1
  S  S22  1  0.43831700  0.48297600  0.21995500  1
  S  S23  1  0.06168300  0.28163700  0.04465800  1
  S  S24  1  0.21836300  0.28004500  0.76302100  1
  S  S25  1  0.01702400  0.45534200  0.73697900  1
  S  S26  1  0.48297600  0.21995500  0.43831700  1
  S  S27  1  0.28163700  0.04465800  0.06168300  1
  S  S28  1  0.71995500  0.23697900  0.78163700  1
  S  S29  1  0.54465800  0.26302100  0.98297600  1
  S  S30  1  0.78004500  0.56168300  0.51702400  1
  S  S31  1  0.95534200  0.93831700  0.71836300  1
  S  S32  1  0.23697900  0.78163700  0.71995500  1
  S  S33  1  0.26302100  0.98297600  0.54465800  1
  S  S34  1  0.56168300  0.51702400  0.78004500  1
  S  S35  1  0.93831700  0.71836300  0.95534200  1
  S  S36  1  0.78163700  0.71995500  0.23697900  1
  S  S37  1  0.98297600  0.54465800  0.26302100  1
  S  S38  1  0.51702400  0.78004500  0.56168300  1
  S  S39  1  0.71836300  0.95534200  0.93831700  1
