# generated using pymatgen
data_MgGa
_symmetry_space_group_name_H-M   'P 1'
_cell_length_a   7.78353132
_cell_length_b   7.78353132
_cell_length_c   4.99505200
_cell_angle_alpha   90.00000000
_cell_angle_beta   90.00000000
_cell_angle_gamma   156.40496961
_symmetry_Int_Tables_number   1
_chemical_formula_structural   MgGa
_chemical_formula_sum   'Mg3 Ga3'
_cell_volume   121.12838327
_cell_formula_units_Z   3
loop_
 _symmetry_equiv_pos_site_id
 _symmetry_equiv_pos_as_xyz
  1  'x, y, z'
loop_
 _atom_site_type_symbol
 _atom_site_label
 _atom_site_symmetry_multiplicity
 _atom_site_fract_x
 _atom_site_fract_y
 _atom_site_fract_z
 _atom_site_occupancy
  Mg  Mg0  1  0.99745000  0.00255000  0.00000000  1
  Mg  Mg1  1  0.67267600  0.32732400  0.00000000  1
  Mg  Mg2  1  0.44055700  0.55944300  0.50000000  1
  Ga  Ga3  1  0.33195100  0.66804900  0.00000000  1
  Ga  Ga4  1  0.11135100  0.88864900  0.50000000  1
  Ga  Ga5  1  0.77934800  0.22065200  0.50000000  1
