# generated using pymatgen
data_MgGa
_symmetry_space_group_name_H-M   'P 1'
_cell_length_a   5.54938380
_cell_length_b   5.54938380
_cell_length_c   7.40698812
_cell_angle_alpha   72.43259829
_cell_angle_beta   72.43259829
_cell_angle_gamma   33.57758140
_symmetry_Int_Tables_number   1
_chemical_formula_structural   MgGa
_chemical_formula_sum   'Mg3 Ga3'
_cell_volume   119.72246666
_cell_formula_units_Z   3
loop_
 _symmetry_equiv_pos_site_id
 _symmetry_equiv_pos_as_xyz
  1  'x, y, z'
loop_
 _atom_site_type_symbol
 _atom_site_label
 _atom_site_symmetry_multiplicity
 _atom_site_fract_x
 _atom_site_fract_y
 _atom_site_fract_z
 _atom_site_occupancy
  Mg  Mg0  1  0.02489500  0.02489500  0.98783000  1
  Mg  Mg1  1  0.37367900  0.37367900  0.73332900  1
  Mg  Mg2  1  0.32940300  0.32940300  0.33652900  1
  Ga  Ga3  1  0.65757700  0.65757700  0.64685900  1
  Ga  Ga4  1  0.04921200  0.04921200  0.38250800  1
  Ga  Ga5  1  0.73190100  0.73190100  0.07961200  1
