# generated using pymatgen
data_Y6Pb8OF32
_symmetry_space_group_name_H-M   'P 1'
_cell_length_a   9.30794857
_cell_length_b   9.30794857
_cell_length_c   9.30794907
_cell_angle_alpha   72.78077328
_cell_angle_beta   72.78077328
_cell_angle_gamma   72.78076760
_symmetry_Int_Tables_number   1
_chemical_formula_structural   Y6Pb8OF32
_chemical_formula_sum   'Y6 Pb8 O1 F32'
_cell_volume   716.30220520
_cell_formula_units_Z   1
loop_
 _symmetry_equiv_pos_site_id
 _symmetry_equiv_pos_as_xyz
  1  'x, y, z'
loop_
 _atom_site_type_symbol
 _atom_site_label
 _atom_site_symmetry_multiplicity
 _atom_site_fract_x
 _atom_site_fract_y
 _atom_site_fract_z
 _atom_site_occupancy
  Y  Y0  1  0.52640600  0.83996600  0.39077000  1
  Y  Y1  1  0.47359400  0.16003400  0.60923000  1
  Y  Y2  1  0.60923000  0.47359400  0.16003400  1
  Y  Y3  1  0.83996600  0.39077000  0.52640600  1
  Y  Y4  1  0.16003400  0.60923000  0.47359400  1
  Y  Y5  1  0.39077000  0.52640600  0.83996600  1
  Pb  Pb6  1  0.90058700  0.04369700  0.29011200  1
  Pb  Pb7  1  0.29011200  0.90058700  0.04369700  1
  Pb  Pb8  1  0.70988800  0.09941300  0.95630300  1
  Pb  Pb9  1  0.09941300  0.95630300  0.70988800  1
  Pb  Pb10  1  0.26263900  0.26263900  0.26263900  1
  Pb  Pb11  1  0.95630300  0.70988800  0.09941300  1
  Pb  Pb12  1  0.73736100  0.73736100  0.73736100  1
  Pb  Pb13  1  0.04369700  0.29011200  0.90058700  1
  O  O14  1  0.00000000  0.00000000  0.00000000  1
  F  F15  1  0.82001700  0.54913200  0.97651400  1
  F  F16  1  0.26184900  0.08037500  0.78559300  1
  F  F17  1  0.30288400  0.78679500  0.40806100  1
  F  F18  1  0.49011100  0.35689000  0.04611900  1
  F  F19  1  0.08037500  0.78559300  0.26184900  1
  F  F20  1  0.26800900  0.35254900  0.54848600  1
  F  F21  1  0.45151400  0.73199100  0.64745100  1
  F  F22  1  0.64745100  0.45151400  0.73199100  1
  F  F23  1  0.35254900  0.54848600  0.26800900  1
  F  F24  1  0.85950100  0.85950100  0.85950100  1
  F  F25  1  0.17998300  0.45086800  0.02348600  1
  F  F26  1  0.78679500  0.40806100  0.30288400  1
  F  F27  1  0.35689000  0.04611900  0.49011100  1
  F  F28  1  0.54913200  0.97651400  0.82001700  1
  F  F29  1  0.21320500  0.59193900  0.69711600  1
  F  F30  1  0.21440700  0.73815100  0.91962500  1
  F  F31  1  0.97651400  0.82001700  0.54913200  1
  F  F32  1  0.04611900  0.49011100  0.35689000  1
  F  F33  1  0.73815100  0.91962500  0.21440700  1
  F  F34  1  0.64311000  0.95388100  0.50988900  1
  F  F35  1  0.40806100  0.30288400  0.78679500  1
  F  F36  1  0.95388100  0.50988900  0.64311000  1
  F  F37  1  0.50988900  0.64311000  0.95388100  1
  F  F38  1  0.73199100  0.64745100  0.45151400  1
  F  F39  1  0.59193900  0.69711600  0.21320500  1
  F  F40  1  0.54848600  0.26800900  0.35254900  1
  F  F41  1  0.45086800  0.02348600  0.17998300  1
  F  F42  1  0.02348600  0.17998300  0.45086800  1
  F  F43  1  0.78559300  0.26184900  0.08037500  1
  F  F44  1  0.14049900  0.14049900  0.14049900  1
  F  F45  1  0.69711600  0.21320500  0.59193900  1
  F  F46  1  0.91962500  0.21440700  0.73815100  1
