# generated using pymatgen
data_AgPb2Br5
_symmetry_space_group_name_H-M   'P 1'
_cell_length_a   9.16663832
_cell_length_b   9.16663832
_cell_length_c   8.09200719
_cell_angle_alpha   84.58486366
_cell_angle_beta   84.58486366
_cell_angle_gamma   46.14459070
_symmetry_Int_Tables_number   1
_chemical_formula_structural   AgPb2Br5
_chemical_formula_sum   'Ag2 Pb4 Br10'
_cell_volume   487.71862787
_cell_formula_units_Z   2
loop_
 _symmetry_equiv_pos_site_id
 _symmetry_equiv_pos_as_xyz
  1  'x, y, z'
loop_
 _atom_site_type_symbol
 _atom_site_label
 _atom_site_symmetry_multiplicity
 _atom_site_fract_x
 _atom_site_fract_y
 _atom_site_fract_z
 _atom_site_occupancy
  Ag  Ag0  1  0.00000000  0.50000000  0.00000000  1
  Ag  Ag1  1  0.50000000  0.00000000  0.50000000  1
  Pb  Pb2  1  0.33617800  0.87116600  0.93625800  1
  Pb  Pb3  1  0.66382200  0.12883400  0.06374200  1
  Pb  Pb4  1  0.87116600  0.33617800  0.43625800  1
  Pb  Pb5  1  0.12883400  0.66382200  0.56374200  1
  Br  Br6  1  0.30569400  0.13580500  0.18025100  1
  Br  Br7  1  0.07403600  0.92596400  0.25000000  1
  Br  Br8  1  0.69430600  0.86419500  0.81974900  1
  Br  Br9  1  0.52860400  0.29595800  0.42057500  1
  Br  Br10  1  0.29595800  0.52860400  0.92057500  1
  Br  Br11  1  0.47139600  0.70404200  0.57942500  1
  Br  Br12  1  0.70404200  0.47139600  0.07942500  1
  Br  Br13  1  0.86419500  0.69430600  0.31974900  1
  Br  Br14  1  0.13580500  0.30569400  0.68025100  1
  Br  Br15  1  0.92596400  0.07403600  0.75000000  1
