# generated using pymatgen
data_TlAg(CN)2
_symmetry_space_group_name_H-M   'P 1'
_cell_length_a   14.85990800
_cell_length_b   7.87199900
_cell_length_c   8.68249442
_cell_angle_alpha   87.89816290
_cell_angle_beta   90.00000000
_cell_angle_gamma   90.00000000
_symmetry_Int_Tables_number   1
_chemical_formula_structural   TlAg(CN)2
_chemical_formula_sum   'Tl8 Ag8 C16 N16'
_cell_volume   1014.97040773
_cell_formula_units_Z   8
loop_
 _symmetry_equiv_pos_site_id
 _symmetry_equiv_pos_as_xyz
  1  'x, y, z'
loop_
 _atom_site_type_symbol
 _atom_site_label
 _atom_site_symmetry_multiplicity
 _atom_site_fract_x
 _atom_site_fract_y
 _atom_site_fract_z
 _atom_site_occupancy
  Tl  Tl0  1  0.95225700  0.22691700  0.53104100  1
  Tl  Tl1  1  0.26180700  0.30260700  0.97315100  1
  Tl  Tl2  1  0.04774300  0.77308300  0.46895900  1
  Tl  Tl3  1  0.73819300  0.69739300  0.02684900  1
  Tl  Tl4  1  0.54774300  0.22691700  0.03104100  1
  Tl  Tl5  1  0.45225700  0.77308300  0.96895900  1
  Tl  Tl6  1  0.23819300  0.30260700  0.47315100  1
  Tl  Tl7  1  0.76180700  0.69739300  0.52684900  1
  Ag  Ag8  1  0.00000000  0.50000000  0.00000000  1
  Ag  Ag9  1  0.17933500  0.79739900  0.95374000  1
  Ag  Ag10  1  0.82066500  0.20260100  0.04626000  1
  Ag  Ag11  1  0.67933500  0.20260100  0.54626000  1
  Ag  Ag12  1  0.32066500  0.79739900  0.45374000  1
  Ag  Ag13  1  0.50000000  0.50000000  0.50000000  1
  Ag  Ag14  1  0.50000000  0.00000000  0.50000000  1
  Ag  Ag15  1  0.00000000  0.00000000  0.00000000  1
  C  C16  1  0.93619600  0.52518700  0.21199400  1
  C  C17  1  0.68307800  0.35028200  0.34280000  1
  C  C18  1  0.16387300  0.96511400  0.76538100  1
  C  C19  1  0.56380400  0.52518700  0.71199400  1
  C  C20  1  0.06818600  0.11158900  0.17981000  1
  C  C21  1  0.81692200  0.35028200  0.84280000  1
  C  C22  1  0.66387300  0.03488600  0.73461900  1
  C  C23  1  0.43619600  0.47481300  0.28800600  1
  C  C24  1  0.31692200  0.64971800  0.65720000  1
  C  C25  1  0.56818600  0.88841100  0.32019000  1
  C  C26  1  0.33612700  0.96511400  0.26538100  1
  C  C27  1  0.93181400  0.88841100  0.82019000  1
  C  C28  1  0.43181400  0.11158900  0.67981000  1
  C  C29  1  0.18307800  0.64971800  0.15720000  1
  C  C30  1  0.06380400  0.47481300  0.78800600  1
  C  C31  1  0.83612700  0.03488600  0.23461900  1
  N  N32  1  0.58835800  0.52868800  0.84112000  1
  N  N33  1  0.17908300  0.58616800  0.28207800  1
  N  N34  1  0.39917000  0.16677300  0.79064600  1
  N  N35  1  0.08835800  0.47131200  0.65888000  1
  N  N36  1  0.82091700  0.41383200  0.71792200  1
  N  N37  1  0.67908300  0.41383200  0.21792200  1
  N  N38  1  0.89917000  0.83322700  0.70935400  1
  N  N39  1  0.10083000  0.16677300  0.29064600  1
  N  N40  1  0.41164200  0.47131200  0.15888000  1
  N  N41  1  0.35374500  0.05362200  0.15710800  1
  N  N42  1  0.32091700  0.58616800  0.78207800  1
  N  N43  1  0.60083000  0.83322700  0.20935400  1
  N  N44  1  0.14625500  0.05362200  0.65710800  1
  N  N45  1  0.85374500  0.94637800  0.34289200  1
  N  N46  1  0.91164200  0.52868800  0.34112000  1
  N  N47  1  0.64625500  0.94637800  0.84289200  1
