# generated using pymatgen
data_U2(P2O7)3
_symmetry_space_group_name_H-M   'P 1'
_cell_length_a   7.03645656
_cell_length_b   7.03645656
_cell_length_c   20.90949172
_cell_angle_alpha   83.05358113
_cell_angle_beta   83.05358113
_cell_angle_gamma   104.77580371
_symmetry_Int_Tables_number   1
_chemical_formula_structural   U2(P2O7)3
_chemical_formula_sum   'U4 P12 O42'
_cell_volume   981.17866580
_cell_formula_units_Z   2
loop_
 _symmetry_equiv_pos_site_id
 _symmetry_equiv_pos_as_xyz
  1  'x, y, z'
loop_
 _atom_site_type_symbol
 _atom_site_label
 _atom_site_symmetry_multiplicity
 _atom_site_fract_x
 _atom_site_fract_y
 _atom_site_fract_z
 _atom_site_occupancy
  U  U0  1  0.25417600  0.88038600  0.47629100  1
  U  U1  1  0.88038600  0.25417600  0.97629100  1
  U  U2  1  0.69285200  0.60189100  0.26020500  1
  U  U3  1  0.60189100  0.69285200  0.76020500  1
  P  P4  1  0.01673900  0.79949900  0.97160300  1
  P  P5  1  0.22868500  0.27054900  0.70847000  1
  P  P6  1  0.79949900  0.01673900  0.47160300  1
  P  P7  1  0.23854300  0.80496800  0.20913500  1
  P  P8  1  0.33859800  0.97766400  0.63181500  1
  P  P9  1  0.80496800  0.23854300  0.70913500  1
  P  P10  1  0.16693300  0.85827700  0.73751600  1
  P  P11  1  0.97766400  0.33859800  0.13181500  1
  P  P12  1  0.41310000  0.37614500  0.99996400  1
  P  P13  1  0.27054900  0.22868500  0.20847000  1
  P  P14  1  0.85827700  0.16693300  0.23751600  1
  P  P15  1  0.37614500  0.41310000  0.49996400  1
  O  O16  1  0.83448900  0.15827500  0.51913900  1
  O  O17  1  0.30351400  0.21162300  0.47984600  1
  O  O18  1  0.66134400  0.78567200  0.67389100  1
  O  O19  1  0.20466100  0.90451100  0.37840100  1
  O  O20  1  0.87015800  0.19451600  0.08930200  1
  O  O21  1  0.17939700  0.08128600  0.76167300  1
  O  O22  1  0.70506200  0.34452400  0.66590200  1
  O  O23  1  0.05760800  0.72856100  0.25863400  1
  O  O24  1  0.94134300  0.41233400  0.88080000  1
  O  O25  1  0.61717800  0.48728500  0.83814300  1
  O  O26  1  0.90451100  0.20466100  0.87840100  1
  O  O27  1  0.48702600  0.60618900  0.85789600  1
  O  O28  1  0.34805900  0.02874400  0.20823200  1
  O  O29  1  0.86629600  0.95032300  0.98734700  1
  O  O30  1  0.56005900  0.47076000  0.52742800  1
  O  O31  1  0.43903800  0.37840700  0.22512200  1
  O  O32  1  0.74252300  0.94913400  0.25180500  1
  O  O33  1  0.47076000  0.56005900  0.02742800  1
  O  O34  1  0.94913400  0.74252300  0.75180500  1
  O  O35  1  0.37840700  0.43903800  0.72512200  1
  O  O36  1  0.15827500  0.83448900  0.01913900  1
  O  O37  1  0.08128600  0.17939700  0.26167300  1
  O  O38  1  0.02874400  0.34805900  0.70823200  1
  O  O39  1  0.25747700  0.20606400  0.64091800  1
  O  O40  1  0.34452400  0.70506200  0.16590200  1
  O  O41  1  0.77816700  0.31197200  0.27368200  1
  O  O42  1  0.06452200  0.83335500  0.89900800  1
  O  O43  1  0.90129400  0.54776800  0.99106000  1
  O  O44  1  0.78567200  0.66134400  0.17389100  1
  O  O45  1  0.19451600  0.87015800  0.58930200  1
  O  O46  1  0.95032300  0.86629600  0.48734700  1
  O  O47  1  0.21162300  0.30351400  0.97984600  1
  O  O48  1  0.41233400  0.94134300  0.38080000  1
  O  O49  1  0.48728500  0.61717800  0.33814300  1
  O  O50  1  0.23645900  0.54242100  0.49177100  1
  O  O51  1  0.20606400  0.25747700  0.14091800  1
  O  O52  1  0.54242100  0.23645900  0.99177100  1
  O  O53  1  0.31197200  0.77816700  0.77368200  1
  O  O54  1  0.60618900  0.48702600  0.35789600  1
  O  O55  1  0.83335500  0.06452200  0.39900800  1
  O  O56  1  0.54776800  0.90129400  0.49106000  1
  O  O57  1  0.72856100  0.05760800  0.75863400  1
