# generated using pymatgen
data_La4(CoO3)3
_symmetry_space_group_name_H-M   'P 1'
_cell_length_a   5.48657700
_cell_length_b   5.74537900
_cell_length_c   28.45084000
_cell_angle_alpha   90.00000000
_cell_angle_beta   90.00000000
_cell_angle_gamma   90.00000000
_symmetry_Int_Tables_number   1
_chemical_formula_structural   La4(CoO3)3
_chemical_formula_sum   'La16 Co12 O36'
_cell_volume   896.84058757
_cell_formula_units_Z   4
loop_
 _symmetry_equiv_pos_site_id
 _symmetry_equiv_pos_as_xyz
  1  'x, y, z'
loop_
 _atom_site_type_symbol
 _atom_site_label
 _atom_site_symmetry_multiplicity
 _atom_site_fract_x
 _atom_site_fract_y
 _atom_site_fract_z
 _atom_site_occupancy
  La  La0  1  0.75128900  0.97957700  0.32838500  1
  La  La1  1  0.25380800  0.48291800  0.04931600  1
  La  La2  1  0.24871100  0.02042300  0.67161500  1
  La  La3  1  0.25128900  0.52042300  0.32838500  1
  La  La4  1  0.74871100  0.47957700  0.67161500  1
  La  La5  1  0.75380800  0.01708200  0.04931600  1
  La  La6  1  0.74871100  0.47957700  0.82838500  1
  La  La7  1  0.24871100  0.02042300  0.82838500  1
  La  La8  1  0.24619200  0.98291800  0.54931600  1
  La  La9  1  0.74619200  0.51708200  0.95068400  1
  La  La10  1  0.74619200  0.51708200  0.54931600  1
  La  La11  1  0.75380800  0.01708200  0.45068400  1
  La  La12  1  0.24619200  0.98291800  0.95068400  1
  La  La13  1  0.25128900  0.52042300  0.17161500  1
  La  La14  1  0.25380800  0.48291800  0.45068400  1
  La  La15  1  0.75128900  0.97957700  0.17161500  1
  Co  Co16  1  0.29644900  0.05978800  0.25000000  1
  Co  Co17  1  0.24960500  0.50106900  0.60953800  1
  Co  Co18  1  0.75039500  0.49893100  0.10953800  1
  Co  Co19  1  0.25039500  0.00106900  0.10953800  1
  Co  Co20  1  0.79644900  0.44021200  0.25000000  1
  Co  Co21  1  0.24960500  0.50106900  0.89046200  1
  Co  Co22  1  0.74960500  0.99893100  0.60953800  1
  Co  Co23  1  0.20355100  0.55978800  0.75000000  1
  Co  Co24  1  0.74960500  0.99893100  0.89046200  1
  Co  Co25  1  0.70355100  0.94021200  0.75000000  1
  Co  Co26  1  0.25039500  0.00106900  0.39046200  1
  Co  Co27  1  0.75039500  0.49893100  0.39046200  1
  O  O28  1  0.99981200  0.75006000  0.61912100  1
  O  O29  1  0.26352600  0.42074900  0.81151800  1
  O  O30  1  0.73647400  0.57925100  0.31151800  1
  O  O31  1  0.23647400  0.92074900  0.18848200  1
  O  O32  1  0.75364300  0.93253700  0.52995600  1
  O  O33  1  0.50453100  0.75360500  0.39834300  1
  O  O34  1  0.50018800  0.25006000  0.11912100  1
  O  O35  1  0.24635700  0.06746300  0.47004400  1
  O  O36  1  0.74635700  0.43253700  0.47004400  1
  O  O37  1  0.66945400  0.11169500  0.25000000  1
  O  O38  1  0.49546900  0.24639500  0.89834300  1
  O  O39  1  0.49981200  0.74994000  0.61912100  1
  O  O40  1  0.76352600  0.07925100  0.68848200  1
  O  O41  1  0.76352600  0.07925100  0.81151800  1
  O  O42  1  0.00453100  0.74639500  0.39834300  1
  O  O43  1  0.75364300  0.93253700  0.97004400  1
  O  O44  1  0.25364300  0.56746300  0.97004400  1
  O  O45  1  0.50018800  0.25006000  0.38087900  1
  O  O46  1  0.00018800  0.24994000  0.11912100  1
  O  O47  1  0.99981200  0.75006000  0.88087900  1
  O  O48  1  0.00453100  0.74639500  0.10165700  1
  O  O49  1  0.99546900  0.25360500  0.89834300  1
  O  O50  1  0.33054600  0.88830500  0.75000000  1
  O  O51  1  0.16945400  0.38830500  0.25000000  1
  O  O52  1  0.25364300  0.56746300  0.52995600  1
  O  O53  1  0.83054600  0.61169500  0.75000000  1
  O  O54  1  0.49981200  0.74994000  0.88087900  1
  O  O55  1  0.74635700  0.43253700  0.02995600  1
  O  O56  1  0.99546900  0.25360500  0.60165700  1
  O  O57  1  0.24635700  0.06746300  0.02995600  1
  O  O58  1  0.00018800  0.24994000  0.38087900  1
  O  O59  1  0.49546900  0.24639500  0.60165700  1
  O  O60  1  0.50453100  0.75360500  0.10165700  1
  O  O61  1  0.23647400  0.92074900  0.31151800  1
  O  O62  1  0.73647400  0.57925100  0.18848200  1
  O  O63  1  0.26352600  0.42074900  0.68848200  1
