# generated using pymatgen
data_MgGa
_symmetry_space_group_name_H-M   'P 1'
_cell_length_a   5.30541302
_cell_length_b   5.30541302
_cell_length_c   5.62950499
_cell_angle_alpha   64.10259180
_cell_angle_beta   64.10259180
_cell_angle_gamma   59.47824547
_symmetry_Int_Tables_number   1
_chemical_formula_structural   MgGa
_chemical_formula_sum   'Mg3 Ga3'
_cell_volume   117.97398048
_cell_formula_units_Z   3
loop_
 _symmetry_equiv_pos_site_id
 _symmetry_equiv_pos_as_xyz
  1  'x, y, z'
loop_
 _atom_site_type_symbol
 _atom_site_label
 _atom_site_symmetry_multiplicity
 _atom_site_fract_x
 _atom_site_fract_y
 _atom_site_fract_z
 _atom_site_occupancy
  Mg  Mg0  1  0.34092000  0.65908000  0.00000000  1
  Mg  Mg1  1  0.83216700  0.83789800  0.50239000  1
  Mg  Mg2  1  0.16210200  0.16783300  0.49761000  1
  Ga  Ga3  1  0.99887800  0.32977400  0.00303700  1
  Ga  Ga4  1  0.67022600  0.00112200  0.99696300  1
  Ga  Ga5  1  0.49570600  0.50429400  0.50000000  1
