# generated using pymatgen
data_MgGa2
_symmetry_space_group_name_H-M   'P 1'
_cell_length_a   7.47127821
_cell_length_b   7.47127821
_cell_length_c   5.03510400
_cell_angle_alpha   90.00000000
_cell_angle_beta   90.00000000
_cell_angle_gamma   155.37838792
_symmetry_Int_Tables_number   1
_chemical_formula_structural   MgGa2
_chemical_formula_sum   'Mg2 Ga4'
_cell_volume   117.09605491
_cell_formula_units_Z   2
loop_
 _symmetry_equiv_pos_site_id
 _symmetry_equiv_pos_as_xyz
  1  'x, y, z'
loop_
 _atom_site_type_symbol
 _atom_site_label
 _atom_site_symmetry_multiplicity
 _atom_site_fract_x
 _atom_site_fract_y
 _atom_site_fract_z
 _atom_site_occupancy
  Mg  Mg0  1  0.28212600  0.71787400  0.25000000  1
  Mg  Mg1  1  0.71787400  0.28212600  0.75000000  1
  Ga  Ga2  1  0.60628900  0.39371100  0.25000000  1
  Ga  Ga3  1  0.94825500  0.05174500  0.25000000  1
  Ga  Ga4  1  0.05174500  0.94825500  0.75000000  1
  Ga  Ga5  1  0.39371100  0.60628900  0.75000000  1
