# generated using pymatgen
data_In10(Pb2S7)3
_symmetry_space_group_name_H-M   'P 1'
_cell_length_a   3.89623600
_cell_length_b   14.14514207
_cell_length_c   15.97340987
_cell_angle_alpha   95.28545127
_cell_angle_beta   89.99503208
_cell_angle_gamma   97.88855960
_symmetry_Int_Tables_number   1
_chemical_formula_structural   In10(Pb2S7)3
_chemical_formula_sum   'In10 Pb6 S21'
_cell_volume   868.23074278
_cell_formula_units_Z   1
loop_
 _symmetry_equiv_pos_site_id
 _symmetry_equiv_pos_as_xyz
  1  'x, y, z'
loop_
 _atom_site_type_symbol
 _atom_site_label
 _atom_site_symmetry_multiplicity
 _atom_site_fract_x
 _atom_site_fract_y
 _atom_site_fract_z
 _atom_site_occupancy
  In  In0  1  0.68878000  0.37632600  0.48381600  1
  In  In1  1  0.51756600  0.02573000  0.12949700  1
  In  In2  1  0.21104200  0.42946900  0.69183500  1
  In  In3  1  0.78895800  0.57053100  0.30816500  1
  In  In4  1  0.90449500  0.80085800  0.01891700  1
  In  In5  1  0.73124000  0.47122500  0.89351200  1
  In  In6  1  0.31122000  0.62367400  0.51618400  1
  In  In7  1  0.26876000  0.52877500  0.10648800  1
  In  In8  1  0.09550500  0.19914200  0.98108300  1
  In  In9  1  0.48243400  0.97427000  0.87050300  1
  Pb  Pb10  1  0.06489300  0.14733500  0.70566800  1
  Pb  Pb11  1  0.14238100  0.27386900  0.24118500  1
  Pb  Pb12  1  0.93510700  0.85266500  0.29433200  1
  Pb  Pb13  1  0.85761900  0.72613100  0.75881500  1
  Pb  Pb14  1  0.04506900  0.09925700  0.43102700  1
  Pb  Pb15  1  0.95493100  0.90074300  0.56897300  1
  S  S16  1  0.47006800  0.93124000  0.40684200  1
  S  S17  1  0.60451800  0.20309600  0.09559600  1
  S  S18  1  0.52993200  0.06876000  0.59315800  1
  S  S19  1  0.33010400  0.65444500  0.23835400  1
  S  S20  1  0.27663500  0.56256900  0.81192600  1
  S  S21  1  0.23015800  0.47301600  0.40125000  1
  S  S22  1  0.72336500  0.43743100  0.18807400  1
  S  S23  1  0.58320900  0.15878300  0.87431900  1
  S  S24  1  0.61954800  0.23686000  0.36709300  1
  S  S25  1  0.80576000  0.60811800  0.02450100  1
  S  S26  1  0.03043500  0.05222400  0.23605000  1
  S  S27  1  0.66989600  0.34555500  0.76164600  1
  S  S28  1  0.19424000  0.39188200  0.97549900  1
  S  S29  1  0.39548200  0.79690400  0.90440400  1
  S  S30  1  0.00000000  0.00000000  0.00000000  1
  S  S31  1  0.84729600  0.69957800  0.43494000  1
  S  S32  1  0.38045200  0.76314000  0.63290700  1
  S  S33  1  0.96956500  0.94777600  0.76395000  1
  S  S34  1  0.41679100  0.84121700  0.12568100  1
  S  S35  1  0.15270400  0.30042200  0.56506000  1
  S  S36  1  0.76984200  0.52698400  0.59875000  1
