# generated using pymatgen
data_Fe2MoC10(SeO5)2
_symmetry_space_group_name_H-M   'P 1'
_cell_length_a   6.88925600
_cell_length_b   9.50959049
_cell_length_c   13.82779891
_cell_angle_alpha   81.86479696
_cell_angle_beta   82.22991284
_cell_angle_gamma   85.42508993
_symmetry_Int_Tables_number   1
_chemical_formula_structural   Fe2MoC10(SeO5)2
_chemical_formula_sum   'Fe4 Mo2 C20 Se4 O20'
_cell_volume   886.86501788
_cell_formula_units_Z   2
loop_
 _symmetry_equiv_pos_site_id
 _symmetry_equiv_pos_as_xyz
  1  'x, y, z'
loop_
 _atom_site_type_symbol
 _atom_site_label
 _atom_site_symmetry_multiplicity
 _atom_site_fract_x
 _atom_site_fract_y
 _atom_site_fract_z
 _atom_site_occupancy
  Fe  Fe0  1  0.28557700  0.00314600  0.27330300  1
  Fe  Fe1  1  0.71442300  0.99685400  0.72669700  1
  Fe  Fe2  1  0.64379200  0.67287700  0.63438400  1
  Fe  Fe3  1  0.35620800  0.32712300  0.36561600  1
  Mo  Mo4  1  0.60549200  0.72607200  0.83400400  1
  Mo  Mo5  1  0.39450800  0.27392800  0.16599600  1
  C  C6  1  0.54772300  0.13514400  0.77496500  1
  C  C7  1  0.21048100  0.24868600  0.06546600  1
  C  C8  1  0.72720500  0.52213500  0.85949300  1
  C  C9  1  0.91358200  0.04970900  0.78516800  1
  C  C10  1  0.20873500  0.49287500  0.36788200  1
  C  C11  1  0.78951900  0.75131400  0.93453400  1
  C  C12  1  0.57494000  0.41357900  0.37655600  1
  C  C13  1  0.27279500  0.47786500  0.14050700  1
  C  C14  1  0.42645100  0.84494300  0.92729700  1
  C  C15  1  0.45227700  0.86485600  0.22503500  1
  C  C16  1  0.57354900  0.15505700  0.07270300  1
  C  C17  1  0.77315900  0.08390400  0.60558600  1
  C  C18  1  0.69863200  0.74867400  0.50992800  1
  C  C19  1  0.63683700  0.39154800  0.13743700  1
  C  C20  1  0.30136800  0.25132600  0.49007200  1
  C  C21  1  0.42506000  0.58642100  0.62344400  1
  C  C22  1  0.22684100  0.91609600  0.39441400  1
  C  C23  1  0.36316300  0.60845200  0.86256300  1
  C  C24  1  0.08641800  0.95029100  0.21483200  1
  C  C25  1  0.79126500  0.50712500  0.63211800  1
  Se  Se26  1  0.44713300  0.87531900  0.68789800  1
  Se  Se27  1  0.55286700  0.12468100  0.31210200  1
  Se  Se28  1  0.90008800  0.77914400  0.69689500  1
  Se  Se29  1  0.09991200  0.22085600  0.30310500  1
  O  O30  1  0.19260700  0.86168100  0.47476800  1
  O  O31  1  0.79042400  0.40572300  0.87660700  1
  O  O32  1  0.26773300  0.20126700  0.57159500  1
  O  O33  1  0.28785900  0.52997600  0.61288200  1
  O  O34  1  0.89501500  0.76807800  0.98997700  1
  O  O35  1  0.80739300  0.13831900  0.52523200  1
  O  O36  1  0.22599100  0.54137900  0.87692100  1
  O  O37  1  0.04143200  0.08431000  0.82076200  1
  O  O38  1  0.32507000  0.90917600  0.98182700  1
  O  O39  1  0.10498500  0.23192200  0.01002300  1
  O  O40  1  0.95856800  0.91569000  0.17923800  1
  O  O41  1  0.67493000  0.09082400  0.01817300  1
  O  O42  1  0.20957600  0.59427700  0.12339300  1
  O  O43  1  0.71214100  0.47002400  0.38711800  1
  O  O44  1  0.44772200  0.22842200  0.80311900  1
  O  O45  1  0.11729700  0.60038100  0.37009500  1
  O  O46  1  0.73226700  0.79873300  0.42840500  1
  O  O47  1  0.77400900  0.45862100  0.12307900  1
  O  O48  1  0.55227800  0.77157800  0.19688100  1
  O  O49  1  0.88270300  0.39961900  0.62990500  1
