# generated using pymatgen
data_K2Sn(GeO3)3
_symmetry_space_group_name_H-M   'P 1'
_cell_length_a   12.15675331
_cell_length_b   12.15675331
_cell_length_c   10.74622300
_cell_angle_alpha   90.00000000
_cell_angle_beta   90.00000000
_cell_angle_gamma   119.99999627
_symmetry_Int_Tables_number   1
_chemical_formula_structural   K2Sn(GeO3)3
_chemical_formula_sum   'K12 Sn6 Ge18 O54'
_cell_volume   1375.37683286
_cell_formula_units_Z   6
loop_
 _symmetry_equiv_pos_site_id
 _symmetry_equiv_pos_as_xyz
  1  'x, y, z'
loop_
 _atom_site_type_symbol
 _atom_site_label
 _atom_site_symmetry_multiplicity
 _atom_site_fract_x
 _atom_site_fract_y
 _atom_site_fract_z
 _atom_site_occupancy
  K  K0  1  0.34565200  0.34646900  0.99125300  1
  K  K1  1  0.99918300  0.34565200  0.00874700  1
  K  K2  1  0.99918300  0.65353100  0.50874700  1
  K  K3  1  0.65353100  0.99918300  0.99125300  1
  K  K4  1  0.00081700  0.34646900  0.49125300  1
  K  K5  1  0.65434800  0.65353100  0.00874700  1
  K  K6  1  0.34646900  0.34565200  0.50874700  1
  K  K7  1  0.00081700  0.65434800  0.99125300  1
  K  K8  1  0.34646900  0.00081700  0.00874700  1
  K  K9  1  0.65434800  0.00081700  0.50874700  1
  K  K10  1  0.34565200  0.99918300  0.49125300  1
  K  K11  1  0.65353100  0.65434800  0.49125300  1
  Sn  Sn12  1  0.33333300  0.66666700  0.49377800  1
  Sn  Sn13  1  0.66666700  0.33333300  0.50622200  1
  Sn  Sn14  1  0.66666700  0.33333300  0.00622200  1
  Sn  Sn15  1  0.33333300  0.66666700  0.99377800  1
  Sn  Sn16  1  0.00000000  0.00000000  0.50000000  1
  Sn  Sn17  1  0.00000000  0.00000000  0.00000000  1
  Ge  Ge18  1  0.54898000  0.83175400  0.23721300  1
  Ge  Ge19  1  0.81848800  0.00000000  0.75000000  1
  Ge  Ge20  1  0.18151200  0.18151200  0.75000000  1
  Ge  Ge21  1  0.83175400  0.54898000  0.26278700  1
  Ge  Ge22  1  0.28277400  0.83175400  0.73721300  1
  Ge  Ge23  1  0.16824600  0.71722600  0.23721300  1
  Ge  Ge24  1  0.71722600  0.16824600  0.26278700  1
  Ge  Ge25  1  0.81848800  0.81848800  0.25000000  1
  Ge  Ge26  1  0.00000000  0.18151200  0.25000000  1
  Ge  Ge27  1  0.16824600  0.45102000  0.73721300  1
  Ge  Ge28  1  0.28277400  0.45102000  0.23721300  1
  Ge  Ge29  1  0.54898000  0.71722600  0.73721300  1
  Ge  Ge30  1  0.83175400  0.28277400  0.76278700  1
  Ge  Ge31  1  0.00000000  0.81848800  0.75000000  1
  Ge  Ge32  1  0.45102000  0.16824600  0.76278700  1
  Ge  Ge33  1  0.45102000  0.28277400  0.26278700  1
  Ge  Ge34  1  0.71722600  0.54898000  0.76278700  1
  Ge  Ge35  1  0.18151200  0.00000000  0.25000000  1
  O  O36  1  0.66579900  0.79014300  0.19138200  1
  O  O37  1  0.91115800  0.07037000  0.61662000  1
  O  O38  1  0.81728200  0.36806000  0.88844300  1
  O  O39  1  0.50337900  0.27366500  0.11330900  1
  O  O40  1  0.27366500  0.77028600  0.88669100  1
  O  O41  1  0.79014300  0.12434500  0.80861800  1
  O  O42  1  0.00000000  0.63342800  0.25000000  1
  O  O43  1  0.84078900  0.91115800  0.38338000  1
  O  O44  1  0.63194000  0.18271800  0.38844300  1
  O  O45  1  0.55077800  0.18271800  0.88844300  1
  O  O46  1  0.18271800  0.63194000  0.11155700  1
  O  O47  1  0.33420100  0.20985700  0.80861800  1
  O  O48  1  0.87565500  0.20985700  0.30861800  1
  O  O49  1  0.72633500  0.22971400  0.11330900  1
  O  O50  1  0.15921100  0.07037000  0.11662000  1
  O  O51  1  0.18271800  0.55077800  0.61155700  1
  O  O52  1  0.22971400  0.72633500  0.38669100  1
  O  O53  1  0.92963000  0.84078900  0.61662000  1
  O  O54  1  0.66579900  0.87565500  0.69138200  1
  O  O55  1  0.36657200  0.00000000  0.75000000  1
  O  O56  1  0.84078900  0.92963000  0.88338000  1
  O  O57  1  0.91115800  0.84078900  0.11662000  1
  O  O58  1  0.63194000  0.44922200  0.88844300  1
  O  O59  1  0.36806000  0.81728200  0.61155700  1
  O  O60  1  0.63342800  0.63342800  0.75000000  1
  O  O61  1  0.08884200  0.15921100  0.88338000  1
  O  O62  1  0.92963000  0.08884200  0.11662000  1
  O  O63  1  0.63342800  0.00000000  0.25000000  1
  O  O64  1  0.49662100  0.72633500  0.88669100  1
  O  O65  1  0.36657200  0.36657200  0.25000000  1
  O  O66  1  0.77028600  0.27366500  0.61330900  1
  O  O67  1  0.27366500  0.50337900  0.38669100  1
  O  O68  1  0.12434500  0.79014300  0.69138200  1
  O  O69  1  0.33420100  0.12434500  0.30861800  1
  O  O70  1  0.36806000  0.55077800  0.11155700  1
  O  O71  1  0.79014300  0.66579900  0.30861800  1
  O  O72  1  0.12434500  0.33420100  0.19138200  1
  O  O73  1  0.87565500  0.66579900  0.80861800  1
  O  O74  1  0.77028600  0.49662100  0.11330900  1
  O  O75  1  0.81728200  0.44922200  0.38844300  1
  O  O76  1  0.44922200  0.81728200  0.11155700  1
  O  O77  1  0.15921100  0.08884200  0.61662000  1
  O  O78  1  0.55077800  0.36806000  0.38844300  1
  O  O79  1  0.20985700  0.33420100  0.69138200  1
  O  O80  1  0.72633500  0.49662100  0.61330900  1
  O  O81  1  0.00000000  0.36657200  0.75000000  1
  O  O82  1  0.08884200  0.92963000  0.38338000  1
  O  O83  1  0.50337900  0.22971400  0.61330900  1
  O  O84  1  0.07037000  0.91115800  0.88338000  1
  O  O85  1  0.44922200  0.63194000  0.61155700  1
  O  O86  1  0.07037000  0.15921100  0.38338000  1
  O  O87  1  0.49662100  0.77028600  0.38669100  1
  O  O88  1  0.20985700  0.87565500  0.19138200  1
  O  O89  1  0.22971400  0.50337900  0.88669100  1
