# generated using pymatgen
data_Ta2O5
_symmetry_space_group_name_H-M   'P 1'
_cell_length_a   4.02560050
_cell_length_b   4.02560050
_cell_length_c   5.82716438
_cell_angle_alpha   68.46957435
_cell_angle_beta   68.46957435
_cell_angle_gamma   80.63093520
_symmetry_Int_Tables_number   1
_chemical_formula_structural   Ta2O5
_chemical_formula_sum   'Ta2 O5'
_cell_volume   81.67014976
_cell_formula_units_Z   1
loop_
 _symmetry_equiv_pos_site_id
 _symmetry_equiv_pos_as_xyz
  1  'x, y, z'
loop_
 _atom_site_type_symbol
 _atom_site_label
 _atom_site_symmetry_multiplicity
 _atom_site_fract_x
 _atom_site_fract_y
 _atom_site_fract_z
 _atom_site_occupancy
  Ta  Ta0  1  0.77294500  0.84442600  0.29457000  1
  Ta  Ta1  1  0.15557400  0.22705500  0.70543000  1
  O  O2  1  0.36793900  0.78563400  0.64547300  1
  O  O3  1  0.76477000  0.88881400  0.96079800  1
  O  O4  1  0.72222100  0.27777900  0.50000000  1
  O  O5  1  0.11118600  0.23523000  0.03920200  1
  O  O6  1  0.21436600  0.63206100  0.35452700  1
