# generated using pymatgen
data_SiC
_symmetry_space_group_name_H-M   'P 1'
_cell_length_a   27.83553980
_cell_length_b   27.83553980
_cell_length_c   27.83554037
_cell_angle_alpha   6.38025180
_cell_angle_beta   6.38025180
_cell_angle_gamma   6.38025128
_symmetry_Int_Tables_number   1
_chemical_formula_structural   SiC
_chemical_formula_sum   'Si11 C11'
_cell_volume   230.89398398
_cell_formula_units_Z   11
loop_
 _symmetry_equiv_pos_site_id
 _symmetry_equiv_pos_as_xyz
  1  'x, y, z'
loop_
 _atom_site_type_symbol
 _atom_site_label
 _atom_site_symmetry_multiplicity
 _atom_site_fract_x
 _atom_site_fract_y
 _atom_site_fract_z
 _atom_site_occupancy
  Si  Si0  1  0.90911900  0.90911900  0.90911900  1
  Si  Si1  1  0.36367100  0.36367100  0.36367100  1
  Si  Si2  1  0.18186600  0.18186600  0.18186600  1
  Si  Si3  1  0.54547200  0.54547200  0.54547200  1
  Si  Si4  1  0.42429300  0.42429300  0.42429300  1
  Si  Si5  1  0.60610900  0.60610900  0.60610900  1
  Si  Si6  1  0.00002900  0.00002900  0.00002900  1
  Si  Si7  1  0.81821100  0.81821100  0.81821100  1
  Si  Si8  1  0.30304700  0.30304700  0.30304700  1
  Si  Si9  1  0.72730200  0.72730200  0.72730200  1
  Si  Si10  1  0.12123200  0.12123200  0.12123200  1
  C  C11  1  0.79537700  0.79537700  0.79537700  1
  C  C12  1  0.09845900  0.09845900  0.09845900  1
  C  C13  1  0.88628500  0.88628500  0.88628500  1
  C  C14  1  0.15910000  0.15910000  0.15910000  1
  C  C15  1  0.28027800  0.28027800  0.28027800  1
  C  C16  1  0.34092000  0.34092000  0.34092000  1
  C  C17  1  0.70446800  0.70446800  0.70446800  1
  C  C18  1  0.58333900  0.58333900  0.58333900  1
  C  C19  1  0.97719100  0.97719100  0.97719100  1
  C  C20  1  0.40152300  0.40152300  0.40152300  1
  C  C21  1  0.52270300  0.52270300  0.52270300  1
