# generated using pymatgen
data_VAgO3
_symmetry_space_group_name_H-M   'P 1'
_cell_length_a   7.29770221
_cell_length_b   7.29770221
_cell_length_c   5.60195675
_cell_angle_alpha   82.89048912
_cell_angle_beta   82.89048912
_cell_angle_gamma   86.78467741
_symmetry_Int_Tables_number   1
_chemical_formula_structural   VAgO3
_chemical_formula_sum   'V4 Ag4 O12'
_cell_volume   293.51845214
_cell_formula_units_Z   4
loop_
 _symmetry_equiv_pos_site_id
 _symmetry_equiv_pos_as_xyz
  1  'x, y, z'
loop_
 _atom_site_type_symbol
 _atom_site_label
 _atom_site_symmetry_multiplicity
 _atom_site_fract_x
 _atom_site_fract_y
 _atom_site_fract_z
 _atom_site_occupancy
  V  V0  1  0.71482900  0.88711000  0.28549400  1
  V  V1  1  0.88711000  0.71482900  0.78549400  1
  V  V2  1  0.28517100  0.11289000  0.71450600  1
  V  V3  1  0.11289000  0.28517100  0.21450600  1
  Ag  Ag4  1  0.21869300  0.78130700  0.25000000  1
  Ag  Ag5  1  0.41076200  0.58923800  0.75000000  1
  Ag  Ag6  1  0.58923800  0.41076200  0.25000000  1
  Ag  Ag7  1  0.78130700  0.21869300  0.75000000  1
  O  O8  1  0.90464900  0.36217900  0.33511100  1
  O  O9  1  0.19747000  0.09631800  0.42606300  1
  O  O10  1  0.80253000  0.90368200  0.57393700  1
  O  O11  1  0.09631800  0.19747000  0.92606300  1
  O  O12  1  0.54238700  0.73349500  0.32971800  1
  O  O13  1  0.45761300  0.26650500  0.67028200  1
  O  O14  1  0.73349500  0.54238700  0.82971800  1
  O  O15  1  0.09535100  0.63782100  0.66488900  1
  O  O16  1  0.26650500  0.45761300  0.17028200  1
  O  O17  1  0.63782100  0.09535100  0.16488900  1
  O  O18  1  0.90368200  0.80253000  0.07393700  1
  O  O19  1  0.36217900  0.90464900  0.83511100  1
