# generated using pymatgen
data_H7ClO3
_symmetry_space_group_name_H-M   'P 1'
_cell_length_a   6.13661500
_cell_length_b   6.64303853
_cell_length_c   6.72187369
_cell_angle_alpha   105.13221217
_cell_angle_beta   110.87787775
_cell_angle_gamma   109.89714304
_symmetry_Int_Tables_number   1
_chemical_formula_structural   H7ClO3
_chemical_formula_sum   'H14 Cl2 O6'
_cell_volume   216.75498457
_cell_formula_units_Z   2
loop_
 _symmetry_equiv_pos_site_id
 _symmetry_equiv_pos_as_xyz
  1  'x, y, z'
loop_
 _atom_site_type_symbol
 _atom_site_label
 _atom_site_symmetry_multiplicity
 _atom_site_fract_x
 _atom_site_fract_y
 _atom_site_fract_z
 _atom_site_occupancy
  H  H0  1  0.39560300  0.03419000  0.23015800  1
  H  H1  1  0.57495400  0.27221800  0.46531400  1
  H  H2  1  0.91489900  0.20468300  0.08215300  1
  H  H3  1  0.17731500  0.45271600  0.08854900  1
  H  H4  1  0.06316500  0.45849100  0.31392800  1
  H  H5  1  0.74657600  0.66962500  0.78825200  1
  H  H6  1  0.45127300  0.53457300  0.56727400  1
  H  H7  1  0.22718100  0.78171300  0.65621500  1
  H  H8  1  0.93952800  0.56681000  0.54477000  1
  H  H9  1  0.73697200  0.83840100  0.57301400  1
  H  H10  1  0.00080100  0.02120700  0.57678900  1
  H  H11  1  0.70855400  0.05927400  0.46167900  1
  H  H12  1  0.40562500  0.44773300  0.97971300  1
  H  H13  1  0.23133000  0.56254400  0.86989900  1
  Cl  Cl14  1  0.42456700  0.13529900  0.79465800  1
  Cl  Cl15  1  0.97866200  0.83199700  0.11692100  1
  O  O16  1  0.58558200  0.15249100  0.35073000  1
  O  O17  1  0.07815800  0.35806100  0.18448500  1
  O  O18  1  0.63788100  0.59774800  0.60637500  1
  O  O19  1  0.12313200  0.60188400  0.59065800  1
  O  O20  1  0.83300300  0.00039600  0.57898300  1
  O  O21  1  0.32219100  0.54782700  0.01635100  1
