# generated using pymatgen
data_P(HO)3
_symmetry_space_group_name_H-M   'P 1'
_cell_length_a   7.53575300
_cell_length_b   6.96328100
_cell_length_c   13.99434384
_cell_angle_alpha   60.46872073
_cell_angle_beta   90.00000000
_cell_angle_gamma   90.00000000
_symmetry_Int_Tables_number   1
_chemical_formula_structural   P(HO)3
_chemical_formula_sum   'P8 H24 O24'
_cell_volume   638.93351054
_cell_formula_units_Z   8
loop_
 _symmetry_equiv_pos_site_id
 _symmetry_equiv_pos_as_xyz
  1  'x, y, z'
loop_
 _atom_site_type_symbol
 _atom_site_label
 _atom_site_symmetry_multiplicity
 _atom_site_fract_x
 _atom_site_fract_y
 _atom_site_fract_z
 _atom_site_occupancy
  P  P0  1  0.77211800  0.40285800  0.61894300  1
  P  P1  1  0.73730900  0.17167600  0.36418000  1
  P  P2  1  0.22788200  0.40285800  0.11894300  1
  P  P3  1  0.26269100  0.17167600  0.86418000  1
  P  P4  1  0.70175400  0.56796400  0.89519100  1
  P  P5  1  0.83006600  0.81891000  0.12778700  1
  P  P6  1  0.29824600  0.56796400  0.39519100  1
  P  P7  1  0.16993400  0.81891000  0.62778700  1
  H  H8  1  0.47918800  0.43636900  0.54534600  1
  H  H9  1  0.46544500  0.23598100  0.68656200  1
  H  H10  1  0.01982800  0.13279800  0.31524500  1
  H  H11  1  0.52081200  0.43636900  0.04534600  1
  H  H12  1  0.53455500  0.23598100  0.18656200  1
  H  H13  1  0.98017200  0.13279800  0.81524500  1
  H  H14  1  0.79639800  0.01854800  0.72842300  1
  H  H15  1  0.67968100  0.95565200  0.28132500  1
  H  H16  1  0.20360200  0.01854800  0.22842300  1
  H  H17  1  0.32031900  0.95565200  0.78132500  1
  H  H18  1  0.95559600  0.47900200  0.47954800  1
  H  H19  1  0.76822900  0.87598200  0.52632800  1
  H  H20  1  0.04440400  0.47900200  0.97954800  1
  H  H21  1  0.23177100  0.87598200  0.02632800  1
  H  H22  1  0.80719200  0.70509900  0.72651400  1
  H  H23  1  0.71320800  0.59229300  0.29374300  1
  H  H24  1  0.19280800  0.70509900  0.22651400  1
  H  H25  1  0.28679200  0.59229300  0.79374300  1
  H  H26  1  0.71527300  0.22309800  0.92912600  1
  H  H27  1  0.82438200  0.58542100  0.05920700  1
  H  H28  1  0.28472700  0.22309800  0.42912600  1
  H  H29  1  0.17561800  0.58542100  0.55920700  1
  H  H30  1  0.55391600  0.94635500  0.04697200  1
  H  H31  1  0.44608400  0.94635500  0.54697200  1
  O  O32  1  0.54597900  0.32786900  0.61348300  1
  O  O33  1  0.93325800  0.06880300  0.37754100  1
  O  O34  1  0.45402100  0.32786900  0.11348300  1
  O  O35  1  0.06674200  0.06880300  0.87754100  1
  O  O36  1  0.82606700  0.16747800  0.72206900  1
  O  O37  1  0.63784800  0.09415800  0.28015300  1
  O  O38  1  0.17393300  0.16747800  0.22206900  1
  O  O39  1  0.36215200  0.09415800  0.78015300  1
  O  O40  1  0.82808000  0.40226100  0.51019500  1
  O  O41  1  0.66951000  0.97720200  0.48698200  1
  O  O42  1  0.17192000  0.40226100  0.01019500  1
  O  O43  1  0.33049000  0.97720200  0.98698200  1
  O  O44  1  0.74012800  0.76932800  0.76461600  1
  O  O45  1  0.74790400  0.75010300  0.25119900  1
  O  O46  1  0.25987200  0.76932800  0.26461600  1
  O  O47  1  0.25209600  0.75010300  0.75119900  1
  O  O48  1  0.72550500  0.37365700  0.86314800  1
  O  O49  1  0.78021000  0.59335500  0.12801700  1
  O  O50  1  0.27449500  0.37365700  0.36314800  1
  O  O51  1  0.21979000  0.59335500  0.62801700  1
  O  O52  1  0.87118900  0.56416400  0.96164000  1
  O  O53  1  0.67815100  0.99536300  0.04722300  1
  O  O54  1  0.12881100  0.56416400  0.46164000  1
  O  O55  1  0.32184900  0.99536300  0.54722300  1
