# generated using pymatgen
data_Cu(HO)2
_symmetry_space_group_name_H-M   'P 1'
_cell_length_a   5.83180218
_cell_length_b   5.83180218
_cell_length_c   5.24399494
_cell_angle_alpha   89.29924479
_cell_angle_beta   89.29924479
_cell_angle_gamma   150.62663406
_symmetry_Int_Tables_number   1
_chemical_formula_structural   Cu(HO)2
_chemical_formula_sum   'Cu2 H4 O4'
_cell_volume   87.37754049
_cell_formula_units_Z   2
loop_
 _symmetry_equiv_pos_site_id
 _symmetry_equiv_pos_as_xyz
  1  'x, y, z'
loop_
 _atom_site_type_symbol
 _atom_site_label
 _atom_site_symmetry_multiplicity
 _atom_site_fract_x
 _atom_site_fract_y
 _atom_site_fract_z
 _atom_site_occupancy
  Cu  Cu0  1  0.22074900  0.86451400  0.71539300  1
  Cu  Cu1  1  0.86451400  0.22074900  0.21539300  1
  H  H2  1  0.55561700  0.51762900  0.57103100  1
  H  H3  1  0.51762900  0.55561700  0.07103100  1
  H  H4  1  0.96572700  0.23451500  0.69552800  1
  H  H5  1  0.23451500  0.96572700  0.19552800  1
  O  O6  1  0.58544800  0.46558700  0.73815100  1
  O  O7  1  0.46558700  0.58544800  0.23815100  1
  O  O8  1  0.84525700  0.26293000  0.78837500  1
  O  O9  1  0.26293000  0.84525700  0.28837500  1
