# generated using pymatgen
data_H6N4O9
_symmetry_space_group_name_H-M   'P 1'
_cell_length_a   13.71943600
_cell_length_b   4.53850400
_cell_length_c   6.94357118
_cell_angle_alpha   86.70079280
_cell_angle_beta   90.00000000
_cell_angle_gamma   90.00000000
_symmetry_Int_Tables_number   1
_chemical_formula_structural   H6N4O9
_chemical_formula_sum   'H12 N8 O18'
_cell_volume   431.62986026
_cell_formula_units_Z   2
loop_
 _symmetry_equiv_pos_site_id
 _symmetry_equiv_pos_as_xyz
  1  'x, y, z'
loop_
 _atom_site_type_symbol
 _atom_site_label
 _atom_site_symmetry_multiplicity
 _atom_site_fract_x
 _atom_site_fract_y
 _atom_site_fract_z
 _atom_site_occupancy
  H  H0  1  0.95854400  0.65322900  0.17741700  1
  H  H1  1  0.45854400  0.34677100  0.82258300  1
  H  H2  1  0.02089000  0.19067300  0.49850000  1
  H  H3  1  0.92751500  0.56236600  0.63253700  1
  H  H4  1  0.42751500  0.43763400  0.36746300  1
  H  H5  1  0.52089000  0.80932700  0.50150000  1
  H  H6  1  0.55587200  0.91314400  0.12119300  1
  H  H7  1  0.05587200  0.08685600  0.87880700  1
  H  H8  1  0.13527500  0.09625500  0.30602600  1
  H  H9  1  0.86247100  0.22955100  0.08340900  1
  H  H10  1  0.36247100  0.77044900  0.91659100  1
  H  H11  1  0.63527500  0.90374500  0.69397400  1
  N  N12  1  0.48903500  0.83542900  0.07246300  1
  N  N13  1  0.98903500  0.16457100  0.92753700  1
  N  N14  1  0.97909400  0.80796800  0.42054800  1
  N  N15  1  0.47909400  0.19203200  0.57945200  1
  N  N16  1  0.27168100  0.12743500  0.24211100  1
  N  N17  1  0.74407700  0.36925300  0.20877100  1
  N  N18  1  0.24407700  0.63074700  0.79122900  1
  N  N19  1  0.77168100  0.87256500  0.75788900  1
  O  O20  1  0.01765800  0.71060400  0.24624900  1
  O  O21  1  0.51765800  0.28939600  0.75375100  1
  O  O22  1  0.05501600  0.99939500  0.47908700  1
  O  O23  1  0.98728800  0.54945500  0.55498400  1
  O  O24  1  0.48728800  0.45054500  0.44501600  1
  O  O25  1  0.55501600  0.00060500  0.52091300  1
  O  O26  1  0.28606300  0.90147100  0.34221600  1
  O  O27  1  0.71769700  0.54752300  0.32160800  1
  O  O28  1  0.21769700  0.45247700  0.67839200  1
  O  O29  1  0.78606300  0.09852900  0.65778400  1
  O  O30  1  0.33356800  0.28730100  0.15863800  1
  O  O31  1  0.69650500  0.21481600  0.10535500  1
  O  O32  1  0.19650500  0.78518400  0.89464500  1
  O  O33  1  0.83356800  0.71269900  0.84136200  1
  O  O34  1  0.17775000  0.22364200  0.21361000  1
  O  O35  1  0.84760300  0.33825700  0.20012300  1
  O  O36  1  0.34760300  0.66174300  0.79987700  1
  O  O37  1  0.67775000  0.77635800  0.78639000  1
