# generated using pymatgen
data_Mn2HO4
_symmetry_space_group_name_H-M   'P 1'
_cell_length_a   2.96128900
_cell_length_b   4.74871900
_cell_length_c   9.90909600
_cell_angle_alpha   90.00000000
_cell_angle_beta   90.00000000
_cell_angle_gamma   90.00000000
_symmetry_Int_Tables_number   1
_chemical_formula_structural   Mn2HO4
_chemical_formula_sum   'Mn4 H2 O8'
_cell_volume   139.34497140
_cell_formula_units_Z   2
loop_
 _symmetry_equiv_pos_site_id
 _symmetry_equiv_pos_as_xyz
  1  'x, y, z'
loop_
 _atom_site_type_symbol
 _atom_site_label
 _atom_site_symmetry_multiplicity
 _atom_site_fract_x
 _atom_site_fract_y
 _atom_site_fract_z
 _atom_site_occupancy
  Mn  Mn0  1  0.00000000  0.22216100  0.63815200  1
  Mn  Mn1  1  0.00000000  0.77783900  0.13815200  1
  Mn  Mn2  1  0.50000000  0.29381600  0.35998400  1
  Mn  Mn3  1  0.50000000  0.70618400  0.85998400  1
  H  H4  1  0.00000000  0.70220500  0.46003900  1
  H  H5  1  0.00000000  0.29779500  0.96003900  1
  O  O6  1  0.00000000  0.49331900  0.45795700  1
  O  O7  1  0.00000000  0.50668100  0.95795700  1
  O  O8  1  0.50000000  0.05982900  0.52659800  1
  O  O9  1  0.50000000  0.94017100  0.02659800  1
  O  O10  1  0.00000000  0.90661400  0.78316600  1
  O  O11  1  0.00000000  0.09338600  0.28316600  1
  O  O12  1  0.50000000  0.58475900  0.22392400  1
  O  O13  1  0.50000000  0.41524100  0.72392400  1
