# generated using pymatgen
data_HNO
_symmetry_space_group_name_H-M   'P 1'
_cell_length_a   4.69036746
_cell_length_b   4.69036746
_cell_length_c   6.74572482
_cell_angle_alpha   72.37633799
_cell_angle_beta   72.37633799
_cell_angle_gamma   68.92930026
_symmetry_Int_Tables_number   1
_chemical_formula_structural   HNO
_chemical_formula_sum   'H4 N4 O4'
_cell_volume   128.80527879
_cell_formula_units_Z   4
loop_
 _symmetry_equiv_pos_site_id
 _symmetry_equiv_pos_as_xyz
  1  'x, y, z'
loop_
 _atom_site_type_symbol
 _atom_site_label
 _atom_site_symmetry_multiplicity
 _atom_site_fract_x
 _atom_site_fract_y
 _atom_site_fract_z
 _atom_site_occupancy
  H  H0  1  0.26324900  0.22727600  0.92435800  1
  H  H1  1  0.22727600  0.26324900  0.42435800  1
  H  H2  1  0.73675100  0.77272400  0.07564200  1
  H  H3  1  0.77272400  0.73675100  0.57564200  1
  N  N4  1  0.59473700  0.40526300  0.75000000  1
  N  N5  1  0.40526300  0.59473700  0.25000000  1
  N  N6  1  0.81437600  0.18562400  0.75000000  1
  N  N7  1  0.18562400  0.81437600  0.25000000  1
  O  O8  1  0.27677900  0.44371500  0.87230900  1
  O  O9  1  0.44371500  0.27677900  0.37230900  1
  O  O10  1  0.72322100  0.55628500  0.12769100  1
  O  O11  1  0.55628500  0.72322100  0.62769100  1
