# generated using pymatgen
data_AlHO2
_symmetry_space_group_name_H-M   'P 1'
_cell_length_a   2.88690000
_cell_length_b   4.91473400
_cell_length_c   8.50643100
_cell_angle_alpha   90.00000000
_cell_angle_beta   90.00000000
_cell_angle_gamma   90.00000000
_symmetry_Int_Tables_number   1
_chemical_formula_structural   AlHO2
_chemical_formula_sum   'Al4 H4 O8'
_cell_volume   120.69218272
_cell_formula_units_Z   4
loop_
 _symmetry_equiv_pos_site_id
 _symmetry_equiv_pos_as_xyz
  1  'x, y, z'
loop_
 _atom_site_type_symbol
 _atom_site_label
 _atom_site_symmetry_multiplicity
 _atom_site_fract_x
 _atom_site_fract_y
 _atom_site_fract_z
 _atom_site_occupancy
  Al  Al0  1  0.25000000  0.39613600  0.64942300  1
  Al  Al1  1  0.25000000  0.10386400  0.14942300  1
  Al  Al2  1  0.75000000  0.60386400  0.35057700  1
  Al  Al3  1  0.75000000  0.89613600  0.85057700  1
  H  H4  1  0.75000000  0.37060100  0.93115000  1
  H  H5  1  0.75000000  0.12939900  0.43115000  1
  H  H6  1  0.25000000  0.62939900  0.06885000  1
  H  H7  1  0.25000000  0.87060100  0.56885000  1
  O  O8  1  0.75000000  0.20832100  0.00243100  1
  O  O9  1  0.75000000  0.29167900  0.50243100  1
  O  O10  1  0.25000000  0.79167900  0.99756900  1
  O  O11  1  0.25000000  0.70832100  0.49756900  1
  O  O12  1  0.75000000  0.95015400  0.26019500  1
  O  O13  1  0.75000000  0.54984600  0.76019500  1
  O  O14  1  0.25000000  0.04984600  0.73980500  1
  O  O15  1  0.25000000  0.45015400  0.23980500  1
