# generated using pymatgen
data_H2W2O7
_symmetry_space_group_name_H-M   'P 1'
_cell_length_a   7.37322518
_cell_length_b   7.37132138
_cell_length_c   7.37057374
_cell_angle_alpha   60.02044406
_cell_angle_beta   59.99480887
_cell_angle_gamma   59.98474708
_symmetry_Int_Tables_number   1
_chemical_formula_structural   H2W2O7
_chemical_formula_sum   'H4 W4 O14'
_cell_volume   283.26247956
_cell_formula_units_Z   2
loop_
 _symmetry_equiv_pos_site_id
 _symmetry_equiv_pos_as_xyz
  1  'x, y, z'
loop_
 _atom_site_type_symbol
 _atom_site_label
 _atom_site_symmetry_multiplicity
 _atom_site_fract_x
 _atom_site_fract_y
 _atom_site_fract_z
 _atom_site_occupancy
  H  H0  1  0.81675800  0.77789900  0.83585100  1
  H  H1  1  0.83585100  0.56949200  0.81675800  1
  H  H2  1  0.68050800  0.41414900  0.47210100  1
  H  H3  1  0.47210100  0.43324200  0.68050800  1
  W  W4  1  0.24940900  0.00145800  0.74829800  1
  W  W5  1  0.24916500  0.50170200  0.24854200  1
  W  W6  1  0.74829800  0.00083500  0.24940900  1
  W  W7  1  0.24854200  0.00059100  0.24916500  1
  O  O8  1  0.94237000  0.05772000  0.30805200  1
  O  O9  1  0.30805200  0.69185800  0.94237000  1
  O  O10  1  0.30851000  0.69149000  0.30851000  1
  O  O11  1  0.94341900  0.05658100  0.94341900  1
  O  O12  1  0.30804700  0.05703000  0.94269200  1
  O  O13  1  0.94269200  0.69223100  0.30804700  1
  O  O14  1  0.55814200  0.94194800  0.19228000  1
  O  O15  1  0.19228000  0.30763000  0.55814200  1
  O  O16  1  0.19341900  0.30658100  0.19341900  1
  O  O17  1  0.55851000  0.94149000  0.55851000  1
  O  O18  1  0.19297000  0.94195300  0.55776900  1
  O  O19  1  0.55776900  0.30730800  0.19297000  1
  O  O20  1  0.88331200  0.61668800  0.88331200  1
  O  O21  1  0.63331200  0.36668800  0.63331200  1
