# generated using pymatgen
data_H9BrO4
_symmetry_space_group_name_H-M   'P 1'
_cell_length_a   11.33227300
_cell_length_b   7.22761600
_cell_length_c   7.95181535
_cell_angle_alpha   69.88084347
_cell_angle_beta   90.00000000
_cell_angle_gamma   90.00000000
_symmetry_Int_Tables_number   1
_chemical_formula_structural   H9BrO4
_chemical_formula_sum   'H36 Br4 O16'
_cell_volume   611.55342572
_cell_formula_units_Z   4
loop_
 _symmetry_equiv_pos_site_id
 _symmetry_equiv_pos_as_xyz
  1  'x, y, z'
loop_
 _atom_site_type_symbol
 _atom_site_label
 _atom_site_symmetry_multiplicity
 _atom_site_fract_x
 _atom_site_fract_y
 _atom_site_fract_z
 _atom_site_occupancy
  H  H0  1  0.68195400  0.65963700  0.04916200  1
  H  H1  1  0.81932700  0.65319800  0.08398000  1
  H  H2  1  0.18195400  0.34036300  0.95083800  1
  H  H3  1  0.31932700  0.34680200  0.91602000  1
  H  H4  1  0.82812700  0.05376900  0.12921400  1
  H  H5  1  0.74766300  0.92497100  0.03777700  1
  H  H6  1  0.32812700  0.94623100  0.87078600  1
  H  H7  1  0.24766300  0.07502900  0.96222300  1
  H  H8  1  0.74833000  0.19321400  0.94617100  1
  H  H9  1  0.74683700  0.33619100  0.68378500  1
  H  H10  1  0.81822300  0.44543500  0.79358300  1
  H  H11  1  0.31822300  0.55456500  0.20641700  1
  H  H12  1  0.24833000  0.80678600  0.05382900  1
  H  H13  1  0.24683700  0.66380900  0.31621500  1
  H  H14  1  0.68163500  0.31300200  0.42249100  1
  H  H15  1  0.81829400  0.36132400  0.41540800  1
  H  H16  1  0.18163500  0.68699800  0.57750900  1
  H  H17  1  0.31829400  0.63867600  0.58459200  1
  H  H18  1  0.85385600  0.87227200  0.47977800  1
  H  H19  1  0.76960100  0.02452100  0.52297900  1
  H  H20  1  0.35385600  0.12772800  0.52022200  1
  H  H21  1  0.26960100  0.97547900  0.47702100  1
  H  H22  1  0.59713400  0.64906500  0.39342100  1
  H  H23  1  0.68027800  0.81008600  0.47933200  1
  H  H24  1  0.09713400  0.35093500  0.60657900  1
  H  H25  1  0.18027800  0.18991400  0.52066800  1
  H  H26  1  0.48997900  0.55819300  0.73031600  1
  H  H27  1  0.45310600  0.35814600  0.70859400  1
  H  H28  1  0.95310600  0.64185400  0.29140600  1
  H  H29  1  0.98997900  0.44180700  0.26968400  1
  H  H30  1  0.49381600  0.00930600  0.06869300  1
  H  H31  1  0.39590200  0.01767400  0.20828000  1
  H  H32  1  0.55036300  0.87140400  0.34114600  1
  H  H33  1  0.89590200  0.98232600  0.79172000  1
  H  H34  1  0.99381600  0.99069400  0.93130700  1
  H  H35  1  0.05036300  0.12859600  0.65885400  1
  Br  Br36  1  0.49772800  0.03328100  0.75495200  1
  Br  Br37  1  0.99772800  0.96671900  0.24504800  1
  Br  Br38  1  0.53581200  0.47685100  0.23573800  1
  Br  Br39  1  0.03581200  0.52314900  0.76426200  1
  O  O40  1  0.75590200  0.73684200  0.01022000  1
  O  O41  1  0.25590200  0.26315800  0.98978000  1
  O  O42  1  0.75042400  0.06007900  0.06446600  1
  O  O43  1  0.25042400  0.93992100  0.93553400  1
  O  O44  1  0.74602100  0.36789300  0.79732500  1
  O  O45  1  0.24602100  0.63210700  0.20267500  1
  O  O46  1  0.75620600  0.27430400  0.49247600  1
  O  O47  1  0.25620600  0.72569600  0.50752400  1
  O  O48  1  0.77940300  0.88090500  0.54191800  1
  O  O49  1  0.27940300  0.11909500  0.45808200  1
  O  O50  1  0.59597600  0.76180600  0.44193800  1
  O  O51  1  0.09597600  0.23819400  0.55806200  1
  O  O52  1  0.42128400  0.47898100  0.72606400  1
  O  O53  1  0.92128400  0.52101900  0.27393600  1
  O  O54  1  0.48020900  0.00480600  0.19304900  1
  O  O55  1  0.98020900  0.99519400  0.80695100  1
