# generated using pymatgen
data_MoH4O5
_symmetry_space_group_name_H-M   'P 1'
_cell_length_a   4.08004200
_cell_length_b   7.00149823
_cell_length_c   7.54981391
_cell_angle_alpha   92.51211592
_cell_angle_beta   91.51193341
_cell_angle_gamma   99.81550072
_symmetry_Int_Tables_number   1
_chemical_formula_structural   MoH4O5
_chemical_formula_sum   'Mo2 H8 O10'
_cell_volume   212.18418419
_cell_formula_units_Z   2
loop_
 _symmetry_equiv_pos_site_id
 _symmetry_equiv_pos_as_xyz
  1  'x, y, z'
loop_
 _atom_site_type_symbol
 _atom_site_label
 _atom_site_symmetry_multiplicity
 _atom_site_fract_x
 _atom_site_fract_y
 _atom_site_fract_z
 _atom_site_occupancy
  Mo  Mo0  1  0.92059100  0.99787400  0.74866200  1
  Mo  Mo1  1  0.07940900  0.00212600  0.25133800  1
  H  H2  1  0.63386400  0.58569800  0.09040400  1
  H  H3  1  0.36613600  0.41430200  0.90959600  1
  H  H4  1  0.36736000  0.42058400  0.40550600  1
  H  H5  1  0.63264000  0.57941600  0.59449400  1
  H  H6  1  0.96167500  0.64710200  0.84188500  1
  H  H7  1  0.04871600  0.35259600  0.66665100  1
  H  H8  1  0.03832500  0.35289800  0.15811500  1
  H  H9  1  0.95128400  0.64740400  0.33334900  1
  O  O10  1  0.00000000  0.00000000  0.00000000  1
  O  O11  1  0.00000000  0.00000000  0.50000000  1
  O  O12  1  0.50000000  0.50000000  0.00000000  1
  O  O13  1  0.50000000  0.50000000  0.50000000  1
  O  O14  1  0.49515400  0.99708100  0.74174000  1
  O  O15  1  0.50484600  0.00291900  0.25826000  1
  O  O16  1  0.91856500  0.71953700  0.73662300  1
  O  O17  1  0.07690400  0.27798500  0.77275700  1
  O  O18  1  0.08143500  0.28046300  0.26337700  1
  O  O19  1  0.92309600  0.72201500  0.22724300  1
