# generated using pymatgen
data_Mn(HO)2
_symmetry_space_group_name_H-M   'P 1'
_cell_length_a   3.37010900
_cell_length_b   3.37491405
_cell_length_c   5.00514480
_cell_angle_alpha   97.61784782
_cell_angle_beta   87.94528202
_cell_angle_gamma   119.90851379
_symmetry_Int_Tables_number   1
_chemical_formula_structural   Mn(HO)2
_chemical_formula_sum   'Mn1 H2 O2'
_cell_volume   48.88035336
_cell_formula_units_Z   1
loop_
 _symmetry_equiv_pos_site_id
 _symmetry_equiv_pos_as_xyz
  1  'x, y, z'
loop_
 _atom_site_type_symbol
 _atom_site_label
 _atom_site_symmetry_multiplicity
 _atom_site_fract_x
 _atom_site_fract_y
 _atom_site_fract_z
 _atom_site_occupancy
  Mn  Mn0  1  0.05157600  0.00585900  0.97690000  1
  H  H1  1  0.43023000  0.58133400  0.56899500  1
  H  H2  1  0.84494900  0.44931800  0.38403200  1
  O  O3  1  0.37527000  0.62000300  0.76079100  1
  O  O4  1  0.73661400  0.40600800  0.19888800  1
