# generated using pymatgen
data_La(HO)3
_symmetry_space_group_name_H-M   'P 1'
_cell_length_a   6.52603243
_cell_length_b   6.52603243
_cell_length_c   3.87328800
_cell_angle_alpha   90.00000000
_cell_angle_beta   90.00000000
_cell_angle_gamma   120.00000441
_symmetry_Int_Tables_number   1
_chemical_formula_structural   La(HO)3
_chemical_formula_sum   'La2 H6 O6'
_cell_volume   142.85941211
_cell_formula_units_Z   2
loop_
 _symmetry_equiv_pos_site_id
 _symmetry_equiv_pos_as_xyz
  1  'x, y, z'
loop_
 _atom_site_type_symbol
 _atom_site_label
 _atom_site_symmetry_multiplicity
 _atom_site_fract_x
 _atom_site_fract_y
 _atom_site_fract_z
 _atom_site_occupancy
  La  La0  1  0.33333300  0.66666700  0.30908700  1
  La  La1  1  0.66666700  0.33333300  0.80908700  1
  H  H2  1  0.87251100  0.72476600  0.37124500  1
  H  H3  1  0.85225400  0.12748900  0.37124500  1
  H  H4  1  0.27523400  0.14774600  0.37124500  1
  H  H5  1  0.12748900  0.27523400  0.87124500  1
  H  H6  1  0.14774600  0.87251100  0.87124500  1
  H  H7  1  0.72476600  0.85225400  0.87124500  1
  O  O8  1  0.92211600  0.61490600  0.28690300  1
  O  O9  1  0.69278900  0.07788400  0.28690300  1
  O  O10  1  0.38509400  0.30721100  0.28690300  1
  O  O11  1  0.07788400  0.38509400  0.78690300  1
  O  O12  1  0.30721100  0.92211600  0.78690300  1
  O  O13  1  0.61490600  0.69278900  0.78690300  1
