# generated using pymatgen
data_MoH4O5
_symmetry_space_group_name_H-M   'P 1'
_cell_length_a   8.24561800
_cell_length_b   4.31470000
_cell_length_c   6.45686881
_cell_angle_alpha   78.64307181
_cell_angle_beta   90.00000000
_cell_angle_gamma   90.00000000
_symmetry_Int_Tables_number   1
_chemical_formula_structural   MoH4O5
_chemical_formula_sum   'Mo2 H8 O10'
_cell_volume   225.22039338
_cell_formula_units_Z   2
loop_
 _symmetry_equiv_pos_site_id
 _symmetry_equiv_pos_as_xyz
  1  'x, y, z'
loop_
 _atom_site_type_symbol
 _atom_site_label
 _atom_site_symmetry_multiplicity
 _atom_site_fract_x
 _atom_site_fract_y
 _atom_site_fract_z
 _atom_site_occupancy
  Mo  Mo0  1  0.69664400  0.55998100  0.48495600  1
  Mo  Mo1  1  0.19664400  0.44001900  0.51504400  1
  H  H2  1  0.05416600  0.12680500  0.05195700  1
  H  H3  1  0.55416600  0.87319500  0.94804300  1
  H  H4  1  0.72398800  0.10347900  0.30231400  1
  H  H5  1  0.22398800  0.89652100  0.69768600  1
  H  H6  1  0.92722600  0.85473800  0.05765900  1
  H  H7  1  0.83503000  0.30095600  0.85103400  1
  H  H8  1  0.42722600  0.14526200  0.94234100  1
  H  H9  1  0.33503000  0.69904400  0.14896600  1
  O  O10  1  0.98665100  0.49348200  0.51350700  1
  O  O11  1  0.48665100  0.50651800  0.48649300  1
  O  O12  1  0.97230300  0.04541800  0.96840700  1
  O  O13  1  0.47230300  0.95458200  0.03159300  1
  O  O14  1  0.71755300  0.02296800  0.45628300  1
  O  O15  1  0.21755300  0.97703200  0.54371700  1
  O  O16  1  0.75858300  0.56367900  0.22259500  1
  O  O17  1  0.73846000  0.41933600  0.77730200  1
  O  O18  1  0.25858300  0.43632100  0.77740500  1
  O  O19  1  0.23846000  0.58066400  0.22269800  1
