# generated using pymatgen
data_TeHO3
_symmetry_space_group_name_H-M   'P 1'
_cell_length_a   11.52333400
_cell_length_b   4.98984500
_cell_length_c   9.73161515
_cell_angle_alpha   59.22709889
_cell_angle_beta   90.00000000
_cell_angle_gamma   90.00000000
_symmetry_Int_Tables_number   1
_chemical_formula_structural   TeHO3
_chemical_formula_sum   'Te8 H8 O24'
_cell_volume   480.77890054
_cell_formula_units_Z   8
loop_
 _symmetry_equiv_pos_site_id
 _symmetry_equiv_pos_as_xyz
  1  'x, y, z'
loop_
 _atom_site_type_symbol
 _atom_site_label
 _atom_site_symmetry_multiplicity
 _atom_site_fract_x
 _atom_site_fract_y
 _atom_site_fract_z
 _atom_site_occupancy
  Te  Te0  1  0.63526200  0.43555100  0.54389700  1
  Te  Te1  1  0.86241000  0.02735100  0.45110700  1
  Te  Te2  1  0.36473800  0.43555100  0.04389700  1
  Te  Te3  1  0.13759000  0.02735100  0.95110700  1
  Te  Te4  1  0.34834100  0.18473800  0.66612800  1
  Te  Te5  1  0.15268200  0.01724100  0.33002600  1
  Te  Te6  1  0.65165900  0.18473800  0.16612800  1
  Te  Te7  1  0.84731800  0.01724100  0.83002600  1
  H  H8  1  0.55327700  0.46534100  0.78199300  1
  H  H9  1  0.93639600  0.58312100  0.31458500  1
  H  H10  1  0.44672300  0.46534100  0.28199300  1
  H  H11  1  0.06360400  0.58312100  0.81458500  1
  H  H12  1  0.38410100  0.93070500  0.51589800  1
  H  H13  1  0.12484300  0.46498400  0.50803500  1
  H  H14  1  0.61589900  0.93070500  0.01589800  1
  H  H15  1  0.87515700  0.46498400  0.00803500  1
  O  O16  1  0.68487200  0.05709900  0.73340500  1
  O  O17  1  0.81318700  0.03026900  0.25992500  1
  O  O18  1  0.31512800  0.05709900  0.23340500  1
  O  O19  1  0.18681300  0.03026900  0.75992500  1
  O  O20  1  0.77053200  0.63878000  0.58568700  1
  O  O21  1  0.72938300  0.32093700  0.40852000  1
  O  O22  1  0.22946800  0.63878000  0.08568700  1
  O  O23  1  0.27061700  0.32093700  0.90852000  1
  O  O24  1  0.53203100  0.54425000  0.66893800  1
  O  O25  1  0.96311900  0.38538000  0.32644800  1
  O  O26  1  0.46796900  0.54425000  0.16893800  1
  O  O27  1  0.03688100  0.38538000  0.82644800  1
  O  O28  1  0.91613800  0.00898800  0.64890400  1
  O  O29  1  0.58259500  0.82923100  0.35394900  1
  O  O30  1  0.08386200  0.00898800  0.14890400  1
  O  O31  1  0.41740500  0.82923100  0.85394900  1
  O  O32  1  0.30888800  0.95274300  0.55832000  1
  O  O33  1  0.19454700  0.57176500  0.44451200  1
  O  O34  1  0.69111200  0.95274300  0.05832000  1
  O  O35  1  0.80545300  0.57176500  0.94451200  1
  O  O36  1  0.49954500  0.25287100  0.51208700  1
  O  O37  1  0.99494800  0.79006300  0.45817300  1
  O  O38  1  0.50045500  0.25287100  0.01208700  1
  O  O39  1  0.00505200  0.79006300  0.95817300  1
