# generated using pymatgen
data_Co(HO)2
_symmetry_space_group_name_H-M   'P 1'
_cell_length_a   3.18864196
_cell_length_b   3.18864196
_cell_length_c   4.80977853
_cell_angle_alpha   87.46235029
_cell_angle_beta   87.46235029
_cell_angle_gamma   61.01705468
_symmetry_Int_Tables_number   1
_chemical_formula_structural   Co(HO)2
_chemical_formula_sum   'Co1 H2 O2'
_cell_volume   42.72216331
_cell_formula_units_Z   1
loop_
 _symmetry_equiv_pos_site_id
 _symmetry_equiv_pos_as_xyz
  1  'x, y, z'
loop_
 _atom_site_type_symbol
 _atom_site_label
 _atom_site_symmetry_multiplicity
 _atom_site_fract_x
 _atom_site_fract_y
 _atom_site_fract_z
 _atom_site_occupancy
  Co  Co0  1  0.02191600  0.97808400  0.00000000  1
  H  H1  1  0.81623400  0.59524200  0.58513000  1
  H  H2  1  0.40475800  0.18376600  0.41487000  1
  O  O3  1  0.71941400  0.64837700  0.78056800  1
  O  O4  1  0.35162300  0.28058600  0.21943200  1
