# generated using pymatgen
data_Ta2H4O7
_symmetry_space_group_name_H-M   'P 1'
_cell_length_a   7.98831155
_cell_length_b   7.43682565
_cell_length_c   7.32420654
_cell_angle_alpha   65.52223328
_cell_angle_beta   57.91816807
_cell_angle_gamma   56.55959865
_symmetry_Int_Tables_number   1
_chemical_formula_structural   Ta2H4O7
_chemical_formula_sum   'Ta4 H8 O14'
_cell_volume   303.05060338
_cell_formula_units_Z   2
loop_
 _symmetry_equiv_pos_site_id
 _symmetry_equiv_pos_as_xyz
  1  'x, y, z'
loop_
 _atom_site_type_symbol
 _atom_site_label
 _atom_site_symmetry_multiplicity
 _atom_site_fract_x
 _atom_site_fract_y
 _atom_site_fract_z
 _atom_site_occupancy
  Ta  Ta0  1  0.25445000  0.52814000  0.77118800  1
  Ta  Ta1  1  0.72186000  0.99555000  0.80377800  1
  Ta  Ta2  1  0.77118800  0.44622200  0.25445000  1
  Ta  Ta3  1  0.80377800  0.47881200  0.72186000  1
  H  H4  1  0.58942900  0.91057100  0.58942900  1
  H  H5  1  0.52286200  0.98421700  0.25748000  1
  H  H6  1  0.25748000  0.23544100  0.52286200  1
  H  H7  1  0.33942900  0.66057100  0.33942900  1
  H  H8  1  0.01455900  0.99252000  0.26578300  1
  H  H9  1  0.26578300  0.72713800  0.01455900  1
  H  H10  1  0.29483600  0.20516400  0.29483600  1
  H  H11  1  0.04483600  0.95516400  0.04483600  1
  O  O12  1  0.02112600  0.78708700  0.69584800  1
  O  O13  1  0.69584800  0.49593800  0.02112600  1
  O  O14  1  0.04732900  0.45267100  0.04732900  1
  O  O15  1  0.67673800  0.82326300  0.67673700  1
  O  O16  1  0.62998500  0.88704700  0.10219200  1
  O  O17  1  0.10219200  0.38077700  0.62998500  1
  O  O18  1  0.46291300  0.22887400  0.75406200  1
  O  O19  1  0.75406200  0.55415200  0.46291300  1
  O  O20  1  0.42673700  0.57326300  0.42673700  1
  O  O21  1  0.79732900  0.20267100  0.79732900  1
  O  O22  1  0.86922300  0.14780800  0.36295300  1
  O  O23  1  0.36295300  0.62001500  0.86922300  1
  O  O24  1  0.38250300  0.11749700  0.38250300  1
  O  O25  1  0.13250300  0.86749700  0.13250300  1
