# generated using pymatgen
data_H7NO6
_symmetry_space_group_name_H-M   'P 1'
_cell_length_a   3.51849700
_cell_length_b   9.99437700
_cell_length_c   14.87366400
_cell_angle_alpha   90.00000000
_cell_angle_beta   90.00000000
_cell_angle_gamma   90.00000000
_symmetry_Int_Tables_number   1
_chemical_formula_structural   H7NO6
_chemical_formula_sum   'H28 N4 O24'
_cell_volume   523.03515350
_cell_formula_units_Z   4
loop_
 _symmetry_equiv_pos_site_id
 _symmetry_equiv_pos_as_xyz
  1  'x, y, z'
loop_
 _atom_site_type_symbol
 _atom_site_label
 _atom_site_symmetry_multiplicity
 _atom_site_fract_x
 _atom_site_fract_y
 _atom_site_fract_z
 _atom_site_occupancy
  H  H0  1  0.34242000  0.58484600  0.73793100  1
  H  H1  1  0.84242000  0.91515400  0.26206900  1
  H  H2  1  0.65758000  0.08484600  0.76206900  1
  H  H3  1  0.15758000  0.41515400  0.23793100  1
  H  H4  1  0.96746400  0.48207700  0.66639100  1
  H  H5  1  0.26545100  0.53872600  0.59126500  1
  H  H6  1  0.76545100  0.96127400  0.40873500  1
  H  H7  1  0.46746400  0.01792300  0.33360900  1
  H  H8  1  0.73454900  0.03872600  0.90873500  1
  H  H9  1  0.03253600  0.98207700  0.83360900  1
  H  H10  1  0.23454900  0.46127400  0.09126500  1
  H  H11  1  0.53253600  0.51792300  0.16639100  1
  H  H12  1  0.16226300  0.41078900  0.95945600  1
  H  H13  1  0.15661100  0.56785600  0.97484000  1
  H  H14  1  0.66226300  0.08921100  0.04054400  1
  H  H15  1  0.65661100  0.93214400  0.02516000  1
  H  H16  1  0.83773700  0.91078900  0.54054400  1
  H  H17  1  0.84338900  0.06785600  0.52516000  1
  H  H18  1  0.33773700  0.58921100  0.45945600  1
  H  H19  1  0.34338900  0.43214400  0.47484000  1
  H  H20  1  0.14344800  0.20732800  0.88137600  1
  H  H21  1  0.46892700  0.29922900  0.84406900  1
  H  H22  1  0.64344800  0.29267200  0.11862400  1
  H  H23  1  0.96892700  0.20077100  0.15593100  1
  H  H24  1  0.53107300  0.79922900  0.65593100  1
  H  H25  1  0.85655200  0.70732800  0.61862400  1
  H  H26  1  0.03107300  0.70077100  0.34406900  1
  H  H27  1  0.35655200  0.79267200  0.38137700  1
  N  N28  1  0.31465500  0.72416800  0.83270300  1
  N  N29  1  0.81465500  0.77583200  0.16729700  1
  N  N30  1  0.68534500  0.22416800  0.66729700  1
  N  N31  1  0.18534500  0.27583200  0.33270300  1
  O  O32  1  0.43726000  0.60178800  0.80744700  1
  O  O33  1  0.93726000  0.89821200  0.19255300  1
  O  O34  1  0.56274000  0.10178800  0.69255300  1
  O  O35  1  0.06274000  0.39821200  0.30744700  1
  O  O36  1  0.28423400  0.81269000  0.77441700  1
  O  O37  1  0.78423400  0.68731000  0.22558300  1
  O  O38  1  0.71576600  0.31269000  0.72558300  1
  O  O39  1  0.21576600  0.18731000  0.27441700  1
  O  O40  1  0.24226700  0.73936700  0.91316900  1
  O  O41  1  0.74226700  0.76063300  0.08683100  1
  O  O42  1  0.75773300  0.23936700  0.58683100  1
  O  O43  1  0.25773300  0.26063300  0.41316900  1
  O  O44  1  0.14826600  0.55545700  0.65673900  1
  O  O45  1  0.64826600  0.94454300  0.34326100  1
  O  O46  1  0.85173400  0.05545700  0.84326100  1
  O  O47  1  0.35173400  0.44454300  0.15673900  1
  O  O48  1  0.07889700  0.48309900  0.00229800  1
  O  O49  1  0.57889700  0.01690100  0.99770200  1
  O  O50  1  0.92110300  0.98309900  0.49770200  1
  O  O51  1  0.42110300  0.51690100  0.50229800  1
  O  O52  1  0.29861100  0.28658000  0.89522700  1
  O  O53  1  0.79861100  0.21342000  0.10477300  1
  O  O54  1  0.70138900  0.78658000  0.60477300  1
  O  O55  1  0.20138900  0.71342000  0.39522700  1
