# generated using pymatgen
data_CeMg5
_symmetry_space_group_name_H-M   'P 1'
_cell_length_a   6.36620822
_cell_length_b   6.36620822
_cell_length_c   6.36620770
_cell_angle_alpha   52.37343934
_cell_angle_beta   52.37343934
_cell_angle_gamma   52.37343685
_symmetry_Int_Tables_number   1
_chemical_formula_structural   CeMg5
_chemical_formula_sum   'Ce1 Mg5'
_cell_volume   149.76586129
_cell_formula_units_Z   1
loop_
 _symmetry_equiv_pos_site_id
 _symmetry_equiv_pos_as_xyz
  1  'x, y, z'
loop_
 _atom_site_type_symbol
 _atom_site_label
 _atom_site_symmetry_multiplicity
 _atom_site_fract_x
 _atom_site_fract_y
 _atom_site_fract_z
 _atom_site_occupancy
  Ce  Ce0  1  0.50000000  0.50000000  0.50000000  1
  Mg  Mg1  1  0.00000000  0.66858000  0.33142000  1
  Mg  Mg2  1  0.16663700  0.16663700  0.16663700  1
  Mg  Mg3  1  0.33142000  0.00000000  0.66858000  1
  Mg  Mg4  1  0.66858000  0.33142000  0.00000000  1
  Mg  Mg5  1  0.83336300  0.83336300  0.83336300  1
