# generated using pymatgen
data_Sr(H8O5)2
_symmetry_space_group_name_H-M   'P 1'
_cell_length_a   6.53544621
_cell_length_b   6.53544621
_cell_length_c   11.40971384
_cell_angle_alpha   85.90940769
_cell_angle_beta   85.90940769
_cell_angle_gamma   84.07266503
_symmetry_Int_Tables_number   1
_chemical_formula_structural   Sr(H8O5)2
_chemical_formula_sum   'Sr2 H32 O20'
_cell_volume   482.48606842
_cell_formula_units_Z   2
loop_
 _symmetry_equiv_pos_site_id
 _symmetry_equiv_pos_as_xyz
  1  'x, y, z'
loop_
 _atom_site_type_symbol
 _atom_site_label
 _atom_site_symmetry_multiplicity
 _atom_site_fract_x
 _atom_site_fract_y
 _atom_site_fract_z
 _atom_site_occupancy
  Sr  Sr0  1  0.97472900  0.99800900  0.74650600  1
  Sr  Sr1  1  0.99800900  0.97472900  0.24650600  1
  H  H2  1  0.74573800  0.61362700  0.66205700  1
  H  H3  1  0.87779800  0.69709500  0.55093400  1
  H  H4  1  0.08709000  0.42208000  0.65224700  1
  H  H5  1  0.13130200  0.31748000  0.53218800  1
  H  H6  1  0.36277600  0.97319700  0.61589000  1
  H  H7  1  0.38548000  0.72045200  0.64206800  1
  H  H8  1  0.59101100  0.03737000  0.65303400  1
  H  H9  1  0.59381800  0.29135400  0.64093500  1
  H  H10  1  0.03737000  0.59101100  0.15303400  1
  H  H11  1  0.29135400  0.59381800  0.14093500  1
  H  H12  1  0.72045200  0.38548000  0.14206800  1
  H  H13  1  0.97319700  0.36277600  0.11589000  1
  H  H14  1  0.61362700  0.74573800  0.16205700  1
  H  H15  1  0.69709500  0.87779800  0.05093400  1
  H  H16  1  0.42208000  0.08709000  0.15224700  1
  H  H17  1  0.31748000  0.13130200  0.03218800  1
  H  H18  1  0.31498900  0.41592500  0.31873300  1
  H  H19  1  0.98225500  0.28883700  0.38963600  1
  H  H20  1  0.97822100  0.54976700  0.38939800  1
  H  H21  1  0.73400600  0.65213000  0.37643700  1
  H  H22  1  0.62411700  0.27703000  0.35188200  1
  H  H23  1  0.69879700  0.14389500  0.46589800  1
  H  H24  1  0.37621000  0.71780600  0.35111200  1
  H  H25  1  0.30913900  0.86089700  0.45424500  1
  H  H26  1  0.71780600  0.37621000  0.85111200  1
  H  H27  1  0.86089700  0.30913900  0.95424500  1
  H  H28  1  0.27703000  0.62411700  0.85188200  1
  H  H29  1  0.14389500  0.69879700  0.96589800  1
  H  H30  1  0.28883700  0.98225500  0.88963600  1
  H  H31  1  0.41592500  0.31498900  0.81873300  1
  H  H32  1  0.65213000  0.73400600  0.87643700  1
  H  H33  1  0.54976700  0.97822100  0.88939800  1
  O  O34  1  0.51961000  0.50312200  0.68000300  1
  O  O35  1  0.50312200  0.51961000  0.18000300  1
  O  O36  1  0.45653400  0.47453400  0.30790700  1
  O  O37  1  0.47453400  0.45653400  0.80790700  1
  O  O38  1  0.87101700  0.68971900  0.63868400  1
  O  O39  1  0.13419500  0.28698200  0.62063200  1
  O  O40  1  0.29243000  0.84915900  0.61475300  1
  O  O41  1  0.66863400  0.14667100  0.61746500  1
  O  O42  1  0.14667100  0.66863400  0.11746500  1
  O  O43  1  0.84915900  0.29243000  0.11475300  1
  O  O44  1  0.68971900  0.87101700  0.13868400  1
  O  O45  1  0.28698200  0.13419500  0.12063200  1
  O  O46  1  0.09997800  0.37160200  0.39084600  1
  O  O47  1  0.86869400  0.69381800  0.39117200  1
  O  O48  1  0.73182100  0.16893900  0.37956000  1
  O  O49  1  0.31645300  0.85899800  0.36757500  1
  O  O50  1  0.85899800  0.31645300  0.86757500  1
  O  O51  1  0.16893900  0.73182100  0.87956000  1
  O  O52  1  0.37160200  0.09997800  0.89084600  1
  O  O53  1  0.69381800  0.86869400  0.89117200  1
