# generated using pymatgen
data_U(HO2)2
_symmetry_space_group_name_H-M   'P 1'
_cell_length_a   5.31809200
_cell_length_b   5.49119100
_cell_length_c   6.10781221
_cell_angle_alpha   70.81202596
_cell_angle_beta   90.00000000
_cell_angle_gamma   90.00000000
_symmetry_Int_Tables_number   1
_chemical_formula_structural   U(HO2)2
_chemical_formula_sum   'U2 H4 O8'
_cell_volume   168.45539201
_cell_formula_units_Z   2
loop_
 _symmetry_equiv_pos_site_id
 _symmetry_equiv_pos_as_xyz
  1  'x, y, z'
loop_
 _atom_site_type_symbol
 _atom_site_label
 _atom_site_symmetry_multiplicity
 _atom_site_fract_x
 _atom_site_fract_y
 _atom_site_fract_z
 _atom_site_occupancy
  U  U0  1  0.50000000  0.00000000  0.50000000  1
  U  U1  1  0.00000000  0.00000000  0.00000000  1
  H  H2  1  0.69283500  0.47188600  0.64081000  1
  H  H3  1  0.19283500  0.52811400  0.85919000  1
  H  H4  1  0.30716500  0.52811400  0.35919000  1
  H  H5  1  0.80716500  0.47188600  0.14081000  1
  O  O6  1  0.68313000  0.65885400  0.62692100  1
  O  O7  1  0.18313000  0.34114600  0.87307900  1
  O  O8  1  0.31687000  0.34114600  0.37307900  1
  O  O9  1  0.81687000  0.65885400  0.12692100  1
  O  O10  1  0.21731700  0.85532700  0.80523400  1
  O  O11  1  0.71731700  0.14467300  0.69476600  1
  O  O12  1  0.78268300  0.14467300  0.19476600  1
  O  O13  1  0.28268300  0.85532700  0.30523400  1
