# generated using pymatgen
data_Sr(H8O5)2
_symmetry_space_group_name_H-M   'P 1'
_cell_length_a   5.76633300
_cell_length_b   6.37467171
_cell_length_c   6.95410207
_cell_angle_alpha   89.62683150
_cell_angle_beta   87.83032346
_cell_angle_gamma   88.82750975
_symmetry_Int_Tables_number   1
_chemical_formula_structural   Sr(H8O5)2
_chemical_formula_sum   'Sr1 H16 O10'
_cell_volume   255.38126779
_cell_formula_units_Z   1
loop_
 _symmetry_equiv_pos_site_id
 _symmetry_equiv_pos_as_xyz
  1  'x, y, z'
loop_
 _atom_site_type_symbol
 _atom_site_label
 _atom_site_symmetry_multiplicity
 _atom_site_fract_x
 _atom_site_fract_y
 _atom_site_fract_z
 _atom_site_occupancy
  Sr  Sr0  1  0.00354200  0.98827500  0.99416100  1
  H  H1  1  0.26107300  0.29367100  0.31668800  1
  H  H2  1  0.25298300  0.41239600  0.12665500  1
  H  H3  1  0.31354900  0.68604000  0.64324200  1
  H  H4  1  0.45210700  0.79307000  0.80099800  1
  H  H5  1  0.29223900  0.07642600  0.67926500  1
  H  H6  1  0.30954900  0.33473100  0.64150600  1
  H  H7  1  0.27308800  0.66627700  0.31182900  1
  H  H8  1  0.44934400  0.75778800  0.17083400  1
  H  H9  1  0.72351800  0.63740200  0.69741000  1
  H  H10  1  0.73918300  0.57990400  0.91519000  1
  H  H11  1  0.57588300  0.22964500  0.19987800  1
  H  H12  1  0.71463800  0.32650700  0.36437800  1
  H  H13  1  0.70650900  0.68640000  0.35932200  1
  H  H14  1  0.70669500  0.94042500  0.31134900  1
  H  H15  1  0.53976600  0.22084500  0.82018800  1
  H  H16  1  0.74542600  0.31062200  0.70363100  1
  O  O17  1  0.38639300  0.50482600  0.50843500  1
  O  O18  1  0.64752100  0.51406600  0.50823200  1
  O  O19  1  0.25699500  0.26680800  0.17693600  1
  O  O20  1  0.29949500  0.80872400  0.74096400  1
  O  O21  1  0.26042400  0.21569500  0.73948900  1
  O  O22  1  0.28011000  0.72446600  0.17792100  1
  O  O23  1  0.74946400  0.70189200  0.83023600  1
  O  O24  1  0.72508000  0.21036300  0.26292300  1
  O  O25  1  0.72841400  0.79936900  0.25198200  1
  O  O26  1  0.71264900  0.23413100  0.82535200  1
