# generated using pymatgen
data_Pr(HO)3
_symmetry_space_group_name_H-M   'P 1'
_cell_length_a   3.73877500
_cell_length_b   6.55565800
_cell_length_c   6.57667335
_cell_angle_alpha   61.02315153
_cell_angle_beta   90.00000000
_cell_angle_gamma   90.00000000
_symmetry_Int_Tables_number   1
_chemical_formula_structural   Pr(HO)3
_chemical_formula_sum   'Pr2 H6 O6'
_cell_volume   141.01599507
_cell_formula_units_Z   2
loop_
 _symmetry_equiv_pos_site_id
 _symmetry_equiv_pos_as_xyz
  1  'x, y, z'
loop_
 _atom_site_type_symbol
 _atom_site_label
 _atom_site_symmetry_multiplicity
 _atom_site_fract_x
 _atom_site_fract_y
 _atom_site_fract_z
 _atom_site_occupancy
  Pr  Pr0  1  0.25000000  0.67125400  0.66723300  1
  Pr  Pr1  1  0.75000000  0.32874600  0.33276700  1
  H  H2  1  0.25000000  0.70505600  0.14685500  1
  H  H3  1  0.25000000  0.15937400  0.70177500  1
  H  H4  1  0.25000000  0.14273400  0.12347200  1
  H  H5  1  0.75000000  0.29494400  0.85314500  1
  H  H6  1  0.75000000  0.84062600  0.29822500  1
  H  H7  1  0.75000000  0.85726600  0.87652800  1
  O  O8  1  0.25000000  0.60105900  0.31397000  1
  O  O9  1  0.25000000  0.08731900  0.60274500  1
  O  O10  1  0.25000000  0.30826800  0.07714300  1
  O  O11  1  0.75000000  0.39894100  0.68603000  1
  O  O12  1  0.75000000  0.91268100  0.39725500  1
  O  O13  1  0.75000000  0.69173200  0.92285700  1
