# generated using pymatgen
data_MnHO2
_symmetry_space_group_name_H-M   'P 1'
_cell_length_a   2.93309200
_cell_length_b   4.60726601
_cell_length_c   10.92520203
_cell_angle_alpha   90.00816046
_cell_angle_beta   90.00000524
_cell_angle_gamma   90.00000000
_symmetry_Int_Tables_number   1
_chemical_formula_structural   MnHO2
_chemical_formula_sum   'Mn4 H4 O8'
_cell_volume   147.63809937
_cell_formula_units_Z   4
loop_
 _symmetry_equiv_pos_site_id
 _symmetry_equiv_pos_as_xyz
  1  'x, y, z'
loop_
 _atom_site_type_symbol
 _atom_site_label
 _atom_site_symmetry_multiplicity
 _atom_site_fract_x
 _atom_site_fract_y
 _atom_site_fract_z
 _atom_site_occupancy
  Mn  Mn0  1  0.24999300  0.94625000  0.14035700  1
  Mn  Mn1  1  0.75000000  0.05374900  0.85964300  1
  Mn  Mn2  1  0.25000100  0.55398600  0.64042100  1
  Mn  Mn3  1  0.75000500  0.44601500  0.35957900  1
  H  H4  1  0.25000500  0.89975100  0.39164300  1
  H  H5  1  0.25000000  0.60010300  0.89168400  1
  H  H6  1  0.75000100  0.10025000  0.60835700  1
  H  H7  1  0.74999400  0.39989700  0.10831600  1
  O  O8  1  0.25000300  0.19326900  0.31550800  1
  O  O9  1  0.25000000  0.30683700  0.81567000  1
  O  O10  1  0.75000100  0.80673200  0.68449200  1
  O  O11  1  0.74999600  0.69316200  0.18433100  1
  O  O12  1  0.25000400  0.69385200  0.42753300  1
  O  O13  1  0.25000000  0.80604500  0.92765200  1
  O  O14  1  0.75000100  0.30614800  0.57246700  1
  O  O15  1  0.74999600  0.19395400  0.07234900  1
