# generated using pymatgen
data_MgSb
_symmetry_space_group_name_H-M   'P 1'
_cell_length_a   3.98275500
_cell_length_b   4.51477800
_cell_length_c   5.63167800
_cell_angle_alpha   90.00000000
_cell_angle_beta   90.00000000
_cell_angle_gamma   90.00000000
_symmetry_Int_Tables_number   1
_chemical_formula_structural   MgSb
_chemical_formula_sum   'Mg2 Sb2'
_cell_volume   101.26463624
_cell_formula_units_Z   2
loop_
 _symmetry_equiv_pos_site_id
 _symmetry_equiv_pos_as_xyz
  1  'x, y, z'
loop_
 _atom_site_type_symbol
 _atom_site_label
 _atom_site_symmetry_multiplicity
 _atom_site_fract_x
 _atom_site_fract_y
 _atom_site_fract_z
 _atom_site_occupancy
  Mg  Mg0  1  0.50000000  0.62539700  0.00000000  1
  Mg  Mg1  1  0.00000000  0.37460300  0.50000000  1
  Sb  Sb2  1  0.00000000  0.12356300  0.00000000  1
  Sb  Sb3  1  0.50000000  0.87643700  0.50000000  1
