# generated using pymatgen
data_FeHO2
_symmetry_space_group_name_H-M   'P 1'
_cell_length_a   6.01530400
_cell_length_b   11.31420837
_cell_length_c   12.29183503
_cell_angle_alpha   96.59511540
_cell_angle_beta   90.06491777
_cell_angle_gamma   90.25076777
_symmetry_Int_Tables_number   1
_chemical_formula_structural   FeHO2
_chemical_formula_sum   'Fe16 H16 O32'
_cell_volume   831.01767115
_cell_formula_units_Z   16
loop_
 _symmetry_equiv_pos_site_id
 _symmetry_equiv_pos_as_xyz
  1  'x, y, z'
loop_
 _atom_site_type_symbol
 _atom_site_label
 _atom_site_symmetry_multiplicity
 _atom_site_fract_x
 _atom_site_fract_y
 _atom_site_fract_z
 _atom_site_occupancy
  Fe  Fe0  1  0.97592500  0.34030800  0.08239000  1
  Fe  Fe1  1  0.00918400  0.15746900  0.63831700  1
  Fe  Fe2  1  0.79248500  0.85622400  0.56868000  1
  Fe  Fe3  1  0.74148400  0.66620800  0.12878800  1
  Fe  Fe4  1  0.94472400  0.66367600  0.87132700  1
  Fe  Fe5  1  0.02191100  0.85777200  0.31958700  1
  Fe  Fe6  1  0.80225400  0.17068700  0.37965600  1
  Fe  Fe7  1  0.76640200  0.35256600  0.81538500  1
  Fe  Fe8  1  0.48470100  0.34314700  0.08570500  1
  Fe  Fe9  1  0.52872200  0.17322700  0.63689000  1
  Fe  Fe10  1  0.28154100  0.85785100  0.57261900  1
  Fe  Fe11  1  0.24820000  0.71765300  0.13001200  1
  Fe  Fe12  1  0.46827900  0.65059000  0.87079400  1
  Fe  Fe13  1  0.51107900  0.88497800  0.31871800  1
  Fe  Fe14  1  0.29713500  0.17416700  0.38690700  1
  Fe  Fe15  1  0.24695800  0.34200400  0.82811200  1
  H  H16  1  0.03517700  0.01510000  0.46570800  1
  H  H17  1  0.03199800  0.40639900  0.64707300  1
  H  H18  1  0.58519700  0.75691400  0.70324800  1
  H  H19  1  0.75703800  0.90563900  0.14044400  1
  H  H20  1  0.07972400  0.72246000  0.67645000  1
  H  H21  1  0.00727700  0.62440400  0.30554500  1
  H  H22  1  0.73932800  0.49542300  0.99256300  1
  H  H23  1  0.59535400  0.27591900  0.26426100  1
  H  H24  1  0.47654000  0.41407300  0.65791800  1
  H  H25  1  0.54936500  0.20920100  0.90826200  1
  H  H26  1  0.23416400  0.51052600  0.97635700  1
  H  H27  1  0.53540500  0.01218700  0.49811500  1
  H  H28  1  0.48023600  0.65996500  0.31359600  1
  H  H29  1  0.19139700  0.21507600  0.18299000  1
  H  H30  1  0.26940400  0.51072200  0.18826700  1
  H  H31  1  0.24009200  0.10440800  0.80933000  1
  O  O32  1  0.05692900  0.23872800  0.31545200  1
  O  O33  1  0.03573800  0.03208100  0.38684100  1
  O  O34  1  0.02199500  0.35851200  0.70793300  1
  O  O35  1  0.99820300  0.31733200  0.92380100  1
  O  O36  1  0.69724100  0.74368700  0.81615300  1
  O  O37  1  0.73999200  0.52249000  0.86786400  1
  O  O38  1  0.75602000  0.85562100  0.20018800  1
  O  O39  1  0.76237800  0.82879600  0.41129900  1
  O  O40  1  0.04006600  0.74650100  0.60199400  1
  O  O41  1  0.03099400  0.97927400  0.59626100  1
  O  O42  1  0.99897100  0.67298100  0.24503100  1
  O  O43  1  0.99139300  0.69607100  0.03238500  1
  O  O44  1  0.72387500  0.26477500  0.13794400  1
  O  O45  1  0.73552200  0.48115500  0.07422700  1
  O  O46  1  0.75999400  0.17715500  0.74905200  1
  O  O47  1  0.77812800  0.20121500  0.53735600  1
  O  O48  1  0.55345800  0.27710300  0.34316500  1
  O  O49  1  0.53854500  0.05087100  0.36582300  1
  O  O50  1  0.49371700  0.35794300  0.71186900  1
  O  O51  1  0.51202500  0.29403100  0.92260000  1
  O  O52  1  0.20446000  0.70056000  0.79850800  1
  O  O53  1  0.27090500  0.50579400  0.89783100  1
  O  O54  1  0.25997900  0.87270600  0.20971200  1
  O  O55  1  0.27965900  0.82439400  0.41525900  1
  O  O56  1  0.54070400  0.77315800  0.62513300  1
  O  O57  1  0.53153400  0.99123800  0.57585500  1
  O  O58  1  0.48231300  0.64626100  0.23348300  1
  O  O59  1  0.49479400  0.69880800  0.03107400  1
  O  O60  1  0.22968100  0.23111100  0.10650800  1
  O  O61  1  0.23546000  0.46108800  0.11915500  1
  O  O62  1  0.26053300  0.16326300  0.75795800  1
  O  O63  1  0.26944700  0.19997000  0.54510700  1
