# generated using pymatgen
data_KMn8O16
_symmetry_space_group_name_H-M   'P 1'
_cell_length_a   9.99349600
_cell_length_b   9.99349600
_cell_length_c   5.89779100
_cell_angle_alpha   90.00000000
_cell_angle_beta   90.00000000
_cell_angle_gamma   90.00000000
_symmetry_Int_Tables_number   1
_chemical_formula_structural   KMn8O16
_chemical_formula_sum   'K2 Mn16 O32'
_cell_volume   589.01216484
_cell_formula_units_Z   2
loop_
 _symmetry_equiv_pos_site_id
 _symmetry_equiv_pos_as_xyz
  1  'x, y, z'
loop_
 _atom_site_type_symbol
 _atom_site_label
 _atom_site_symmetry_multiplicity
 _atom_site_fract_x
 _atom_site_fract_y
 _atom_site_fract_z
 _atom_site_occupancy
  K  K0  1  0.50000000  0.00000000  0.87351700  1
  K  K1  1  0.00000000  0.50000000  0.12648300  1
  Mn  Mn2  1  0.83281400  0.14838400  0.37507200  1
  Mn  Mn3  1  0.83475100  0.15018300  0.87500800  1
  Mn  Mn4  1  0.64838400  0.66718600  0.37507200  1
  Mn  Mn5  1  0.65018300  0.66524900  0.87500800  1
  Mn  Mn6  1  0.34981700  0.33475100  0.87500800  1
  Mn  Mn7  1  0.35161600  0.33281400  0.37507200  1
  Mn  Mn8  1  0.16524900  0.84981700  0.87500800  1
  Mn  Mn9  1  0.16718600  0.85161600  0.37507200  1
  Mn  Mn10  1  0.33475100  0.65018300  0.12499200  1
  Mn  Mn11  1  0.33281400  0.64838400  0.62492800  1
  Mn  Mn12  1  0.15018300  0.16524900  0.12499200  1
  Mn  Mn13  1  0.14838400  0.16718600  0.62492800  1
  Mn  Mn14  1  0.84981700  0.83475100  0.12499200  1
  Mn  Mn15  1  0.85161600  0.83281400  0.62492800  1
  Mn  Mn16  1  0.66524900  0.34981700  0.12499200  1
  Mn  Mn17  1  0.66718600  0.35161600  0.62492800  1
  O  O18  1  0.04293500  0.83482200  0.12602500  1
  O  O19  1  0.04360800  0.83621900  0.62500300  1
  O  O20  1  0.33482200  0.45706500  0.12602500  1
  O  O21  1  0.33621900  0.45639200  0.62500300  1
  O  O22  1  0.66517800  0.54293500  0.12602500  1
  O  O23  1  0.66378100  0.54360800  0.62500300  1
  O  O24  1  0.95706500  0.16517800  0.12602500  1
  O  O25  1  0.95639200  0.16378100  0.62500300  1
  O  O26  1  0.54293500  0.33482200  0.87397500  1
  O  O27  1  0.54360800  0.33621900  0.37499700  1
  O  O28  1  0.83482200  0.95706500  0.87397500  1
  O  O29  1  0.83621900  0.95639200  0.37499700  1
  O  O30  1  0.16378100  0.04360800  0.37499700  1
  O  O31  1  0.16517800  0.04293500  0.87397500  1
  O  O32  1  0.45639200  0.66378100  0.37499700  1
  O  O33  1  0.45706500  0.66517800  0.87397500  1
  O  O34  1  0.20354900  0.65637400  0.37256700  1
  O  O35  1  0.20334100  0.65476200  0.87792700  1
  O  O36  1  0.15476200  0.29665900  0.87792700  1
  O  O37  1  0.15637400  0.29645100  0.37256700  1
  O  O38  1  0.79665900  0.34523800  0.87792700  1
  O  O39  1  0.79645100  0.34362600  0.37256700  1
  O  O40  1  0.84362600  0.70354900  0.37256700  1
  O  O41  1  0.84523800  0.70334100  0.87792700  1
  O  O42  1  0.70334100  0.15476200  0.12207300  1
  O  O43  1  0.70354900  0.15637400  0.62743300  1
  O  O44  1  0.65476200  0.79665900  0.12207300  1
  O  O45  1  0.65637400  0.79645100  0.62743300  1
  O  O46  1  0.29665900  0.84523800  0.12207300  1
  O  O47  1  0.29645100  0.84362600  0.62743300  1
  O  O48  1  0.34523800  0.20334100  0.12207300  1
  O  O49  1  0.34362600  0.20354900  0.62743300  1
