# generated using pymatgen
data_Fe4H14O13
_symmetry_space_group_name_H-M   'P 1'
_cell_length_a   6.71244043
_cell_length_b   6.75158361
_cell_length_c   6.75312286
_cell_angle_alpha   108.18255717
_cell_angle_beta   110.26324065
_cell_angle_gamma   110.80895580
_symmetry_Int_Tables_number   1
_chemical_formula_structural   Fe4H14O13
_chemical_formula_sum   'Fe4 H14 O13'
_cell_volume   233.01751491
_cell_formula_units_Z   1
loop_
 _symmetry_equiv_pos_site_id
 _symmetry_equiv_pos_as_xyz
  1  'x, y, z'
loop_
 _atom_site_type_symbol
 _atom_site_label
 _atom_site_symmetry_multiplicity
 _atom_site_fract_x
 _atom_site_fract_y
 _atom_site_fract_z
 _atom_site_occupancy
  Fe  Fe0  1  0.00000000  0.00000000  0.50000000  1
  Fe  Fe1  1  0.00000000  0.50000000  0.00000000  1
  Fe  Fe2  1  0.50000000  0.00000000  0.00000000  1
  Fe  Fe3  1  0.50000000  0.50000000  0.50000000  1
  H  H4  1  0.73928600  0.18164300  0.55507200  1
  H  H5  1  0.26071400  0.81835700  0.44492800  1
  H  H6  1  0.61849300  0.94249600  0.68122100  1
  H  H7  1  0.38150700  0.05750400  0.31877900  1
  H  H8  1  0.54205600  0.67506600  0.23279600  1
  H  H9  1  0.26234600  0.54967200  0.83325800  1
  H  H10  1  0.73765400  0.45032800  0.16674200  1
  H  H11  1  0.45794400  0.32493400  0.76720400  1
  H  H12  1  0.18751300  0.13923800  0.94769300  1
  H  H13  1  0.95206700  0.75835300  0.80223500  1
  H  H14  1  0.81248700  0.86076200  0.05230700  1
  H  H15  1  0.04793300  0.24164700  0.19776500  1
  H  H16  1  0.83284600  0.39313100  0.45559800  1
  H  H17  1  0.16715400  0.60686900  0.54440200  1
  O  O18  1  0.86353300  0.17981300  0.68699500  1
  O  O19  1  0.13646700  0.82018700  0.31300500  1
  O  O20  1  0.48134600  0.81624600  0.68092600  1
  O  O21  1  0.51865400  0.18375400  0.31907400  1
  O  O22  1  0.67482600  0.68661200  0.37070700  1
  O  O23  1  0.30964800  0.67794700  0.99148200  1
  O  O24  1  0.69035200  0.32205300  0.00851800  1
  O  O25  1  0.32517400  0.31338800  0.62929300  1
  O  O26  1  0.17888300  0.00558900  0.82094200  1
  O  O27  1  0.82010900  0.63615200  0.81034700  1
  O  O28  1  0.82111700  0.99441100  0.17905800  1
  O  O29  1  0.17989100  0.36384800  0.18965300  1
  O  O30  1  0.00000000  0.50000000  0.50000000  1
