# generated using pymatgen
data_V3(H3O5)2
_symmetry_space_group_name_H-M   'P 1'
_cell_length_a   8.97776400
_cell_length_b   6.01036300
_cell_length_c   8.95689394
_cell_angle_alpha   89.00339310
_cell_angle_beta   90.00000000
_cell_angle_gamma   90.00000000
_symmetry_Int_Tables_number   1
_chemical_formula_structural   V3(H3O5)2
_chemical_formula_sum   'V6 H12 O20'
_cell_volume   483.23748642
_cell_formula_units_Z   2
loop_
 _symmetry_equiv_pos_site_id
 _symmetry_equiv_pos_as_xyz
  1  'x, y, z'
loop_
 _atom_site_type_symbol
 _atom_site_label
 _atom_site_symmetry_multiplicity
 _atom_site_fract_x
 _atom_site_fract_y
 _atom_site_fract_z
 _atom_site_occupancy
  V  V0  1  0.75216000  0.74251700  0.49209400  1
  V  V1  1  0.24784000  0.74251700  0.99209400  1
  V  V2  1  0.61625200  0.72504400  0.85610000  1
  V  V3  1  0.89237600  0.72880000  0.13484500  1
  V  V4  1  0.38374800  0.72504400  0.35610000  1
  V  V5  1  0.10762400  0.72880000  0.63484500  1
  H  H6  1  0.70756800  0.34466000  0.54350100  1
  H  H7  1  0.29243200  0.34466000  0.04350100  1
  H  H8  1  0.63908500  0.33846400  0.93630800  1
  H  H9  1  0.36091500  0.33846400  0.43630800  1
  H  H10  1  0.52299900  0.12095200  0.14456300  1
  H  H11  1  0.68181200  0.19379200  0.19084800  1
  H  H12  1  0.95380700  0.22058100  0.92957500  1
  H  H13  1  0.95518400  0.28627000  0.76330600  1
  H  H14  1  0.31818800  0.19379200  0.69084800  1
  H  H15  1  0.47700100  0.12095200  0.64456300  1
  H  H16  1  0.04619300  0.22058100  0.42957500  1
  H  H17  1  0.04481600  0.28627000  0.26330600  1
  O  O18  1  0.76828400  0.44832500  0.48399400  1
  O  O19  1  0.23171600  0.44832500  0.98399400  1
  O  O20  1  0.65813600  0.82931700  0.67845700  1
  O  O21  1  0.82625800  0.83919500  0.30381300  1
  O  O22  1  0.34186400  0.82931700  0.17845700  1
  O  O23  1  0.17374200  0.83919500  0.80381300  1
  O  O24  1  0.55590100  0.82365700  0.41081900  1
  O  O25  1  0.93523300  0.83729300  0.57648900  1
  O  O26  1  0.06476700  0.83729300  0.07648900  1
  O  O27  1  0.44409900  0.82365700  0.91081900  1
  O  O28  1  0.61154300  0.43409500  0.84708600  1
  O  O29  1  0.90785200  0.45824600  0.15220300  1
  O  O30  1  0.38845700  0.43409500  0.34708600  1
  O  O31  1  0.09214800  0.45824600  0.65220300  1
  O  O32  1  0.75029800  0.78999600  0.99052200  1
  O  O33  1  0.24970200  0.78999600  0.49052200  1
  O  O34  1  0.60233600  0.22555000  0.11910400  1
  O  O35  1  0.89495700  0.20701000  0.83917000  1
  O  O36  1  0.39766400  0.22555000  0.61910400  1
  O  O37  1  0.10504300  0.20701000  0.33917000  1
