# generated using pymatgen
data_Cu6Hg3(AsS3)4
_symmetry_space_group_name_H-M   'P 1'
_cell_length_a   8.62193718
_cell_length_b   8.62193718
_cell_length_c   8.62193770
_cell_angle_alpha   107.51095338
_cell_angle_beta   107.51095338
_cell_angle_gamma   107.51095329
_symmetry_Int_Tables_number   1
_chemical_formula_structural   Cu6Hg3(AsS3)4
_chemical_formula_sum   'Cu6 Hg3 As4 S12'
_cell_volume   526.16035513
_cell_formula_units_Z   1
loop_
 _symmetry_equiv_pos_site_id
 _symmetry_equiv_pos_as_xyz
  1  'x, y, z'
loop_
 _atom_site_type_symbol
 _atom_site_label
 _atom_site_symmetry_multiplicity
 _atom_site_fract_x
 _atom_site_fract_y
 _atom_site_fract_z
 _atom_site_occupancy
  Cu  Cu0  1  0.90073400  0.74389100  0.26954600  1
  Cu  Cu1  1  0.26954600  0.90073400  0.74389100  1
  Cu  Cu2  1  0.58049400  0.78674400  0.52812800  1
  Cu  Cu3  1  0.78674400  0.52812800  0.58049400  1
  Cu  Cu4  1  0.74389100  0.26954600  0.90073400  1
  Cu  Cu5  1  0.52812800  0.58049400  0.78674400  1
  Hg  Hg6  1  0.67159200  0.05560400  0.19958300  1
  Hg  Hg7  1  0.05560400  0.19958300  0.67159200  1
  Hg  Hg8  1  0.19958300  0.67159200  0.05560400  1
  As  As9  1  0.43149900  0.36699300  0.14501100  1
  As  As10  1  0.14501100  0.43149900  0.36699300  1
  As  As11  1  0.36699300  0.14501100  0.43149900  1
  As  As12  1  0.99486100  0.99486100  0.99486100  1
  S  S13  1  0.68664700  0.62052300  0.36399300  1
  S  S14  1  0.62052300  0.36399300  0.68664700  1
  S  S15  1  0.36399300  0.68664700  0.62052300  1
  S  S16  1  0.04476900  0.76949600  0.81937800  1
  S  S17  1  0.47547300  0.93112000  0.35109200  1
  S  S18  1  0.93112000  0.35109200  0.47547300  1
  S  S19  1  0.35109200  0.47547300  0.93112000  1
  S  S20  1  0.51235100  0.16044900  0.97752900  1
  S  S21  1  0.81937800  0.04476900  0.76949600  1
  S  S22  1  0.97752900  0.51235100  0.16044900  1
  S  S23  1  0.76949600  0.81937800  0.04476900  1
  S  S24  1  0.16044900  0.97752900  0.51235100  1
