# generated using pymatgen
data_K2EuGeSe5
_symmetry_space_group_name_H-M   'P 1'
_cell_length_a   10.06573000
_cell_length_b   9.01219100
_cell_length_c   11.91041022
_cell_angle_alpha   88.76802089
_cell_angle_beta   90.00000000
_cell_angle_gamma   90.00000000
_symmetry_Int_Tables_number   1
_chemical_formula_structural   K2EuGeSe5
_chemical_formula_sum   'K8 Eu4 Ge4 Se20'
_cell_volume   1080.19454689
_cell_formula_units_Z   4
loop_
 _symmetry_equiv_pos_site_id
 _symmetry_equiv_pos_as_xyz
  1  'x, y, z'
loop_
 _atom_site_type_symbol
 _atom_site_label
 _atom_site_symmetry_multiplicity
 _atom_site_fract_x
 _atom_site_fract_y
 _atom_site_fract_z
 _atom_site_occupancy
  K  K0  1  0.80011600  0.46069700  0.05678800  1
  K  K1  1  0.05579200  0.12574000  0.19986800  1
  K  K2  1  0.69988400  0.96069700  0.05678800  1
  K  K3  1  0.55579200  0.37426000  0.80013200  1
  K  K4  1  0.30011600  0.03930300  0.94321200  1
  K  K5  1  0.19988400  0.53930300  0.94321200  1
  K  K6  1  0.94420800  0.87426000  0.80013200  1
  K  K7  1  0.44420800  0.62574000  0.19986800  1
  Eu  Eu8  1  0.27216500  0.10597700  0.51728200  1
  Eu  Eu9  1  0.72783500  0.89402300  0.48271800  1
  Eu  Eu10  1  0.77216500  0.39402300  0.48271800  1
  Eu  Eu11  1  0.22783500  0.60597700  0.51728200  1
  Ge  Ge12  1  0.52123400  0.20771400  0.25292300  1
  Ge  Ge13  1  0.47876600  0.79228600  0.74707700  1
  Ge  Ge14  1  0.97876600  0.70771400  0.25292300  1
  Ge  Ge15  1  0.02123400  0.29228600  0.74707700  1
  Se  Se16  1  0.43379100  0.83726500  0.41391000  1
  Se  Se17  1  0.75425600  0.64124500  0.29143900  1
  Se  Se18  1  0.53525100  0.63746600  0.59092600  1
  Se  Se19  1  0.74574400  0.14124500  0.29143900  1
  Se  Se20  1  0.86732600  0.50075200  0.75159100  1
  Se  Se21  1  0.46474900  0.36253400  0.40907400  1
  Se  Se22  1  0.25425600  0.85875500  0.70856100  1
  Se  Se23  1  0.98703200  0.19352300  0.93025500  1
  Se  Se24  1  0.56620900  0.16273500  0.58609000  1
  Se  Se25  1  0.51296800  0.69352300  0.93025500  1
  Se  Se26  1  0.96474900  0.13746600  0.59092600  1
  Se  Se27  1  0.03525100  0.86253400  0.40907400  1
  Se  Se28  1  0.36732600  0.99924800  0.24840900  1
  Se  Se29  1  0.48703200  0.30647700  0.06974500  1
  Se  Se30  1  0.13267400  0.49924800  0.24840900  1
  Se  Se31  1  0.24574400  0.35875500  0.70856100  1
  Se  Se32  1  0.01296800  0.80647700  0.06974500  1
  Se  Se33  1  0.06620900  0.33726500  0.41391000  1
  Se  Se34  1  0.93379100  0.66273500  0.58609000  1
  Se  Se35  1  0.63267400  0.00075200  0.75159100  1
