# generated using pymatgen
data_Pb4SeBr6
_symmetry_space_group_name_H-M   'P 1'
_cell_length_a   9.65353821
_cell_length_b   9.65353821
_cell_length_c   10.17135553
_cell_angle_alpha   59.32996063
_cell_angle_beta   59.32996063
_cell_angle_gamma   26.42956967
_symmetry_Int_Tables_number   1
_chemical_formula_structural   Pb4SeBr6
_chemical_formula_sum   'Pb4 Se1 Br6'
_cell_volume   359.34610501
_cell_formula_units_Z   1
loop_
 _symmetry_equiv_pos_site_id
 _symmetry_equiv_pos_as_xyz
  1  'x, y, z'
loop_
 _atom_site_type_symbol
 _atom_site_label
 _atom_site_symmetry_multiplicity
 _atom_site_fract_x
 _atom_site_fract_y
 _atom_site_fract_z
 _atom_site_occupancy
  Pb  Pb0  1  0.99556000  0.99556000  0.99812800  1
  Pb  Pb1  1  0.75257900  0.75257900  0.01865700  1
  Pb  Pb2  1  0.49552700  0.49552700  0.53579300  1
  Pb  Pb3  1  0.23313900  0.23313900  0.54080900  1
  Se  Se4  1  0.00383700  0.00383700  0.70743100  1
  Br  Br5  1  0.63171300  0.63171300  0.83597900  1
  Br  Br6  1  0.36167000  0.36167000  0.09979100  1
  Br  Br7  1  0.87139600  0.87139600  0.41870600  1
  Br  Br8  1  0.11903100  0.11903100  0.16860500  1
  Br  Br9  1  0.68735500  0.68735500  0.38285900  1
  Br  Br10  1  0.30671900  0.30671900  0.76788300  1
