# generated using pymatgen
data_InS
_symmetry_space_group_name_H-M   'P 1'
_cell_length_a   11.19883400
_cell_length_b   4.08621800
_cell_length_c   5.68130373
_cell_angle_alpha   46.39397088
_cell_angle_beta   90.00000000
_cell_angle_gamma   90.00000000
_symmetry_Int_Tables_number   1
_chemical_formula_structural   InS
_chemical_formula_sum   'In4 S4'
_cell_volume   188.25237739
_cell_formula_units_Z   4
loop_
 _symmetry_equiv_pos_site_id
 _symmetry_equiv_pos_as_xyz
  1  'x, y, z'
loop_
 _atom_site_type_symbol
 _atom_site_label
 _atom_site_symmetry_multiplicity
 _atom_site_fract_x
 _atom_site_fract_y
 _atom_site_fract_z
 _atom_site_occupancy
  In  In0  1  0.12322000  0.89062200  0.06562300  1
  In  In1  1  0.37678000  0.89062200  0.56562300  1
  In  In2  1  0.87678000  0.10937800  0.93437700  1
  In  In3  1  0.62322000  0.10937800  0.43437700  1
  S  S4  1  0.65093400  0.99680000  0.99945300  1
  S  S5  1  0.15093400  0.00320000  0.50054700  1
  S  S6  1  0.34906600  0.00320000  0.00054700  1
  S  S7  1  0.84906600  0.99680000  0.49945300  1
