# generated using pymatgen
data_CdCl2
_symmetry_space_group_name_H-M   'P 1'
_cell_length_a   4.20160666
_cell_length_b   4.20160666
_cell_length_c   4.99535630
_cell_angle_alpha   88.92565617
_cell_angle_beta   88.92565617
_cell_angle_gamma   89.79916471
_symmetry_Int_Tables_number   1
_chemical_formula_structural   CdCl2
_chemical_formula_sum   'Cd1 Cl2'
_cell_volume   88.15407470
_cell_formula_units_Z   1
loop_
 _symmetry_equiv_pos_site_id
 _symmetry_equiv_pos_as_xyz
  1  'x, y, z'
loop_
 _atom_site_type_symbol
 _atom_site_label
 _atom_site_symmetry_multiplicity
 _atom_site_fract_x
 _atom_site_fract_y
 _atom_site_fract_z
 _atom_site_occupancy
  Cd  Cd0  1  0.15909000  0.84091000  0.00000000  1
  Cl  Cl1  1  0.66946900  0.82810800  0.72859100  1
  Cl  Cl2  1  0.17189200  0.33053100  0.27140900  1
