# generated using pymatgen
data_CoCl2
_symmetry_space_group_name_H-M   'P 1'
_cell_length_a   3.53821048
_cell_length_b   3.53821048
_cell_length_c   5.53443818
_cell_angle_alpha   86.76959851
_cell_angle_beta   86.76959851
_cell_angle_gamma   63.40596491
_symmetry_Int_Tables_number   1
_chemical_formula_structural   CoCl2
_chemical_formula_sum   'Co1 Cl2'
_cell_volume   61.81889279
_cell_formula_units_Z   1
loop_
 _symmetry_equiv_pos_site_id
 _symmetry_equiv_pos_as_xyz
  1  'x, y, z'
loop_
 _atom_site_type_symbol
 _atom_site_label
 _atom_site_symmetry_multiplicity
 _atom_site_fract_x
 _atom_site_fract_y
 _atom_site_fract_z
 _atom_site_occupancy
  Co  Co0  1  0.00000000  0.00000000  0.00000000  1
  Cl  Cl1  1  0.67619300  0.67619300  0.76888100  1
  Cl  Cl2  1  0.32380700  0.32380700  0.23111900  1
