# generated using pymatgen
data_Mg5Cd
_symmetry_space_group_name_H-M   'P 1'
_cell_length_a   6.32170070
_cell_length_b   6.32170070
_cell_length_c   6.32170086
_cell_angle_alpha   50.00139157
_cell_angle_beta   50.00139157
_cell_angle_gamma   50.00139686
_symmetry_Int_Tables_number   1
_chemical_formula_structural   Mg5Cd
_chemical_formula_sum   'Mg5 Cd1'
_cell_volume   136.44109107
_cell_formula_units_Z   1
loop_
 _symmetry_equiv_pos_site_id
 _symmetry_equiv_pos_as_xyz
  1  'x, y, z'
loop_
 _atom_site_type_symbol
 _atom_site_label
 _atom_site_symmetry_multiplicity
 _atom_site_fract_x
 _atom_site_fract_y
 _atom_site_fract_z
 _atom_site_occupancy
  Mg  Mg0  1  0.00000000  0.66455900  0.33544100  1
  Mg  Mg1  1  0.16733500  0.16733500  0.16733500  1
  Mg  Mg2  1  0.33544100  0.00000000  0.66455900  1
  Mg  Mg3  1  0.66455900  0.33544100  0.00000000  1
  Mg  Mg4  1  0.83266500  0.83266500  0.83266500  1
  Cd  Cd5  1  0.50000000  0.50000000  0.50000000  1
