# generated using pymatgen
data_KH4F5
_symmetry_space_group_name_H-M   'P 1'
_cell_length_a   7.39562300
_cell_length_b   7.39562300
_cell_length_c   7.39562300
_cell_angle_alpha   124.83221766
_cell_angle_beta   124.83221766
_cell_angle_gamma   81.81612180
_symmetry_Int_Tables_number   1
_chemical_formula_structural   KH4F5
_chemical_formula_sum   'K2 H8 F10'
_cell_volume   262.19164357
_cell_formula_units_Z   2
loop_
 _symmetry_equiv_pos_site_id
 _symmetry_equiv_pos_as_xyz
  1  'x, y, z'
loop_
 _atom_site_type_symbol
 _atom_site_label
 _atom_site_symmetry_multiplicity
 _atom_site_fract_x
 _atom_site_fract_y
 _atom_site_fract_z
 _atom_site_occupancy
  K  K0  1  0.75000000  0.25000000  0.50000000  1
  K  K1  1  0.00000000  0.00000000  0.00000000  1
  H  H2  1  0.15912800  0.94629000  0.60845400  1
  H  H3  1  0.33783500  0.55067400  0.39154600  1
  H  H4  1  0.30067400  0.40912800  0.71283900  1
  H  H5  1  0.69629000  0.58783500  0.28716100  1
  H  H6  1  0.59087200  0.30371000  0.89154600  1
  H  H7  1  0.41216500  0.69932600  0.10845400  1
  H  H8  1  0.44932600  0.84087200  0.78716100  1
  H  H9  1  0.05371000  0.66216500  0.21283900  1
  F  F10  1  0.25000000  0.75000000  0.50000000  1
  F  F11  1  0.50000000  0.50000000  0.00000000  1
  F  F12  1  0.09754700  0.07207400  0.68367700  1
  F  F13  1  0.38839700  0.41387000  0.31632300  1
  F  F14  1  0.16387000  0.34754700  0.52547300  1
  F  F15  1  0.82207400  0.63839700  0.47452700  1
  F  F16  1  0.65245300  0.17792600  0.81632300  1
  F  F17  1  0.36160300  0.83613000  0.18367700  1
  F  F18  1  0.58613000  0.90245300  0.97452700  1
  F  F19  1  0.92792600  0.61160300  0.02547300  1
