# generated using pymatgen
data_Sb2Pb2O7
_symmetry_space_group_name_H-M   'P 1'
_cell_length_a   7.64577351
_cell_length_b   7.64577351
_cell_length_c   7.64577351
_cell_angle_alpha   120.39437539
_cell_angle_beta   117.10799666
_cell_angle_gamma   92.19965324
_symmetry_Int_Tables_number   1
_chemical_formula_structural   Sb2Pb2O7
_chemical_formula_sum   'Sb4 Pb4 O14'
_cell_volume   321.43854718
_cell_formula_units_Z   2
loop_
 _symmetry_equiv_pos_site_id
 _symmetry_equiv_pos_as_xyz
  1  'x, y, z'
loop_
 _atom_site_type_symbol
 _atom_site_label
 _atom_site_symmetry_multiplicity
 _atom_site_fract_x
 _atom_site_fract_y
 _atom_site_fract_z
 _atom_site_occupancy
  Sb  Sb0  1  0.49744600  0.76075500  0.75820100  1
  Sb  Sb1  1  0.50255400  0.26075500  0.26330800  1
  Sb  Sb2  1  0.50000000  0.25896500  0.75896500  1
  Sb  Sb3  1  0.00000000  0.75896500  0.75896500  1
  Pb  Pb4  1  0.04231300  0.24653400  0.78884700  1
  Pb  Pb5  1  0.95768700  0.74653400  0.20422100  1
  Pb  Pb6  1  0.50000000  0.77238800  0.27238800  1
  Pb  Pb7  1  0.00000000  0.27238800  0.27238800  1
  O  O8  1  0.55095200  0.58142300  0.88944900  1
  O  O9  1  0.44904800  0.33849700  0.03047100  1
  O  O10  1  0.80802600  0.83849700  0.88944900  1
  O  O11  1  0.19197400  0.08142300  0.03047100  1
  O  O12  1  0.19593900  0.17548100  0.55069300  1
  O  O13  1  0.80406100  0.35475400  0.97954200  1
  O  O14  1  0.87521200  0.85475400  0.55069300  1
  O  O15  1  0.12478800  0.67548100  0.97954200  1
  O  O16  1  0.54071700  0.17335700  0.48198600  1
  O  O17  1  0.45928300  0.94126900  0.63263900  1
  O  O18  1  0.80862900  0.44126900  0.48198600  1
  O  O19  1  0.19137100  0.67335700  0.63263900  1
  O  O20  1  0.59346300  0.00988400  0.10334700  1
  O  O21  1  0.40653700  0.50988400  0.41642100  1
