# generated using pymatgen
data_V2Zn2O7
_symmetry_space_group_name_H-M   'P 1'
_cell_length_a   5.42301443
_cell_length_b   5.42301443
_cell_length_c   5.07936227
_cell_angle_alpha   81.79563751
_cell_angle_beta   81.79563751
_cell_angle_gamma   106.39637457
_symmetry_Int_Tables_number   1
_chemical_formula_structural   V2Zn2O7
_chemical_formula_sum   'V2 Zn2 O7'
_cell_volume   139.17892136
_cell_formula_units_Z   1
loop_
 _symmetry_equiv_pos_site_id
 _symmetry_equiv_pos_as_xyz
  1  'x, y, z'
loop_
 _atom_site_type_symbol
 _atom_site_label
 _atom_site_symmetry_multiplicity
 _atom_site_fract_x
 _atom_site_fract_y
 _atom_site_fract_z
 _atom_site_occupancy
  V  V0  1  0.75676600  0.75676600  0.89535200  1
  V  V1  1  0.24323400  0.24323400  0.10464800  1
  Zn  Zn2  1  0.31504500  0.68495500  0.50000000  1
  Zn  Zn3  1  0.68495500  0.31504500  0.50000000  1
  O  O4  1  0.57145600  0.57145600  0.22227300  1
  O  O5  1  0.42854400  0.42854400  0.77772700  1
  O  O6  1  0.38961600  0.05468300  0.29409900  1
  O  O7  1  0.94531700  0.61038400  0.70590100  1
  O  O8  1  0.00000000  0.00000000  0.00000000  1
  O  O9  1  0.05468300  0.38961600  0.29409900  1
  O  O10  1  0.61038400  0.94531700  0.70590100  1
