# generated using pymatgen
data_K3B12H12Br
_symmetry_space_group_name_H-M   'P 1'
_cell_length_a   8.73999337
_cell_length_b   8.73999337
_cell_length_c   8.42390099
_cell_angle_alpha   88.74848708
_cell_angle_beta   88.74848708
_cell_angle_gamma   120.82169217
_symmetry_Int_Tables_number   1
_chemical_formula_structural   K3B12H12Br
_chemical_formula_sum   'K3 B12 H12 Br1'
_cell_volume   552.05838525
_cell_formula_units_Z   1
loop_
 _symmetry_equiv_pos_site_id
 _symmetry_equiv_pos_as_xyz
  1  'x, y, z'
loop_
 _atom_site_type_symbol
 _atom_site_label
 _atom_site_symmetry_multiplicity
 _atom_site_fract_x
 _atom_site_fract_y
 _atom_site_fract_z
 _atom_site_occupancy
  K  K0  1  0.50000000  0.00000000  0.50000000  1
  K  K1  1  0.00000000  0.50000000  0.50000000  1
  K  K2  1  0.50000000  0.50000000  0.50000000  1
  B  B3  1  0.18003600  0.18003600  0.39087300  1
  B  B4  1  0.91478800  0.79395400  0.43615700  1
  B  B5  1  0.79395400  0.91478800  0.43615700  1
  B  B6  1  0.81996400  0.81996400  0.60912700  1
  B  B7  1  0.08521200  0.20604600  0.56384300  1
  B  B8  1  0.20604600  0.08521200  0.56384300  1
  B  B9  1  0.94111600  0.13746500  0.40264000  1
  B  B10  1  0.13746500  0.94111600  0.40264000  1
  B  B11  1  0.83797000  0.83797000  0.79557800  1
  B  B12  1  0.05888400  0.86253500  0.59736000  1
  B  B13  1  0.86253500  0.05888400  0.59736000  1
  B  B14  1  0.16203000  0.16203000  0.20442200  1
  H  H15  1  0.18632300  0.18632300  0.67716900  1
  H  H16  1  0.83333000  0.48950700  0.09099100  1
  H  H17  1  0.48950700  0.83333000  0.09099100  1
  H  H18  1  0.81367700  0.81367700  0.32283100  1
  H  H19  1  0.16667000  0.51049300  0.90900900  1
  H  H20  1  0.51049300  0.16667000  0.90900900  1
  H  H21  1  0.84662000  0.41112800  0.09168100  1
  H  H22  1  0.41112800  0.84662000  0.09168100  1
  H  H23  1  0.02082800  0.02082800  0.33462700  1
  H  H24  1  0.15338000  0.58887200  0.90831900  1
  H  H25  1  0.58887200  0.15338000  0.90831900  1
  H  H26  1  0.97917200  0.97917200  0.66537300  1
  Br  Br27  1  0.00000000  0.00000000  0.00000000  1
