# generated using pymatgen
data_MgCd5
_symmetry_space_group_name_H-M   'P 1'
_cell_length_a   6.10708689
_cell_length_b   6.10708689
_cell_length_c   7.37163645
_cell_angle_alpha   74.63133847
_cell_angle_beta   74.63133847
_cell_angle_gamma   30.33879311
_symmetry_Int_Tables_number   1
_chemical_formula_structural   MgCd5
_chemical_formula_sum   'Mg1 Cd5'
_cell_volume   133.53528144
_cell_formula_units_Z   1
loop_
 _symmetry_equiv_pos_site_id
 _symmetry_equiv_pos_as_xyz
  1  'x, y, z'
loop_
 _atom_site_type_symbol
 _atom_site_label
 _atom_site_symmetry_multiplicity
 _atom_site_fract_x
 _atom_site_fract_y
 _atom_site_fract_z
 _atom_site_occupancy
  Mg  Mg0  1  0.61162900  0.61162900  0.27626400  1
  Cd  Cd1  1  0.00119500  0.00119500  0.00369500  1
  Cd  Cd2  1  0.33222600  0.33222600  0.33315000  1
  Cd  Cd3  1  0.94591500  0.94591500  0.60946200  1
  Cd  Cd4  1  0.66664800  0.66664800  0.66251400  1
  Cd  Cd5  1  0.27572000  0.27572000  0.94824900  1
