# generated using pymatgen
data_RbC2N3
_symmetry_space_group_name_H-M   'P 1'
_cell_length_a   6.67474500
_cell_length_b   7.70894500
_cell_length_c   8.71726300
_cell_angle_alpha   90.00000000
_cell_angle_beta   90.00000000
_cell_angle_gamma   90.00000000
_symmetry_Int_Tables_number   1
_chemical_formula_structural   RbC2N3
_chemical_formula_sum   'Rb4 C8 N12'
_cell_volume   448.54887806
_cell_formula_units_Z   4
loop_
 _symmetry_equiv_pos_site_id
 _symmetry_equiv_pos_as_xyz
  1  'x, y, z'
loop_
 _atom_site_type_symbol
 _atom_site_label
 _atom_site_symmetry_multiplicity
 _atom_site_fract_x
 _atom_site_fract_y
 _atom_site_fract_z
 _atom_site_occupancy
  Rb  Rb0  1  0.75000000  0.00000000  0.18650300  1
  Rb  Rb1  1  0.25000000  0.00000000  0.81349700  1
  Rb  Rb2  1  0.25000000  0.50000000  0.81349700  1
  Rb  Rb3  1  0.75000000  0.50000000  0.18650300  1
  C  C4  1  0.85322000  0.25000000  0.57217900  1
  C  C5  1  0.26594500  0.75000000  0.17947600  1
  C  C6  1  0.73405500  0.25000000  0.82052400  1
  C  C7  1  0.23405500  0.25000000  0.17947600  1
  C  C8  1  0.35322000  0.25000000  0.42782100  1
  C  C9  1  0.76594500  0.75000000  0.82052400  1
  C  C10  1  0.14678000  0.75000000  0.42782100  1
  C  C11  1  0.64678000  0.75000000  0.57217900  1
  N  N12  1  0.85103600  0.25000000  0.43699600  1
  N  N13  1  0.87855500  0.25000000  0.72102900  1
  N  N14  1  0.12144500  0.75000000  0.27897100  1
  N  N15  1  0.14896400  0.75000000  0.56300400  1
  N  N16  1  0.37855500  0.25000000  0.27897100  1
  N  N17  1  0.61369300  0.25000000  0.92094500  1
  N  N18  1  0.64896400  0.75000000  0.43699600  1
  N  N19  1  0.88630700  0.75000000  0.92094500  1
  N  N20  1  0.62144500  0.75000000  0.72102900  1
  N  N21  1  0.35103600  0.25000000  0.56300400  1
  N  N22  1  0.38630700  0.75000000  0.07905500  1
  N  N23  1  0.11369300  0.25000000  0.07905500  1
