# generated using pymatgen
data_Tm10In20Co9
_symmetry_space_group_name_H-M   'P 1'
_cell_length_a   13.08826400
_cell_length_b   13.08826400
_cell_length_c   9.10127000
_cell_angle_alpha   90.00000000
_cell_angle_beta   90.00000000
_cell_angle_gamma   90.00000000
_symmetry_Int_Tables_number   1
_chemical_formula_structural   Tm10In20Co9
_chemical_formula_sum   'Tm20 In40 Co18'
_cell_volume   1559.07171063
_cell_formula_units_Z   2
loop_
 _symmetry_equiv_pos_site_id
 _symmetry_equiv_pos_as_xyz
  1  'x, y, z'
loop_
 _atom_site_type_symbol
 _atom_site_label
 _atom_site_symmetry_multiplicity
 _atom_site_fract_x
 _atom_site_fract_y
 _atom_site_fract_z
 _atom_site_occupancy
  Tm  Tm0  1  0.70392800  0.20392800  0.72977700  1
  Tm  Tm1  1  0.20392800  0.29607200  0.27022300  1
  Tm  Tm2  1  0.50000000  0.72485100  0.23131000  1
  Tm  Tm3  1  0.00000000  0.50000000  0.36283200  1
  Tm  Tm4  1  0.00000000  0.50000000  0.83923200  1
  Tm  Tm5  1  0.70392800  0.79607200  0.72977700  1
  Tm  Tm6  1  0.50000000  0.00000000  0.63716800  1
  Tm  Tm7  1  0.50000000  0.00000000  0.16076800  1
  Tm  Tm8  1  0.77514900  0.00000000  0.23131000  1
  Tm  Tm9  1  0.27514900  0.50000000  0.76869000  1
  Tm  Tm10  1  0.72485100  0.50000000  0.76869000  1
  Tm  Tm11  1  0.29607200  0.79607200  0.72977700  1
  Tm  Tm12  1  0.79607200  0.29607200  0.27022300  1
  Tm  Tm13  1  0.29607200  0.20392800  0.72977700  1
  Tm  Tm14  1  0.00000000  0.22485100  0.76869000  1
  Tm  Tm15  1  0.50000000  0.27514900  0.23131000  1
  Tm  Tm16  1  0.00000000  0.77514900  0.76869000  1
  Tm  Tm17  1  0.79607200  0.70392800  0.27022300  1
  Tm  Tm18  1  0.20392800  0.70392800  0.27022300  1
  Tm  Tm19  1  0.22485100  0.00000000  0.23131000  1
  In  In20  1  0.62888100  0.62888100  0.50000000  1
  In  In21  1  0.13081800  0.36918200  0.58984700  1
  In  In22  1  0.61421800  0.50000000  0.23591500  1
  In  In23  1  0.84785800  0.84785800  0.00000000  1
  In  In24  1  0.84785800  0.15214200  0.00000000  1
  In  In25  1  0.37111900  0.37111900  0.50000000  1
  In  In26  1  0.34785800  0.34785800  0.00000000  1
  In  In27  1  0.87111900  0.12888100  0.50000000  1
  In  In28  1  0.88578200  0.00000000  0.76408500  1
  In  In29  1  0.50000000  0.16830000  0.90428800  1
  In  In30  1  0.00000000  0.33170000  0.09571200  1
  In  In31  1  0.63081800  0.13081800  0.41015300  1
  In  In32  1  0.00000000  0.66830000  0.09571200  1
  In  In33  1  0.13081800  0.63081800  0.58984700  1
  In  In34  1  0.65214200  0.65214200  0.00000000  1
  In  In35  1  0.36918200  0.86918200  0.41015300  1
  In  In36  1  0.00000000  0.88578200  0.23591500  1
  In  In37  1  0.86918200  0.36918200  0.58984700  1
  In  In38  1  0.33170000  0.00000000  0.90428800  1
  In  In39  1  0.16830000  0.50000000  0.09571200  1
  In  In40  1  0.12888100  0.87111900  0.50000000  1
  In  In41  1  0.34785800  0.65214200  0.00000000  1
  In  In42  1  0.15214200  0.84785800  0.00000000  1
  In  In43  1  0.86918200  0.63081800  0.58984700  1
  In  In44  1  0.00000000  0.11421800  0.23591500  1
  In  In45  1  0.63081800  0.86918200  0.41015300  1
  In  In46  1  0.50000000  0.38578200  0.76408500  1
  In  In47  1  0.83170000  0.50000000  0.09571200  1
  In  In48  1  0.87111900  0.87111900  0.50000000  1
  In  In49  1  0.66830000  0.00000000  0.90428800  1
  In  In50  1  0.12888100  0.12888100  0.50000000  1
  In  In51  1  0.36918200  0.13081800  0.41015300  1
  In  In52  1  0.11421800  0.00000000  0.76408500  1
  In  In53  1  0.62888100  0.37111900  0.50000000  1
  In  In54  1  0.15214200  0.15214200  0.00000000  1
  In  In55  1  0.50000000  0.61421800  0.76408500  1
  In  In56  1  0.65214200  0.34785800  0.00000000  1
  In  In57  1  0.38578200  0.50000000  0.23591500  1
  In  In58  1  0.37111900  0.62888100  0.50000000  1
  In  In59  1  0.50000000  0.83170000  0.90428800  1
  Co  Co60  1  0.15789400  0.34210600  0.89646400  1
  Co  Co61  1  0.77525700  0.50000000  0.40616600  1
  Co  Co62  1  0.50000000  0.77525700  0.59383400  1
  Co  Co63  1  0.00000000  0.72474300  0.40616600  1
  Co  Co64  1  0.72474300  0.00000000  0.59383400  1
  Co  Co65  1  0.34210600  0.15789400  0.10353600  1
  Co  Co66  1  0.34210600  0.84210600  0.10353600  1
  Co  Co67  1  0.00000000  0.27525700  0.40616600  1
  Co  Co68  1  0.84210600  0.65789400  0.89646400  1
  Co  Co69  1  0.65789400  0.84210600  0.10353600  1
  Co  Co70  1  0.50000000  0.50000000  0.00000000  1
  Co  Co71  1  0.22474300  0.50000000  0.40616600  1
  Co  Co72  1  0.65789400  0.15789400  0.10353600  1
  Co  Co73  1  0.84210600  0.34210600  0.89646400  1
  Co  Co74  1  0.27525700  0.00000000  0.59383400  1
  Co  Co75  1  0.00000000  0.00000000  0.00000000  1
  Co  Co76  1  0.15789400  0.65789400  0.89646400  1
  Co  Co77  1  0.50000000  0.22474300  0.59383400  1
