# generated using pymatgen
data_Ce12InPt7
_symmetry_space_group_name_H-M   'P 1'
_cell_length_a   11.09021574
_cell_length_b   11.09021574
_cell_length_c   11.09021574
_cell_angle_alpha   114.56803204
_cell_angle_beta   114.56803204
_cell_angle_gamma   99.69789437
_symmetry_Int_Tables_number   1
_chemical_formula_structural   Ce12InPt7
_chemical_formula_sum   'Ce24 In2 Pt14'
_cell_volume   1027.68413468
_cell_formula_units_Z   2
loop_
 _symmetry_equiv_pos_site_id
 _symmetry_equiv_pos_as_xyz
  1  'x, y, z'
loop_
 _atom_site_type_symbol
 _atom_site_label
 _atom_site_symmetry_multiplicity
 _atom_site_fract_x
 _atom_site_fract_y
 _atom_site_fract_z
 _atom_site_occupancy
  Ce  Ce0  1  0.28567200  0.14737000  0.72072000  1
  Ce  Ce1  1  0.67463300  0.17463300  0.84926600  1
  Ce  Ce2  1  0.57334900  0.43504800  0.72072000  1
  Ce  Ce3  1  0.42665100  0.56495200  0.27928000  1
  Ce  Ce4  1  0.56495200  0.28567200  0.13830200  1
  Ce  Ce5  1  0.78567200  0.06495200  0.13830200  1
  Ce  Ce6  1  0.35263000  0.21432800  0.27928000  1
  Ce  Ce7  1  0.06495200  0.92665100  0.27928000  1
  Ce  Ce8  1  0.92665100  0.64737000  0.86169800  1
  Ce  Ce9  1  0.35377500  0.85377500  0.50000000  1
  Ce  Ce10  1  0.32536700  0.82536700  0.15073400  1
  Ce  Ce11  1  0.64622500  0.14622500  0.50000000  1
  Ce  Ce12  1  0.14622500  0.64622500  0.50000000  1
  Ce  Ce13  1  0.14737000  0.42665100  0.86169800  1
  Ce  Ce14  1  0.85263000  0.57334900  0.13830200  1
  Ce  Ce15  1  0.71432800  0.85263000  0.27928000  1
  Ce  Ce16  1  0.21432800  0.93504800  0.86169800  1
  Ce  Ce17  1  0.64737000  0.78567200  0.72072000  1
  Ce  Ce18  1  0.07334900  0.35263000  0.13830200  1
  Ce  Ce19  1  0.17463300  0.32536700  0.50000000  1
  Ce  Ce20  1  0.82536700  0.67463300  0.50000000  1
  Ce  Ce21  1  0.93504800  0.07334900  0.72072000  1
  Ce  Ce22  1  0.85377500  0.35377500  0.50000000  1
  Ce  Ce23  1  0.43504800  0.71432800  0.86169800  1
  In  In24  1  0.50000000  0.50000000  0.00000000  1
  In  In25  1  0.00000000  0.00000000  0.00000000  1
  Pt  Pt26  1  0.51845000  0.01845000  0.15152900  1
  Pt  Pt27  1  0.63308000  0.48155000  0.50000000  1
  Pt  Pt28  1  0.36692000  0.51845000  0.50000000  1
  Pt  Pt29  1  0.37409500  0.12590500  0.50000000  1
  Pt  Pt30  1  0.12590500  0.62590500  0.75181000  1
  Pt  Pt31  1  0.86692000  0.36692000  0.84847100  1
  Pt  Pt32  1  0.48155000  0.98155000  0.84847100  1
  Pt  Pt33  1  0.13308000  0.63308000  0.15152900  1
  Pt  Pt34  1  0.01845000  0.86692000  0.50000000  1
  Pt  Pt35  1  0.62590500  0.87409500  0.50000000  1
  Pt  Pt36  1  0.87409500  0.37409500  0.24819000  1
  Pt  Pt37  1  0.25000000  0.25000000  0.00000000  1
  Pt  Pt38  1  0.75000000  0.75000000  0.00000000  1
  Pt  Pt39  1  0.98155000  0.13308000  0.50000000  1
