# generated using pymatgen
data_PrIn2Pd
_symmetry_space_group_name_H-M   'P 1'
_cell_length_a   11.23421084
_cell_length_b   11.23421084
_cell_length_c   11.23421084
_cell_angle_alpha   100.44588081
_cell_angle_beta   100.44588081
_cell_angle_gamma   129.59721930
_symmetry_Int_Tables_number   1
_chemical_formula_structural   PrIn2Pd
_chemical_formula_sum   'Pr10 In20 Pd10'
_cell_volume   988.52093668
_cell_formula_units_Z   10
loop_
 _symmetry_equiv_pos_site_id
 _symmetry_equiv_pos_as_xyz
  1  'x, y, z'
loop_
 _atom_site_type_symbol
 _atom_site_label
 _atom_site_symmetry_multiplicity
 _atom_site_fract_x
 _atom_site_fract_y
 _atom_site_fract_z
 _atom_site_occupancy
  Pr  Pr0  1  0.98725100  0.98725100  0.00000000  1
  Pr  Pr1  1  0.38226700  0.10168300  0.71941600  1
  Pr  Pr2  1  0.07272800  0.66592300  0.00000000  1
  Pr  Pr3  1  0.45780700  0.45780700  0.00000000  1
  Pr  Pr4  1  0.38226700  0.66285100  0.28058400  1
  Pr  Pr5  1  0.66592300  0.66592300  0.59319500  1
  Pr  Pr6  1  0.66285100  0.38226700  0.28058400  1
  Pr  Pr7  1  0.07272800  0.07272800  0.40680500  1
  Pr  Pr8  1  0.66592300  0.07272800  0.00000000  1
  Pr  Pr9  1  0.10168300  0.38226700  0.71941600  1
  In  In10  1  0.97932300  0.76637200  0.50599900  1
  In  In11  1  0.71355600  0.54607100  0.83251500  1
  In  In12  1  0.76637200  0.97932300  0.50599900  1
  In  In13  1  0.07985000  0.34677400  0.00000000  1
  In  In14  1  0.34677400  0.34677400  0.26692400  1
  In  In15  1  0.85976600  0.24303300  0.38326700  1
  In  In16  1  0.47650000  0.85976600  0.61673300  1
  In  In17  1  0.47332400  0.26037300  0.49400100  1
  In  In18  1  0.85976600  0.47650000  0.61673300  1
  In  In19  1  0.34677400  0.07985000  0.00000000  1
  In  In20  1  0.54607100  0.71355600  0.83251500  1
  In  In21  1  0.24303300  0.85976600  0.38326700  1
  In  In22  1  0.26037300  0.47332400  0.49400100  1
  In  In23  1  0.88104200  0.71355600  0.16748500  1
  In  In24  1  0.71355600  0.88104200  0.16748500  1
  In  In25  1  0.76637200  0.26037300  0.78704900  1
  In  In26  1  0.97932300  0.47332400  0.21295100  1
  In  In27  1  0.07985000  0.07985000  0.73307600  1
  In  In28  1  0.47332400  0.97932300  0.21295100  1
  In  In29  1  0.26037300  0.76637200  0.78704900  1
  Pd  Pd30  1  0.02350700  0.24158900  0.21808200  1
  Pd  Pd31  1  0.80542500  0.02350700  0.78191800  1
  Pd  Pd32  1  0.61236900  0.11236900  0.50000000  1
  Pd  Pd33  1  0.02350700  0.80542500  0.78191800  1
  Pd  Pd34  1  0.11236900  0.61236900  0.50000000  1
  Pd  Pd35  1  0.37100400  0.69115800  0.00000000  1
  Pd  Pd36  1  0.69115800  0.37100400  0.00000000  1
  Pd  Pd37  1  0.24158900  0.02350700  0.21808200  1
  Pd  Pd38  1  0.37100400  0.37100400  0.67984600  1
  Pd  Pd39  1  0.69115800  0.69115800  0.32015400  1
