# generated using pymatgen
data_SiO2
_symmetry_space_group_name_H-M   'P 1'
_cell_length_a   4.68462400
_cell_length_b   4.68462400
_cell_length_c   15.77119900
_cell_angle_alpha   90.00000000
_cell_angle_beta   90.00000000
_cell_angle_gamma   90.00000000
_symmetry_Int_Tables_number   1
_chemical_formula_structural   SiO2
_chemical_formula_sum   'Si8 O16'
_cell_volume   346.11003377
_cell_formula_units_Z   8
loop_
 _symmetry_equiv_pos_site_id
 _symmetry_equiv_pos_as_xyz
  1  'x, y, z'
loop_
 _atom_site_type_symbol
 _atom_site_label
 _atom_site_symmetry_multiplicity
 _atom_site_fract_x
 _atom_site_fract_y
 _atom_site_fract_z
 _atom_site_occupancy
  Si  Si0  1  0.57628200  0.02348100  0.09674200  1
  Si  Si1  1  0.97651900  0.57628200  0.84674200  1
  Si  Si2  1  0.02348100  0.42371800  0.34674200  1
  Si  Si3  1  0.42371800  0.02348100  0.90325800  1
  Si  Si4  1  0.97651900  0.42371800  0.65325800  1
  Si  Si5  1  0.02348100  0.57628200  0.15325800  1
  Si  Si6  1  0.42371800  0.97651900  0.59674200  1
  Si  Si7  1  0.57628200  0.97651900  0.40325800  1
  O  O8  1  0.88558400  0.50000000  0.75000000  1
  O  O9  1  0.79799000  0.29946600  0.12675400  1
  O  O10  1  0.70053400  0.79799000  0.87675400  1
  O  O11  1  0.20201000  0.29946600  0.87324600  1
  O  O12  1  0.50000000  0.11441600  0.00000000  1
  O  O13  1  0.20020400  0.20020400  0.62500000  1
  O  O14  1  0.20020400  0.79979600  0.87500000  1
  O  O15  1  0.79979600  0.79979600  0.12500000  1
  O  O16  1  0.29946600  0.20201000  0.37675400  1
  O  O17  1  0.79979600  0.20020400  0.37500000  1
  O  O18  1  0.79799000  0.70053400  0.37324600  1
  O  O19  1  0.20201000  0.70053400  0.62675400  1
  O  O20  1  0.50000000  0.88558400  0.50000000  1
  O  O21  1  0.11441600  0.50000000  0.25000000  1
  O  O22  1  0.70053400  0.20201000  0.62324600  1
  O  O23  1  0.29946600  0.79799000  0.12324600  1
