# generated using pymatgen
data_OsC4(ClO2)2
_symmetry_space_group_name_H-M   'P 1'
_cell_length_a   6.16942770
_cell_length_b   6.16942770
_cell_length_c   11.81661110
_cell_angle_alpha   86.47522267
_cell_angle_beta   86.47522267
_cell_angle_gamma   114.23515947
_symmetry_Int_Tables_number   1
_chemical_formula_structural   OsC4(ClO2)2
_chemical_formula_sum   'Os2 C8 Cl4 O8'
_cell_volume   407.48562110
_cell_formula_units_Z   2
loop_
 _symmetry_equiv_pos_site_id
 _symmetry_equiv_pos_as_xyz
  1  'x, y, z'
loop_
 _atom_site_type_symbol
 _atom_site_label
 _atom_site_symmetry_multiplicity
 _atom_site_fract_x
 _atom_site_fract_y
 _atom_site_fract_z
 _atom_site_occupancy
  Os  Os0  1  0.43058600  0.56941400  0.75000000  1
  Os  Os1  1  0.56941400  0.43058600  0.25000000  1
  C  C2  1  0.39437400  0.79108100  0.84801200  1
  C  C3  1  0.20891900  0.60562600  0.65198800  1
  C  C4  1  0.60562600  0.20891900  0.15198800  1
  C  C5  1  0.16841800  0.29752400  0.84253700  1
  C  C6  1  0.83158200  0.70247600  0.15746300  1
  C  C7  1  0.29752400  0.16841800  0.34253700  1
  C  C8  1  0.79108100  0.39437400  0.34801200  1
  C  C9  1  0.70247600  0.83158200  0.65746300  1
  Cl  Cl10  1  0.47302600  0.27006600  0.63388000  1
  Cl  Cl11  1  0.27006600  0.47302600  0.13388000  1
  Cl  Cl12  1  0.52697400  0.72993400  0.36612000  1
  Cl  Cl13  1  0.72993400  0.52697400  0.86612000  1
  O  O14  1  0.85973900  0.98953400  0.60803800  1
  O  O15  1  0.14026100  0.01046600  0.39196200  1
  O  O16  1  0.98953400  0.85973900  0.10803800  1
  O  O17  1  0.63405700  0.07833900  0.09330700  1
  O  O18  1  0.92166100  0.36594300  0.40669300  1
  O  O19  1  0.01046600  0.14026100  0.89196200  1
  O  O20  1  0.36594300  0.92166100  0.90669300  1
  O  O21  1  0.07833900  0.63405700  0.59330700  1
