# generated using pymatgen
data_FeTeS2N2Cl5
_symmetry_space_group_name_H-M   'P 1'
_cell_length_a   12.56750300
_cell_length_b   7.64162500
_cell_length_c   12.82016925
_cell_angle_alpha   82.60648670
_cell_angle_beta   90.00000000
_cell_angle_gamma   90.00000000
_symmetry_Int_Tables_number   1
_chemical_formula_structural   FeTeS2N2Cl5
_chemical_formula_sum   'Fe4 Te4 S8 N8 Cl20'
_cell_volume   1220.96311774
_cell_formula_units_Z   4
loop_
 _symmetry_equiv_pos_site_id
 _symmetry_equiv_pos_as_xyz
  1  'x, y, z'
loop_
 _atom_site_type_symbol
 _atom_site_label
 _atom_site_symmetry_multiplicity
 _atom_site_fract_x
 _atom_site_fract_y
 _atom_site_fract_z
 _atom_site_occupancy
  Fe  Fe0  1  0.14315000  0.27303600  0.46231600  1
  Fe  Fe1  1  0.64315000  0.72696400  0.03768400  1
  Fe  Fe2  1  0.85685000  0.72696400  0.53768400  1
  Fe  Fe3  1  0.35685000  0.27303600  0.96231600  1
  Te  Te4  1  0.06192300  0.86137100  0.26013500  1
  Te  Te5  1  0.56192300  0.13862900  0.23986500  1
  Te  Te6  1  0.93807700  0.13862900  0.73986500  1
  Te  Te7  1  0.43807700  0.86137100  0.76013500  1
  S  S8  1  0.01493300  0.37306500  0.83945700  1
  S  S9  1  0.30788200  0.70875900  0.58915700  1
  S  S10  1  0.51493300  0.62693500  0.66054300  1
  S  S11  1  0.19211800  0.70875900  0.08915700  1
  S  S12  1  0.48506700  0.37306500  0.33945700  1
  S  S13  1  0.69211800  0.29124100  0.41084300  1
  S  S14  1  0.80788200  0.29124100  0.91084300  1
  S  S15  1  0.98506700  0.62693500  0.16054300  1
  N  N16  1  0.08496900  0.60514600  0.08297100  1
  N  N17  1  0.41503100  0.60514600  0.58297100  1
  N  N18  1  0.69073800  0.16332300  0.32482300  1
  N  N19  1  0.58496900  0.39485400  0.41702900  1
  N  N20  1  0.19073800  0.83667700  0.17517700  1
  N  N21  1  0.80926200  0.16332300  0.82482300  1
  N  N22  1  0.91503100  0.39485400  0.91702900  1
  N  N23  1  0.30926200  0.83667700  0.67517700  1
  Cl  Cl24  1  0.00187000  0.87717100  0.84548000  1
  Cl  Cl25  1  0.76818500  0.94248400  0.60082600  1
  Cl  Cl26  1  0.73181500  0.94248400  0.10082600  1
  Cl  Cl27  1  0.83310900  0.73598600  0.36462100  1
  Cl  Cl28  1  0.99813000  0.12282900  0.15452000  1
  Cl  Cl29  1  0.49813000  0.87717100  0.34548000  1
  Cl  Cl30  1  0.33310900  0.26401400  0.13537900  1
  Cl  Cl31  1  0.97345600  0.24170300  0.43061800  1
  Cl  Cl32  1  0.29669700  0.52659900  0.87780600  1
  Cl  Cl33  1  0.47345600  0.75829700  0.06938200  1
  Cl  Cl34  1  0.26818500  0.05751600  0.89917400  1
  Cl  Cl35  1  0.52654400  0.24170300  0.93061800  1
  Cl  Cl36  1  0.02654400  0.75829700  0.56938200  1
  Cl  Cl37  1  0.16689100  0.26401400  0.63537900  1
  Cl  Cl38  1  0.23181500  0.05751600  0.39917400  1
  Cl  Cl39  1  0.20330300  0.52659900  0.37780600  1
  Cl  Cl40  1  0.50187000  0.12282900  0.65452000  1
  Cl  Cl41  1  0.66689100  0.73598600  0.86462100  1
  Cl  Cl42  1  0.79669700  0.47340100  0.62219400  1
  Cl  Cl43  1  0.70330300  0.47340100  0.12219400  1
