# generated using pymatgen
data_BaIn4Ir
_symmetry_space_group_name_H-M   'P 1'
_cell_length_a   4.47214300
_cell_length_b   8.06966600
_cell_length_c   8.74549700
_cell_angle_alpha   90.00000000
_cell_angle_beta   90.00000000
_cell_angle_gamma   90.00000000
_symmetry_Int_Tables_number   1
_chemical_formula_structural   BaIn4Ir
_chemical_formula_sum   'Ba2 In8 Ir2'
_cell_volume   315.61362033
_cell_formula_units_Z   2
loop_
 _symmetry_equiv_pos_site_id
 _symmetry_equiv_pos_as_xyz
  1  'x, y, z'
loop_
 _atom_site_type_symbol
 _atom_site_label
 _atom_site_symmetry_multiplicity
 _atom_site_fract_x
 _atom_site_fract_y
 _atom_site_fract_z
 _atom_site_occupancy
  Ba  Ba0  1  0.00000000  0.60776700  0.25000000  1
  Ba  Ba1  1  0.00000000  0.39223300  0.75000000  1
  In  In2  1  0.50000000  0.94490900  0.25000000  1
  In  In3  1  0.50000000  0.05509100  0.75000000  1
  In  In4  1  0.50000000  0.70040700  0.56833700  1
  In  In5  1  0.50000000  0.29959300  0.43166300  1
  In  In6  1  0.00000000  0.00000000  0.00000000  1
  In  In7  1  0.50000000  0.70040700  0.93166300  1
  In  In8  1  0.50000000  0.29959300  0.06833700  1
  In  In9  1  0.00000000  0.00000000  0.50000000  1
  Ir  Ir10  1  0.00000000  0.81585800  0.75000000  1
  Ir  Ir11  1  0.00000000  0.18414200  0.25000000  1
