# generated using pymatgen
data_SiO2
_symmetry_space_group_name_H-M   'P 1'
_cell_length_a   12.68577414
_cell_length_b   12.68577414
_cell_length_c   12.69196000
_cell_angle_alpha   90.00000000
_cell_angle_beta   90.00000000
_cell_angle_gamma   115.01852249
_symmetry_Int_Tables_number   1
_chemical_formula_structural   SiO2
_chemical_formula_sum   'Si28 O56'
_cell_volume   1850.85697478
_cell_formula_units_Z   28
loop_
 _symmetry_equiv_pos_site_id
 _symmetry_equiv_pos_as_xyz
  1  'x, y, z'
loop_
 _atom_site_type_symbol
 _atom_site_label
 _atom_site_symmetry_multiplicity
 _atom_site_fract_x
 _atom_site_fract_y
 _atom_site_fract_z
 _atom_site_occupancy
  Si  Si0  1  0.04240100  0.18750600  0.62322400  1
  Si  Si1  1  0.81249400  0.95759900  0.37677600  1
  Si  Si2  1  0.18750600  0.04240100  0.37677600  1
  Si  Si3  1  0.95759900  0.81249400  0.62322400  1
  Si  Si4  1  0.95759900  0.81249400  0.37677600  1
  Si  Si5  1  0.18750600  0.04240100  0.62322400  1
  Si  Si6  1  0.81249400  0.95759900  0.62322400  1
  Si  Si7  1  0.04240100  0.18750600  0.37677600  1
  Si  Si8  1  0.04928100  0.34979600  0.80740700  1
  Si  Si9  1  0.65020400  0.95071900  0.19259300  1
  Si  Si10  1  0.34979600  0.04928100  0.19259300  1
  Si  Si11  1  0.95071900  0.65020400  0.80740700  1
  Si  Si12  1  0.95071900  0.65020400  0.19259300  1
  Si  Si13  1  0.34979600  0.04928100  0.80740700  1
  Si  Si14  1  0.65020400  0.95071900  0.80740700  1
  Si  Si15  1  0.04928100  0.34979600  0.19259300  1
  Si  Si16  1  0.83162300  0.39223900  0.87305500  1
  Si  Si17  1  0.60776100  0.16837700  0.12694500  1
  Si  Si18  1  0.39223900  0.83162300  0.12694500  1
  Si  Si19  1  0.16837700  0.60776100  0.87305500  1
  Si  Si20  1  0.16837700  0.60776100  0.12694500  1
  Si  Si21  1  0.39223900  0.83162300  0.87305500  1
  Si  Si22  1  0.60776100  0.16837700  0.87305500  1
  Si  Si23  1  0.83162300  0.39223900  0.12694500  1
  Si  Si24  1  0.03772300  0.18794600  0.00000000  1
  Si  Si25  1  0.81205400  0.96227700  0.00000000  1
  Si  Si26  1  0.18794600  0.03772300  0.00000000  1
  Si  Si27  1  0.96227700  0.81205400  0.00000000  1
  O  O28  1  0.06984600  0.26851100  0.89581200  1
  O  O29  1  0.73148900  0.93015400  0.10418800  1
  O  O30  1  0.26851100  0.06984600  0.10418800  1
  O  O31  1  0.93015400  0.73148900  0.89581200  1
  O  O32  1  0.93015400  0.73148900  0.10418800  1
  O  O33  1  0.26851100  0.06984600  0.89581200  1
  O  O34  1  0.73148900  0.93015400  0.89581200  1
  O  O35  1  0.06984600  0.26851100  0.10418800  1
  O  O36  1  0.11446800  0.11446800  0.00000000  1
  O  O37  1  0.88553200  0.88553200  0.00000000  1
  O  O38  1  0.89956100  0.10043900  0.00000000  1
  O  O39  1  0.10043900  0.89956100  0.00000000  1
  O  O40  1  0.03911700  0.22075200  0.50000000  1
  O  O41  1  0.77924800  0.96088300  0.50000000  1
  O  O42  1  0.22075200  0.03911700  0.50000000  1
  O  O43  1  0.96088300  0.77924800  0.50000000  1
  O  O44  1  0.91846400  0.08153600  0.65676000  1
  O  O45  1  0.91846400  0.08153600  0.34324000  1
  O  O46  1  0.08153600  0.91846400  0.34324000  1
  O  O47  1  0.08153600  0.91846400  0.65676000  1
  O  O48  1  0.06417000  0.30250300  0.69209500  1
  O  O49  1  0.69749700  0.93583000  0.30790500  1
  O  O50  1  0.30250300  0.06417000  0.30790500  1
  O  O51  1  0.93583000  0.69749700  0.69209500  1
  O  O52  1  0.93583000  0.69749700  0.30790500  1
  O  O53  1  0.30250300  0.06417000  0.69209500  1
  O  O54  1  0.69749700  0.93583000  0.69209500  1
  O  O55  1  0.06417000  0.30250300  0.30790500  1
  O  O56  1  0.14746400  0.14746400  0.64307400  1
  O  O57  1  0.85253600  0.85253600  0.35692600  1
  O  O58  1  0.14746400  0.14746400  0.35692600  1
  O  O59  1  0.85253600  0.85253600  0.64307400  1
  O  O60  1  0.91917000  0.34419600  0.81908500  1
  O  O61  1  0.65580400  0.08083000  0.18091500  1
  O  O62  1  0.34419600  0.91917000  0.18091500  1
  O  O63  1  0.08083000  0.65580400  0.81908500  1
  O  O64  1  0.08083000  0.65580400  0.18091500  1
  O  O65  1  0.34419600  0.91917000  0.81908500  1
  O  O66  1  0.65580400  0.08083000  0.81908500  1
  O  O67  1  0.91917000  0.34419600  0.18091500  1
  O  O68  1  0.14682400  0.48295900  0.82175600  1
  O  O69  1  0.51704100  0.85317600  0.17824400  1
  O  O70  1  0.48295900  0.14682400  0.17824400  1
  O  O71  1  0.85317600  0.51704100  0.82175600  1
  O  O72  1  0.85317600  0.51704100  0.17824400  1
  O  O73  1  0.48295900  0.14682400  0.82175600  1
  O  O74  1  0.51704100  0.85317600  0.82175600  1
  O  O75  1  0.14682400  0.48295900  0.17824400  1
  O  O76  1  0.69820100  0.30179900  0.84856300  1
  O  O77  1  0.69820100  0.30179900  0.15143700  1
  O  O78  1  0.30179900  0.69820100  0.15143700  1
  O  O79  1  0.30179900  0.69820100  0.84856300  1
  O  O80  1  0.85484300  0.40507700  0.00000000  1
  O  O81  1  0.59492300  0.14515700  0.00000000  1
  O  O82  1  0.40507700  0.85484300  0.00000000  1
  O  O83  1  0.14515700  0.59492300  0.00000000  1
