# generated using pymatgen
data_SiO2
_symmetry_space_group_name_H-M   'P 1'
_cell_length_a   10.36080451
_cell_length_b   10.36080451
_cell_length_c   10.36080451
_cell_angle_alpha   95.62806066
_cell_angle_beta   95.62806066
_cell_angle_gamma   143.50024430
_symmetry_Int_Tables_number   1
_chemical_formula_structural   SiO2
_chemical_formula_sum   'Si10 O20'
_cell_volume   628.27803435
_cell_formula_units_Z   10
loop_
 _symmetry_equiv_pos_site_id
 _symmetry_equiv_pos_as_xyz
  1  'x, y, z'
loop_
 _atom_site_type_symbol
 _atom_site_label
 _atom_site_symmetry_multiplicity
 _atom_site_fract_x
 _atom_site_fract_y
 _atom_site_fract_z
 _atom_site_occupancy
  Si  Si0  1  0.11988800  0.98527900  0.86539100  1
  Si  Si1  1  0.50449700  0.86988800  0.63460900  1
  Si  Si2  1  0.23527900  0.86988800  0.36539100  1
  Si  Si3  1  0.13011200  0.76472100  0.63460900  1
  Si  Si4  1  0.13011200  0.49550300  0.36539100  1
  Si  Si5  1  0.11988800  0.25449700  0.13460900  1
  Si  Si6  1  0.74550300  0.88011200  0.86539100  1
  Si  Si7  1  0.01472100  0.88011200  0.13460900  1
  Si  Si8  1  0.50000000  0.50000000  0.00000000  1
  Si  Si9  1  0.75000000  0.25000000  0.50000000  1
  O  O10  1  0.12500000  0.87500000  0.75000000  1
  O  O11  1  0.62500000  0.87500000  0.75000000  1
  O  O12  1  0.12500000  0.87500000  0.25000000  1
  O  O13  1  0.12500000  0.37500000  0.25000000  1
  O  O14  1  0.09599900  0.90400100  0.00000000  1
  O  O15  1  0.34599900  0.84599900  0.69199800  1
  O  O16  1  0.15400100  0.65400100  0.30800200  1
  O  O17  1  0.90400100  0.09599900  0.00000000  1
  O  O18  1  0.15400100  0.84599900  0.50000000  1
  O  O19  1  0.90400100  0.90400100  0.80800200  1
  O  O20  1  0.09599900  0.09599900  0.19199800  1
  O  O21  1  0.34599900  0.65400100  0.50000000  1
  O  O22  1  0.35666500  0.26074000  0.90407500  1
  O  O23  1  0.70259000  0.10666500  0.59592500  1
  O  O24  1  0.51074000  0.10666500  0.40407500  1
  O  O25  1  0.89333500  0.48926000  0.59592500  1
  O  O26  1  0.89333500  0.29741000  0.40407500  1
  O  O27  1  0.35666500  0.45259000  0.09592500  1
  O  O28  1  0.54741000  0.64333500  0.90407500  1
  O  O29  1  0.73926000  0.64333500  0.09592500  1
