# generated using pymatgen
data_SiO2
_symmetry_space_group_name_H-M   'P 1'
_cell_length_a   8.65290566
_cell_length_b   8.65290566
_cell_length_c   14.12146300
_cell_angle_alpha   90.00000000
_cell_angle_beta   90.00000000
_cell_angle_gamma   109.70930022
_symmetry_Int_Tables_number   1
_chemical_formula_structural   SiO2
_chemical_formula_sum   'Si16 O32'
_cell_volume   995.37131333
_cell_formula_units_Z   16
loop_
 _symmetry_equiv_pos_site_id
 _symmetry_equiv_pos_as_xyz
  1  'x, y, z'
loop_
 _atom_site_type_symbol
 _atom_site_label
 _atom_site_symmetry_multiplicity
 _atom_site_fract_x
 _atom_site_fract_y
 _atom_site_fract_z
 _atom_site_occupancy
  Si  Si0  1  0.04900700  0.26564300  0.98165600  1
  Si  Si1  1  0.26564300  0.04900700  0.01834400  1
  Si  Si2  1  0.73435700  0.95099300  0.51834400  1
  Si  Si3  1  0.95099300  0.73435700  0.48165600  1
  Si  Si4  1  0.95099300  0.73435700  0.01834400  1
  Si  Si5  1  0.73435700  0.95099300  0.98165600  1
  Si  Si6  1  0.26564300  0.04900700  0.48165600  1
  Si  Si7  1  0.04900700  0.26564300  0.51834400  1
  Si  Si8  1  0.89181900  0.41960100  0.14023900  1
  Si  Si9  1  0.41960100  0.89181900  0.85976100  1
  Si  Si10  1  0.58039900  0.10818100  0.35976100  1
  Si  Si11  1  0.10818100  0.58039900  0.64023900  1
  Si  Si12  1  0.10818100  0.58039900  0.85976100  1
  Si  Si13  1  0.58039900  0.10818100  0.14023900  1
  Si  Si14  1  0.41960100  0.89181900  0.64023900  1
  Si  Si15  1  0.89181900  0.41960100  0.35976100  1
  O  O16  1  0.88797400  0.11202600  0.95007700  1
  O  O17  1  0.11202600  0.88797400  0.04992300  1
  O  O18  1  0.88797400  0.11202600  0.54992300  1
  O  O19  1  0.11202600  0.88797400  0.45007700  1
  O  O20  1  0.01253700  0.34909700  0.07874800  1
  O  O21  1  0.34909700  0.01253700  0.92125200  1
  O  O22  1  0.65090300  0.98746300  0.42125200  1
  O  O23  1  0.98746300  0.65090300  0.57874800  1
  O  O24  1  0.98746300  0.65090300  0.92125200  1
  O  O25  1  0.65090300  0.98746300  0.07874800  1
  O  O26  1  0.34909700  0.01253700  0.57874800  1
  O  O27  1  0.01253700  0.34909700  0.42125200  1
  O  O28  1  0.20372300  0.20372300  0.00000000  1
  O  O29  1  0.79627700  0.79627700  0.50000000  1
  O  O30  1  0.79627700  0.79627700  0.00000000  1
  O  O31  1  0.20372300  0.20372300  0.50000000  1
  O  O32  1  0.09570700  0.39884400  0.89629900  1
  O  O33  1  0.39884400  0.09570700  0.10370100  1
  O  O34  1  0.60115600  0.90429300  0.60370100  1
  O  O35  1  0.90429300  0.60115600  0.39629900  1
  O  O36  1  0.90429300  0.60115600  0.10370100  1
  O  O37  1  0.60115600  0.90429300  0.89629900  1
  O  O38  1  0.39884400  0.09570700  0.39629900  1
  O  O39  1  0.09570700  0.39884400  0.60370100  1
  O  O40  1  0.95048000  0.43053000  0.25000000  1
  O  O41  1  0.43053000  0.95048000  0.75000000  1
  O  O42  1  0.56947000  0.04952000  0.25000000  1
  O  O43  1  0.04952000  0.56947000  0.75000000  1
  O  O44  1  0.70164600  0.29835400  0.12997000  1
  O  O45  1  0.29835400  0.70164600  0.87003000  1
  O  O46  1  0.70164600  0.29835400  0.37003000  1
  O  O47  1  0.29835400  0.70164600  0.62997000  1
