# generated using pymatgen
data_UMnO4
_symmetry_space_group_name_H-M   'P 1'
_cell_length_a   5.96226763
_cell_length_b   5.96226763
_cell_length_c   5.96226763
_cell_angle_alpha   110.93806116
_cell_angle_beta   109.50703867
_cell_angle_gamma   107.98203856
_symmetry_Int_Tables_number   1
_chemical_formula_structural   UMnO4
_chemical_formula_sum   'U2 Mn2 O8'
_cell_volume   163.05100124
_cell_formula_units_Z   2
loop_
 _symmetry_equiv_pos_site_id
 _symmetry_equiv_pos_as_xyz
  1  'x, y, z'
loop_
 _atom_site_type_symbol
 _atom_site_label
 _atom_site_symmetry_multiplicity
 _atom_site_fract_x
 _atom_site_fract_y
 _atom_site_fract_z
 _atom_site_occupancy
  U  U0  1  0.25701700  0.25000000  0.00701700  1
  U  U1  1  0.74298300  0.75000000  0.99298300  1
  Mn  Mn2  1  0.50000000  0.00000000  0.50000000  1
  Mn  Mn3  1  0.00000000  0.50000000  0.50000000  1
  O  O4  1  0.30763300  0.49438400  0.81325000  1
  O  O5  1  0.69236700  0.50561600  0.18675000  1
  O  O6  1  0.81886600  0.00561600  0.81325000  1
  O  O7  1  0.18113400  0.99438400  0.18675000  1
  O  O8  1  0.25786000  0.54276500  0.30062600  1
  O  O9  1  0.74214000  0.04276500  0.28490500  1
  O  O10  1  0.25786000  0.95723500  0.71509500  1
  O  O11  1  0.74214000  0.45723500  0.69937400  1
