# generated using pymatgen
data_AgSbC6N4(OF3)2
_symmetry_space_group_name_H-M   'P 1'
_cell_length_a   7.90876567
_cell_length_b   7.90876567
_cell_length_c   10.68878695
_cell_angle_alpha   89.80517084
_cell_angle_beta   89.80517084
_cell_angle_gamma   81.66968083
_symmetry_Int_Tables_number   1
_chemical_formula_structural   AgSbC6N4(OF3)2
_chemical_formula_sum   'Ag2 Sb2 C12 N8 O4 F12'
_cell_volume   661.50781583
_cell_formula_units_Z   2
loop_
 _symmetry_equiv_pos_site_id
 _symmetry_equiv_pos_as_xyz
  1  'x, y, z'
loop_
 _atom_site_type_symbol
 _atom_site_label
 _atom_site_symmetry_multiplicity
 _atom_site_fract_x
 _atom_site_fract_y
 _atom_site_fract_z
 _atom_site_occupancy
  Ag  Ag0  1  0.30306500  0.69693500  0.75000000  1
  Ag  Ag1  1  0.69693500  0.30306500  0.25000000  1
  Sb  Sb2  1  0.70237300  0.29762700  0.75000000  1
  Sb  Sb3  1  0.29762700  0.70237300  0.25000000  1
  C  C4  1  0.22601400  0.05263200  0.94168000  1
  C  C5  1  0.18443700  0.21588900  0.00795500  1
  C  C6  1  0.79252700  0.63506700  0.06953000  1
  C  C7  1  0.81556300  0.78411100  0.99204500  1
  C  C8  1  0.21588900  0.18443700  0.50795500  1
  C  C9  1  0.05263200  0.22601400  0.44168000  1
  C  C10  1  0.36493300  0.20747300  0.43047000  1
  C  C11  1  0.78411100  0.81556300  0.49204500  1
  C  C12  1  0.63506700  0.79252700  0.56953000  1
  C  C13  1  0.94736800  0.77398600  0.55832000  1
  C  C14  1  0.20747300  0.36493300  0.93047000  1
  C  C15  1  0.77398600  0.94736800  0.05832000  1
  N  N16  1  0.25643000  0.92379700  0.88868900  1
  N  N17  1  0.77223300  0.52051800  0.13318900  1
  N  N18  1  0.52051800  0.77223300  0.63318900  1
  N  N19  1  0.07620300  0.74357000  0.61131100  1
  N  N20  1  0.92379700  0.25643000  0.38868900  1
  N  N21  1  0.74357000  0.07620300  0.11131100  1
  N  N22  1  0.22776700  0.47948200  0.86681100  1
  N  N23  1  0.47948200  0.22776700  0.36681100  1
  O  O24  1  0.22597200  0.13568700  0.61603200  1
  O  O25  1  0.13568700  0.22597200  0.11603200  1
  O  O26  1  0.77402800  0.86431300  0.38396800  1
  O  O27  1  0.86431300  0.77402800  0.88396800  1
  F  F28  1  0.89526600  0.22842500  0.85747700  1
  F  F29  1  0.10473400  0.77157500  0.14252300  1
  F  F30  1  0.63091900  0.49135900  0.85530000  1
  F  F31  1  0.22842500  0.89526600  0.35747700  1
  F  F32  1  0.49135900  0.63091900  0.35530000  1
  F  F33  1  0.50864100  0.36908100  0.64470000  1
  F  F34  1  0.83801800  0.43150800  0.65217700  1
  F  F35  1  0.16198200  0.56849200  0.34782300  1
  F  F36  1  0.36908100  0.50864100  0.14470000  1
  F  F37  1  0.56849200  0.16198200  0.84782300  1
  F  F38  1  0.77157500  0.10473400  0.64252300  1
  F  F39  1  0.43150800  0.83801800  0.15217700  1
