# generated using pymatgen
data_Nd5Si4
_symmetry_space_group_name_H-M   'P 1'
_cell_length_a   7.77801100
_cell_length_b   7.97176800
_cell_length_c   15.18747700
_cell_angle_alpha   90.00000000
_cell_angle_beta   90.00000000
_cell_angle_gamma   90.00000000
_symmetry_Int_Tables_number   1
_chemical_formula_structural   Nd5Si4
_chemical_formula_sum   'Nd20 Si16'
_cell_volume   941.69190540
_cell_formula_units_Z   4
loop_
 _symmetry_equiv_pos_site_id
 _symmetry_equiv_pos_as_xyz
  1  'x, y, z'
loop_
 _atom_site_type_symbol
 _atom_site_label
 _atom_site_symmetry_multiplicity
 _atom_site_fract_x
 _atom_site_fract_y
 _atom_site_fract_z
 _atom_site_occupancy
  Nd  Nd0  1  0.13944600  0.51321600  0.75000000  1
  Nd  Nd1  1  0.81128100  0.31876600  0.62197300  1
  Nd  Nd2  1  0.46190200  0.68665000  0.89953400  1
  Nd  Nd3  1  0.96190200  0.81335000  0.89953400  1
  Nd  Nd4  1  0.18871900  0.68123400  0.12197300  1
  Nd  Nd5  1  0.68871900  0.81876600  0.12197300  1
  Nd  Nd6  1  0.31128100  0.18123400  0.87802700  1
  Nd  Nd7  1  0.18871900  0.68123400  0.37802700  1
  Nd  Nd8  1  0.03809800  0.18665000  0.10046600  1
  Nd  Nd9  1  0.31128100  0.18123400  0.62197300  1
  Nd  Nd10  1  0.86055400  0.48678400  0.25000000  1
  Nd  Nd11  1  0.36055400  0.01321600  0.25000000  1
  Nd  Nd12  1  0.53809800  0.31335000  0.39953400  1
  Nd  Nd13  1  0.81128100  0.31876600  0.87802700  1
  Nd  Nd14  1  0.96190200  0.81335000  0.60046600  1
  Nd  Nd15  1  0.46190200  0.68665000  0.60046600  1
  Nd  Nd16  1  0.03809800  0.18665000  0.39953400  1
  Nd  Nd17  1  0.68871900  0.81876600  0.37802700  1
  Nd  Nd18  1  0.63944600  0.98678400  0.75000000  1
  Nd  Nd19  1  0.53809800  0.31335000  0.10046600  1
  Si  Si20  1  0.48201400  0.59904500  0.25000000  1
  Si  Si21  1  0.25018900  0.37985000  0.25000000  1
  Si  Si22  1  0.86507300  0.52518800  0.45933500  1
  Si  Si23  1  0.51798600  0.40095500  0.75000000  1
  Si  Si24  1  0.63492700  0.02518800  0.95933500  1
  Si  Si25  1  0.01798600  0.09904500  0.75000000  1
  Si  Si26  1  0.74981100  0.62015000  0.75000000  1
  Si  Si27  1  0.75018900  0.12015000  0.25000000  1
  Si  Si28  1  0.36507300  0.97481200  0.45933500  1
  Si  Si29  1  0.98201400  0.90095500  0.25000000  1
  Si  Si30  1  0.36507300  0.97481200  0.04066500  1
  Si  Si31  1  0.63492700  0.02518800  0.54066500  1
  Si  Si32  1  0.13492700  0.47481200  0.95933500  1
  Si  Si33  1  0.13492700  0.47481200  0.54066500  1
  Si  Si34  1  0.86507300  0.52518800  0.04066500  1
  Si  Si35  1  0.24981100  0.87985000  0.75000000  1
