# generated using pymatgen
data_InAs
_symmetry_space_group_name_H-M   'P 1'
_cell_length_a   4.13741249
_cell_length_b   4.13741249
_cell_length_c   16.95044000
_cell_angle_alpha   90.00000000
_cell_angle_beta   90.00000000
_cell_angle_gamma   92.40989285
_symmetry_Int_Tables_number   1
_chemical_formula_structural   InAs
_chemical_formula_sum   'In6 As6'
_cell_volume   289.90409683
_cell_formula_units_Z   6
loop_
 _symmetry_equiv_pos_site_id
 _symmetry_equiv_pos_as_xyz
  1  'x, y, z'
loop_
 _atom_site_type_symbol
 _atom_site_label
 _atom_site_symmetry_multiplicity
 _atom_site_fract_x
 _atom_site_fract_y
 _atom_site_fract_z
 _atom_site_occupancy
  In  In0  1  0.58651400  0.41348600  0.59028200  1
  In  In1  1  0.04682800  0.95317200  0.25000000  1
  In  In2  1  0.58651400  0.41348600  0.90971800  1
  In  In3  1  0.95317200  0.04682800  0.75000000  1
  In  In4  1  0.41348600  0.58651400  0.09028200  1
  In  In5  1  0.41348600  0.58651400  0.40971800  1
  As  As6  1  0.07609800  0.92390200  0.56955100  1
  As  As7  1  0.44273900  0.55726100  0.75000000  1
  As  As8  1  0.92390200  0.07609800  0.43044900  1
  As  As9  1  0.55726100  0.44273900  0.25000000  1
  As  As10  1  0.92390200  0.07609800  0.06955100  1
  As  As11  1  0.07609800  0.92390200  0.93044900  1
