# generated using pymatgen
data_Sb8Pb7S19
_symmetry_space_group_name_H-M   'P 1'
_cell_length_a   9.14923690
_cell_length_b   9.14923690
_cell_length_c   22.05846383
_cell_angle_alpha   88.33633112
_cell_angle_beta   88.33633112
_cell_angle_gamma   81.81620982
_symmetry_Int_Tables_number   1
_chemical_formula_structural   Sb8Pb7S19
_chemical_formula_sum   'Sb16 Pb14 S38'
_cell_volume   1826.32909537
_cell_formula_units_Z   2
loop_
 _symmetry_equiv_pos_site_id
 _symmetry_equiv_pos_as_xyz
  1  'x, y, z'
loop_
 _atom_site_type_symbol
 _atom_site_label
 _atom_site_symmetry_multiplicity
 _atom_site_fract_x
 _atom_site_fract_y
 _atom_site_fract_z
 _atom_site_occupancy
  Sb  Sb0  1  0.09605900  0.72527200  0.32229500  1
  Sb  Sb1  1  0.77963400  0.97403300  0.00251500  1
  Sb  Sb2  1  0.46985300  0.23559400  0.10506000  1
  Sb  Sb3  1  0.76440600  0.53014700  0.39494000  1
  Sb  Sb4  1  0.39868900  0.36937400  0.44691800  1
  Sb  Sb5  1  0.27472800  0.90394100  0.17770500  1
  Sb  Sb6  1  0.02596700  0.22036600  0.49748500  1
  Sb  Sb7  1  0.90394100  0.27472800  0.67770500  1
  Sb  Sb8  1  0.36937400  0.39868900  0.94691800  1
  Sb  Sb9  1  0.97403300  0.77963400  0.50251500  1
  Sb  Sb10  1  0.72527200  0.09605900  0.82229500  1
  Sb  Sb11  1  0.53014700  0.76440600  0.89494000  1
  Sb  Sb12  1  0.63062600  0.60131100  0.05308200  1
  Sb  Sb13  1  0.22036600  0.02596700  0.99748500  1
  Sb  Sb14  1  0.60131100  0.63062600  0.55308200  1
  Sb  Sb15  1  0.23559400  0.46985300  0.60506000  1
  Pb  Pb16  1  0.92603000  0.37301900  0.93015400  1
  Pb  Pb17  1  0.07397000  0.62698100  0.06984600  1
  Pb  Pb18  1  0.49609400  0.50390600  0.25000000  1
  Pb  Pb19  1  0.90522300  0.25515000  0.12753200  1
  Pb  Pb20  1  0.25515000  0.90522300  0.62753200  1
  Pb  Pb21  1  0.62698100  0.07397000  0.56984600  1
  Pb  Pb22  1  0.12778400  0.26773500  0.31172600  1
  Pb  Pb23  1  0.50390600  0.49609400  0.75000000  1
  Pb  Pb24  1  0.26773500  0.12778400  0.81172600  1
  Pb  Pb25  1  0.87221600  0.73226500  0.68827400  1
  Pb  Pb26  1  0.74485000  0.09477700  0.37246800  1
  Pb  Pb27  1  0.09477700  0.74485000  0.87246800  1
  Pb  Pb28  1  0.37301900  0.92603000  0.43015400  1
  Pb  Pb29  1  0.73226500  0.87221600  0.18827400  1
  S  S30  1  0.67668600  0.87307200  0.47798300  1
  S  S31  1  0.03562800  0.05030500  0.91783000  1
  S  S32  1  0.82416300  0.74624600  0.32206900  1
  S  S33  1  0.27234500  0.72531200  0.97352000  1
  S  S34  1  0.72531200  0.27234500  0.47352000  1
  S  S35  1  0.59142700  0.49082400  0.88144700  1
  S  S36  1  0.05030500  0.03562800  0.41783000  1
  S  S37  1  0.49082400  0.59142700  0.38144700  1
  S  S38  1  0.12692800  0.32331400  0.02201700  1
  S  S39  1  0.43037200  0.11028400  0.92680000  1
  S  S40  1  0.63895400  0.18949500  0.19000500  1
  S  S41  1  0.46309600  0.82549000  0.25255100  1
  S  S42  1  0.94969500  0.96437200  0.58217000  1
  S  S43  1  0.17451000  0.53690400  0.24744900  1
  S  S44  1  0.05674500  0.94325500  0.25000000  1
  S  S45  1  0.11028400  0.43037200  0.42680000  1
  S  S46  1  0.94325500  0.05674500  0.75000000  1
  S  S47  1  0.32331400  0.12692800  0.52201700  1
  S  S48  1  0.74624600  0.82416300  0.82206900  1
  S  S49  1  0.81050500  0.36104600  0.30999500  1
  S  S50  1  0.88971600  0.56962800  0.57320000  1
  S  S51  1  0.96437200  0.94969500  0.08217000  1
  S  S52  1  0.82549000  0.46309600  0.75255100  1
  S  S53  1  0.40857300  0.50917600  0.11855300  1
  S  S54  1  0.72765500  0.27468800  0.02648000  1
  S  S55  1  0.56626600  0.78780200  0.64119100  1
  S  S56  1  0.21219800  0.43373400  0.85880900  1
  S  S57  1  0.18949500  0.63895400  0.69000500  1
  S  S58  1  0.36104600  0.81050500  0.80999500  1
  S  S59  1  0.50917600  0.40857300  0.61855300  1
  S  S60  1  0.43373400  0.21219800  0.35880900  1
  S  S61  1  0.56962800  0.88971600  0.07320000  1
  S  S62  1  0.27468800  0.72765500  0.52648000  1
  S  S63  1  0.87307200  0.67668600  0.97798300  1
  S  S64  1  0.78780200  0.56626600  0.14119100  1
  S  S65  1  0.53690400  0.17451000  0.74744900  1
  S  S66  1  0.25375400  0.17583700  0.17793100  1
  S  S67  1  0.17583700  0.25375400  0.67793100  1
