# generated using pymatgen
data_MgCd3
_symmetry_space_group_name_H-M   'P 1'
_cell_length_a   6.12398037
_cell_length_b   6.12398037
_cell_length_c   6.12398037
_cell_angle_alpha   149.62527220
_cell_angle_beta   128.83275270
_cell_angle_gamma   60.67348307
_symmetry_Int_Tables_number   1
_chemical_formula_structural   MgCd3
_chemical_formula_sum   'Mg1 Cd3'
_cell_volume   89.69766848
_cell_formula_units_Z   1
loop_
 _symmetry_equiv_pos_site_id
 _symmetry_equiv_pos_as_xyz
  1  'x, y, z'
loop_
 _atom_site_type_symbol
 _atom_site_label
 _atom_site_symmetry_multiplicity
 _atom_site_fract_x
 _atom_site_fract_y
 _atom_site_fract_z
 _atom_site_occupancy
  Mg  Mg0  1  0.33604600  0.00000000  0.33604600  1
  Cd  Cd1  1  0.83151800  0.50000000  0.33151800  1
  Cd  Cd2  1  0.25115500  0.25160400  0.99955100  1
  Cd  Cd3  1  0.74794700  0.74839600  0.99955100  1
