# generated using pymatgen
data_NaEu(PO3)4
_symmetry_space_group_name_H-M   'P 1'
_cell_length_a   13.20546900
_cell_length_b   7.26535100
_cell_length_c   12.24605287
_cell_angle_alpha   54.11522887
_cell_angle_beta   90.00000000
_cell_angle_gamma   90.00000000
_symmetry_Int_Tables_number   1
_chemical_formula_structural   NaEu(PO3)4
_chemical_formula_sum   'Na4 Eu4 P16 O48'
_cell_volume   951.91340147
_cell_formula_units_Z   4
loop_
 _symmetry_equiv_pos_site_id
 _symmetry_equiv_pos_as_xyz
  1  'x, y, z'
loop_
 _atom_site_type_symbol
 _atom_site_label
 _atom_site_symmetry_multiplicity
 _atom_site_fract_x
 _atom_site_fract_y
 _atom_site_fract_z
 _atom_site_occupancy
  Na  Na0  1  0.77825300  0.56505800  0.93543700  1
  Na  Na1  1  0.22174700  0.43494200  0.06456300  1
  Na  Na2  1  0.27825300  0.43494200  0.56456300  1
  Na  Na3  1  0.72174700  0.56505800  0.43543700  1
  Eu  Eu4  1  0.21809200  0.03650300  0.97631700  1
  Eu  Eu5  1  0.71809200  0.96349700  0.52368300  1
  Eu  Eu6  1  0.78190800  0.96349700  0.02368300  1
  Eu  Eu7  1  0.28190800  0.03650300  0.47631700  1
  P  P8  1  0.59044000  0.92960500  0.80162700  1
  P  P9  1  0.62827600  0.15763100  0.19540900  1
  P  P10  1  0.10120500  0.50593500  0.24372600  1
  P  P11  1  0.09044000  0.07039500  0.69837300  1
  P  P12  1  0.38512300  0.61364800  0.26398300  1
  P  P13  1  0.12827600  0.84236900  0.30459100  1
  P  P14  1  0.87172400  0.15763100  0.69540900  1
  P  P15  1  0.89879500  0.49406500  0.75627400  1
  P  P16  1  0.40956000  0.07039500  0.19837300  1
  P  P17  1  0.90956000  0.92960500  0.30162700  1
  P  P18  1  0.61487700  0.38635200  0.73601700  1
  P  P19  1  0.88512300  0.38635200  0.23601700  1
  P  P20  1  0.37172400  0.84236900  0.80459100  1
  P  P21  1  0.39879500  0.50593500  0.74372600  1
  P  P22  1  0.11487700  0.61364800  0.76398300  1
  P  P23  1  0.60120500  0.49406500  0.25627400  1
  O  O24  1  0.14588700  0.40422800  0.89829200  1
  O  O25  1  0.33451700  0.29820700  0.79491500  1
  O  O26  1  0.78883700  0.17553600  0.60552600  1
  O  O27  1  0.85411300  0.59577200  0.10170800  1
  O  O28  1  0.61044900  0.86122000  0.70918200  1
  O  O29  1  0.60733800  0.30880100  0.40544700  1
  O  O30  1  0.41981000  0.79681300  0.29113000  1
  O  O31  1  0.66164800  0.84339200  0.91798400  1
  O  O32  1  0.47817000  0.85032900  0.86674700  1
  O  O33  1  0.36722600  0.02456600  0.65577700  1
  O  O34  1  0.11044900  0.13878000  0.79081800  1
  O  O35  1  0.08019000  0.79681300  0.79113000  1
  O  O36  1  0.64588700  0.59577200  0.60170800  1
  O  O37  1  0.91981000  0.20318700  0.20887000  1
  O  O38  1  0.13277400  0.02456600  0.15577700  1
  O  O39  1  0.63277400  0.97543400  0.34422300  1
  O  O40  1  0.62473500  0.40605700  0.16529000  1
  O  O41  1  0.52183000  0.14967100  0.13325300  1
  O  O42  1  0.39266200  0.69119900  0.59455300  1
  O  O43  1  0.83835200  0.84339200  0.41798400  1
  O  O44  1  0.66548300  0.70179300  0.20508500  1
  O  O45  1  0.98646800  0.42452300  0.29177300  1
  O  O46  1  0.35411300  0.40422800  0.39829200  1
  O  O47  1  0.83451700  0.70179300  0.70508500  1
  O  O48  1  0.28883700  0.82446400  0.89447400  1
  O  O49  1  0.18964800  0.71601900  0.65077600  1
  O  O50  1  0.33835200  0.15660800  0.08201600  1
  O  O51  1  0.10733800  0.69119900  0.09455300  1
  O  O52  1  0.86722600  0.97543400  0.84422300  1
  O  O53  1  0.16548300  0.29820700  0.29491500  1
  O  O54  1  0.38955100  0.13878000  0.29081800  1
  O  O55  1  0.21116300  0.82446400  0.39447400  1
  O  O56  1  0.48646800  0.57547700  0.20822700  1
  O  O57  1  0.87526500  0.40605700  0.66529000  1
  O  O58  1  0.01353200  0.57547700  0.70822700  1
  O  O59  1  0.12473500  0.59394300  0.33471000  1
  O  O60  1  0.89266200  0.30880100  0.90544700  1
  O  O61  1  0.68964800  0.28398100  0.84922400  1
  O  O62  1  0.02183000  0.85032900  0.36674700  1
  O  O63  1  0.71116300  0.17553600  0.10552600  1
  O  O64  1  0.37526500  0.59394300  0.83471000  1
  O  O65  1  0.97817000  0.14967100  0.63325300  1
  O  O66  1  0.88955100  0.86122000  0.20918200  1
  O  O67  1  0.16164800  0.15660800  0.58201600  1
  O  O68  1  0.81035200  0.28398100  0.34922400  1
  O  O69  1  0.51353200  0.42452300  0.79177300  1
  O  O70  1  0.31035200  0.71601900  0.15077600  1
  O  O71  1  0.58019000  0.20318700  0.70887000  1
