# generated using pymatgen
data_V2H
_symmetry_space_group_name_H-M   'P 1'
_cell_length_a   5.34142961
_cell_length_b   5.34142961
_cell_length_c   5.34142961
_cell_angle_alpha   112.95611852
_cell_angle_beta   112.95611852
_cell_angle_gamma   102.70597633
_symmetry_Int_Tables_number   1
_chemical_formula_structural   V2H
_chemical_formula_sum   'V8 H4'
_cell_volume   116.10759352
_cell_formula_units_Z   4
loop_
 _symmetry_equiv_pos_site_id
 _symmetry_equiv_pos_as_xyz
  1  'x, y, z'
loop_
 _atom_site_type_symbol
 _atom_site_label
 _atom_site_symmetry_multiplicity
 _atom_site_fract_x
 _atom_site_fract_y
 _atom_site_fract_z
 _atom_site_occupancy
  V  V0  1  0.60587100  0.85741100  0.25154000  1
  V  V1  1  0.60741100  0.85587100  0.75154000  1
  V  V2  1  0.10433200  0.85587100  0.24846000  1
  V  V3  1  0.60587100  0.35433200  0.74846000  1
  V  V4  1  0.14412900  0.39258900  0.24846000  1
  V  V5  1  0.14258900  0.39412900  0.74846000  1
  V  V6  1  0.64566800  0.39412900  0.25154000  1
  V  V7  1  0.14412900  0.89566800  0.75154000  1
  H  H8  1  0.87500000  0.62500000  0.75000000  1
  H  H9  1  0.37500000  0.12500000  0.25000000  1
  H  H10  1  0.87500000  0.12500000  0.75000000  1
  H  H11  1  0.87500000  0.12500000  0.25000000  1
