# generated using pymatgen
data_B3C10N3
_symmetry_space_group_name_H-M   'P 1'
_cell_length_a   5.01278200
_cell_length_b   7.11313900
_cell_length_c   8.66358500
_cell_angle_alpha   90.00000000
_cell_angle_beta   90.00000000
_cell_angle_gamma   90.00000000
_symmetry_Int_Tables_number   1
_chemical_formula_structural   B3C10N3
_chemical_formula_sum   'B6 C20 N6'
_cell_volume   308.91411610
_cell_formula_units_Z   2
loop_
 _symmetry_equiv_pos_site_id
 _symmetry_equiv_pos_as_xyz
  1  'x, y, z'
loop_
 _atom_site_type_symbol
 _atom_site_label
 _atom_site_symmetry_multiplicity
 _atom_site_fract_x
 _atom_site_fract_y
 _atom_site_fract_z
 _atom_site_occupancy
  B  B0  1  0.50000000  0.25000000  0.65656600  1
  B  B1  1  0.50000000  0.75000000  0.34343400  1
  B  B2  1  0.50000000  0.75000000  0.00417200  1
  B  B3  1  0.00000000  0.25000000  0.49297700  1
  B  B4  1  0.50000000  0.25000000  0.99582800  1
  B  B5  1  0.00000000  0.75000000  0.50702300  1
  C  C6  1  0.74518600  0.75000000  0.59519500  1
  C  C7  1  0.00000000  0.25000000  0.99669000  1
  C  C8  1  0.75893400  0.75000000  0.08887100  1
  C  C9  1  0.75884600  0.75000000  0.25244100  1
  C  C10  1  0.00000000  0.75000000  0.00331000  1
  C  C11  1  0.24115400  0.25000000  0.74755900  1
  C  C12  1  0.00000000  0.25000000  0.66643800  1
  C  C13  1  0.00000000  0.25000000  0.16325600  1
  C  C14  1  0.24106600  0.75000000  0.08887100  1
  C  C15  1  0.74518600  0.25000000  0.40480500  1
  C  C16  1  0.25481400  0.25000000  0.40480500  1
  C  C17  1  0.25481400  0.75000000  0.59519500  1
  C  C18  1  0.50000000  0.75000000  0.83619800  1
  C  C19  1  0.24106600  0.25000000  0.91112900  1
  C  C20  1  0.00000000  0.75000000  0.33356200  1
  C  C21  1  0.24115400  0.75000000  0.25244100  1
  C  C22  1  0.50000000  0.25000000  0.16380200  1
  C  C23  1  0.75884600  0.25000000  0.74755900  1
  C  C24  1  0.00000000  0.75000000  0.83674400  1
  C  C25  1  0.75893400  0.25000000  0.91112900  1
  N  N26  1  0.74845500  0.75000000  0.75386400  1
  N  N27  1  0.50000000  0.75000000  0.51851100  1
  N  N28  1  0.50000000  0.25000000  0.48148900  1
  N  N29  1  0.25154500  0.25000000  0.24613600  1
  N  N30  1  0.25154500  0.75000000  0.75386400  1
  N  N31  1  0.74845500  0.25000000  0.24613600  1
