# generated using pymatgen
data_NaV2O4
_symmetry_space_group_name_H-M   'P 1'
_cell_length_a   2.92087000
_cell_length_b   9.31961200
_cell_length_c   10.88970500
_cell_angle_alpha   89.99989206
_cell_angle_beta   89.99932453
_cell_angle_gamma   90.00046286
_symmetry_Int_Tables_number   1
_chemical_formula_structural   NaV2O4
_chemical_formula_sum   'Na4 V8 O16'
_cell_volume   296.43274454
_cell_formula_units_Z   4
loop_
 _symmetry_equiv_pos_site_id
 _symmetry_equiv_pos_as_xyz
  1  'x, y, z'
loop_
 _atom_site_type_symbol
 _atom_site_label
 _atom_site_symmetry_multiplicity
 _atom_site_fract_x
 _atom_site_fract_y
 _atom_site_fract_z
 _atom_site_occupancy
  Na  Na0  1  0.75000000  0.25681100  0.84743300  1
  Na  Na1  1  0.75000000  0.75681400  0.65256900  1
  Na  Na2  1  0.25000000  0.24318800  0.34743000  1
  Na  Na3  1  0.25000000  0.74318800  0.15256600  1
  V  V4  1  0.25000000  0.56434300  0.38782600  1
  V  V5  1  0.24999400  0.08131700  0.60408600  1
  V  V6  1  0.75000600  0.91869000  0.39592800  1
  V  V7  1  0.75000400  0.41869300  0.10409800  1
  V  V8  1  0.25000000  0.06428600  0.11216500  1
  V  V9  1  0.75000000  0.93569600  0.88782600  1
  V  V10  1  0.75000000  0.43567100  0.61217700  1
  V  V11  1  0.24999700  0.58131100  0.89590800  1
  O  O12  1  0.24999200  0.47759900  0.21884200  1
  O  O13  1  0.75000100  0.42276600  0.42936300  1
  O  O14  1  0.25000000  0.57723400  0.57063600  1
  O  O15  1  0.24998400  0.97761100  0.28114000  1
  O  O16  1  0.74999200  0.11269200  0.47962600  1
  O  O17  1  0.74999700  0.70807900  0.35109700  1
  O  O18  1  0.25001200  0.88731100  0.52037300  1
  O  O19  1  0.25000200  0.29192000  0.64890200  1
  O  O20  1  0.25000000  0.79191800  0.85109900  1
  O  O21  1  0.74999800  0.20808400  0.14889800  1
  O  O22  1  0.25000000  0.07723300  0.92936700  1
  O  O23  1  0.75001000  0.02239000  0.71885400  1
  O  O24  1  0.75000300  0.52239500  0.78115200  1
  O  O25  1  0.25000700  0.38730700  0.97963100  1
  O  O26  1  0.75000100  0.92277000  0.07063500  1
  O  O27  1  0.74999800  0.61268300  0.02037400  1
