# generated using pymatgen
data_Cs2P2H2O7
_symmetry_space_group_name_H-M   'P 1'
_cell_length_a   6.08618978
_cell_length_b   6.08618978
_cell_length_c   11.52103687
_cell_angle_alpha   89.77456462
_cell_angle_beta   89.77456462
_cell_angle_gamma   96.93933420
_symmetry_Int_Tables_number   1
_chemical_formula_structural   Cs2P2H2O7
_chemical_formula_sum   'Cs4 P4 H4 O14'
_cell_volume   423.62523640
_cell_formula_units_Z   2
loop_
 _symmetry_equiv_pos_site_id
 _symmetry_equiv_pos_as_xyz
  1  'x, y, z'
loop_
 _atom_site_type_symbol
 _atom_site_label
 _atom_site_symmetry_multiplicity
 _atom_site_fract_x
 _atom_site_fract_y
 _atom_site_fract_z
 _atom_site_occupancy
  Cs  Cs0  1  0.72089200  0.26783400  0.02061200  1
  Cs  Cs1  1  0.73216600  0.27910800  0.47938800  1
  Cs  Cs2  1  0.27910800  0.73216600  0.97938800  1
  Cs  Cs3  1  0.26783400  0.72089200  0.52061200  1
  P  P4  1  0.19961300  0.17144600  0.26336600  1
  P  P5  1  0.82855400  0.80038700  0.23663400  1
  P  P6  1  0.80038700  0.82855400  0.73663400  1
  P  P7  1  0.17144600  0.19961300  0.76336600  1
  H  H8  1  0.50846000  0.10896100  0.73728300  1
  H  H9  1  0.89103900  0.49154000  0.76271700  1
  H  H10  1  0.49154000  0.89103900  0.26271700  1
  H  H11  1  0.10896100  0.50846000  0.23728300  1
  O  O12  1  0.39546300  0.19320500  0.69250000  1
  O  O13  1  0.80679500  0.60453700  0.80750000  1
  O  O14  1  0.60453700  0.80679500  0.30750000  1
  O  O15  1  0.19320500  0.39546300  0.19250000  1
  O  O16  1  0.75699900  0.79102400  0.60918500  1
  O  O17  1  0.20897600  0.24300100  0.89081500  1
  O  O18  1  0.24300100  0.20897600  0.39081500  1
  O  O19  1  0.79102400  0.75699900  0.10918500  1
  O  O20  1  0.03179600  0.34863600  0.69644400  1
  O  O21  1  0.65136400  0.96820400  0.80355600  1
  O  O22  1  0.96820400  0.65136400  0.30355600  1
  O  O23  1  0.34863600  0.03179600  0.19644400  1
  O  O24  1  0.05890900  0.94109100  0.75000000  1
  O  O25  1  0.94109100  0.05890900  0.25000000  1
