# generated using pymatgen
data_K3MnH5
_symmetry_space_group_name_H-M   'P 1'
_cell_length_a   7.94311212
_cell_length_b   7.94311212
_cell_length_c   7.94311212
_cell_angle_alpha   122.36360478
_cell_angle_beta   122.36360478
_cell_angle_gamma   85.95265795
_symmetry_Int_Tables_number   1
_chemical_formula_structural   K3MnH5
_chemical_formula_sum   'K6 Mn2 H10'
_cell_volume   340.78342965
_cell_formula_units_Z   2
loop_
 _symmetry_equiv_pos_site_id
 _symmetry_equiv_pos_as_xyz
  1  'x, y, z'
loop_
 _atom_site_type_symbol
 _atom_site_label
 _atom_site_symmetry_multiplicity
 _atom_site_fract_x
 _atom_site_fract_y
 _atom_site_fract_z
 _atom_site_occupancy
  K  K0  1  0.18634600  0.68634600  0.87269100  1
  K  K1  1  0.81365400  0.31365400  0.12730900  1
  K  K2  1  0.68634600  0.81365400  0.50000000  1
  K  K3  1  0.31365400  0.18634600  0.50000000  1
  K  K4  1  0.25000000  0.25000000  0.00000000  1
  K  K5  1  0.75000000  0.75000000  0.00000000  1
  Mn  Mn6  1  0.25000000  0.75000000  0.50000000  1
  Mn  Mn7  1  0.75000000  0.25000000  0.50000000  1
  H  H8  1  0.46963800  0.96963800  0.75493800  1
  H  H9  1  0.21470000  0.71470000  0.24506200  1
  H  H10  1  0.96963800  0.21470000  0.50000000  1
  H  H11  1  0.71470000  0.46963800  0.50000000  1
  H  H12  1  0.53036200  0.03036200  0.24506200  1
  H  H13  1  0.78530000  0.28530000  0.75493800  1
  H  H14  1  0.03036200  0.78530000  0.50000000  1
  H  H15  1  0.28530000  0.53036200  0.50000000  1
  H  H16  1  0.50000000  0.50000000  0.00000000  1
  H  H17  1  0.00000000  0.00000000  0.00000000  1
