# generated using pymatgen
data_Al2Ge(HO3)2
_symmetry_space_group_name_H-M   'P 1'
_cell_length_a   5.01613128
_cell_length_b   5.01613128
_cell_length_c   9.06175470
_cell_angle_alpha   83.07095370
_cell_angle_beta   83.07095370
_cell_angle_gamma   114.73007886
_symmetry_Int_Tables_number   1
_chemical_formula_structural   Al2Ge(HO3)2
_chemical_formula_sum   'Al4 Ge2 H4 O12'
_cell_volume   201.84865728
_cell_formula_units_Z   2
loop_
 _symmetry_equiv_pos_site_id
 _symmetry_equiv_pos_as_xyz
  1  'x, y, z'
loop_
 _atom_site_type_symbol
 _atom_site_label
 _atom_site_symmetry_multiplicity
 _atom_site_fract_x
 _atom_site_fract_y
 _atom_site_fract_z
 _atom_site_occupancy
  Al  Al0  1  0.55769200  0.29150200  0.91444500  1
  Al  Al1  1  0.70849800  0.44230800  0.58555500  1
  Al  Al2  1  0.44230800  0.70849800  0.08555500  1
  Al  Al3  1  0.29150200  0.55769200  0.41444500  1
  Ge  Ge4  1  0.27601800  0.72398200  0.75000000  1
  Ge  Ge5  1  0.72398200  0.27601800  0.25000000  1
  H  H6  1  0.96462900  0.13789400  0.93238700  1
  H  H7  1  0.86210600  0.03537100  0.56761300  1
  H  H8  1  0.03537100  0.86210600  0.06761300  1
  H  H9  1  0.13789400  0.96462900  0.43238700  1
  O  O10  1  0.47929400  0.66623900  0.58899200  1
  O  O11  1  0.33376100  0.52070600  0.91100800  1
  O  O12  1  0.52070600  0.33376100  0.41100800  1
  O  O13  1  0.66623900  0.47929400  0.08899200  1
  O  O14  1  0.42387200  0.11879100  0.73947900  1
  O  O15  1  0.88120900  0.57612800  0.76052100  1
  O  O16  1  0.57612800  0.88120900  0.26052100  1
  O  O17  1  0.11879100  0.42387200  0.23947900  1
  O  O18  1  0.74822400  0.05010700  0.95643100  1
  O  O19  1  0.94989300  0.25177600  0.54356900  1
  O  O20  1  0.25177600  0.94989300  0.04356900  1
  O  O21  1  0.05010700  0.74822400  0.45643100  1
