# generated using pymatgen
data_MnGeO3
_symmetry_space_group_name_H-M   'P 1'
_cell_length_a   5.56853100
_cell_length_b   9.39399800
_cell_length_c   19.58038900
_cell_angle_alpha   90.00000000
_cell_angle_beta   90.00000000
_cell_angle_gamma   90.00000000
_symmetry_Int_Tables_number   1
_chemical_formula_structural   MnGeO3
_chemical_formula_sum   'Mn16 Ge16 O48'
_cell_volume   1024.26520742
_cell_formula_units_Z   16
loop_
 _symmetry_equiv_pos_site_id
 _symmetry_equiv_pos_as_xyz
  1  'x, y, z'
loop_
 _atom_site_type_symbol
 _atom_site_label
 _atom_site_symmetry_multiplicity
 _atom_site_fract_x
 _atom_site_fract_y
 _atom_site_fract_z
 _atom_site_occupancy
  Mn  Mn0  1  0.85933900  0.65400000  0.62363900  1
  Mn  Mn1  1  0.14066100  0.84600000  0.12363900  1
  Mn  Mn2  1  0.64066100  0.15400000  0.37636100  1
  Mn  Mn3  1  0.35933900  0.34600000  0.87636100  1
  Mn  Mn4  1  0.14066100  0.34600000  0.37636100  1
  Mn  Mn5  1  0.85933900  0.15400000  0.87636100  1
  Mn  Mn6  1  0.35933900  0.84600000  0.62363900  1
  Mn  Mn7  1  0.64066100  0.65400000  0.12363900  1
  Mn  Mn8  1  0.85073000  0.51842000  0.87744900  1
  Mn  Mn9  1  0.14927000  0.98158000  0.37744900  1
  Mn  Mn10  1  0.64927000  0.01842000  0.12255100  1
  Mn  Mn11  1  0.35073000  0.48158000  0.62255100  1
  Mn  Mn12  1  0.14927000  0.48158000  0.12255100  1
  Mn  Mn13  1  0.85073000  0.01842000  0.62255100  1
  Mn  Mn14  1  0.35073000  0.98158000  0.87744900  1
  Mn  Mn15  1  0.64927000  0.51842000  0.37744900  1
  Ge  Ge16  1  0.53434300  0.65675000  0.77042800  1
  Ge  Ge17  1  0.46565700  0.84325000  0.27042800  1
  Ge  Ge18  1  0.96565700  0.15675000  0.22957200  1
  Ge  Ge19  1  0.03434300  0.34325000  0.72957200  1
  Ge  Ge20  1  0.46565700  0.34325000  0.22957200  1
  Ge  Ge21  1  0.53434300  0.15675000  0.72957200  1
  Ge  Ge22  1  0.03434300  0.84325000  0.77042800  1
  Ge  Ge23  1  0.96565700  0.65675000  0.27042800  1
  Ge  Ge24  1  0.29795100  0.66208700  0.97306200  1
  Ge  Ge25  1  0.70204900  0.83791300  0.47306200  1
  Ge  Ge26  1  0.20204900  0.16208700  0.02693800  1
  Ge  Ge27  1  0.79795100  0.33791300  0.52693800  1
  Ge  Ge28  1  0.70204900  0.33791300  0.02693800  1
  Ge  Ge29  1  0.29795100  0.16208700  0.52693800  1
  Ge  Ge30  1  0.79795100  0.83791300  0.97306200  1
  Ge  Ge31  1  0.20204900  0.66208700  0.47306200  1
  O  O32  1  0.52352300  0.65951100  0.68072000  1
  O  O33  1  0.47647700  0.84048900  0.18072000  1
  O  O34  1  0.97647700  0.15951100  0.31928000  1
  O  O35  1  0.02352300  0.34048900  0.81928000  1
  O  O36  1  0.47647700  0.34048900  0.31928000  1
  O  O37  1  0.52352300  0.15951100  0.81928000  1
  O  O38  1  0.02352300  0.84048900  0.68072000  1
  O  O39  1  0.97647700  0.65951100  0.18072000  1
  O  O40  1  0.54543500  0.49095900  0.80996200  1
  O  O41  1  0.45456500  0.00904100  0.30996200  1
  O  O42  1  0.95456500  0.99095900  0.19003800  1
  O  O43  1  0.04543500  0.50904100  0.69003800  1
  O  O44  1  0.45456500  0.50904100  0.19003800  1
  O  O45  1  0.54543500  0.99095900  0.69003800  1
  O  O46  1  0.04543500  0.00904100  0.80996200  1
  O  O47  1  0.95456500  0.49095900  0.30996200  1
  O  O48  1  0.81562800  0.72382500  0.80576500  1
  O  O49  1  0.18437200  0.77617500  0.30576500  1
  O  O50  1  0.68437200  0.22382500  0.19423500  1
  O  O51  1  0.31562800  0.27617500  0.69423500  1
  O  O52  1  0.18437200  0.27617500  0.19423500  1
  O  O53  1  0.81562800  0.22382500  0.69423500  1
  O  O54  1  0.31562800  0.77617500  0.80576500  1
  O  O55  1  0.68437200  0.72382500  0.30576500  1
  O  O56  1  0.30414100  0.65951300  0.06322200  1
  O  O57  1  0.69585900  0.84048700  0.56322200  1
  O  O58  1  0.19585900  0.15951300  0.93677800  1
  O  O59  1  0.80414100  0.34048700  0.43677800  1
  O  O60  1  0.69585900  0.34048700  0.93677800  1
  O  O61  1  0.30414100  0.15951300  0.43677800  1
  O  O62  1  0.80414100  0.84048700  0.06322200  1
  O  O63  1  0.19585900  0.65951300  0.56322200  1
  O  O64  1  0.17870900  0.51501500  0.93162800  1
  O  O65  1  0.82129100  0.98498500  0.43162800  1
  O  O66  1  0.32129100  0.01501500  0.06837200  1
  O  O67  1  0.67870900  0.48498500  0.56837200  1
  O  O68  1  0.82129100  0.48498500  0.06837200  1
  O  O69  1  0.17870900  0.01501500  0.56837200  1
  O  O70  1  0.67870900  0.98498500  0.93162800  1
  O  O71  1  0.32129100  0.51501500  0.43162800  1
  O  O72  1  0.60935600  0.68827000  0.94531500  1
  O  O73  1  0.39064400  0.81173000  0.44531500  1
  O  O74  1  0.89064400  0.18827000  0.05468500  1
  O  O75  1  0.10935600  0.31173000  0.55468500  1
  O  O76  1  0.39064400  0.31173000  0.05468500  1
  O  O77  1  0.60935600  0.18827000  0.55468500  1
  O  O78  1  0.10935600  0.81173000  0.94531500  1
  O  O79  1  0.89064400  0.68827000  0.44531500  1
