# generated using pymatgen
data_BaCo2P2H2O9
_symmetry_space_group_name_H-M   'P 1'
_cell_length_a   4.95937900
_cell_length_b   9.82451904
_cell_length_c   9.31985588
_cell_angle_alpha   116.59133321
_cell_angle_beta   90.00323657
_cell_angle_gamma   104.61753606
_symmetry_Int_Tables_number   1
_chemical_formula_structural   BaCo2P2H2O9
_chemical_formula_sum   'Ba2 Co4 P4 H4 O18'
_cell_volume   389.55301860
_cell_formula_units_Z   2
loop_
 _symmetry_equiv_pos_site_id
 _symmetry_equiv_pos_as_xyz
  1  'x, y, z'
loop_
 _atom_site_type_symbol
 _atom_site_label
 _atom_site_symmetry_multiplicity
 _atom_site_fract_x
 _atom_site_fract_y
 _atom_site_fract_z
 _atom_site_occupancy
  Ba  Ba0  1  0.52803500  0.49999000  0.75001300  1
  Ba  Ba1  1  0.02804600  0.50000500  0.25000600  1
  Co  Co2  1  0.25858800  0.85276800  0.09430200  1
  Co  Co3  1  0.40584200  0.14723100  0.90570200  1
  Co  Co4  1  0.75857000  0.85276300  0.59431100  1
  Co  Co5  1  0.90580900  0.14723100  0.40568700  1
  P  P6  1  0.14722300  0.76296800  0.72615200  1
  P  P7  1  0.64720700  0.76297800  0.22615600  1
  P  P8  1  0.88424300  0.23701900  0.77384000  1
  P  P9  1  0.38427500  0.23703700  0.27385000  1
  H  H10  1  0.24350400  0.06660600  0.59285100  1
  H  H11  1  0.74356200  0.06660000  0.09284800  1
  H  H12  1  0.67697200  0.93340200  0.90716100  1
  H  H13  1  0.17690400  0.93339500  0.40716100  1
  O  O14  1  0.09539900  0.00000900  0.49999600  1
  O  O15  1  0.59545600  0.00001300  0.99999100  1
  O  O16  1  0.17515500  0.06714300  0.21847700  1
  O  O17  1  0.67514700  0.06712400  0.71847200  1
  O  O18  1  0.60799100  0.93287000  0.28151600  1
  O  O19  1  0.10798700  0.93286100  0.78152200  1
  O  O20  1  0.06993400  0.71127000  0.86063400  1
  O  O21  1  0.56992600  0.71129100  0.36064800  1
  O  O22  1  0.85856700  0.28869600  0.63934500  1
  O  O23  1  0.35860400  0.28872500  0.13936400  1
  O  O24  1  0.43411300  0.65518400  0.07101700  1
  O  O25  1  0.93415800  0.65518200  0.57099600  1
  O  O26  1  0.27898600  0.34481300  0.42900500  1
  O  O27  1  0.77892600  0.34480200  0.92897800  1
  O  O28  1  0.45168700  0.75515100  0.69805300  1
  O  O29  1  0.95166700  0.75515400  0.19803500  1
  O  O30  1  0.19654300  0.24485600  0.80196400  1
  O  O31  1  0.69657600  0.24486500  0.30194500  1
