# generated using pymatgen
data_Zr2CoH5
_symmetry_space_group_name_H-M   'P 1'
_cell_length_a   6.93140200
_cell_length_b   6.93140200
_cell_length_c   5.69157400
_cell_angle_alpha   90.00000000
_cell_angle_beta   90.00000000
_cell_angle_gamma   90.00000000
_symmetry_Int_Tables_number   1
_chemical_formula_structural   Zr2CoH5
_chemical_formula_sum   'Zr8 Co4 H20'
_cell_volume   273.44788045
_cell_formula_units_Z   4
loop_
 _symmetry_equiv_pos_site_id
 _symmetry_equiv_pos_as_xyz
  1  'x, y, z'
loop_
 _atom_site_type_symbol
 _atom_site_label
 _atom_site_symmetry_multiplicity
 _atom_site_fract_x
 _atom_site_fract_y
 _atom_site_fract_z
 _atom_site_occupancy
  Zr  Zr0  1  0.66142200  0.33857800  0.25000000  1
  Zr  Zr1  1  0.66142200  0.66142200  0.75000000  1
  Zr  Zr2  1  0.33857800  0.33857800  0.75000000  1
  Zr  Zr3  1  0.33857800  0.66142200  0.25000000  1
  Zr  Zr4  1  0.83857800  0.16142200  0.75000000  1
  Zr  Zr5  1  0.83857800  0.83857800  0.25000000  1
  Zr  Zr6  1  0.16142200  0.16142200  0.25000000  1
  Zr  Zr7  1  0.16142200  0.83857800  0.75000000  1
  Co  Co8  1  0.50000000  0.00000000  0.49032100  1
  Co  Co9  1  0.50000000  0.00000000  0.99032100  1
  Co  Co10  1  0.00000000  0.50000000  0.50967900  1
  Co  Co11  1  0.00000000  0.50000000  0.00967900  1
  H  H12  1  0.00000000  0.00000000  0.50000000  1
  H  H13  1  0.00000000  0.00000000  0.00000000  1
  H  H14  1  0.50000000  0.50000000  0.00000000  1
  H  H15  1  0.50000000  0.50000000  0.50000000  1
  H  H16  1  0.28639800  0.91608600  0.42799700  1
  H  H17  1  0.28639800  0.08391400  0.92799700  1
  H  H18  1  0.71360200  0.91608600  0.92799700  1
  H  H19  1  0.71360200  0.08391400  0.42799700  1
  H  H20  1  0.41608600  0.78639800  0.92799700  1
  H  H21  1  0.41608600  0.21360200  0.42799700  1
  H  H22  1  0.58391400  0.78639800  0.42799700  1
  H  H23  1  0.58391400  0.21360200  0.92799700  1
  H  H24  1  0.21360200  0.58391400  0.57200300  1
  H  H25  1  0.21360200  0.41608600  0.07200300  1
  H  H26  1  0.78639800  0.58391400  0.07200300  1
  H  H27  1  0.78639800  0.41608600  0.57200300  1
  H  H28  1  0.08391400  0.71360200  0.07200300  1
  H  H29  1  0.08391400  0.28639800  0.57200300  1
  H  H30  1  0.91608600  0.71360200  0.57200300  1
  H  H31  1  0.91608600  0.28639800  0.07200300  1
