# generated using pymatgen
data_Rb4CdCl6
_symmetry_space_group_name_H-M   'P 1'
_cell_length_a   12.96035379
_cell_length_b   12.96035379
_cell_length_c   8.83667097
_cell_angle_alpha   85.29766625
_cell_angle_beta   85.29766625
_cell_angle_gamma   145.30496032
_symmetry_Int_Tables_number   1
_chemical_formula_structural   Rb4CdCl6
_chemical_formula_sum   'Rb8 Cd2 Cl12'
_cell_volume   812.31598028
_cell_formula_units_Z   2
loop_
 _symmetry_equiv_pos_site_id
 _symmetry_equiv_pos_as_xyz
  1  'x, y, z'
loop_
 _atom_site_type_symbol
 _atom_site_label
 _atom_site_symmetry_multiplicity
 _atom_site_fract_x
 _atom_site_fract_y
 _atom_site_fract_z
 _atom_site_occupancy
  Rb  Rb0  1  0.52630800  0.47369200  0.25000000  1
  Rb  Rb1  1  0.47369200  0.52630800  0.75000000  1
  Rb  Rb2  1  0.01115800  0.65278600  0.10714000  1
  Rb  Rb3  1  0.35714400  0.64285600  0.25000000  1
  Rb  Rb4  1  0.34721400  0.98884200  0.39286000  1
  Rb  Rb5  1  0.98884200  0.34721400  0.89286000  1
  Rb  Rb6  1  0.64285600  0.35714400  0.75000000  1
  Rb  Rb7  1  0.65278600  0.01115800  0.60714000  1
  Cd  Cd8  1  0.00000000  0.00000000  0.50000000  1
  Cd  Cd9  1  0.00000000  0.00000000  0.00000000  1
  Cl  Cl10  1  0.29679200  0.17495500  0.58510700  1
  Cl  Cl11  1  0.75521200  0.32770900  0.45072200  1
  Cl  Cl12  1  0.90057400  0.74271000  0.45099800  1
  Cl  Cl13  1  0.70320800  0.82504500  0.41489300  1
  Cl  Cl14  1  0.24478800  0.67229100  0.54927800  1
  Cl  Cl15  1  0.09942600  0.25729000  0.54900200  1
  Cl  Cl16  1  0.32770900  0.75521200  0.95072200  1
  Cl  Cl17  1  0.74271000  0.90057400  0.95099800  1
  Cl  Cl18  1  0.17495500  0.29679200  0.08510700  1
  Cl  Cl19  1  0.67229100  0.24478800  0.04927800  1
  Cl  Cl20  1  0.25729000  0.09942600  0.04900200  1
  Cl  Cl21  1  0.82504500  0.70320800  0.91489300  1
