# generated using pymatgen
data_CaH2CClO3
_symmetry_space_group_name_H-M   'P 1'
_cell_length_a   6.18781823
_cell_length_b   6.18781823
_cell_length_c   7.10154953
_cell_angle_alpha   58.62058083
_cell_angle_beta   58.62058083
_cell_angle_gamma   74.59625033
_symmetry_Int_Tables_number   1
_chemical_formula_structural   CaH2CClO3
_chemical_formula_sum   'Ca2 H4 C2 Cl2 O6'
_cell_volume   198.18231987
_cell_formula_units_Z   2
loop_
 _symmetry_equiv_pos_site_id
 _symmetry_equiv_pos_as_xyz
  1  'x, y, z'
loop_
 _atom_site_type_symbol
 _atom_site_label
 _atom_site_symmetry_multiplicity
 _atom_site_fract_x
 _atom_site_fract_y
 _atom_site_fract_z
 _atom_site_occupancy
  Ca  Ca0  1  0.13664500  0.13664500  0.60889700  1
  Ca  Ca1  1  0.86335500  0.86335500  0.39110300  1
  H  H2  1  0.17655300  0.64097600  0.02972400  1
  H  H3  1  0.35902400  0.82344800  0.97027600  1
  H  H4  1  0.82344800  0.35902400  0.97027600  1
  H  H5  1  0.64097600  0.17655300  0.02972400  1
  C  C6  1  0.60393100  0.39606900  0.50000000  1
  C  C7  1  0.39606900  0.60393100  0.50000000  1
  Cl  Cl8  1  0.76197400  0.76197400  0.86969800  1
  Cl  Cl9  1  0.23802600  0.23802600  0.13030200  1
  O  O10  1  0.56815700  0.20882000  0.49273800  1
  O  O11  1  0.79118000  0.43184300  0.50726200  1
  O  O12  1  0.43184300  0.79118000  0.50726200  1
  O  O13  1  0.20882000  0.56815700  0.49273800  1
  O  O14  1  0.18603600  0.81396400  0.00000000  1
  O  O15  1  0.81396400  0.18603600  0.00000000  1
