# generated using pymatgen
data_K2MgMo2(H2O5)2
_symmetry_space_group_name_H-M   'P 1'
_cell_length_a   5.54294200
_cell_length_b   7.89311251
_cell_length_c   8.26384276
_cell_angle_alpha   106.70330029
_cell_angle_beta   90.55884747
_cell_angle_gamma   110.45499411
_symmetry_Int_Tables_number   1
_chemical_formula_structural   K2MgMo2(H2O5)2
_chemical_formula_sum   'K2 Mg1 Mo2 H4 O10'
_cell_volume   322.00606068
_cell_formula_units_Z   1
loop_
 _symmetry_equiv_pos_site_id
 _symmetry_equiv_pos_as_xyz
  1  'x, y, z'
loop_
 _atom_site_type_symbol
 _atom_site_label
 _atom_site_symmetry_multiplicity
 _atom_site_fract_x
 _atom_site_fract_y
 _atom_site_fract_z
 _atom_site_occupancy
  K  K0  1  0.61282000  0.21364400  0.74842700  1
  K  K1  1  0.38718000  0.78635600  0.25157300  1
  Mg  Mg2  1  0.00000000  0.00000000  0.00000000  1
  Mo  Mo3  1  0.54099400  0.33942000  0.25485600  1
  Mo  Mo4  1  0.45900600  0.66058000  0.74514400  1
  H  H5  1  0.97996400  0.50546500  0.68809000  1
  H  H6  1  0.02003600  0.49453500  0.31191000  1
  H  H7  1  0.65501100  0.09386000  0.02928100  1
  H  H8  1  0.34498900  0.90614000  0.97071900  1
  O  O9  1  0.48832200  0.16684600  0.36009400  1
  O  O10  1  0.51167800  0.83315400  0.63990600  1
  O  O11  1  0.88029300  0.54352800  0.30384900  1
  O  O12  1  0.11970700  0.45647200  0.69615100  1
  O  O13  1  0.82928800  0.18449100  0.07782900  1
  O  O14  1  0.17071200  0.81550900  0.92217100  1
  O  O15  1  0.36510200  0.21484100  0.04084600  1
  O  O16  1  0.63489800  0.78515900  0.95915400  1
  O  O17  1  0.35414500  0.47669100  0.33826500  1
  O  O18  1  0.64585500  0.52330900  0.66173500  1
