# generated using pymatgen
data_BaCa(CO3)2
_symmetry_space_group_name_H-M   'P 1'
_cell_length_a   5.26901300
_cell_length_b   6.70607800
_cell_length_c   8.49099279
_cell_angle_alpha   72.40653796
_cell_angle_beta   90.00000000
_cell_angle_gamma   90.00000000
_symmetry_Int_Tables_number   1
_chemical_formula_structural   BaCa(CO3)2
_chemical_formula_sum   'Ba2 Ca2 C4 O12'
_cell_volume   285.99065451
_cell_formula_units_Z   2
loop_
 _symmetry_equiv_pos_site_id
 _symmetry_equiv_pos_as_xyz
  1  'x, y, z'
loop_
 _atom_site_type_symbol
 _atom_site_label
 _atom_site_symmetry_multiplicity
 _atom_site_fract_x
 _atom_site_fract_y
 _atom_site_fract_z
 _atom_site_occupancy
  Ba  Ba0  1  0.00545400  0.71623700  0.63674500  1
  Ba  Ba1  1  0.50545400  0.28376300  0.36325500  1
  Ca  Ca2  1  0.50081600  0.21166700  0.88423500  1
  Ca  Ca3  1  0.00081600  0.78833300  0.11576500  1
  C  C4  1  0.01016700  0.24884200  0.11728400  1
  C  C5  1  0.48924600  0.75005900  0.38057200  1
  C  C6  1  0.51016700  0.75115800  0.88271600  1
  C  C7  1  0.98924600  0.24994100  0.61942800  1
  O  O8  1  0.96666800  0.41808600  0.15429400  1
  O  O9  1  0.76557300  0.31375600  0.65020600  1
  O  O10  1  0.26557300  0.68624400  0.34979400  1
  O  O11  1  0.68777800  0.69055700  0.31654600  1
  O  O12  1  0.18777800  0.30944300  0.68345400  1
  O  O13  1  0.32214200  0.86092300  0.91408800  1
  O  O14  1  0.46666800  0.58191400  0.84570600  1
  O  O15  1  0.73974100  0.82416700  0.88281100  1
  O  O16  1  0.51241600  0.85958300  0.48185900  1
  O  O17  1  0.82214200  0.13907700  0.08591200  1
  O  O18  1  0.23974100  0.17583300  0.11718900  1
  O  O19  1  0.01241600  0.14041700  0.51814100  1
