# generated using pymatgen
data_CuReO4
_symmetry_space_group_name_H-M   'P 1'
_cell_length_a   7.80441593
_cell_length_b   10.55301272
_cell_length_c   10.55217157
_cell_angle_alpha   82.20431131
_cell_angle_beta   68.26383068
_cell_angle_gamma   68.35273059
_symmetry_Int_Tables_number   1
_chemical_formula_structural   CuReO4
_chemical_formula_sum   'Cu8 Re8 O32'
_cell_volume   750.34924303
_cell_formula_units_Z   8
loop_
 _symmetry_equiv_pos_site_id
 _symmetry_equiv_pos_as_xyz
  1  'x, y, z'
loop_
 _atom_site_type_symbol
 _atom_site_label
 _atom_site_symmetry_multiplicity
 _atom_site_fract_x
 _atom_site_fract_y
 _atom_site_fract_z
 _atom_site_occupancy
  Cu  Cu0  1  0.68377100  0.72071200  0.04384300  1
  Cu  Cu1  1  0.47522500  0.22258200  0.45600300  1
  Cu  Cu2  1  0.94903800  0.95602500  0.27905000  1
  Cu  Cu3  1  0.15629300  0.77750000  0.54780700  1
  Cu  Cu4  1  0.44863500  0.27890000  0.95413900  1
  Cu  Cu5  1  0.18182400  0.05031100  0.72303700  1
  Cu  Cu6  1  0.65377700  0.54580700  0.77710100  1
  Cu  Cu7  1  0.97846500  0.45225100  0.22430600  1
  Re  Re8  1  0.35104600  0.54637300  0.25934800  1
  Re  Re9  1  0.85019500  0.25703700  0.54625100  1
  Re  Re10  1  0.36048400  0.04632300  0.24042300  1
  Re  Re11  1  0.85744000  0.24207100  0.04691700  1
  Re  Re12  1  0.64765600  0.95448200  0.75817500  1
  Re  Re13  1  0.65542200  0.74225100  0.45435800  1
  Re  Re14  1  0.14705500  0.75806600  0.95478200  1
  Re  Re15  1  0.15316900  0.45473000  0.74296400  1
  O  O16  1  0.20474800  0.60371000  0.67356600  1
  O  O17  1  0.10958900  0.88907400  0.83419600  1
  O  O18  1  0.63957000  0.31634000  0.00626300  1
  O  O19  1  0.96411700  0.68217200  0.99544000  1
  O  O20  1  0.89426400  0.49603500  0.81881400  1
  O  O21  1  0.26788500  0.38424200  0.86504500  1
  O  O22  1  0.20632100  0.50598400  0.18566200  1
  O  O23  1  0.19329900  0.66578600  0.39177700  1
  O  O24  1  0.24410800  0.33563400  0.61048300  1
  O  O25  1  0.48131000  0.39671100  0.32816100  1
  O  O26  1  0.14114200  0.00723500  0.31506200  1
  O  O27  1  0.46287300  0.99662500  0.68397100  1
  O  O28  1  0.51707600  0.61655400  0.13605100  1
  O  O29  1  0.12562300  0.82890600  0.10412700  1
  O  O30  1  0.69225300  0.39016300  0.66503200  1
  O  O31  1  0.05744900  0.17344300  0.89702200  1
  O  O32  1  0.63079800  0.10371500  0.82665100  1
  O  O33  1  0.98089800  0.32556200  0.39622300  1
  O  O34  1  0.77099500  0.86383100  0.38292800  1
  O  O35  1  0.83073900  0.10973200  0.16592900  1
  O  O36  1  0.39701100  0.81863200  0.49428700  1
  O  O37  1  0.88384700  0.88279000  0.63529900  1
  O  O38  1  0.90031900  0.36478200  0.11787700  1
  O  O39  1  0.70671000  0.18207500  0.50584700  1
  O  O40  1  0.33443800  0.16562500  0.10823200  1
  O  O41  1  0.74717200  0.60913100  0.33607600  1
  O  O42  1  0.01577200  0.13440200  0.61690500  1
  O  O43  1  0.55875400  0.89638900  0.17110200  1
  O  O44  1  0.40431100  0.11617700  0.36340000  1
  O  O45  1  0.38396000  0.63506900  0.88668600  1
  O  O46  1  0.60674100  0.83587300  0.89084300  1
  O  O47  1  0.70348000  0.67401600  0.60475400  1
