# generated using pymatgen
data_Nb2FeO6
_symmetry_space_group_name_H-M   'P 1'
_cell_length_a   5.46800400
_cell_length_b   5.89848700
_cell_length_c   15.28269600
_cell_angle_alpha   90.00000000
_cell_angle_beta   90.00000000
_cell_angle_gamma   90.00000000
_symmetry_Int_Tables_number   1
_chemical_formula_structural   Nb2FeO6
_chemical_formula_sum   'Nb8 Fe4 O24'
_cell_volume   492.91203775
_cell_formula_units_Z   4
loop_
 _symmetry_equiv_pos_site_id
 _symmetry_equiv_pos_as_xyz
  1  'x, y, z'
loop_
 _atom_site_type_symbol
 _atom_site_label
 _atom_site_symmetry_multiplicity
 _atom_site_fract_x
 _atom_site_fract_y
 _atom_site_fract_z
 _atom_site_occupancy
  Nb  Nb0  1  0.43648700  0.18069900  0.33776000  1
  Nb  Nb1  1  0.06351300  0.68069900  0.83776000  1
  Nb  Nb2  1  0.56351300  0.31930100  0.83776000  1
  Nb  Nb3  1  0.93648700  0.81930100  0.33776000  1
  Nb  Nb4  1  0.56351300  0.81930100  0.66224000  1
  Nb  Nb5  1  0.06351300  0.18069900  0.66224000  1
  Nb  Nb6  1  0.43648700  0.68069900  0.16224000  1
  Nb  Nb7  1  0.93648700  0.31930100  0.16224000  1
  Fe  Fe8  1  0.25000000  0.15962900  0.00000000  1
  Fe  Fe9  1  0.75000000  0.34037100  0.50000000  1
  Fe  Fe10  1  0.75000000  0.84037100  0.00000000  1
  Fe  Fe11  1  0.25000000  0.65962900  0.50000000  1
  O  O12  1  0.27574400  0.93313400  0.39402300  1
  O  O13  1  0.55207400  0.59700200  0.57741900  1
  O  O14  1  0.55207400  0.09700200  0.92258100  1
  O  O15  1  0.94792600  0.09700200  0.07741900  1
  O  O16  1  0.67565000  0.70478400  0.26693200  1
  O  O17  1  0.44792600  0.90299800  0.07741900  1
  O  O18  1  0.72425600  0.06686600  0.60597700  1
  O  O19  1  0.82435000  0.20478400  0.76693200  1
  O  O20  1  0.82435000  0.70478400  0.73306800  1
  O  O21  1  0.94792600  0.59700200  0.42258100  1
  O  O22  1  0.22425600  0.93313400  0.60597700  1
  O  O23  1  0.27574400  0.43313400  0.10597700  1
  O  O24  1  0.67565000  0.20478400  0.23306800  1
  O  O25  1  0.77574400  0.06686600  0.39402300  1
  O  O26  1  0.72425600  0.56686600  0.89402300  1
  O  O27  1  0.05207400  0.40299800  0.57741900  1
  O  O28  1  0.77574400  0.56686600  0.10597700  1
  O  O29  1  0.32435000  0.79521600  0.76693200  1
  O  O30  1  0.32435000  0.29521600  0.73306800  1
  O  O31  1  0.05207400  0.90299800  0.92258100  1
  O  O32  1  0.44792600  0.40299800  0.42258100  1
  O  O33  1  0.17565000  0.29521600  0.26693200  1
  O  O34  1  0.17565000  0.79521600  0.23306800  1
  O  O35  1  0.22425600  0.43313400  0.89402300  1
