# generated using pymatgen
data_Cu3Sn4PbO12
_symmetry_space_group_name_H-M   'P 1'
_cell_length_a   6.76407410
_cell_length_b   6.76407410
_cell_length_c   6.76407410
_cell_angle_alpha   109.47122063
_cell_angle_beta   109.47122063
_cell_angle_gamma   109.47122063
_symmetry_Int_Tables_number   1
_chemical_formula_structural   Cu3Sn4PbO12
_chemical_formula_sum   'Cu3 Sn4 Pb1 O12'
_cell_volume   238.23369039
_cell_formula_units_Z   1
loop_
 _symmetry_equiv_pos_site_id
 _symmetry_equiv_pos_as_xyz
  1  'x, y, z'
loop_
 _atom_site_type_symbol
 _atom_site_label
 _atom_site_symmetry_multiplicity
 _atom_site_fract_x
 _atom_site_fract_y
 _atom_site_fract_z
 _atom_site_occupancy
  Cu  Cu0  1  0.00000000  0.50000000  0.50000000  1
  Cu  Cu1  1  0.50000000  0.50000000  0.00000000  1
  Cu  Cu2  1  0.50000000  0.00000000  0.50000000  1
  Sn  Sn3  1  0.50000000  0.50000000  0.50000000  1
  Sn  Sn4  1  0.50000000  0.00000000  0.00000000  1
  Sn  Sn5  1  0.00000000  0.00000000  0.50000000  1
  Sn  Sn6  1  0.00000000  0.50000000  0.00000000  1
  Pb  Pb7  1  0.00000000  0.00000000  0.00000000  1
  O  O8  1  0.68647400  0.17336600  0.85984000  1
  O  O9  1  0.31352600  0.17336600  0.48689100  1
  O  O10  1  0.85984000  0.68647400  0.17336600  1
  O  O11  1  0.51310900  0.68647400  0.82663400  1
  O  O12  1  0.17336600  0.85984000  0.68647400  1
  O  O13  1  0.14016000  0.31352600  0.82663400  1
  O  O14  1  0.68647400  0.82663400  0.51310900  1
  O  O15  1  0.17336600  0.48689100  0.31352600  1
  O  O16  1  0.82663400  0.51310900  0.68647400  1
  O  O17  1  0.31352600  0.82663400  0.14016000  1
  O  O18  1  0.48689100  0.31352600  0.17336600  1
  O  O19  1  0.82663400  0.14016000  0.31352600  1
