# generated using pymatgen
data_Yb2EuSe4
_symmetry_space_group_name_H-M   'P 1'
_cell_length_a   4.23054900
_cell_length_b   12.13961400
_cell_length_c   15.28780500
_cell_angle_alpha   90.00000000
_cell_angle_beta   90.00000000
_cell_angle_gamma   90.00000000
_symmetry_Int_Tables_number   1
_chemical_formula_structural   Yb2EuSe4
_chemical_formula_sum   'Yb8 Eu4 Se16'
_cell_volume   785.13934614
_cell_formula_units_Z   4
loop_
 _symmetry_equiv_pos_site_id
 _symmetry_equiv_pos_as_xyz
  1  'x, y, z'
loop_
 _atom_site_type_symbol
 _atom_site_label
 _atom_site_symmetry_multiplicity
 _atom_site_fract_x
 _atom_site_fract_y
 _atom_site_fract_z
 _atom_site_occupancy
  Yb  Yb0  1  0.25000000  0.91252800  0.59664300  1
  Yb  Yb1  1  0.25000000  0.93260400  0.10803500  1
  Yb  Yb2  1  0.75000000  0.56739600  0.60803500  1
  Yb  Yb3  1  0.75000000  0.06739600  0.89196500  1
  Yb  Yb4  1  0.75000000  0.08747200  0.40335700  1
  Yb  Yb5  1  0.75000000  0.58747200  0.09664300  1
  Yb  Yb6  1  0.25000000  0.43260400  0.39196500  1
  Yb  Yb7  1  0.25000000  0.41252800  0.90335700  1
  Eu  Eu8  1  0.25000000  0.76042700  0.33036300  1
  Eu  Eu9  1  0.75000000  0.73957300  0.83036300  1
  Eu  Eu10  1  0.25000000  0.26042700  0.16963700  1
  Eu  Eu11  1  0.75000000  0.23957300  0.66963700  1
  Se  Se12  1  0.75000000  0.29449100  0.31454300  1
  Se  Se13  1  0.75000000  0.10544600  0.08576700  1
  Se  Se14  1  0.75000000  0.35782500  0.03747200  1
  Se  Se15  1  0.25000000  0.70550900  0.68545700  1
  Se  Se16  1  0.25000000  0.52435800  0.21782100  1
  Se  Se17  1  0.75000000  0.47564200  0.78217900  1
  Se  Se18  1  0.75000000  0.79449100  0.18545700  1
  Se  Se19  1  0.75000000  0.85782500  0.46252800  1
  Se  Se20  1  0.25000000  0.89455400  0.91423300  1
  Se  Se21  1  0.75000000  0.97564200  0.71782100  1
  Se  Se22  1  0.25000000  0.64217500  0.96252800  1
  Se  Se23  1  0.25000000  0.20550900  0.81454300  1
  Se  Se24  1  0.25000000  0.02435800  0.28217900  1
  Se  Se25  1  0.25000000  0.14217500  0.53747200  1
  Se  Se26  1  0.25000000  0.39455400  0.58576700  1
  Se  Se27  1  0.75000000  0.60544600  0.41423300  1
