# generated using pymatgen
data_SnSO4
_symmetry_space_group_name_H-M   'P 1'
_cell_length_a   5.45829200
_cell_length_b   7.25298722
_cell_length_c   9.14395011
_cell_angle_alpha   90.08452566
_cell_angle_beta   91.03127882
_cell_angle_gamma   91.24935143
_symmetry_Int_Tables_number   1
_chemical_formula_structural   SnSO4
_chemical_formula_sum   'Sn4 S4 O16'
_cell_volume   361.85381746
_cell_formula_units_Z   4
loop_
 _symmetry_equiv_pos_site_id
 _symmetry_equiv_pos_as_xyz
  1  'x, y, z'
loop_
 _atom_site_type_symbol
 _atom_site_label
 _atom_site_symmetry_multiplicity
 _atom_site_fract_x
 _atom_site_fract_y
 _atom_site_fract_z
 _atom_site_occupancy
  Sn  Sn0  1  0.69796100  0.28474700  0.71577700  1
  Sn  Sn1  1  0.30203900  0.71525300  0.28422300  1
  Sn  Sn2  1  0.21052400  0.78035400  0.78529800  1
  Sn  Sn3  1  0.78947600  0.21964600  0.21470200  1
  S  S4  1  0.22998400  0.31819900  0.92461600  1
  S  S5  1  0.26870900  0.18266600  0.42555400  1
  S  S6  1  0.73129100  0.81733400  0.57444600  1
  S  S7  1  0.77001600  0.68180100  0.07538400  1
  O  O8  1  0.76932400  0.97893100  0.67517800  1
  O  O9  1  0.50807800  0.70804000  0.61788600  1
  O  O10  1  0.74849400  0.52767200  0.18480900  1
  O  O11  1  0.04670800  0.30077200  0.40404900  1
  O  O12  1  0.95329200  0.69922800  0.59595100  1
  O  O13  1  0.99756300  0.79362600  0.10929800  1
  O  O14  1  0.25150600  0.47232800  0.81519100  1
  O  O15  1  0.29409000  0.12988500  0.58011500  1
  O  O16  1  0.23067600  0.02106900  0.32482200  1
  O  O17  1  0.49192200  0.29196000  0.38211400  1
  O  O18  1  0.00243700  0.20637400  0.89070200  1
  O  O19  1  0.77252400  0.61761500  0.92353800  1
  O  O20  1  0.45035000  0.19922300  0.90148100  1
  O  O21  1  0.54965000  0.80077700  0.09851900  1
  O  O22  1  0.22747600  0.38238500  0.07646200  1
  O  O23  1  0.70591000  0.87011500  0.41988500  1
