# generated using pymatgen
data_Al3Bi5Cl12
_symmetry_space_group_name_H-M   'P 1'
_cell_length_a   12.39868579
_cell_length_b   12.39868579
_cell_length_c   12.39868591
_cell_angle_alpha   58.10472129
_cell_angle_beta   58.10472129
_cell_angle_gamma   58.10472426
_symmetry_Int_Tables_number   1
_chemical_formula_structural   Al3Bi5Cl12
_chemical_formula_sum   'Al6 Bi10 Cl24'
_cell_volume   1289.19688939
_cell_formula_units_Z   2
loop_
 _symmetry_equiv_pos_site_id
 _symmetry_equiv_pos_as_xyz
  1  'x, y, z'
loop_
 _atom_site_type_symbol
 _atom_site_label
 _atom_site_symmetry_multiplicity
 _atom_site_fract_x
 _atom_site_fract_y
 _atom_site_fract_z
 _atom_site_occupancy
  Al  Al0  1  0.22862800  0.75000000  0.27137200  1
  Al  Al1  1  0.77137200  0.25000000  0.72862800  1
  Al  Al2  1  0.72862800  0.77137200  0.25000000  1
  Al  Al3  1  0.27137200  0.22862800  0.75000000  1
  Al  Al4  1  0.25000000  0.72862800  0.77137200  1
  Al  Al5  1  0.75000000  0.27137200  0.22862800  1
  Bi  Bi6  1  0.90817200  0.59182800  0.75000000  1
  Bi  Bi7  1  0.67216200  0.67216200  0.67216200  1
  Bi  Bi8  1  0.17216200  0.17216200  0.17216200  1
  Bi  Bi9  1  0.40817200  0.25000000  0.09182800  1
  Bi  Bi10  1  0.32783800  0.32783800  0.32783800  1
  Bi  Bi11  1  0.09182800  0.40817200  0.25000000  1
  Bi  Bi12  1  0.82783800  0.82783800  0.82783800  1
  Bi  Bi13  1  0.59182800  0.75000000  0.90817200  1
  Bi  Bi14  1  0.75000000  0.90817200  0.59182800  1
  Bi  Bi15  1  0.25000000  0.09182800  0.40817200  1
  Cl  Cl16  1  0.07571000  0.69605000  0.95425000  1
  Cl  Cl17  1  0.10697800  0.27183000  0.70075700  1
  Cl  Cl18  1  0.45425000  0.19605000  0.57571000  1
  Cl  Cl19  1  0.70075800  0.10697800  0.27183000  1
  Cl  Cl20  1  0.69605000  0.95425000  0.07571000  1
  Cl  Cl21  1  0.30395000  0.04575000  0.92429000  1
  Cl  Cl22  1  0.72817000  0.29924200  0.89302200  1
  Cl  Cl23  1  0.89302200  0.72817000  0.29924300  1
  Cl  Cl24  1  0.57571000  0.45425000  0.19604900  1
  Cl  Cl25  1  0.20075800  0.77183000  0.60697800  1
  Cl  Cl26  1  0.95425000  0.07571000  0.69605000  1
  Cl  Cl27  1  0.04575000  0.92429000  0.30395000  1
  Cl  Cl28  1  0.27183000  0.70075700  0.10697800  1
  Cl  Cl29  1  0.54575000  0.80395000  0.42429000  1
  Cl  Cl30  1  0.80395100  0.42429000  0.54575000  1
  Cl  Cl31  1  0.29924200  0.89302200  0.72817000  1
  Cl  Cl32  1  0.77183000  0.60697800  0.20075700  1
  Cl  Cl33  1  0.39302200  0.79924200  0.22817000  1
  Cl  Cl34  1  0.22817000  0.39302200  0.79924200  1
  Cl  Cl35  1  0.92429000  0.30395000  0.04575000  1
  Cl  Cl36  1  0.79924300  0.22817000  0.39302200  1
  Cl  Cl37  1  0.19605000  0.57571000  0.45425000  1
  Cl  Cl38  1  0.60697800  0.20075700  0.77183000  1
  Cl  Cl39  1  0.42429000  0.54575000  0.80395000  1
