# generated using pymatgen
data_Mg5V2(MoO8)2
_symmetry_space_group_name_H-M   'P 1'
_cell_length_a   10.47882500
_cell_length_b   10.23045000
_cell_length_c   17.68322297
_cell_angle_alpha   89.88284039
_cell_angle_beta   90.00000000
_cell_angle_gamma   90.00000000
_symmetry_Int_Tables_number   1
_chemical_formula_structural   Mg5V2(MoO8)2
_chemical_formula_sum   'Mg30 V12 Mo12 O96'
_cell_volume   1895.69227257
_cell_formula_units_Z   6
loop_
 _symmetry_equiv_pos_site_id
 _symmetry_equiv_pos_as_xyz
  1  'x, y, z'
loop_
 _atom_site_type_symbol
 _atom_site_label
 _atom_site_symmetry_multiplicity
 _atom_site_fract_x
 _atom_site_fract_y
 _atom_site_fract_z
 _atom_site_occupancy
  Mg  Mg0  1  0.92589300  0.11523900  0.47350900  1
  Mg  Mg1  1  0.25000000  0.11844100  0.79990500  1
  Mg  Mg2  1  0.75000000  0.11211100  0.30233200  1
  Mg  Mg3  1  0.75000000  0.36424200  0.19454800  1
  Mg  Mg4  1  0.42185900  0.36432800  0.52721300  1
  Mg  Mg5  1  0.92513100  0.88567600  0.02648600  1
  Mg  Mg6  1  0.25000000  0.88788900  0.69766800  1
  Mg  Mg7  1  0.07410700  0.88476100  0.52649100  1
  Mg  Mg8  1  0.57486900  0.88567600  0.02648600  1
  Mg  Mg9  1  0.25000000  0.05479200  0.25096600  1
  Mg  Mg10  1  0.25000000  0.78720600  0.25064700  1
  Mg  Mg11  1  0.42513100  0.11432400  0.97351400  1
  Mg  Mg12  1  0.25000000  0.36456000  0.69671700  1
  Mg  Mg13  1  0.07775600  0.63606100  0.97271100  1
  Mg  Mg14  1  0.57775600  0.36393900  0.02728900  1
  Mg  Mg15  1  0.42224400  0.63606100  0.97271100  1
  Mg  Mg16  1  0.07814100  0.36432800  0.52721300  1
  Mg  Mg17  1  0.92185900  0.63567200  0.47278700  1
  Mg  Mg18  1  0.42589300  0.88476100  0.52649100  1
  Mg  Mg19  1  0.92224400  0.36393900  0.02728900  1
  Mg  Mg20  1  0.57410700  0.11523900  0.47350900  1
  Mg  Mg21  1  0.57814100  0.63567200  0.47278700  1
  Mg  Mg22  1  0.75000000  0.21279400  0.74935300  1
  Mg  Mg23  1  0.75000000  0.94520800  0.74903400  1
  Mg  Mg24  1  0.25000000  0.63575800  0.80545200  1
  Mg  Mg25  1  0.25000000  0.32338400  0.24727600  1
  Mg  Mg26  1  0.75000000  0.88155900  0.20009500  1
  Mg  Mg27  1  0.07486900  0.11432400  0.97351400  1
  Mg  Mg28  1  0.75000000  0.67661600  0.75272400  1
  Mg  Mg29  1  0.75000000  0.63544000  0.30328300  1
  V  V30  1  0.97500400  0.88592200  0.34218600  1
  V  V31  1  0.25000000  0.88795100  0.06146700  1
  V  V32  1  0.47500400  0.11407800  0.65781400  1
  V  V33  1  0.52667100  0.13923900  0.15785900  1
  V  V34  1  0.97332900  0.13923900  0.15785900  1
  V  V35  1  0.75000000  0.11204900  0.93853300  1
  V  V36  1  0.47332900  0.86076100  0.84214100  1
  V  V37  1  0.02667100  0.86076100  0.84214100  1
  V  V38  1  0.52499600  0.88592200  0.34218600  1
  V  V39  1  0.02499600  0.11407800  0.65781400  1
  V  V40  1  0.75000000  0.85839800  0.55929300  1
  V  V41  1  0.25000000  0.14160200  0.44070700  1
  Mo  Mo42  1  0.46811900  0.60853800  0.65620600  1
  Mo  Mo43  1  0.02861200  0.36192400  0.84385400  1
  Mo  Mo44  1  0.03188100  0.60853800  0.65620600  1
  Mo  Mo45  1  0.96811900  0.39146200  0.34379400  1
  Mo  Mo46  1  0.75000000  0.60746400  0.94770300  1
  Mo  Mo47  1  0.75000000  0.35843000  0.55500200  1
  Mo  Mo48  1  0.52861200  0.63807600  0.15614600  1
  Mo  Mo49  1  0.97138800  0.63807600  0.15614600  1
  Mo  Mo50  1  0.25000000  0.39253600  0.05229700  1
  Mo  Mo51  1  0.53188100  0.39146200  0.34379400  1
  Mo  Mo52  1  0.25000000  0.64157000  0.44499800  1
  Mo  Mo53  1  0.47138800  0.36192400  0.84385400  1
  O  O54  1  0.62683200  0.04233400  0.21338300  1
  O  O55  1  0.11198600  0.67495700  0.20411800  1
  O  O56  1  0.11632000  0.04786600  0.46316000  1
  O  O57  1  0.25000000  0.78066200  0.51179000  1
  O  O58  1  0.48682900  0.79235800  0.42305500  1
  O  O59  1  0.12824200  0.46592900  0.78458900  1
  O  O60  1  0.38615900  0.29192800  0.03170900  1
  O  O61  1  0.61405300  0.20763300  0.95834700  1
  O  O62  1  0.25000000  0.53398400  0.98617800  1
  O  O63  1  0.37602000  0.21196600  0.71576500  1
  O  O64  1  0.87936700  0.53732200  0.37399300  1
  O  O65  1  0.61384100  0.70807200  0.96829100  1
  O  O66  1  0.61556200  0.07898200  0.70509600  1
  O  O67  1  0.37316800  0.95766600  0.78661700  1
  O  O68  1  0.88523600  0.81732400  0.79572400  1
  O  O69  1  0.00208400  0.29211700  0.42571700  1
  O  O70  1  0.12683200  0.95766600  0.78661700  1
  O  O71  1  0.50208400  0.70788300  0.57428300  1
  O  O72  1  0.61476400  0.81732400  0.79572400  1
  O  O73  1  0.88368000  0.95213400  0.53684000  1
  O  O74  1  0.39004100  0.43273300  0.29707200  1
  O  O75  1  0.11405300  0.79236700  0.04165300  1
  O  O76  1  0.11226400  0.71942200  0.87123400  1
  O  O77  1  0.61632000  0.95213400  0.53684000  1
  O  O78  1  0.38523600  0.18267600  0.20427600  1
  O  O79  1  0.01317100  0.79235800  0.42305500  1
  O  O80  1  0.75000000  0.56608300  0.85162100  1
  O  O81  1  0.62063300  0.53732200  0.37399300  1
  O  O82  1  0.37175800  0.46592900  0.78458900  1
  O  O83  1  0.62398000  0.78803400  0.28423500  1
  O  O84  1  0.11384100  0.29192800  0.03170900  1
  O  O85  1  0.51317100  0.20764200  0.57694500  1
  O  O86  1  0.87316800  0.04233400  0.21338300  1
  O  O87  1  0.38368000  0.04786600  0.46316000  1
  O  O88  1  0.38443800  0.92101800  0.29490400  1
  O  O89  1  0.25000000  0.92251900  0.15735500  1
  O  O90  1  0.12063300  0.46267800  0.62600700  1
  O  O91  1  0.88443800  0.07898200  0.70509600  1
  O  O92  1  0.11476400  0.18267600  0.20427600  1
  O  O93  1  0.75000000  0.46601600  0.01382200  1
  O  O94  1  0.25000000  0.68416100  0.34965100  1
  O  O95  1  0.12398000  0.21196600  0.71576500  1
  O  O96  1  0.25000000  0.02584800  0.99949200  1
  O  O97  1  0.75000000  0.72011200  0.49699700  1
  O  O98  1  0.25000000  0.18447000  0.34495100  1
  O  O99  1  0.86889800  0.28766200  0.28651100  1
  O  O100  1  0.63110200  0.28766200  0.28651100  1
  O  O101  1  0.11991800  0.21815300  0.87372600  1
  O  O102  1  0.38594700  0.79236700  0.04165300  1
  O  O103  1  0.75000000  0.97415200  0.00050800  1
  O  O104  1  0.38799000  0.53910000  0.46358900  1
  O  O105  1  0.75000000  0.07748100  0.84264500  1
  O  O106  1  0.98682900  0.20764200  0.57694500  1
  O  O107  1  0.88615900  0.70807200  0.96829100  1
  O  O108  1  0.61991800  0.78184700  0.12627400  1
  O  O109  1  0.36889800  0.71233800  0.71348900  1
  O  O110  1  0.11556200  0.92101800  0.29490400  1
  O  O111  1  0.13110200  0.71233800  0.71348900  1
  O  O112  1  0.49523900  0.04744400  0.07693900  1
  O  O113  1  0.89004100  0.56726700  0.70292800  1
  O  O114  1  0.61198600  0.02523300  0.37113800  1
  O  O115  1  0.99523900  0.95255600  0.92306100  1
  O  O116  1  0.87602000  0.78803400  0.28423500  1
  O  O117  1  0.38801400  0.97476700  0.62886200  1
  O  O118  1  0.88594700  0.20763300  0.95834700  1
  O  O119  1  0.87175800  0.53407100  0.21541100  1
  O  O120  1  0.11198600  0.97476700  0.62886200  1
  O  O121  1  0.75000000  0.81553000  0.65504900  1
  O  O122  1  0.48930600  0.53780600  0.07431700  1
  O  O123  1  0.98930600  0.46219400  0.92568300  1
  O  O124  1  0.37936700  0.46267800  0.62600700  1
  O  O125  1  0.49791600  0.29211700  0.42571700  1
  O  O126  1  0.38008200  0.21815300  0.87372600  1
  O  O127  1  0.99791600  0.70788300  0.57428300  1
  O  O128  1  0.88801400  0.32504300  0.79588200  1
  O  O129  1  0.00476100  0.04744400  0.07693900  1
  O  O130  1  0.62824200  0.53407100  0.21541100  1
  O  O131  1  0.01069400  0.53780600  0.07431700  1
  O  O132  1  0.61198600  0.32504300  0.79588200  1
  O  O133  1  0.75000000  0.21933800  0.48821000  1
  O  O134  1  0.88008200  0.78184700  0.12627400  1
  O  O135  1  0.38773600  0.71942200  0.87123400  1
  O  O136  1  0.11201000  0.53910000  0.46358900  1
  O  O137  1  0.50476100  0.95255600  0.92306100  1
  O  O138  1  0.61201000  0.46090000  0.53641100  1
  O  O139  1  0.38801400  0.67495700  0.20411800  1
  O  O140  1  0.25000000  0.43391700  0.14837900  1
  O  O141  1  0.10995900  0.43273300  0.29707200  1
  O  O142  1  0.60995900  0.56726700  0.70292800  1
  O  O143  1  0.61226400  0.28057800  0.12876600  1
  O  O144  1  0.75000000  0.31583900  0.65034900  1
  O  O145  1  0.51069400  0.46219400  0.92568300  1
  O  O146  1  0.25000000  0.27988800  0.50300300  1
  O  O147  1  0.88773600  0.28057800  0.12876600  1
  O  O148  1  0.88801400  0.02523300  0.37113800  1
  O  O149  1  0.88799000  0.46090000  0.53641100  1
