# generated using pymatgen
data_As9Pb7S20
_symmetry_space_group_name_H-M   'P 1'
_cell_length_a   25.97866400
_cell_length_b   8.35960400
_cell_length_c   8.40872964
_cell_angle_alpha   89.87305797
_cell_angle_beta   90.00000000
_cell_angle_gamma   90.00000000
_symmetry_Int_Tables_number   1
_chemical_formula_structural   As9Pb7S20
_chemical_formula_sum   'As18 Pb14 S40'
_cell_volume   1826.13063054
_cell_formula_units_Z   2
loop_
 _symmetry_equiv_pos_site_id
 _symmetry_equiv_pos_as_xyz
  1  'x, y, z'
loop_
 _atom_site_type_symbol
 _atom_site_label
 _atom_site_symmetry_multiplicity
 _atom_site_fract_x
 _atom_site_fract_y
 _atom_site_fract_z
 _atom_site_occupancy
  As  As0  1  0.26569500  0.62175100  0.12120800  1
  As  As1  1  0.76569500  0.37824900  0.87879200  1
  As  As2  1  0.15835600  0.26295000  0.62321500  1
  As  As3  1  0.65835600  0.73705000  0.37678500  1
  As  As4  1  0.27511700  0.27230900  0.40202000  1
  As  As5  1  0.77511700  0.72769100  0.59798000  1
  As  As6  1  0.15167600  0.88731100  0.92298300  1
  As  As7  1  0.65167600  0.11268900  0.07701700  1
  As  As8  1  0.13693800  0.88175500  0.35521600  1
  As  As9  1  0.63693800  0.11824500  0.64478400  1
  As  As10  1  0.05278900  0.56679700  0.39498800  1
  As  As11  1  0.55278900  0.43320300  0.60501200  1
  As  As12  1  0.04370100  0.55424800  0.87024900  1
  As  As13  1  0.54370100  0.44575200  0.12975100  1
  As  As14  1  0.36430600  0.92824900  0.62748100  1
  As  As15  1  0.86430600  0.07175100  0.37251900  1
  As  As16  1  0.35602000  0.93377300  0.17358800  1
  As  As17  1  0.85602000  0.06622700  0.82641200  1
  Pb  Pb18  1  0.23992900  0.65005200  0.64605100  1
  Pb  Pb19  1  0.73992800  0.34994800  0.35394900  1
  Pb  Pb20  1  0.62801000  0.71500000  0.88050100  1
  Pb  Pb21  1  0.12801000  0.28500000  0.11949900  1
  Pb  Pb22  1  0.27333400  0.18400000  0.87667200  1
  Pb  Pb23  1  0.77333400  0.81600000  0.12332800  1
  Pb  Pb24  1  0.41565400  0.53777500  0.37905100  1
  Pb  Pb25  1  0.91565400  0.46222500  0.62094900  1
  Pb  Pb26  1  0.41423000  0.55777100  0.88484700  1
  Pb  Pb27  1  0.91423000  0.44222900  0.11515300  1
  Pb  Pb28  1  0.50742200  0.05317800  0.37464100  1
  Pb  Pb29  1  0.00742200  0.94682200  0.62535900  1
  Pb  Pb30  1  0.50111600  0.05489400  0.87384800  1
  Pb  Pb31  1  0.00111600  0.94510600  0.12615200  1
  S  S32  1  0.02343500  0.40601900  0.64974900  1
  S  S33  1  0.52343500  0.59398100  0.35025100  1
  S  S34  1  0.08199900  0.09248100  0.36170800  1
  S  S35  1  0.58199900  0.90751900  0.63829200  1
  S  S36  1  0.30674700  0.75968300  0.32473700  1
  S  S37  1  0.80674700  0.24031700  0.67526300  1
  S  S38  1  0.31467300  0.41465700  0.59577400  1
  S  S39  1  0.81467300  0.58534300  0.40422600  1
  S  S40  1  0.38439400  0.08050300  0.39601800  1
  S  S41  1  0.88439400  0.91949700  0.60398200  1
  S  S42  1  0.43536000  0.76435400  0.62536500  1
  S  S43  1  0.93536000  0.23564600  0.37463500  1
  S  S44  1  0.47883000  0.29114200  0.62448400  1
  S  S45  1  0.97883000  0.70885800  0.37551600  1
  S  S46  1  0.09867700  0.73426200  0.56875800  1
  S  S47  1  0.59867700  0.26573800  0.43124200  1
  S  S48  1  0.09823100  0.72689300  0.16317500  1
  S  S49  1  0.31197700  0.38871900  0.15642000  1
  S  S50  1  0.59823100  0.27310700  0.83682500  1
  S  S51  1  0.51971500  0.61208700  0.92553200  1
  S  S52  1  0.09267500  0.07400900  0.86197300  1
  S  S53  1  0.59267500  0.92599100  0.13802700  1
  S  S54  1  0.20132800  0.02634800  0.09558800  1
  S  S55  1  0.70132800  0.97365200  0.90441200  1
  S  S56  1  0.21465000  0.06183100  0.61425100  1
  S  S57  1  0.71465000  0.93816900  0.38574900  1
  S  S58  1  0.19166100  0.41808300  0.83110700  1
  S  S59  1  0.69166100  0.58191700  0.16889300  1
  S  S60  1  0.19949500  0.41856200  0.39081700  1
  S  S61  1  0.69949500  0.58143800  0.60918300  1
  S  S62  1  0.30657200  0.72826200  0.90787700  1
  S  S63  1  0.80657200  0.27173800  0.09212300  1
  S  S64  1  0.97404800  0.72410900  0.87184200  1
  S  S65  1  0.47404800  0.27589100  0.12815800  1
  S  S66  1  0.92834600  0.21277800  0.86223200  1
  S  S67  1  0.42834600  0.78722200  0.13776800  1
  S  S68  1  0.88789500  0.90623800  0.18275200  1
  S  S69  1  0.38789500  0.09376200  0.81724800  1
  S  S70  1  0.81197700  0.61128100  0.84358000  1
  S  S71  1  0.01971500  0.38791300  0.07446800  1
