# generated using pymatgen
data_KEuAsS3
_symmetry_space_group_name_H-M   'P 1'
_cell_length_a   8.36529100
_cell_length_b   8.80229400
_cell_length_c   8.98523060
_cell_angle_alpha   75.69326856
_cell_angle_beta   90.00000000
_cell_angle_gamma   90.00000000
_symmetry_Int_Tables_number   1
_chemical_formula_structural   KEuAsS3
_chemical_formula_sum   'K4 Eu4 As4 S12'
_cell_volume   641.09733187
_cell_formula_units_Z   4
loop_
 _symmetry_equiv_pos_site_id
 _symmetry_equiv_pos_as_xyz
  1  'x, y, z'
loop_
 _atom_site_type_symbol
 _atom_site_label
 _atom_site_symmetry_multiplicity
 _atom_site_fract_x
 _atom_site_fract_y
 _atom_site_fract_z
 _atom_site_occupancy
  K  K0  1  0.42095600  0.22305100  0.90770800  1
  K  K1  1  0.07904400  0.72305100  0.90770800  1
  K  K2  1  0.92095600  0.27694900  0.09229200  1
  K  K3  1  0.57904400  0.77694900  0.09229200  1
  Eu  Eu4  1  0.28413700  0.02737500  0.43492200  1
  Eu  Eu5  1  0.21586300  0.52737500  0.43492200  1
  Eu  Eu6  1  0.78413700  0.47262500  0.56507800  1
  Eu  Eu7  1  0.71586300  0.97262500  0.56507800  1
  As  As8  1  0.45254800  0.64764200  0.72999000  1
  As  As9  1  0.04745200  0.14764200  0.72999000  1
  As  As10  1  0.95254800  0.85235800  0.27001000  1
  As  As11  1  0.54745200  0.35235800  0.27001000  1
  S  S12  1  0.30707900  0.42049200  0.16173000  1
  S  S13  1  0.48185000  0.28395500  0.52919400  1
  S  S14  1  0.58598900  0.10454700  0.24660600  1
  S  S15  1  0.69292100  0.57950800  0.83827000  1
  S  S16  1  0.98185000  0.21604500  0.47080600  1
  S  S17  1  0.08598900  0.39545300  0.75339400  1
  S  S18  1  0.41401100  0.89545300  0.75339400  1
  S  S19  1  0.80707900  0.07950800  0.83827000  1
  S  S20  1  0.51815000  0.71604500  0.47080600  1
  S  S21  1  0.01815000  0.78395500  0.52919400  1
  S  S22  1  0.19292100  0.92049200  0.16173000  1
  S  S23  1  0.91401100  0.60454700  0.24660600  1
