# generated using pymatgen
data_NaCe(GaSe2)4
_symmetry_space_group_name_H-M   'P 1'
_cell_length_a   12.49830969
_cell_length_b   12.49831039
_cell_length_c   12.54061202
_cell_angle_alpha   105.40059158
_cell_angle_beta   105.40059245
_cell_angle_gamma   117.84428512
_symmetry_Int_Tables_number   1
_chemical_formula_structural   NaCe(GaSe2)4
_chemical_formula_sum   'Na4 Ce4 Ga16 Se32'
_cell_volume   1485.32955201
_cell_formula_units_Z   4
loop_
 _symmetry_equiv_pos_site_id
 _symmetry_equiv_pos_as_xyz
  1  'x, y, z'
loop_
 _atom_site_type_symbol
 _atom_site_label
 _atom_site_symmetry_multiplicity
 _atom_site_fract_x
 _atom_site_fract_y
 _atom_site_fract_z
 _atom_site_occupancy
  Na  Na0  1  0.62196392  0.87196392  0.74392784  1
  Na  Na1  1  0.12803608  0.37803608  0.75607216  1
  Na  Na2  1  0.87196392  0.62196392  0.24392784  1
  Na  Na3  1  0.37803608  0.12803608  0.25607216  1
  Ce  Ce4  1  0.37500000  0.62500000  0.25000000  1
  Ce  Ce5  1  0.12500000  0.87500000  0.75000000  1
  Ce  Ce6  1  0.87500000  0.12500000  0.25000000  1
  Ce  Ce7  1  0.62500000  0.37500000  0.75000000  1
  Ga  Ga8  1  0.38840975  0.86836267  0.00452450  1
  Ga  Ga9  1  0.61159025  0.13163733  0.99547550  1
  Ga  Ga10  1  0.36053164  0.47057536  0.49890461  1
  Ga  Ga11  1  0.36162704  0.97167075  0.50109539  1
  Ga  Ga12  1  0.13163733  0.61159025  0.49547550  1
  Ga  Ga13  1  0.63837296  0.02832925  0.49890461  1
  Ga  Ga14  1  0.52942464  0.63946836  0.00109539  1
  Ga  Ga15  1  0.47057536  0.36053164  0.99890461  1
  Ga  Ga16  1  0.63946836  0.52942464  0.50109539  1
  Ga  Ga17  1  0.86836267  0.38840975  0.50452450  1
  Ga  Ga18  1  0.13616183  0.11611475  0.50452450  1
  Ga  Ga19  1  0.86383817  0.88388525  0.49547550  1
  Ga  Ga20  1  0.88388525  0.86383817  0.99547550  1
  Ga  Ga21  1  0.97167075  0.36162704  0.00109539  1
  Ga  Ga22  1  0.02832925  0.63837296  0.99890461  1
  Ga  Ga23  1  0.11611475  0.13616183  0.00452450  1
  Se  Se24  1  0.90927162  0.41242953  0.82632780  1
  Se  Se25  1  0.65748458  0.34251041  0.99586354  1
  Se  Se26  1  0.34664687  0.16162104  0.50413646  1
  Se  Se27  1  0.58757047  0.09072838  0.67367220  1
  Se  Se28  1  0.65748959  0.34251542  0.50413646  1
  Se  Se29  1  0.08973172  0.59369163  0.67289473  1
  Se  Se30  1  0.91683699  0.92079690  0.32710527  1
  Se  Se31  1  0.59369163  0.08973172  0.17289473  1
  Se  Se32  1  0.81704583  0.14919145  0.99810479  1
  Se  Se33  1  0.58610174  0.58294382  0.67367220  1
  Se  Se34  1  0.18295417  0.85080855  0.00189521  1
  Se  Se35  1  0.16162104  0.34664687  0.00413646  1
  Se  Se36  1  0.85080855  0.18295417  0.50189521  1
  Se  Se37  1  0.31894104  0.15108666  0.00189521  1
  Se  Se38  1  0.40630837  0.91026828  0.82710527  1
  Se  Se39  1  0.41389826  0.41705618  0.32632780  1
  Se  Se40  1  0.41705618  0.41389826  0.82632780  1
  Se  Se41  1  0.09072838  0.58757047  0.17367220  1
  Se  Se42  1  0.58294382  0.58610174  0.17367220  1
  Se  Se43  1  0.83837896  0.65335313  0.99586354  1
  Se  Se44  1  0.07920310  0.08316301  0.17289473  1
  Se  Se45  1  0.08316301  0.07920310  0.67289473  1
  Se  Se46  1  0.34251041  0.65748458  0.49586354  1
  Se  Se47  1  0.91026828  0.40630837  0.32710527  1
  Se  Se48  1  0.34251542  0.65748959  0.00413646  1
  Se  Se49  1  0.68105896  0.84891334  0.99810479  1
  Se  Se50  1  0.15108666  0.31894104  0.50189521  1
  Se  Se51  1  0.92079690  0.91683699  0.82710527  1
  Se  Se52  1  0.84891334  0.68105896  0.49810479  1
  Se  Se53  1  0.41242953  0.90927162  0.32632780  1
  Se  Se54  1  0.65335313  0.83837896  0.49586354  1
  Se  Se55  1  0.14919145  0.81704583  0.49810479  1
