# generated using pymatgen
data_SiO2
_symmetry_space_group_name_H-M   'P 1'
_cell_length_a   17.40926709
_cell_length_b   17.40926709
_cell_length_c   21.57406311
_cell_angle_alpha   89.87618786
_cell_angle_beta   89.87618786
_cell_angle_gamma   163.10092473
_symmetry_Int_Tables_number   1
_chemical_formula_structural   SiO2
_chemical_formula_sum   'Si32 O64'
_cell_volume   1900.51451278
_cell_formula_units_Z   32
loop_
 _symmetry_equiv_pos_site_id
 _symmetry_equiv_pos_as_xyz
  1  'x, y, z'
loop_
 _atom_site_type_symbol
 _atom_site_label
 _atom_site_symmetry_multiplicity
 _atom_site_fract_x
 _atom_site_fract_y
 _atom_site_fract_z
 _atom_site_occupancy
  Si  Si0  1  0.83195200  0.07305300  0.85544800  1
  Si  Si1  1  0.23730400  0.68411300  0.56678700  1
  Si  Si2  1  0.37681600  0.71485000  0.67857300  1
  Si  Si3  1  0.98989600  0.92402400  0.32067500  1
  Si  Si4  1  0.06004000  0.83561300  0.50426100  1
  Si  Si5  1  0.31588700  0.76269600  0.93321300  1
  Si  Si6  1  0.16438700  0.93995900  0.99573900  1
  Si  Si7  1  0.45755600  0.43674400  0.39687100  1
  Si  Si8  1  0.54244400  0.56325600  0.60312900  1
  Si  Si9  1  0.16804800  0.92694700  0.14455200  1
  Si  Si10  1  0.76269600  0.31588700  0.43321300  1
  Si  Si11  1  0.50573800  0.38083800  0.52182500  1
  Si  Si12  1  0.38083800  0.50573800  0.02182500  1
  Si  Si13  1  0.28515000  0.62318400  0.82142700  1
  Si  Si14  1  0.16568100  0.76649600  0.99004300  1
  Si  Si15  1  0.62318400  0.28515000  0.32142700  1
  Si  Si16  1  0.23350400  0.83431900  0.50995700  1
  Si  Si17  1  0.01010400  0.07597600  0.67932500  1
  Si  Si18  1  0.71485000  0.37681600  0.17857300  1
  Si  Si19  1  0.49426200  0.61916200  0.47817500  1
  Si  Si20  1  0.56325600  0.54244400  0.10312900  1
  Si  Si21  1  0.93995900  0.16438700  0.49573900  1
  Si  Si22  1  0.43674400  0.45755600  0.89687100  1
  Si  Si23  1  0.68411300  0.23730400  0.06678700  1
  Si  Si24  1  0.83431900  0.23350400  0.00995700  1
  Si  Si25  1  0.92402400  0.98989600  0.82067500  1
  Si  Si26  1  0.83561300  0.06004100  0.00426100  1
  Si  Si27  1  0.92694700  0.16804800  0.64455200  1
  Si  Si28  1  0.61916200  0.49426200  0.97817500  1
  Si  Si29  1  0.07597600  0.01010400  0.17932500  1
  Si  Si30  1  0.76649600  0.16568100  0.49004300  1
  Si  Si31  1  0.07305300  0.83195200  0.35544800  1
  O  O32  1  0.87278400  0.10270400  0.92953200  1
  O  O33  1  0.36269900  0.31622100  0.15567500  1
  O  O34  1  0.78160400  0.24022800  0.43182400  1
  O  O35  1  0.24817400  0.44363200  0.47839200  1
  O  O36  1  0.85083100  0.16118800  0.46601400  1
  O  O37  1  0.71489000  0.29982600  0.13627900  1
  O  O38  1  0.23274500  0.07149000  0.53161400  1
  O  O39  1  0.98259600  0.01740400  0.75000000  1
  O  O40  1  0.12467700  0.53387300  0.98230100  1
  O  O41  1  0.87532300  0.46612700  0.01769900  1
  O  O42  1  0.47872200  0.20965600  0.15948400  1
  O  O43  1  0.09035500  0.93124900  0.32117500  1
  O  O44  1  0.85326200  0.83039700  0.13289400  1
  O  O45  1  0.20965600  0.47872200  0.65948400  1
  O  O46  1  0.83881200  0.14916900  0.03398600  1
  O  O47  1  0.68377900  0.63730100  0.34432500  1
  O  O48  1  0.44363200  0.24817400  0.97839200  1
  O  O49  1  0.55636800  0.75182600  0.02160800  1
  O  O50  1  0.90964500  0.06875100  0.67882500  1
  O  O51  1  0.10270400  0.87278400  0.42953200  1
  O  O52  1  0.46612700  0.87532300  0.51769900  1
  O  O53  1  0.21839600  0.75977200  0.56817600  1
  O  O54  1  0.79034400  0.52127800  0.34051600  1
  O  O55  1  0.53312100  0.46576600  0.57957200  1
  O  O56  1  0.16960300  0.14673800  0.36710600  1
  O  O57  1  0.12721600  0.89729600  0.07046800  1
  O  O58  1  0.75182600  0.55636800  0.52160800  1
  O  O59  1  0.68207000  0.31793000  0.25000000  1
  O  O60  1  0.31622100  0.36269900  0.65567500  1
  O  O61  1  0.16118800  0.85083100  0.96601400  1
  O  O62  1  0.93124900  0.09035500  0.82117500  1
  O  O63  1  0.99547900  0.68985100  0.17045200  1
  O  O64  1  0.38024200  0.95937100  0.04494400  1
  O  O65  1  0.31793000  0.68207000  0.75000000  1
  O  O66  1  0.46576600  0.53312100  0.07957200  1
  O  O67  1  0.14673800  0.16960300  0.86710600  1
  O  O68  1  0.04062900  0.61975800  0.45505600  1
  O  O69  1  0.50182000  0.42236800  0.45594000  1
  O  O70  1  0.52127800  0.79034400  0.84051600  1
  O  O71  1  0.46687900  0.53423400  0.42042800  1
  O  O72  1  0.42236800  0.50182000  0.95594000  1
  O  O73  1  0.70017400  0.28511000  0.36372100  1
  O  O74  1  0.95937100  0.38024200  0.54494400  1
  O  O75  1  0.68985100  0.99547900  0.67045200  1
  O  O76  1  0.53423400  0.46687900  0.92042800  1
  O  O77  1  0.00452100  0.31014900  0.82954800  1
  O  O78  1  0.31014900  0.00452100  0.32954800  1
  O  O79  1  0.29982600  0.71489000  0.63627900  1
  O  O80  1  0.92851000  0.76725500  0.96838600  1
  O  O81  1  0.83039700  0.85326200  0.63289400  1
  O  O82  1  0.89729600  0.12721600  0.57046800  1
  O  O83  1  0.24022800  0.78160400  0.93182400  1
  O  O84  1  0.14916900  0.83881200  0.53398600  1
  O  O85  1  0.57763200  0.49818000  0.04406000  1
  O  O86  1  0.01740400  0.98259600  0.25000000  1
  O  O87  1  0.49818000  0.57763200  0.54406000  1
  O  O88  1  0.63730100  0.68377900  0.84432500  1
  O  O89  1  0.28511000  0.70017400  0.86372100  1
  O  O90  1  0.75977200  0.21839600  0.06817600  1
  O  O91  1  0.61975800  0.04062900  0.95505600  1
  O  O92  1  0.07149000  0.23274500  0.03161400  1
  O  O93  1  0.76725500  0.92851000  0.46838600  1
  O  O94  1  0.53387300  0.12467700  0.48230100  1
  O  O95  1  0.06875100  0.90964500  0.17882500  1
