# generated using pymatgen
data_SrTeO3
_symmetry_space_group_name_H-M   'P 1'
_cell_length_a   5.99654594
_cell_length_b   14.58929409
_cell_length_c   26.71530825
_cell_angle_alpha   83.54535156
_cell_angle_beta   83.55722438
_cell_angle_gamma   78.15374116
_symmetry_Int_Tables_number   1
_chemical_formula_structural   SrTeO3
_chemical_formula_sum   'Sr24 Te24 O72'
_cell_volume   2263.35443390
_cell_formula_units_Z   24
loop_
 _symmetry_equiv_pos_site_id
 _symmetry_equiv_pos_as_xyz
  1  'x, y, z'
loop_
 _atom_site_type_symbol
 _atom_site_label
 _atom_site_symmetry_multiplicity
 _atom_site_fract_x
 _atom_site_fract_y
 _atom_site_fract_z
 _atom_site_occupancy
  Sr  Sr0  1  0.72363982  0.56228806  0.55467404  1
  Sr  Sr1  1  0.84406325  0.93732696  0.94515468  1
  Sr  Sr2  1  0.04853246  0.32818574  0.07620054  1
  Sr  Sr3  1  0.86957685  0.34674397  0.36191117  1
  Sr  Sr4  1  0.08619700  0.53983674  0.79003818  1
  Sr  Sr5  1  0.57990470  0.15501768  0.13746292  1
  Sr  Sr6  1  0.42638823  0.84656244  0.86116659  1
  Sr  Sr7  1  0.66888851  0.44461587  0.69751301  1
  Sr  Sr8  1  0.41493831  0.96194887  0.71004252  1
  Sr  Sr9  1  0.95148367  0.67316202  0.92274282  1
  Sr  Sr10  1  0.12839526  0.65207012  0.63756480  1
  Sr  Sr11  1  0.78675952  0.75188323  0.25010359  1
  Sr  Sr12  1  0.50153120  0.49980258  0.99965842  1
  Sr  Sr13  1  0.33452548  0.55618645  0.30179747  1
  Sr  Sr14  1  0.45053873  0.17147749  0.42296783  1
  Sr  Sr15  1  0.19368948  0.94391000  0.19756152  1
  Sr  Sr16  1  0.54591070  0.82647181  0.57682628  1
  Sr  Sr17  1  0.27478228  0.43590492  0.44426904  1
  Sr  Sr18  1  0.00068295  0.99889434  0.49903887  1
  Sr  Sr19  1  0.91445818  0.46251554  0.21017638  1
  Sr  Sr20  1  0.21087617  0.25044031  0.75064980  1
  Sr  Sr21  1  0.58662320  0.03823050  0.28911797  1
  Sr  Sr22  1  0.80372352  0.05644330  0.80316372  1
  Sr  Sr23  1  0.15825852  0.06451006  0.05461796  1
  Te  Te24  1  0.25646119  0.40350164  0.61538620  1
  Te  Te25  1  0.56885258  0.68581013  0.70764663  1
  Te  Te26  1  0.86072072  0.29564918  0.50003977  1
  Te  Te27  1  0.27518462  0.09464511  0.88552537  1
  Te  Te28  1  0.65773694  0.20603363  0.99944031  1
  Te  Te29  1  0.14457515  0.84112304  0.32729411  1
  Te  Te30  1  0.13833265  0.70343940  0.49956495  1
  Te  Te31  1  0.59956145  0.88369287  0.42585236  1
  Te  Te32  1  0.96609089  0.81390738  0.79199828  1
  Te  Te33  1  0.40649649  0.11407603  0.57345091  1
  Te  Te34  1  0.72320887  0.90641515  0.11535963  1
  Te  Te35  1  0.46559640  0.41395861  0.13974375  1
  Te  Te36  1  0.03557191  0.18569538  0.20744410  1
  Te  Te37  1  0.34399737  0.79645995  0.99986917  1
  Te  Te38  1  0.90910783  0.61496341  0.07267941  1
  Te  Te39  1  0.74538085  0.59405558  0.38411361  1
  Te  Te40  1  0.01607715  0.08655852  0.35991767  1
  Te  Te41  1  0.43063688  0.31485966  0.29208022  1
  Te  Te42  1  0.53613247  0.58628360  0.86047236  1
  Te  Te43  1  0.09111117  0.38476237  0.92597909  1
  Te  Te44  1  0.68400712  0.34063232  0.82728336  1
  Te  Te45  1  0.31184848  0.66116916  0.17235200  1
  Te  Te46  1  0.98285182  0.91220263  0.63912856  1
  Te  Te47  1  0.85346833  0.15830466  0.67363802  1
  O  O48  1  0.18083488  0.89517865  0.78593517  1
  O  O49  1  0.91635713  0.70077724  0.55612064  1
  O  O50  1  0.25413760  0.66376980  0.84321966  1
  O  O51  1  0.28421875  0.89818064  0.44332426  1
  O  O52  1  0.56356494  0.67265565  0.63791968  1
  O  O53  1  0.26840539  0.33716282  0.17422390  1
  O  O54  1  0.85880724  0.60450370  0.71422787  1
  O  O55  1  0.39671818  0.69706028  0.53527464  1
  O  O56  1  0.61132662  -0.00012293  0.38653022  1
  O  O57  1  0.77283848  0.07785212  0.99056392  1
  O  O58  1  0.08234262  0.29612992  0.44342837  1
  O  O59  1  0.76790420  0.83167230  0.65533494  1
  O  O60  1  0.53767431  0.99802957  0.88945064  1
  O  O61  1  0.31973119  0.36511475  0.68229970  1
  O  O62  1  0.99051822  0.49794759  0.11170631  1
  O  O63  1  0.83658963  0.21911160  0.81284370  1
  O  O64  1  0.40040532  0.99742420  0.61271973  1
  O  O65  1  0.87212748  0.28079429  0.68603524  1
  O  O66  1  0.96698600  0.48334475  0.62362720  1
  O  O67  1  0.08650206  0.87959285  0.57310582  1
  O  O68  1  0.44061182  0.32556347  0.36199609  1
  O  O69  1  0.46422083  0.00422291  0.11034207  1
  O  O70  1  0.77610036  0.16467503  0.32614447  1
  O  O71  1  0.07319723  0.01620585  0.87591561  1
  O  O72  1  0.70400065  0.90105286  0.48771343  1
  O  O73  1  0.81820980  0.10539407  0.21311616  1
  O  O74  1  0.99869187  0.50241994  0.88836549  1
  O  O75  1  0.09377611  0.59725061  0.01099823  1
  O  O76  1  0.82350351  0.20290023  0.05636704  1
  O  O77  1  0.38140368  0.59351042  0.72657713  1
  O  O78  1  0.91404612  0.11974356  0.42597144  1
  O  O79  1  0.36379771  0.13620501  0.81893594  1
  O  O80  1  0.73382443  0.66448326  0.82752164  1
  O  O81  1  0.72113352  0.09988512  0.55517642  1
  O  O82  1  0.62549973  0.60244240  0.05445744  1
  O  O83  1  0.37300716  0.39936645  0.94419672  1
  O  O84  1  0.87498932  0.82606813  0.86176166  1
  O  O85  1  0.23185840  0.92525470  0.00770055  1
  O  O86  1  0.03230836  0.51290743  0.37521315  1
  O  O87  1  0.14105926  0.39674662  0.28645753  1
  O  O88  1  0.57169081  0.49886092  0.38813190  1
  O  O89  1  0.42582997  0.50038464  0.61003780  1
  O  O90  1  0.63330013  0.86862725  0.18252323  1
  O  O91  1  0.11510566  0.59620246  0.21753675  1
  O  O92  1  0.29299551  0.09232622  0.22709571  1
  O  O93  1  0.46045017  0.38014396  0.07393963  1
  O  O94  1  0.56762607  0.63014901  0.21116450  1
  O  O95  1  0.18101326  0.79878072  0.94258174  1
  O  O96  1  0.90600889  0.39921784  0.98781531  1
  O  O97  1  0.36879468  0.19925061  0.03445902  1
  O  O98  1  0.07097980  0.09527540  0.71911070  1
  O  O99  1  0.43108873  0.37203390  0.78755297  1
  O  O100  1  0.40879258  0.87200233  0.28842726  1
  O  O101  1  0.60087528  0.30326683  0.46463374  1
  O  O102  1  0.61829751  0.40702305  0.27253853  1
  O  O103  1  0.74663561  0.33469062  0.15572373  1
  O  O104  1  0.84545780  0.42390096  0.50765420  1
  O  O105  1  0.68434277  0.63446445  0.31722535  1
  O  O106  1  0.92922213  0.90400082  0.28122864  1
  O  O107  1  0.16399475  0.57513864  0.49070741  1
  O  O108  1  0.53417942  0.62055084  0.92637926  1
  O  O109  1  0.22567097  0.83562826  0.67270565  1
  O  O110  1  0.12822093  0.71888092  0.31391525  1
  O  O111  1  0.88398643  0.40539550  0.78276988  1
  O  O112  1  0.15868580  0.78191102  0.18798027  1
  O  O113  1  0.92983602  0.98405254  0.12317897  1
  O  O114  1  0.59088105  0.12846011  0.71366378  1
  O  O115  1  0.12576995  0.17470107  0.13755320  1
  O  O116  1  0.70374630  0.90534217  0.77296471  1
  O  O117  1  0.23771888  0.16431962  0.34399838  1
  O  O118  1  0.29627038  0.09747993  0.51211510  1
  O  O119  1  0.63556629  0.80178016  0.96590867  1
