# generated using pymatgen
data_Ho2B4O9
_symmetry_space_group_name_H-M   'P 1'
_cell_length_a   12.81295828
_cell_length_b   12.81295828
_cell_length_c   24.90814437
_cell_angle_alpha   80.16426645
_cell_angle_beta   80.16426645
_cell_angle_gamma   19.85587762
_symmetry_Int_Tables_number   1
_chemical_formula_structural   Ho2B4O9
_chemical_formula_sum   'Ho20 B40 O90'
_cell_volume   1367.87929480
_cell_formula_units_Z   10
loop_
 _symmetry_equiv_pos_site_id
 _symmetry_equiv_pos_as_xyz
  1  'x, y, z'
loop_
 _atom_site_type_symbol
 _atom_site_label
 _atom_site_symmetry_multiplicity
 _atom_site_fract_x
 _atom_site_fract_y
 _atom_site_fract_z
 _atom_site_occupancy
  Ho  Ho0  1  0.57928400  0.98951700  0.12884400  1
  Ho  Ho1  1  0.08299200  0.61091800  0.46174000  1
  Ho  Ho2  1  0.65853500  0.31847400  0.67869900  1
  Ho  Ho3  1  0.68152600  0.34146500  0.82130100  1
  Ho  Ho4  1  0.31847400  0.65853500  0.17869900  1
  Ho  Ho5  1  0.46382700  0.81760800  0.20727300  1
  Ho  Ho6  1  0.72861300  0.14100900  0.07307800  1
  Ho  Ho7  1  0.91700800  0.38908200  0.53826000  1
  Ho  Ho8  1  0.85899100  0.27138700  0.42692200  1
  Ho  Ho9  1  0.27138700  0.85899100  0.92692200  1
  Ho  Ho10  1  0.81760800  0.46382700  0.70727300  1
  Ho  Ho11  1  0.53617300  0.18239200  0.79272700  1
  Ho  Ho12  1  0.34146500  0.68152600  0.32130100  1
  Ho  Ho13  1  0.42071600  0.01048300  0.87115600  1
  Ho  Ho14  1  0.38908200  0.91700800  0.03826000  1
  Ho  Ho15  1  0.14100900  0.72861300  0.57307800  1
  Ho  Ho16  1  0.01048300  0.42071600  0.37115600  1
  Ho  Ho17  1  0.18239200  0.53617300  0.29272700  1
  Ho  Ho18  1  0.98951700  0.57928400  0.62884400  1
  Ho  Ho19  1  0.61091800  0.08299200  0.96174000  1
  B  B20  1  0.08797600  0.41422600  0.21821200  1
  B  B21  1  0.48023600  0.03557100  0.53874400  1
  B  B22  1  0.65239500  0.95674900  0.36650600  1
  B  B23  1  0.21653900  0.84055000  0.06587600  1
  B  B24  1  0.03821700  0.77879500  0.87672600  1
  B  B25  1  0.96178300  0.22120500  0.12327400  1
  B  B26  1  0.76826100  0.12688900  0.27549100  1
  B  B27  1  0.45107800  0.84104300  0.33701000  1
  B  B28  1  0.41891000  0.87444100  0.44114200  1
  B  B29  1  0.23173900  0.87311100  0.72450900  1
  B  B30  1  0.51976400  0.96442900  0.46125600  1
  B  B31  1  0.54892200  0.15895700  0.66299000  1
  B  B32  1  0.95674900  0.65239500  0.86650600  1
  B  B33  1  0.07485700  0.72615100  0.69257800  1
  B  B34  1  0.91202400  0.58577400  0.78178800  1
  B  B35  1  0.03557100  0.48023600  0.03874400  1
  B  B36  1  0.27384900  0.92514300  0.80742200  1
  B  B37  1  0.15895700  0.54892200  0.16299000  1
  B  B38  1  0.72615100  0.07485700  0.19257800  1
  B  B39  1  0.62989400  0.22668400  0.46978700  1
  B  B40  1  0.34760500  0.04325100  0.63349400  1
  B  B41  1  0.84104300  0.45107800  0.83701000  1
  B  B42  1  0.12688900  0.76826100  0.77549100  1
  B  B43  1  0.58577400  0.91202400  0.28178800  1
  B  B44  1  0.77331600  0.37010600  0.03021300  1
  B  B45  1  0.78346100  0.15945000  0.93412400  1
  B  B46  1  0.92514300  0.27384900  0.30742200  1
  B  B47  1  0.41422600  0.08797600  0.71821200  1
  B  B48  1  0.22120500  0.96178300  0.62327400  1
  B  B49  1  0.15945000  0.78346100  0.43412400  1
  B  B50  1  0.96442900  0.51976400  0.96125600  1
  B  B51  1  0.87311100  0.23173900  0.22450900  1
  B  B52  1  0.84055000  0.21653900  0.56587600  1
  B  B53  1  0.12555900  0.58109000  0.05885800  1
  B  B54  1  0.04325100  0.34760500  0.13349400  1
  B  B55  1  0.77879500  0.03821700  0.37672600  1
  B  B56  1  0.37010600  0.77331600  0.53021300  1
  B  B57  1  0.58109000  0.12555900  0.55885800  1
  B  B58  1  0.22668400  0.62989400  0.96978700  1
  B  B59  1  0.87444100  0.41891000  0.94114200  1
  O  O60  1  0.19505800  0.61034200  0.74734700  1
  O  O61  1  0.38965800  0.80494200  0.75265300  1
  O  O62  1  0.24689200  0.21169800  0.58117200  1
  O  O63  1  0.66564700  0.72906300  0.63472600  1
  O  O64  1  0.13941500  0.14544000  0.63540500  1
  O  O65  1  0.44123900  0.68244600  0.02057900  1
  O  O66  1  0.26817400  0.97098500  0.29805900  1
  O  O67  1  0.80540200  0.09131800  0.77418000  1
  O  O68  1  0.59359600  0.19009000  0.42791700  1
  O  O69  1  0.24396400  0.96721000  0.48398400  1
  O  O70  1  0.96721000  0.24396400  0.98398400  1
  O  O71  1  0.34147000  0.21432100  0.48566300  1
  O  O72  1  0.13016700  0.77730300  0.65998400  1
  O  O73  1  0.30810000  0.08980600  0.44438400  1
  O  O74  1  0.91522200  0.20626200  0.61124700  1
  O  O75  1  0.55909300  0.74448500  0.94430700  1
  O  O76  1  0.65853000  0.78567900  0.51433700  1
  O  O77  1  0.02901500  0.73182600  0.20194100  1
  O  O78  1  0.38235800  0.74838200  0.66862500  1
  O  O79  1  0.22008800  0.20559900  0.68601200  1
  O  O80  1  0.21432100  0.34147000  0.98566300  1
  O  O81  1  0.44090700  0.25551500  0.05569300  1
  O  O82  1  0.32689600  0.21838100  0.25482000  1
  O  O83  1  0.69190000  0.91019400  0.55561600  1
  O  O84  1  0.90868200  0.19459800  0.72582000  1
  O  O85  1  0.21838100  0.32689600  0.75482000  1
  O  O86  1  0.78161900  0.67310400  0.24518000  1
  O  O87  1  0.33968900  0.70599800  0.41318700  1
  O  O88  1  0.74838200  0.38235800  0.16862500  1
  O  O89  1  0.75310800  0.78830200  0.41882800  1
  O  O90  1  0.70599800  0.33968900  0.91318700  1
  O  O91  1  0.75603600  0.03279000  0.51601600  1
  O  O92  1  0.70727500  0.03403500  0.60928200  1
  O  O93  1  0.19459800  0.90868200  0.22582000  1
  O  O94  1  0.20559900  0.22008800  0.18601200  1
  O  O95  1  0.33435300  0.27093700  0.36527400  1
  O  O96  1  0.80991000  0.40640400  0.07208300  1
  O  O97  1  0.80494200  0.38965800  0.25265300  1
  O  O98  1  0.61764200  0.25161800  0.33137500  1
  O  O99  1  0.78830200  0.75310800  0.91882800  1
  O  O100  1  0.09752800  0.85624800  0.95588600  1
  O  O101  1  0.90247200  0.14375200  0.04411400  1
  O  O102  1  0.50298300  0.22316900  0.16385800  1
  O  O103  1  0.96596500  0.29272500  0.89071800  1
  O  O104  1  0.67576000  0.32424000  0.25000000  1
  O  O105  1  0.03403500  0.70727500  0.10928200  1
  O  O106  1  0.85456000  0.86058500  0.86459500  1
  O  O107  1  0.77991200  0.79440100  0.31398800  1
  O  O108  1  0.61034200  0.19505800  0.24734700  1
  O  O109  1  0.74448500  0.55909300  0.44430700  1
  O  O110  1  0.55876100  0.31755400  0.97942100  1
  O  O111  1  0.77683100  0.49701700  0.33614200  1
  O  O112  1  0.77730300  0.13016700  0.15998400  1
  O  O113  1  0.31755400  0.55876100  0.47942100  1
  O  O114  1  0.72906300  0.66564700  0.13472600  1
  O  O115  1  0.66031100  0.29400200  0.58681300  1
  O  O116  1  0.27093700  0.33435300  0.86527400  1
  O  O117  1  0.20626200  0.91522200  0.11124700  1
  O  O118  1  0.79440100  0.77991200  0.81398800  1
  O  O119  1  0.40640400  0.80991000  0.57208300  1
  O  O120  1  0.86983300  0.22269700  0.34001600  1
  O  O121  1  0.67310400  0.78161900  0.74518000  1
  O  O122  1  0.29272500  0.96596500  0.39071800  1
  O  O123  1  0.22316900  0.50298300  0.66385800  1
  O  O124  1  0.95122000  0.45884500  0.82784900  1
  O  O125  1  0.91019400  0.69190000  0.05561600  1
  O  O126  1  0.19009000  0.59359600  0.92791700  1
  O  O127  1  0.14544000  0.13941500  0.13540500  1
  O  O128  1  0.04878000  0.54115500  0.17215100  1
  O  O129  1  0.73182600  0.02901500  0.70194100  1
  O  O130  1  0.49701700  0.77683100  0.83614200  1
  O  O131  1  0.25161800  0.61764200  0.83137500  1
  O  O132  1  0.08477800  0.79373800  0.38875300  1
  O  O133  1  0.21169800  0.24689200  0.08117200  1
  O  O134  1  0.25551500  0.44090700  0.55569300  1
  O  O135  1  0.09131800  0.80540200  0.27418000  1
  O  O136  1  0.29400200  0.66031100  0.08681300  1
  O  O137  1  0.45884500  0.95122000  0.32784900  1
  O  O138  1  0.79373800  0.08477800  0.88875300  1
  O  O139  1  0.08980600  0.30810000  0.94438400  1
  O  O140  1  0.54115500  0.04878000  0.67215100  1
  O  O141  1  0.14375200  0.90247200  0.54411400  1
  O  O142  1  0.22269700  0.86983300  0.84001600  1
  O  O143  1  0.03279000  0.75603600  0.01601600  1
  O  O144  1  0.68244600  0.44123900  0.52057900  1
  O  O145  1  0.86058500  0.85456000  0.36459500  1
  O  O146  1  0.32424000  0.67576000  0.75000000  1
  O  O147  1  0.78567900  0.65853000  0.01433700  1
  O  O148  1  0.97098500  0.26817400  0.79805900  1
  O  O149  1  0.85624800  0.09752800  0.45588600  1
