# generated using pymatgen
data_V2Bi7O15
_symmetry_space_group_name_H-M   'P 1'
_cell_length_a   11.65392807
_cell_length_b   11.65392807
_cell_length_c   26.78238882
_cell_angle_alpha   96.50729408
_cell_angle_beta   96.29059146
_cell_angle_gamma   119.19229561
_symmetry_Int_Tables_number   1
_chemical_formula_structural   V2Bi7O15
_chemical_formula_sum   'V16 Bi56 O120'
_cell_volume   3097.46454206
_cell_formula_units_Z   8
loop_
 _symmetry_equiv_pos_site_id
 _symmetry_equiv_pos_as_xyz
  1  'x, y, z'
loop_
 _atom_site_type_symbol
 _atom_site_label
 _atom_site_symmetry_multiplicity
 _atom_site_fract_x
 _atom_site_fract_y
 _atom_site_fract_z
 _atom_site_occupancy
  V  V0  1  0.64446633  0.25238024  0.18789558  1
  V  V1  1  0.30883657  0.06004341  0.06010266  1
  V  V2  1  0.16429714  0.56657645  0.43593142  1
  V  V3  1  0.75669312  0.22599489  0.69425411  1
  V  V4  1  0.83570286  0.43342355  0.56406858  1
  V  V5  1  0.43551534  0.54342925  0.68789558  1
  V  V6  1  0.96825921  0.93756099  0.19425411  1
  V  V7  1  0.35553367  0.74761976  0.81210442  1
  V  V8  1  0.36935497  0.27163428  0.93593142  1
  V  V9  1  0.56448466  0.45657075  0.31210442  1
  V  V10  1  0.03174079  0.06243901  0.80574589  1
  V  V11  1  0.63064503  0.72836572  0.06406858  1
  V  V12  1  0.49994075  0.24873391  0.43989734  1
  V  V13  1  0.69116343  0.93995659  0.93989734  1
  V  V14  1  0.50005925  0.75126609  0.56010266  1
  V  V15  1  0.24330688  0.77400511  0.30574589  1
  Bi  Bi16  1  0.30004235  0.27026446  0.17906896  1
  Bi  Bi17  1  0.30225631  0.93011677  0.18706266  1
  Bi  Bi18  1  0.83346777  0.58265579  0.43919055  1
  Bi  Bi19  1  0.69995765  0.72973554  0.82093104  1
  Bi  Bi20  1  0.84350677  0.11402966  0.55933441  1
  Bi  Bi21  1  0.48810354  0.39749734  0.55644523  1
  Bi  Bi22  1  0.35653476  0.60572278  0.93919055  1
  Bi  Bi23  1  0.81569144  0.76870641  0.56218916  1
  Bi  Bi24  1  0.29348275  0.74649772  0.06218916  1
  Bi  Bi25  1  0.58109364  0.81133828  0.31647408  1
  Bi  Bi26  1  0.09730183  0.21037717  0.68597231  1
  Bi  Bi27  1  0.02440486  0.41132952  0.81402769  1
  Bi  Bi28  1  0.64346524  0.39427722  0.06080945  1
  Bi  Bi29  1  0.02955134  0.59967565  0.93951921  1
  Bi  Bi30  1  0.47032325  0.07204189  0.56292165  1
  Bi  Bi31  1  0.65894790  0.06834169  0.05644523  1
  Bi  Bi32  1  0.75710257  0.55310459  0.69012360  1
  Bi  Bi33  1  0.86401151  0.25969314  0.45303135  1
  Bi  Bi34  1  0.29983906  0.60899700  0.17783364  1
  Bi  Bi35  1  0.00513580  0.73538043  0.81647408  1
  Bi  Bi36  1  0.51189646  0.60250266  0.44355477  1
  Bi  Bi37  1  0.69774369  0.06988323  0.81293734  1
  Bi  Bi38  1  0.83984355  0.90996787  0.43951921  1
  Bi  Bi39  1  0.70651725  0.25350228  0.93781084  1
  Bi  Bi40  1  0.18430856  0.23129359  0.43781084  1
  Bi  Bi41  1  0.59119550  0.12097339  0.32093104  1
  Bi  Bi42  1  0.93116336  0.12200542  0.32216636  1
  Bi  Bi43  1  0.06883664  0.87799458  0.67783364  1
  Bi  Bi44  1  0.24289743  0.44689541  0.30987640  1
  Bi  Bi45  1  0.97044866  0.40032435  0.06048079  1
  Bi  Bi46  1  0.75694589  0.88480635  0.68706266  1
  Bi  Bi47  1  0.38026629  0.41121908  0.81575356  1
  Bi  Bi48  1  0.24305411  0.11519365  0.31293734  1
  Bi  Bi49  1  0.34105210  0.93165831  0.94355477  1
  Bi  Bi50  1  0.13598849  0.74030686  0.54696865  1
  Bi  Bi51  1  0.63701901  0.93302103  0.19012360  1
  Bi  Bi52  1  0.99486420  0.26461957  0.18352592  1
  Bi  Bi53  1  0.05469525  0.28417236  0.94066559  1
  Bi  Bi54  1  0.90453448  0.43548727  0.31575356  1
  Bi  Bi55  1  0.52967675  0.92795811  0.43707835  1
  Bi  Bi56  1  0.61973371  0.58878092  0.18424644  1
  Bi  Bi57  1  0.09546552  0.56451273  0.68424644  1
  Bi  Bi58  1  0.36298099  0.06697897  0.80987640  1
  Bi  Bi59  1  0.15649323  0.88597034  0.44066559  1
  Bi  Bi60  1  0.70016094  0.39100300  0.82216636  1
  Bi  Bi61  1  0.16015645  0.09003213  0.56048079  1
  Bi  Bi62  1  0.69333821  0.58901984  0.95303135  1
  Bi  Bi63  1  0.99087976  0.09259840  0.06292165  1
  Bi  Bi64  1  0.16653223  0.41734421  0.56080945  1
  Bi  Bi65  1  0.40880450  0.87902661  0.67906896  1
  Bi  Bi66  1  0.97559514  0.58867048  0.18597231  1
  Bi  Bi67  1  0.41890636  0.18866172  0.68352592  1
  Bi  Bi68  1  0.90269817  0.78962283  0.31402769  1
  Bi  Bi69  1  0.30666179  0.41098016  0.04696865  1
  Bi  Bi70  1  0.00912024  0.90740160  0.93707835  1
  Bi  Bi71  1  0.94530475  0.71582764  0.05933441  1
  O  O72  1  0.78854176  0.88716077  0.34284572  1
  O  O73  1  0.22022023  0.47241701  0.98385517  1
  O  O74  1  0.80671487  0.24492368  0.33844228  1
  O  O75  1  0.66963451  0.20140340  0.63439253  1
  O  O76  1  0.40643797  0.63746309  0.82970863  1
  O  O77  1  0.62367122  0.59665758  0.09886635  1
  O  O78  1  0.29081600  0.19632710  0.08813984  1
  O  O79  1  0.96996423  0.65056203  0.70121423  1
  O  O80  1  0.00220877  0.47519513  0.59886635  1
  O  O81  1  0.04431505  0.44569604  0.15715428  1
  O  O82  1  0.35826701  0.01902144  0.72669259  1
  O  O83  1  0.09638680  0.77742313  0.31059138  1
  O  O84  1  0.87908702  0.18127028  0.09360620  1
  O  O85  1  0.23027474  0.73472774  0.47115557  1
  O  O86  1  0.12519648  0.46397308  0.89236813  1
  O  O87  1  0.79232885  0.63157442  0.77330741  1
  O  O88  1  0.27130572  0.92552875  0.09983239  1
  O  O89  1  0.30775446  0.57672933  0.67029137  1
  O  O90  1  0.44176382  0.57691044  0.53867469  1
  O  O91  1  0.90041564  0.95932687  0.53510219  1
  O  O92  1  0.80506798  0.34143780  0.22624163  1
  O  O93  1  0.17542394  0.95761191  0.00505097  1
  O  O94  1  0.60818725  0.20267615  0.41186016  1
  O  O95  1  0.34347451  0.90055955  0.27320717  1
  O  O96  1  0.87264762  0.92973266  0.77320717  1
  O  O97  1  0.40648140  0.46827260  0.16155772  1
  O  O98  1  0.55065220  0.73125000  0.20121423  1
  O  O99  1  0.52699967  0.37309369  0.98332086  1
  O  O100  1  0.21145824  0.11283923  0.65715428  1
  O  O101  1  0.07160495  0.23282835  0.60763187  1
  O  O102  1  0.15459858  0.07193946  0.77135239  1
  O  O103  1  0.82248263  0.74783466  0.66425166  1
  O  O104  1  0.47093842  0.47703223  0.63392689  1
  O  O105  1  0.44934780  0.26875000  0.79878577  1
  O  O106  1  0.67430363  0.82852666  0.59983239  1
  O  O107  1  0.45256094  0.17037296  0.49494903  1
  O  O108  1  0.46176425  0.09691087  0.03867469  1
  O  O109  1  0.75188124  0.04925579  0.46989313  1
  O  O110  1  0.76972526  0.26527226  0.52884443  1
  O  O111  1  0.01143816  0.76363494  0.48385517  1
  O  O112  1  0.93298913  0.96475802  0.13439253  1
  O  O113  1  0.47300033  0.62690631  0.01667914  1
  O  O114  1  0.74145471  0.70601300  0.46968511  1
  O  O115  1  0.12091298  0.81872972  0.90639380  1
  O  O116  1  0.92422468  0.36531344  0.96489781  1
  O  O117  1  0.38480384  0.42117365  0.72624163  1
  O  O118  1  0.27203702  0.52454015  0.40523170  1
  O  O119  1  0.70918400  0.80367290  0.91186016  1
  O  O120  1  0.12059136  0.24417261  0.13377978  1
  O  O121  1  0.55823618  0.42308956  0.46132531  1
  O  O122  1  0.52906158  0.52296777  0.36607311  1
  O  O123  1  0.03003577  0.34943797  0.29878577  1
  O  O124  1  0.19328513  0.75507632  0.66155772  1
  O  O125  1  0.73632789  0.27176960  0.03031489  1
  O  O126  1  0.80058707  0.38324620  0.72864761  1
  O  O127  1  0.32569637  0.17147334  0.40016761  1
  O  O128  1  0.69224554  0.42327067  0.32970863  1
  O  O129  1  0.96683175  0.78579542  0.18940862  1
  O  O130  1  0.61039283  0.98681157  0.36622022  1
  O  O131  1  0.17751737  0.25216534  0.33574834  1
  O  O132  1  0.53067494  0.13435265  0.21832642  1
  O  O133  1  0.25983456  0.56248878  0.09397990  1
  O  O134  1  0.83697365  0.28828571  0.83523456  1
  O  O135  1  0.82457606  0.04238809  0.99494903  1
  O  O136  1  0.92839505  0.76717165  0.39236813  1
  O  O137  1  0.23642783  0.24088083  0.97115557  1
  O  O138  1  0.88977283  0.54367882  0.51667914  1
  O  O139  1  0.03316825  0.21420458  0.81059138  1
  O  O140  1  0.12735238  0.07026734  0.22679283  1
  O  O141  1  0.59356203  0.36253691  0.17029137  1
  O  O142  1  0.74016544  0.43751122  0.90602010  1
  O  O143  1  0.38960717  0.01318843  0.63377978  1
  O  O144  1  0.65689466  0.16298846  0.13392689  1
  O  O145  1  0.65652549  0.09944045  0.72679283  1
  O  O146  1  0.24811876  0.95074421  0.53010687  1
  O  O147  1  0.11022717  0.45632118  0.48332086  1
  O  O148  1  0.64173299  0.98097856  0.27330741  1
  O  O149  1  0.58358299  0.15823096  0.83574834  1
  O  O150  1  0.87480352  0.53602692  0.10763187  1
  O  O151  1  0.07936266  0.28198811  0.03010687  1
  O  O152  1  0.37632878  0.40334242  0.90113365  1
  O  O153  1  0.46932506  0.86564735  0.78167358  1
  O  O154  1  0.59351860  0.53172740  0.83844228  1
  O  O155  1  0.61519616  0.57882635  0.27375837  1
  O  O156  1  0.77977977  0.52758299  0.01614483  1
  O  O157  1  0.54743906  0.82962704  0.50505097  1
  O  O158  1  0.58766409  0.78548082  0.40639380  1
  O  O159  1  0.76357217  0.75911917  0.02884443  1
  O  O160  1  0.72869428  0.07447125  0.90016761  1
  O  O161  1  0.26367211  0.72823040  0.96968511  1
  O  O162  1  0.41641701  0.84176904  0.16425166  1
  O  O163  1  0.92063734  0.71801189  0.96989313  1
  O  O164  1  0.38069155  0.13319467  0.90523170  1
  O  O165  1  0.04694885  0.99826091  0.33523456  1
  O  O166  1  0.25854529  0.29398700  0.53031489  1
  O  O167  1  0.84540142  0.92806054  0.22864761  1
  O  O168  1  0.16302635  0.71171429  0.16476544  1
  O  O169  1  0.58397377  0.68765148  0.71832642  1
  O  O170  1  0.96850888  0.16585466  0.40602010  1
  O  O171  1  0.95305115  0.00173909  0.66476544  1
  O  O172  1  0.61930845  0.86680533  0.09476830  1
  O  O173  1  0.72796298  0.47545985  0.59476830  1
  O  O174  1  0.41233591  0.21451918  0.59360620  1
  O  O175  1  0.39181275  0.79732385  0.58813984  1
  O  O176  1  0.95568495  0.55430396  0.84284572  1
  O  O177  1  0.03149112  0.83414534  0.59397990  1
  O  O178  1  0.41602623  0.31234852  0.28167358  1
  O  O179  1  0.98856184  0.23636506  0.51614483  1
  O  O180  1  0.19941293  0.61675380  0.27135239  1
  O  O181  1  0.20767115  0.36842558  0.22669259  1
  O  O182  1  0.06701087  0.03524198  0.86560747  1
  O  O183  1  0.87940864  0.75582739  0.86622022  1
  O  O184  1  0.53823575  0.90308913  0.96132531  1
  O  O185  1  0.33036549  0.79859660  0.36560747  1
  O  O186  1  0.99779123  0.52480487  0.40113365  1
  O  O187  1  0.90361320  0.22257687  0.68940862  1
  O  O188  1  0.19493202  0.65856220  0.77375837  1
  O  O189  1  0.34310534  0.83701154  0.86607311  1
  O  O190  1  0.07577532  0.63468656  0.03510219  1
  O  O191  1  0.09958436  0.04067313  0.46489781  1
