# generated using pymatgen
data_ZnAu2(CN)4
_symmetry_space_group_name_H-M   'P 1'
_cell_length_a   8.51607140
_cell_length_b   8.51607140
_cell_length_c   20.90041100
_cell_angle_alpha   90.00000000
_cell_angle_beta   90.00000000
_cell_angle_gamma   119.99999534
_symmetry_Int_Tables_number   1
_chemical_formula_structural   ZnAu2(CN)4
_chemical_formula_sum   'Zn6 Au12 C24 N24'
_cell_volume   1312.69571176
_cell_formula_units_Z   6
loop_
 _symmetry_equiv_pos_site_id
 _symmetry_equiv_pos_as_xyz
  1  'x, y, z'
loop_
 _atom_site_type_symbol
 _atom_site_label
 _atom_site_symmetry_multiplicity
 _atom_site_fract_x
 _atom_site_fract_y
 _atom_site_fract_z
 _atom_site_occupancy
  Zn  Zn0  1  0.50000000  0.50000000  0.70860700  1
  Zn  Zn1  1  0.50000000  0.50000000  0.95806000  1
  Zn  Zn2  1  0.50000000  0.00000000  0.62472600  1
  Zn  Zn3  1  0.50000000  0.00000000  0.37527400  1
  Zn  Zn4  1  0.00000000  0.50000000  0.04194000  1
  Zn  Zn5  1  0.00000000  0.50000000  0.29139300  1
  Au  Au6  1  0.00581800  0.31934500  0.53922200  1
  Au  Au7  1  0.68647300  0.68065500  0.46077800  1
  Au  Au8  1  0.99418200  0.31352700  0.79411200  1
  Au  Au9  1  0.68065500  0.99418200  0.12744500  1
  Au  Au10  1  0.99418200  0.68065500  0.53922200  1
  Au  Au11  1  0.31352700  0.31934500  0.46077800  1
  Au  Au12  1  0.68065500  0.68647300  0.20588800  1
  Au  Au13  1  0.31934500  0.00581800  0.12744500  1
  Au  Au14  1  0.31934500  0.31352700  0.20588800  1
  Au  Au15  1  0.00581800  0.68647300  0.79411200  1
  Au  Au16  1  0.31352700  0.99418200  0.87255500  1
  Au  Au17  1  0.68647300  0.00581800  0.87255500  1
  C  C18  1  0.39351800  0.20950100  0.27735200  1
  C  C19  1  0.20950100  0.81598300  0.94401900  1
  C  C20  1  0.79049900  0.18401700  0.94401900  1
  C  C21  1  0.77674500  0.59720100  0.13671800  1
  C  C22  1  0.82045600  0.59720100  0.86328200  1
  C  C23  1  0.20950100  0.39351800  0.38931500  1
  C  C24  1  0.39351800  0.18401700  0.05598100  1
  C  C25  1  0.40279900  0.17954400  0.80338400  1
  C  C26  1  0.59720100  0.77674500  0.52994900  1
  C  C27  1  0.18401700  0.39351800  0.61068500  1
  C  C28  1  0.40279900  0.22325500  0.52994900  1
  C  C29  1  0.18401700  0.79049900  0.72264800  1
  C  C30  1  0.60648200  0.81598300  0.05598100  1
  C  C31  1  0.81598300  0.20950100  0.72264800  1
  C  C32  1  0.17954400  0.40279900  0.86328200  1
  C  C33  1  0.22325500  0.40279900  0.13671800  1
  C  C34  1  0.81598300  0.60648200  0.61068500  1
  C  C35  1  0.82045600  0.22325500  0.47005100  1
  C  C36  1  0.77674500  0.17954400  0.19661600  1
  C  C37  1  0.22325500  0.82045600  0.19661600  1
  C  C38  1  0.17954400  0.77674500  0.47005100  1
  C  C39  1  0.59720100  0.82045600  0.80338400  1
  C  C40  1  0.60648200  0.79049900  0.27735200  1
  C  C41  1  0.79049900  0.60648200  0.38931500  1
  N  N42  1  0.55301200  0.71077100  0.76338300  1
  N  N43  1  0.71077100  0.55301200  0.90328400  1
  N  N44  1  0.43414700  0.29132300  0.01537700  1
  N  N45  1  0.29132300  0.43414700  0.65129000  1
  N  N46  1  0.44698800  0.28922900  0.76338300  1
  N  N47  1  0.56585300  0.70867700  0.01537700  1
  N  N48  1  0.15775900  0.44698800  0.09671600  1
  N  N49  1  0.28922900  0.44698800  0.90328400  1
  N  N50  1  0.29132300  0.85717700  0.68204400  1
  N  N51  1  0.43414700  0.14282300  0.31795600  1
  N  N52  1  0.14282300  0.43414700  0.34871000  1
  N  N53  1  0.71077100  0.15775900  0.43004900  1
  N  N54  1  0.15775900  0.71077100  0.23661700  1
  N  N55  1  0.28922900  0.84224100  0.43004900  1
  N  N56  1  0.70867700  0.56585300  0.65129000  1
  N  N57  1  0.84224100  0.55301200  0.09671600  1
  N  N58  1  0.84224100  0.28922900  0.23661700  1
  N  N59  1  0.55301200  0.84224100  0.56995100  1
  N  N60  1  0.44698800  0.15775900  0.56995100  1
  N  N61  1  0.70867700  0.14282300  0.68204400  1
  N  N62  1  0.85717700  0.56585300  0.34871000  1
  N  N63  1  0.85717700  0.29132300  0.98462300  1
  N  N64  1  0.56585300  0.85717700  0.31795600  1
  N  N65  1  0.14282300  0.70867700  0.98462300  1
