# generated using pymatgen
data_Rb2Cr3O10
_symmetry_space_group_name_H-M   'P 1'
_cell_length_a   9.48481700
_cell_length_b   11.67183800
_cell_length_c   19.25821900
_cell_angle_alpha   90.00000000
_cell_angle_beta   90.00000000
_cell_angle_gamma   90.00000000
_symmetry_Int_Tables_number   1
_chemical_formula_structural   Rb2Cr3O10
_chemical_formula_sum   'Rb16 Cr24 O80'
_cell_volume   2131.98590049
_cell_formula_units_Z   8
loop_
 _symmetry_equiv_pos_site_id
 _symmetry_equiv_pos_as_xyz
  1  'x, y, z'
loop_
 _atom_site_type_symbol
 _atom_site_label
 _atom_site_symmetry_multiplicity
 _atom_site_fract_x
 _atom_site_fract_y
 _atom_site_fract_z
 _atom_site_occupancy
  Rb  Rb0  1  0.78133700  0.22453000  0.68238300  1
  Rb  Rb1  1  0.71866300  0.72453000  0.31761700  1
  Rb  Rb2  1  0.21866300  0.77547000  0.31761700  1
  Rb  Rb3  1  0.84770900  0.04781600  0.41610500  1
  Rb  Rb4  1  0.28133700  0.27547000  0.68238300  1
  Rb  Rb5  1  0.15229100  0.95218400  0.58389500  1
  Rb  Rb6  1  0.71866300  0.22453000  0.18238300  1
  Rb  Rb7  1  0.34770900  0.95218400  0.08389500  1
  Rb  Rb8  1  0.78133700  0.72453000  0.81761700  1
  Rb  Rb9  1  0.15229100  0.45218400  0.91610500  1
  Rb  Rb10  1  0.65229100  0.04781600  0.91610500  1
  Rb  Rb11  1  0.65229100  0.54781600  0.58389500  1
  Rb  Rb12  1  0.34770900  0.45218400  0.41610500  1
  Rb  Rb13  1  0.84770900  0.54781600  0.08389500  1
  Rb  Rb14  1  0.28133700  0.77547000  0.81761700  1
  Rb  Rb15  1  0.21866300  0.27547000  0.18238300  1
  Cr  Cr16  1  0.29188200  0.12815900  0.38780200  1
  Cr  Cr17  1  0.51158200  0.49601400  0.76710600  1
  Cr  Cr18  1  0.20811800  0.62815900  0.61219800  1
  Cr  Cr19  1  0.98841800  0.99601400  0.23289400  1
  Cr  Cr20  1  0.20811800  0.12815900  0.88780200  1
  Cr  Cr21  1  0.48841800  0.00398600  0.26710600  1
  Cr  Cr22  1  0.70811800  0.37184100  0.88780200  1
  Cr  Cr23  1  0.29188200  0.62815900  0.11219800  1
  Cr  Cr24  1  0.48841800  0.50398600  0.23289400  1
  Cr  Cr25  1  0.70811800  0.87184100  0.61219800  1
  Cr  Cr26  1  0.51158200  0.99601400  0.73289400  1
  Cr  Cr27  1  0.00986000  0.69398000  0.47385600  1
  Cr  Cr28  1  0.98841800  0.49601400  0.26710600  1
  Cr  Cr29  1  0.50986000  0.30602000  0.02614400  1
  Cr  Cr30  1  0.79188200  0.87184100  0.11219800  1
  Cr  Cr31  1  0.49014000  0.19398000  0.52614400  1
  Cr  Cr32  1  0.01158200  0.00398600  0.76710600  1
  Cr  Cr33  1  0.50986000  0.80602000  0.47385600  1
  Cr  Cr34  1  0.79188200  0.37184100  0.38780200  1
  Cr  Cr35  1  0.00986000  0.19398000  0.02614400  1
  Cr  Cr36  1  0.49014000  0.69398000  0.97385600  1
  Cr  Cr37  1  0.99014000  0.80602000  0.97385600  1
  Cr  Cr38  1  0.99014000  0.30602000  0.52614400  1
  Cr  Cr39  1  0.01158200  0.50398600  0.73289400  1
  O  O40  1  0.34969500  0.35565700  0.02374800  1
  O  O41  1  0.50880300  0.67600000  0.44297600  1
  O  O42  1  0.49119700  0.82400000  0.94297600  1
  O  O43  1  0.72891300  0.27602800  0.33652600  1
  O  O44  1  0.66763400  0.42389000  0.43526300  1
  O  O45  1  0.66763400  0.92389000  0.06473700  1
  O  O46  1  0.44574200  0.59346900  0.29462300  1
  O  O47  1  0.33236600  0.57611000  0.56473700  1
  O  O48  1  0.41925500  0.19671100  0.43774200  1
  O  O49  1  0.91925500  0.80328900  0.06225800  1
  O  O50  1  0.55425800  0.40653100  0.70537700  1
  O  O51  1  0.97550200  0.12796600  0.25966000  1
  O  O52  1  0.34969500  0.85565700  0.47625200  1
  O  O53  1  0.08074500  0.19671100  0.93774200  1
  O  O54  1  0.10994900  0.11301400  0.07417200  1
  O  O55  1  0.64895600  0.53004200  0.20794800  1
  O  O56  1  0.05425800  0.09346900  0.70537700  1
  O  O57  1  0.05425800  0.59346900  0.79462300  1
  O  O58  1  0.13572100  0.51683900  0.66067100  1
  O  O59  1  0.63572100  0.48316100  0.83932900  1
  O  O60  1  0.16763400  0.07611000  0.43526300  1
  O  O61  1  0.58074500  0.30328900  0.93774200  1
  O  O62  1  0.85104400  0.03004200  0.79205200  1
  O  O63  1  0.60994900  0.38698600  0.07417200  1
  O  O64  1  0.99119700  0.17600000  0.55702400  1
  O  O65  1  0.39005100  0.61301400  0.92582800  1
  O  O66  1  0.13572100  0.01683900  0.83932900  1
  O  O67  1  0.41925500  0.69671100  0.06225800  1
  O  O68  1  0.36427900  0.01683900  0.33932900  1
  O  O69  1  0.22891300  0.72397200  0.16347400  1
  O  O70  1  0.77108700  0.27602800  0.83652600  1
  O  O71  1  0.65030500  0.64434300  0.97625200  1
  O  O72  1  0.15030500  0.85565700  0.97625200  1
  O  O73  1  0.86427900  0.98316100  0.16067100  1
  O  O74  1  0.52449800  0.62796600  0.74034000  1
  O  O75  1  0.94574200  0.40653100  0.20537700  1
  O  O76  1  0.00880300  0.32400000  0.05702400  1
  O  O77  1  0.85104400  0.53004200  0.70794800  1
  O  O78  1  0.63572100  0.98316100  0.66067100  1
  O  O79  1  0.14895600  0.46995800  0.29205200  1
  O  O80  1  0.97550200  0.62796600  0.24034000  1
  O  O81  1  0.94574200  0.90653100  0.29462300  1
  O  O82  1  0.02449800  0.37203400  0.75966000  1
  O  O83  1  0.89005100  0.38698600  0.57417200  1
  O  O84  1  0.00880300  0.82400000  0.44297600  1
  O  O85  1  0.65030500  0.14434300  0.52374800  1
  O  O86  1  0.27108700  0.22397200  0.83652600  1
  O  O87  1  0.99119700  0.67600000  0.94297600  1
  O  O88  1  0.33236600  0.07611000  0.93526300  1
  O  O89  1  0.91925500  0.30328900  0.43774200  1
  O  O90  1  0.77108700  0.77602800  0.66347400  1
  O  O91  1  0.10994900  0.61301400  0.42582800  1
  O  O92  1  0.35104400  0.96995800  0.70794800  1
  O  O93  1  0.47550200  0.37203400  0.25966000  1
  O  O94  1  0.64895600  0.03004200  0.29205200  1
  O  O95  1  0.16763400  0.57611000  0.06473700  1
  O  O96  1  0.22891300  0.22397200  0.33652600  1
  O  O97  1  0.72891300  0.77602800  0.16347400  1
  O  O98  1  0.02449800  0.87203400  0.74034000  1
  O  O99  1  0.50880300  0.17600000  0.05702400  1
  O  O100  1  0.83236600  0.92389000  0.56473700  1
  O  O101  1  0.36427900  0.51683900  0.16067100  1
  O  O102  1  0.08074500  0.69671100  0.56225800  1
  O  O103  1  0.52449800  0.12796600  0.75966000  1
  O  O104  1  0.39005100  0.11301400  0.57417200  1
  O  O105  1  0.27108700  0.72397200  0.66347400  1
  O  O106  1  0.84969500  0.64434300  0.47625200  1
  O  O107  1  0.15030500  0.35565700  0.52374800  1
  O  O108  1  0.14895600  0.96995800  0.20794800  1
  O  O109  1  0.86427900  0.48316100  0.33932900  1
  O  O110  1  0.35104400  0.46995800  0.79205200  1
  O  O111  1  0.83236600  0.42389000  0.93526300  1
  O  O112  1  0.55425800  0.90653100  0.79462300  1
  O  O113  1  0.58074500  0.80328900  0.56225800  1
  O  O114  1  0.44574200  0.09346900  0.20537700  1
  O  O115  1  0.84969500  0.14434300  0.02374800  1
  O  O116  1  0.49119700  0.32400000  0.55702400  1
  O  O117  1  0.60994900  0.88698600  0.42582800  1
  O  O118  1  0.47550200  0.87203400  0.24034000  1
  O  O119  1  0.89005100  0.88698600  0.92582800  1
