# generated using pymatgen
data_CSe(ClF)3
_symmetry_space_group_name_H-M   'P 1'
_cell_length_a   7.73986500
_cell_length_b   19.53011900
_cell_length_c   19.69018900
_cell_angle_alpha   90.00000000
_cell_angle_beta   90.00000000
_cell_angle_gamma   90.00000000
_symmetry_Int_Tables_number   1
_chemical_formula_structural   CSe(ClF)3
_chemical_formula_sum   'C16 Se16 Cl48 F48'
_cell_volume   2976.37850902
_cell_formula_units_Z   16
loop_
 _symmetry_equiv_pos_site_id
 _symmetry_equiv_pos_as_xyz
  1  'x, y, z'
loop_
 _atom_site_type_symbol
 _atom_site_label
 _atom_site_symmetry_multiplicity
 _atom_site_fract_x
 _atom_site_fract_y
 _atom_site_fract_z
 _atom_site_occupancy
  C  C0  1  0.82123300  0.92306700  0.40331600  1
  C  C1  1  0.32123300  0.57693300  0.59668400  1
  C  C2  1  0.59534800  0.69738700  0.41054400  1
  C  C3  1  0.32123300  0.92306700  0.09668400  1
  C  C4  1  0.67876700  0.42306700  0.40331600  1
  C  C5  1  0.17876700  0.42306700  0.09668400  1
  C  C6  1  0.67876700  0.07693300  0.90331600  1
  C  C7  1  0.09534800  0.69738700  0.08945600  1
  C  C8  1  0.82123300  0.57693300  0.90331600  1
  C  C9  1  0.90465200  0.19738700  0.41054400  1
  C  C10  1  0.90465200  0.30261300  0.91054400  1
  C  C11  1  0.40465200  0.30261300  0.58945600  1
  C  C12  1  0.40465200  0.19738700  0.08945600  1
  C  C13  1  0.09534800  0.80261300  0.58945600  1
  C  C14  1  0.59534800  0.80261300  0.91054400  1
  C  C15  1  0.17876700  0.07693300  0.59668400  1
  Se  Se16  1  0.90784900  0.43360300  0.34180500  1
  Se  Se17  1  0.40784900  0.06639700  0.65819500  1
  Se  Se18  1  0.91025800  0.74273100  0.15737100  1
  Se  Se19  1  0.08974200  0.24273100  0.34262900  1
  Se  Se20  1  0.08974200  0.25726900  0.84262900  1
  Se  Se21  1  0.58974200  0.25726900  0.65737100  1
  Se  Se22  1  0.09215100  0.56639700  0.65819500  1
  Se  Se23  1  0.91025800  0.75726900  0.65737100  1
  Se  Se24  1  0.41025800  0.74273100  0.34262900  1
  Se  Se25  1  0.40784900  0.43360300  0.15819500  1
  Se  Se26  1  0.59215100  0.56639700  0.84180500  1
  Se  Se27  1  0.90784900  0.06639700  0.84180500  1
  Se  Se28  1  0.58974200  0.24273100  0.15737100  1
  Se  Se29  1  0.09215100  0.93360300  0.15819500  1
  Se  Se30  1  0.59215100  0.93360300  0.34180500  1
  Se  Se31  1  0.41025800  0.75726900  0.84262900  1
  Cl  Cl32  1  0.94335700  0.65922100  0.23301800  1
  Cl  Cl33  1  0.51556300  0.47270400  0.90065500  1
  Cl  Cl34  1  0.51556300  0.02729600  0.40065500  1
  Cl  Cl35  1  0.75302600  0.48992400  0.26067500  1
  Cl  Cl36  1  0.75302600  0.01007600  0.76067500  1
  Cl  Cl37  1  0.44335700  0.65922100  0.26698200  1
  Cl  Cl38  1  0.24697400  0.98992400  0.23932500  1
  Cl  Cl39  1  0.48443700  0.52729600  0.09934500  1
  Cl  Cl40  1  0.24697400  0.51007600  0.73932500  1
  Cl  Cl41  1  0.01556300  0.02729600  0.09934500  1
  Cl  Cl42  1  0.85544400  0.31648000  0.27784400  1
  Cl  Cl43  1  0.01556300  0.47270400  0.59934500  1
  Cl  Cl44  1  0.05664300  0.34077900  0.76698200  1
  Cl  Cl45  1  0.98443700  0.52729600  0.40065500  1
  Cl  Cl46  1  0.30466500  0.19286200  0.40130700  1
  Cl  Cl47  1  0.25302600  0.01007600  0.73932500  1
  Cl  Cl48  1  0.19533500  0.69286200  0.40130700  1
  Cl  Cl49  1  0.08402200  0.35573300  0.42212100  1
  Cl  Cl50  1  0.94335700  0.84077900  0.73301800  1
  Cl  Cl51  1  0.35544400  0.18352000  0.72215600  1
  Cl  Cl52  1  0.41597800  0.64426700  0.92212100  1
  Cl  Cl53  1  0.69533500  0.80713800  0.59869300  1
  Cl  Cl54  1  0.74697400  0.98992400  0.26067500  1
  Cl  Cl55  1  0.44335700  0.84077900  0.76698200  1
  Cl  Cl56  1  0.80466500  0.30713800  0.59869300  1
  Cl  Cl57  1  0.14455600  0.81648000  0.22215600  1
  Cl  Cl58  1  0.48443700  0.97270400  0.59934500  1
  Cl  Cl59  1  0.14455600  0.68352000  0.72215600  1
  Cl  Cl60  1  0.80466500  0.19286200  0.09869300  1
  Cl  Cl61  1  0.19533500  0.80713800  0.90130700  1
  Cl  Cl62  1  0.30466500  0.30713800  0.90130700  1
  Cl  Cl63  1  0.05664300  0.15922100  0.26698200  1
  Cl  Cl64  1  0.25302600  0.48992400  0.23932500  1
  Cl  Cl65  1  0.41597800  0.85573300  0.42212100  1
  Cl  Cl66  1  0.91597800  0.64426700  0.57787900  1
  Cl  Cl67  1  0.64455600  0.68352000  0.77784400  1
  Cl  Cl68  1  0.35544400  0.31648000  0.22215600  1
  Cl  Cl69  1  0.98443700  0.97270400  0.90065500  1
  Cl  Cl70  1  0.55664300  0.15922100  0.23301800  1
  Cl  Cl71  1  0.08402200  0.14426700  0.92212100  1
  Cl  Cl72  1  0.64455600  0.81648000  0.27784400  1
  Cl  Cl73  1  0.58402200  0.35573300  0.07787900  1
  Cl  Cl74  1  0.91597800  0.85573300  0.07787900  1
  Cl  Cl75  1  0.74697400  0.51007600  0.76067500  1
  Cl  Cl76  1  0.58402200  0.14426700  0.57787900  1
  Cl  Cl77  1  0.69533500  0.69286200  0.09869300  1
  Cl  Cl78  1  0.55664300  0.34077900  0.73301800  1
  Cl  Cl79  1  0.85544400  0.18352000  0.77784400  1
  F  F80  1  0.77482900  0.59081700  0.96726400  1
  F  F81  1  0.74581000  0.21690900  0.39269600  1
  F  F82  1  0.22517100  0.09081700  0.53273600  1
  F  F83  1  0.74581000  0.28309100  0.89269600  1
  F  F84  1  0.41878400  0.87273000  0.12175300  1
  F  F85  1  0.58121600  0.12727000  0.87824700  1
  F  F86  1  0.41817700  0.12919000  0.09330300  1
  F  F87  1  0.59120400  0.01793100  0.90174300  1
  F  F88  1  0.90879600  0.51793100  0.90174300  1
  F  F89  1  0.77482900  0.90918300  0.46726400  1
  F  F90  1  0.58121600  0.37273000  0.37824700  1
  F  F91  1  0.41817700  0.37081000  0.59330300  1
  F  F92  1  0.44019700  0.21765500  0.02614800  1
  F  F93  1  0.08121600  0.12727000  0.62175300  1
  F  F94  1  0.05980300  0.78234500  0.52614800  1
  F  F95  1  0.91817700  0.37081000  0.90669700  1
  F  F96  1  0.55980300  0.78234500  0.97385200  1
  F  F97  1  0.44019700  0.28234500  0.52614800  1
  F  F98  1  0.24581000  0.21690900  0.10730400  1
  F  F99  1  0.75419000  0.71690900  0.39269600  1
  F  F100  1  0.55980300  0.71765500  0.47385200  1
  F  F101  1  0.91878400  0.87273000  0.37824700  1
  F  F102  1  0.72517100  0.40918300  0.46726400  1
  F  F103  1  0.25419000  0.71690900  0.10730400  1
  F  F104  1  0.75419000  0.78309100  0.89269600  1
  F  F105  1  0.40879600  0.98206900  0.09825700  1
  F  F106  1  0.94019700  0.28234500  0.97385200  1
  F  F107  1  0.91817700  0.12919000  0.40669700  1
  F  F108  1  0.40879600  0.51793100  0.59825700  1
  F  F109  1  0.08182300  0.87081000  0.59330300  1
  F  F110  1  0.09120400  0.01793100  0.59825700  1
  F  F111  1  0.90879600  0.98206900  0.40174300  1
  F  F112  1  0.27482900  0.59081700  0.53273600  1
  F  F113  1  0.09120400  0.48206900  0.09825700  1
  F  F114  1  0.27482900  0.90918300  0.03273600  1
  F  F115  1  0.25419000  0.78309100  0.60730400  1
  F  F116  1  0.94019700  0.21765500  0.47385200  1
  F  F117  1  0.24581000  0.28309100  0.60730400  1
  F  F118  1  0.58182300  0.62919000  0.40669700  1
  F  F119  1  0.41878400  0.62727000  0.62175300  1
  F  F120  1  0.08182300  0.62919000  0.09330300  1
  F  F121  1  0.22517100  0.40918300  0.03273600  1
  F  F122  1  0.05980300  0.71765500  0.02614800  1
  F  F123  1  0.58182300  0.87081000  0.90669700  1
  F  F124  1  0.08121600  0.37273000  0.12175300  1
  F  F125  1  0.91878400  0.62727000  0.87824700  1
  F  F126  1  0.59120400  0.48206900  0.40174300  1
  F  F127  1  0.72517100  0.09081700  0.96726400  1
