# generated using pymatgen
data_As5Pb3S10
_symmetry_space_group_name_H-M   'P 1'
_cell_length_a   7.70532000
_cell_length_b   9.09606000
_cell_length_c   27.16584897
_cell_angle_alpha   87.50101057
_cell_angle_beta   90.00000000
_cell_angle_gamma   90.00000000
_symmetry_Int_Tables_number   1
_chemical_formula_structural   As5Pb3S10
_chemical_formula_sum   'As20 Pb12 S40'
_cell_volume   1902.19074072
_cell_formula_units_Z   4
loop_
 _symmetry_equiv_pos_site_id
 _symmetry_equiv_pos_as_xyz
  1  'x, y, z'
loop_
 _atom_site_type_symbol
 _atom_site_label
 _atom_site_symmetry_multiplicity
 _atom_site_fract_x
 _atom_site_fract_y
 _atom_site_fract_z
 _atom_site_occupancy
  As  As0  1  0.65074300  0.26472600  0.59221900  1
  As  As1  1  0.50032700  0.00659800  0.32072500  1
  As  As2  1  0.19089800  0.50008700  0.81182300  1
  As  As3  1  0.71322100  0.08211800  0.18318500  1
  As  As4  1  0.84262200  0.94703400  0.90575300  1
  As  As5  1  0.00550900  0.24154400  0.17727600  1
  As  As6  1  0.00032700  0.99340200  0.67927500  1
  As  As7  1  0.50550900  0.75845600  0.82272400  1
  As  As8  1  0.84296900  0.47586000  0.90505100  1
  As  As9  1  0.15074300  0.73527400  0.40778100  1
  As  As10  1  0.66206700  0.81505200  0.59806000  1
  As  As11  1  0.29913800  0.29719400  0.69042600  1
  As  As12  1  0.21322100  0.91788200  0.81681500  1
  As  As13  1  0.78232400  0.18274400  0.31764400  1
  As  As14  1  0.16206700  0.18494800  0.40194000  1
  As  As15  1  0.34262200  0.05296600  0.09424700  1
  As  As16  1  0.34296900  0.52414000  0.09494900  1
  As  As17  1  0.79913800  0.70280600  0.30957400  1
  As  As18  1  0.28232400  0.81725600  0.68235600  1
  As  As19  1  0.69089800  0.49991300  0.18817700  1
  Pb  Pb20  1  0.55156600  0.24732300  0.82664200  1
  Pb  Pb21  1  0.94215800  0.49469500  0.67059100  1
  Pb  Pb22  1  0.75300900  0.99531700  0.46267400  1
  Pb  Pb23  1  0.05156600  0.75267700  0.17335800  1
  Pb  Pb24  1  0.27963800  0.52582700  0.54003400  1
  Pb  Pb25  1  0.44215800  0.50530500  0.32940900  1
  Pb  Pb26  1  0.73770900  0.25662800  0.03778900  1
  Pb  Pb27  1  0.23090000  0.23355900  0.96239500  1
  Pb  Pb28  1  0.23770900  0.74337200  0.96221100  1
  Pb  Pb29  1  0.77963800  0.47417300  0.45996600  1
  Pb  Pb30  1  0.25300900  0.00468300  0.53732600  1
  Pb  Pb31  1  0.73090000  0.76644100  0.03760500  1
  S  S32  1  0.61789900  0.27528600  0.37843700  1
  S  S33  1  0.67240100  0.76441300  0.93756900  1
  S  S34  1  0.53412100  0.22370800  0.13255700  1
  S  S35  1  0.95832500  0.56457500  0.36143900  1
  S  S36  1  0.42152200  0.83998800  0.26151500  1
  S  S37  1  0.32161500  0.99493200  0.43517400  1
  S  S38  1  0.03419600  0.33528200  0.85520200  1
  S  S39  1  0.03412100  0.77629200  0.86744300  1
  S  S40  1  0.92152200  0.16001200  0.73848500  1
  S  S41  1  0.53419600  0.66471800  0.14479800  1
  S  S42  1  0.49368000  0.26177000  0.52135900  1
  S  S43  1  0.86813300  0.97514400  0.12393000  1
  S  S44  1  0.00667400  0.22976500  0.47292800  1
  S  S45  1  0.76582100  0.04013000  0.78712000  1
  S  S46  1  0.82161500  0.00506800  0.56482600  1
  S  S47  1  0.26582100  0.95987000  0.21288000  1
  S  S48  1  0.11998300  0.18586500  0.63443400  1
  S  S49  1  0.17893000  0.72586700  0.07487800  1
  S  S50  1  0.45832500  0.43542500  0.63856100  1
  S  S51  1  0.50165900  0.51496500  0.02401400  1
  S  S52  1  0.17240100  0.23558700  0.06243100  1
  S  S53  1  0.08875700  0.41243700  0.23504900  1
  S  S54  1  0.36813300  0.02485600  0.87607000  1
  S  S55  1  0.96352900  0.03000000  0.36301100  1
  S  S56  1  0.99721900  0.98550000  0.97700000  1
  S  S57  1  0.74903700  0.70556700  0.71763400  1
  S  S58  1  0.50667400  0.77023500  0.52707200  1
  S  S59  1  0.24903700  0.29443300  0.28236600  1
  S  S60  1  0.46352900  0.97000000  0.63698900  1
  S  S61  1  0.32957200  0.54546500  0.42991200  1
  S  S62  1  0.58875700  0.58756300  0.76495100  1
  S  S63  1  0.49721900  0.01450000  0.02300000  1
  S  S64  1  0.11789900  0.72471400  0.62156300  1
  S  S65  1  0.99368000  0.73823000  0.47864100  1
  S  S66  1  0.00165900  0.48503500  0.97598600  1
  S  S67  1  0.61998300  0.81413500  0.36556600  1
  S  S68  1  0.89212900  0.43326700  0.13023800  1
  S  S69  1  0.67893000  0.27413300  0.92512200  1
  S  S70  1  0.39212900  0.56673300  0.86976200  1
  S  S71  1  0.82957200  0.45453500  0.57008800  1
