# generated using pymatgen
data_YbMoClO4
_symmetry_space_group_name_H-M   'P 1'
_cell_length_a   6.45102528
_cell_length_b   6.45102528
_cell_length_c   6.78995893
_cell_angle_alpha   77.50018078
_cell_angle_beta   77.50018078
_cell_angle_gamma   69.33788125
_symmetry_Int_Tables_number   1
_chemical_formula_structural   YbMoClO4
_chemical_formula_sum   'Yb2 Mo2 Cl2 O8'
_cell_volume   255.07425327
_cell_formula_units_Z   2
loop_
 _symmetry_equiv_pos_site_id
 _symmetry_equiv_pos_as_xyz
  1  'x, y, z'
loop_
 _atom_site_type_symbol
 _atom_site_label
 _atom_site_symmetry_multiplicity
 _atom_site_fract_x
 _atom_site_fract_y
 _atom_site_fract_z
 _atom_site_occupancy
  Yb  Yb0  1  0.23257500  0.23257500  0.88915700  1
  Yb  Yb1  1  0.76742500  0.76742500  0.11084300  1
  Mo  Mo2  1  0.36376000  0.36376000  0.26803200  1
  Mo  Mo3  1  0.63624000  0.63624000  0.73196800  1
  Cl  Cl4  1  0.99220300  0.99220300  0.75955000  1
  Cl  Cl5  1  0.00779700  0.00779700  0.24045000  1
  O  O6  1  0.11352600  0.49190100  0.15482100  1
  O  O7  1  0.46000200  0.46000200  0.79339000  1
  O  O8  1  0.49190100  0.11352600  0.15482100  1
  O  O9  1  0.53999800  0.53999800  0.20661000  1
  O  O10  1  0.88647400  0.50809900  0.84517900  1
  O  O11  1  0.50809900  0.88647400  0.84517900  1
  O  O12  1  0.30024000  0.30024000  0.53998200  1
  O  O13  1  0.69976000  0.69976000  0.46001800  1
