# generated using pymatgen
data_U2O5
_symmetry_space_group_name_H-M   'P 1'
_cell_length_a   4.15881700
_cell_length_b   6.96322900
_cell_length_c   30.96074100
_cell_angle_alpha   90.00000000
_cell_angle_beta   90.00000000
_cell_angle_gamma   90.00000000
_symmetry_Int_Tables_number   1
_chemical_formula_structural   U2O5
_chemical_formula_sum   'U16 O40'
_cell_volume   896.58575600
_cell_formula_units_Z   8
loop_
 _symmetry_equiv_pos_site_id
 _symmetry_equiv_pos_as_xyz
  1  'x, y, z'
loop_
 _atom_site_type_symbol
 _atom_site_label
 _atom_site_symmetry_multiplicity
 _atom_site_fract_x
 _atom_site_fract_y
 _atom_site_fract_z
 _atom_site_occupancy
  U  U0  1  0.00000000  0.75640800  0.84055100  1
  U  U1  1  0.00000000  0.25640800  0.65944900  1
  U  U2  1  0.00000000  0.78454200  0.21254600  1
  U  U3  1  0.00000000  0.24359200  0.15944900  1
  U  U4  1  0.00000000  0.71545800  0.71254600  1
  U  U5  1  0.00000000  0.75760700  0.97516600  1
  U  U6  1  0.00000000  0.28454200  0.28745400  1
  U  U7  1  0.00000000  0.78282900  0.59429900  1
  U  U8  1  0.00000000  0.28282900  0.90570100  1
  U  U9  1  0.00000000  0.21545800  0.78745400  1
  U  U10  1  0.00000000  0.74359200  0.34055100  1
  U  U11  1  0.00000000  0.25760700  0.52483400  1
  U  U12  1  0.00000000  0.24239300  0.02483400  1
  U  U13  1  0.00000000  0.74239300  0.47516600  1
  U  U14  1  0.00000000  0.71717100  0.09429900  1
  U  U15  1  0.00000000  0.21717100  0.40570100  1
  O  O16  1  0.00000000  0.43404300  0.96363800  1
  O  O17  1  0.50000000  0.25620600  0.52402700  1
  O  O18  1  0.00000000  0.06595700  0.46363800  1
  O  O19  1  0.00000000  0.05667900  0.33464700  1
  O  O20  1  0.50000000  0.24379400  0.02402700  1
  O  O21  1  0.00000000  0.06552700  0.95856700  1
  O  O22  1  0.50000000  0.72083500  0.09568200  1
  O  O23  1  0.50000000  0.21462500  0.78630500  1
  O  O24  1  0.50000000  0.77916500  0.59568200  1
  O  O25  1  0.00000000  0.61259100  0.27211000  1
  O  O26  1  0.50000000  0.78537500  0.21369500  1
  O  O27  1  0.00000000  0.55667900  0.16535300  1
  O  O28  1  0.00000000  0.69986400  0.90584800  1
  O  O29  1  0.00000000  0.43447300  0.45856700  1
  O  O30  1  0.50000000  0.75620600  0.97597300  1
  O  O31  1  0.50000000  0.75414300  0.83677500  1
  O  O32  1  0.00000000  0.56888600  0.64827400  1
  O  O33  1  0.00000000  0.44332100  0.83464700  1
  O  O34  1  0.00000000  0.43111400  0.35172600  1
  O  O35  1  0.00000000  0.93404300  0.53636200  1
  O  O36  1  0.50000000  0.24585700  0.16322500  1
  O  O37  1  0.50000000  0.27916500  0.90431800  1
  O  O38  1  0.50000000  0.22083500  0.40431800  1
  O  O39  1  0.00000000  0.88740900  0.77211000  1
  O  O40  1  0.50000000  0.71462500  0.71369500  1
  O  O41  1  0.00000000  0.30013600  0.09415200  1
  O  O42  1  0.00000000  0.38740900  0.72789000  1
  O  O43  1  0.00000000  0.80013600  0.40584800  1
  O  O44  1  0.00000000  0.93111400  0.14827400  1
  O  O45  1  0.50000000  0.25414300  0.66322500  1
  O  O46  1  0.00000000  0.11259100  0.22789000  1
  O  O47  1  0.50000000  0.74585700  0.33677500  1
  O  O48  1  0.50000000  0.74379400  0.47597300  1
  O  O49  1  0.00000000  0.19986400  0.59415200  1
  O  O50  1  0.00000000  0.93447300  0.04143300  1
  O  O51  1  0.00000000  0.06888600  0.85172600  1
  O  O52  1  0.00000000  0.56552700  0.54143300  1
  O  O53  1  0.00000000  0.94332100  0.66535300  1
  O  O54  1  0.50000000  0.28537500  0.28630500  1
  O  O55  1  0.00000000  0.56595700  0.03636200  1
