# generated using pymatgen
data_Os6C19O20
_symmetry_space_group_name_H-M   'P 1'
_cell_length_a   10.62043600
_cell_length_b   16.68095400
_cell_length_c   17.23661600
_cell_angle_alpha   90.00000000
_cell_angle_beta   90.00000000
_cell_angle_gamma   90.00000000
_symmetry_Int_Tables_number   1
_chemical_formula_structural   Os6C19O20
_chemical_formula_sum   'Os24 C76 O80'
_cell_volume   3053.62172937
_cell_formula_units_Z   4
loop_
 _symmetry_equiv_pos_site_id
 _symmetry_equiv_pos_as_xyz
  1  'x, y, z'
loop_
 _atom_site_type_symbol
 _atom_site_label
 _atom_site_symmetry_multiplicity
 _atom_site_fract_x
 _atom_site_fract_y
 _atom_site_fract_z
 _atom_site_occupancy
  Os  Os0  1  0.27391400  0.39043600  0.90883600  1
  Os  Os1  1  0.43570000  0.82082200  0.83108200  1
  Os  Os2  1  0.22608600  0.89043600  0.90883600  1
  Os  Os3  1  0.93570000  0.67917800  0.16891800  1
  Os  Os4  1  0.77391400  0.10956400  0.40883600  1
  Os  Os5  1  0.71545800  0.65203100  0.25000000  1
  Os  Os6  1  0.28454200  0.34796900  0.75000000  1
  Os  Os7  1  0.56430000  0.17917800  0.16891800  1
  Os  Os8  1  0.93570000  0.67917800  0.33108200  1
  Os  Os9  1  0.22608600  0.89043600  0.59116400  1
  Os  Os10  1  0.43570000  0.82082200  0.66891800  1
  Os  Os11  1  0.27391400  0.39043600  0.59116400  1
  Os  Os12  1  0.56430000  0.17917800  0.33108200  1
  Os  Os13  1  0.66951500  0.81604800  0.75000000  1
  Os  Os14  1  0.83048500  0.31604800  0.75000000  1
  Os  Os15  1  0.06430000  0.32082200  0.83108200  1
  Os  Os16  1  0.72608600  0.60956400  0.40883600  1
  Os  Os17  1  0.21545800  0.84796900  0.75000000  1
  Os  Os18  1  0.16951500  0.68395200  0.25000000  1
  Os  Os19  1  0.72608600  0.60956400  0.09116400  1
  Os  Os20  1  0.33048500  0.18395200  0.25000000  1
  Os  Os21  1  0.77391400  0.10956400  0.09116400  1
  Os  Os22  1  0.78454200  0.15203100  0.25000000  1
  Os  Os23  1  0.06430000  0.32082200  0.66891800  1
  C  C24  1  0.63643800  0.70096900  0.75000000  1
  C  C25  1  0.52723100  0.88287300  0.90469400  1
  C  C26  1  0.45497100  0.72826800  0.89238800  1
  C  C27  1  0.77648400  0.59959700  0.98499500  1
  C  C28  1  0.54502900  0.27173200  0.10761200  1
  C  C29  1  0.66955800  0.71935800  0.42477500  1
  C  C30  1  0.83044200  0.21935800  0.42477500  1
  C  C31  1  0.08618600  0.77088000  0.75000000  1
  C  C32  1  0.83357600  0.76133300  0.25000000  1
  C  C33  1  0.21460000  0.19318100  0.33428700  1
  C  C34  1  0.91381400  0.22912000  0.25000000  1
  C  C35  1  0.16955800  0.78064200  0.57522500  1
  C  C36  1  0.16955800  0.78064200  0.92477500  1
  C  C37  1  0.78540000  0.80681900  0.66571300  1
  C  C38  1  0.86356200  0.20096900  0.75000000  1
  C  C39  1  0.30323900  0.99241400  0.87386700  1
  C  C40  1  0.33357600  0.73866700  0.75000000  1
  C  C41  1  0.83905400  0.43423300  0.75000000  1
  C  C42  1  0.19676100  0.49241400  0.62613300  1
  C  C43  1  0.16642400  0.23866700  0.75000000  1
  C  C44  1  0.93852100  0.06518800  0.07726200  1
  C  C45  1  0.59215300  0.56865600  0.25000000  1
  C  C46  1  0.13643800  0.79903100  0.25000000  1
  C  C47  1  0.22351600  0.40040300  0.48499500  1
  C  C48  1  0.90784700  0.06865600  0.25000000  1
  C  C49  1  0.33905400  0.06576700  0.25000000  1
  C  C50  1  0.19676100  0.49241400  0.87386700  1
  C  C51  1  0.27648400  0.90040300  0.01500500  1
  C  C52  1  0.30323900  0.99241400  0.62613300  1
  C  C53  1  0.78540000  0.80681900  0.83428700  1
  C  C54  1  0.41381400  0.27088000  0.75000000  1
  C  C55  1  0.47276900  0.11712700  0.09530600  1
  C  C56  1  0.56147900  0.56518800  0.42273800  1
  C  C57  1  0.27648400  0.90040300  0.48499500  1
  C  C58  1  0.21460000  0.19318100  0.16571300  1
  C  C59  1  0.16094600  0.56576700  0.25000000  1
  C  C60  1  0.40784700  0.43134400  0.75000000  1
  C  C61  1  0.69676100  0.00758600  0.12613300  1
  C  C62  1  0.06147900  0.93481200  0.57726200  1
  C  C63  1  0.52723100  0.88287300  0.59530600  1
  C  C64  1  0.66955800  0.71935800  0.07522500  1
  C  C65  1  0.45497100  0.72826800  0.60761200  1
  C  C66  1  0.58618600  0.72912000  0.25000000  1
  C  C67  1  0.72351600  0.09959700  0.51500500  1
  C  C68  1  0.93852100  0.06518800  0.42273800  1
  C  C69  1  0.43852100  0.43481200  0.57726200  1
  C  C70  1  0.06147900  0.93481200  0.92273800  1
  C  C71  1  0.83044200  0.21935800  0.07522500  1
  C  C72  1  0.09215300  0.93134400  0.75000000  1
  C  C73  1  0.56147900  0.56518800  0.07726200  1
  C  C74  1  0.28540000  0.69318100  0.16571300  1
  C  C75  1  0.97276900  0.38287300  0.90469400  1
  C  C76  1  0.77648400  0.59959700  0.51500500  1
  C  C77  1  0.95497100  0.77173200  0.39238800  1
  C  C78  1  0.71460000  0.30681900  0.66571300  1
  C  C79  1  0.36356200  0.29903100  0.25000000  1
  C  C80  1  0.22351600  0.40040300  0.01500500  1
  C  C81  1  0.66094600  0.93423300  0.75000000  1
  C  C82  1  0.33044200  0.28064200  0.92477500  1
  C  C83  1  0.04502900  0.22826800  0.89238800  1
  C  C84  1  0.95497100  0.77173200  0.10761200  1
  C  C85  1  0.66642400  0.26133300  0.25000000  1
  C  C86  1  0.54502900  0.27173200  0.39238800  1
  C  C87  1  0.04502900  0.22826800  0.60761200  1
  C  C88  1  0.33044200  0.28064200  0.57522500  1
  C  C89  1  0.02723100  0.61712700  0.09530600  1
  C  C90  1  0.71460000  0.30681900  0.83428700  1
  C  C91  1  0.80323900  0.50758600  0.37386700  1
  C  C92  1  0.80323900  0.50758600  0.12613300  1
  C  C93  1  0.97276900  0.38287300  0.59530600  1
  C  C94  1  0.28540000  0.69318100  0.33428700  1
  C  C95  1  0.02723100  0.61712700  0.40469400  1
  C  C96  1  0.47276900  0.11712700  0.40469400  1
  C  C97  1  0.69676100  0.00758600  0.37386700  1
  C  C98  1  0.43852100  0.43481200  0.92273800  1
  C  C99  1  0.72351600  0.09959700  0.98499500  1
  O  O100  1  0.61117500  0.09174200  0.25000000  1
  O  O101  1  0.15451700  0.49668000  0.25000000  1
  O  O102  1  0.46069000  0.53902900  0.42671300  1
  O  O103  1  0.03931000  0.03902900  0.42671300  1
  O  O104  1  0.91685200  0.42136700  0.55051900  1
  O  O105  1  0.53640300  0.33114200  0.07161700  1
  O  O106  1  0.34654700  0.05272400  0.64490500  1
  O  O107  1  0.98773100  0.28120300  0.25000000  1
  O  O108  1  0.38882500  0.90825800  0.75000000  1
  O  O109  1  0.64909700  0.29841400  0.61231900  1
  O  O110  1  0.08314800  0.57863300  0.44948100  1
  O  O111  1  0.36561500  0.21625000  0.93726400  1
  O  O112  1  0.84654700  0.44727600  0.35509500  1
  O  O113  1  0.08314800  0.57863300  0.05051900  1
  O  O114  1  0.18559100  0.16822900  0.75000000  1
  O  O115  1  0.69522300  0.09727400  0.91999900  1
  O  O116  1  0.03640300  0.16885800  0.57161700  1
  O  O117  1  0.84654700  0.44727600  0.14490500  1
  O  O118  1  0.01350300  0.98025800  0.75000000  1
  O  O119  1  0.13438500  0.71625000  0.93726400  1
  O  O120  1  0.03640300  0.16885800  0.92838300  1
  O  O121  1  0.84548300  0.50332000  0.75000000  1
  O  O122  1  0.46359700  0.66885800  0.57161700  1
  O  O123  1  0.88882500  0.59174200  0.25000000  1
  O  O124  1  0.98649700  0.01974200  0.25000000  1
  O  O125  1  0.36561500  0.21625000  0.56273600  1
  O  O126  1  0.65345300  0.94727600  0.14490500  1
  O  O127  1  0.86561500  0.28375000  0.43726400  1
  O  O128  1  0.64909700  0.29841400  0.88768100  1
  O  O129  1  0.65345300  0.94727600  0.35509500  1
  O  O130  1  0.41685200  0.07863300  0.44948100  1
  O  O131  1  0.30477700  0.90272600  0.41999900  1
  O  O132  1  0.34654700  0.05272400  0.85509500  1
  O  O133  1  0.53640300  0.33114200  0.42838300  1
  O  O134  1  0.91685200  0.42136700  0.94948100  1
  O  O135  1  0.03931000  0.03902900  0.07328700  1
  O  O136  1  0.11933200  0.86734600  0.25000000  1
  O  O137  1  0.35090300  0.70158600  0.38768100  1
  O  O138  1  0.13438500  0.71625000  0.56273600  1
  O  O139  1  0.01226900  0.71879700  0.75000000  1
  O  O140  1  0.38066800  0.36734600  0.25000000  1
  O  O141  1  0.61933200  0.63265400  0.75000000  1
  O  O142  1  0.85090300  0.79841400  0.61231900  1
  O  O143  1  0.34548300  0.99668000  0.25000000  1
  O  O144  1  0.96069000  0.96097100  0.57328700  1
  O  O145  1  0.53931000  0.46097100  0.92671300  1
  O  O146  1  0.15345300  0.55272400  0.85509500  1
  O  O147  1  0.11117500  0.40825800  0.75000000  1
  O  O148  1  0.58314800  0.92136700  0.94948100  1
  O  O149  1  0.80477700  0.59727400  0.58000100  1
  O  O150  1  0.48773100  0.21879700  0.75000000  1
  O  O151  1  0.86561500  0.28375000  0.06273600  1
  O  O152  1  0.63438500  0.78375000  0.43726400  1
  O  O153  1  0.88066800  0.13265400  0.75000000  1
  O  O154  1  0.19522300  0.40272600  0.41999900  1
  O  O155  1  0.68559100  0.33177100  0.25000000  1
  O  O156  1  0.14909700  0.20158600  0.11231900  1
  O  O157  1  0.14909700  0.20158600  0.38768100  1
  O  O158  1  0.30477700  0.90272600  0.08000100  1
  O  O159  1  0.63438500  0.78375000  0.06273600  1
  O  O160  1  0.69522300  0.09727400  0.58000100  1
  O  O161  1  0.51226900  0.78120300  0.25000000  1
  O  O162  1  0.35090300  0.70158600  0.11231900  1
  O  O163  1  0.65451700  0.00332000  0.75000000  1
  O  O164  1  0.81440900  0.83177100  0.25000000  1
  O  O165  1  0.96359700  0.83114200  0.42838300  1
  O  O166  1  0.19522300  0.40272600  0.08000100  1
  O  O167  1  0.46359700  0.66885800  0.92838300  1
  O  O168  1  0.31440900  0.66822900  0.75000000  1
  O  O169  1  0.48649700  0.48025800  0.75000000  1
  O  O170  1  0.51350300  0.51974200  0.25000000  1
  O  O171  1  0.80477700  0.59727400  0.91999900  1
  O  O172  1  0.58314800  0.92136700  0.55051900  1
  O  O173  1  0.15345300  0.55272400  0.64490500  1
  O  O174  1  0.41685200  0.07863300  0.05051900  1
  O  O175  1  0.53931000  0.46097100  0.57328700  1
  O  O176  1  0.96069000  0.96097100  0.92671300  1
  O  O177  1  0.85090300  0.79841400  0.88768100  1
  O  O178  1  0.96359700  0.83114200  0.07161700  1
  O  O179  1  0.46069000  0.53902900  0.07328700  1
