# generated using pymatgen
data_Fe3C8(Br2N)8
_symmetry_space_group_name_H-M   'P 1'
_cell_length_a   8.08829300
_cell_length_b   9.45713734
_cell_length_c   12.20414105
_cell_angle_alpha   76.91486116
_cell_angle_beta   87.63049735
_cell_angle_gamma   89.01505031
_symmetry_Int_Tables_number   1
_chemical_formula_structural   Fe3C8(Br2N)8
_chemical_formula_sum   'Fe3 C8 Br16 N8'
_cell_volume   908.47437784
_cell_formula_units_Z   1
loop_
 _symmetry_equiv_pos_site_id
 _symmetry_equiv_pos_as_xyz
  1  'x, y, z'
loop_
 _atom_site_type_symbol
 _atom_site_label
 _atom_site_symmetry_multiplicity
 _atom_site_fract_x
 _atom_site_fract_y
 _atom_site_fract_z
 _atom_site_occupancy
  Fe  Fe0  1  0.12957500  0.75045400  0.78722900  1
  Fe  Fe1  1  0.87042500  0.24954600  0.21277100  1
  Fe  Fe2  1  0.50000000  0.50000000  0.50000000  1
  C  C3  1  0.65322300  0.18856000  0.54559100  1
  C  C4  1  0.55050700  0.16537400  0.85664900  1
  C  C5  1  0.82119800  0.63515900  0.37337900  1
  C  C6  1  0.44949300  0.83462600  0.14335100  1
  C  C7  1  0.61641700  0.52860000  0.73290000  1
  C  C8  1  0.17880200  0.36484100  0.62662100  1
  C  C9  1  0.38358300  0.47140000  0.26710000  1
  C  C10  1  0.34677700  0.81144000  0.45440900  1
  Br  Br11  1  0.80631800  0.48821700  0.11872100  1
  Br  Br12  1  0.68554300  0.52789300  0.87056800  1
  Br  Br13  1  0.75269700  0.01430700  0.57812600  1
  Br  Br14  1  0.36014400  0.15158000  0.93849900  1
  Br  Br15  1  0.97187700  0.87046600  0.90339900  1
  Br  Br16  1  0.97791300  0.72703400  0.63007700  1
  Br  Br17  1  0.62668500  0.12016200  0.26652200  1
  Br  Br18  1  0.02208700  0.27296600  0.36992300  1
  Br  Br19  1  0.31445700  0.47210700  0.12943200  1
  Br  Br20  1  0.63985600  0.84842000  0.06150100  1
  Br  Br21  1  0.19368200  0.51178300  0.88127900  1
  Br  Br22  1  0.24730300  0.98569300  0.42187400  1
  Br  Br23  1  0.00247200  0.71827100  0.29774400  1
  Br  Br24  1  0.99752800  0.28172900  0.70225600  1
  Br  Br25  1  0.37331500  0.87983800  0.73347800  1
  Br  Br26  1  0.02812300  0.12953400  0.09660100  1
  N  N27  1  0.32306700  0.82273900  0.19523000  1
  N  N28  1  0.67693300  0.17726100  0.80477000  1
  N  N29  1  0.70340100  0.58229700  0.42393200  1
  N  N30  1  0.57493900  0.52156600  0.64370400  1
  N  N31  1  0.29659900  0.41770300  0.57606800  1
  N  N32  1  0.42506100  0.47843400  0.35629600  1
  N  N33  1  0.40493300  0.69499500  0.47284300  1
  N  N34  1  0.59506700  0.30500500  0.52715700  1
