# generated using pymatgen
data_NaPO3
_symmetry_space_group_name_H-M   'P 1'
_cell_length_a   9.96281563
_cell_length_b   9.96281563
_cell_length_c   9.96281563
_cell_angle_alpha   95.79540824
_cell_angle_beta   95.79540824
_cell_angle_gamma   142.94399470
_symmetry_Int_Tables_number   1
_chemical_formula_structural   NaPO3
_chemical_formula_sum   'Na8 P8 O24'
_cell_volume   565.01188875
_cell_formula_units_Z   8
loop_
 _symmetry_equiv_pos_site_id
 _symmetry_equiv_pos_as_xyz
  1  'x, y, z'
loop_
 _atom_site_type_symbol
 _atom_site_label
 _atom_site_symmetry_multiplicity
 _atom_site_fract_x
 _atom_site_fract_y
 _atom_site_fract_z
 _atom_site_occupancy
  Na  Na0  1  0.31874600  0.12928000  0.99511100  1
  Na  Na1  1  0.67636500  0.68125400  0.81053400  1
  Na  Na2  1  0.87072000  0.86583100  0.18946600  1
  Na  Na3  1  0.37928000  0.88416900  0.31053400  1
  Na  Na4  1  0.57363500  0.06874600  0.68946600  1
  Na  Na5  1  0.13416900  0.32363500  0.00488900  1
  Na  Na6  1  0.11583100  0.42636500  0.49511100  1
  Na  Na7  1  0.93125400  0.62072000  0.50488900  1
  P  P8  1  0.41715900  0.38057600  0.31993000  1
  P  P9  1  0.34722900  0.16715900  0.53658300  1
  P  P10  1  0.61942400  0.93935400  0.03658300  1
  P  P11  1  0.63057600  0.81064600  0.46341700  1
  P  P12  1  0.06064600  0.09722900  0.68007000  1
  P  P13  1  0.90277100  0.58284100  0.96341700  1
  P  P14  1  0.18935400  0.65277100  0.81993000  1
  P  P15  1  0.83284100  0.36942400  0.18007000  1
  O  O16  1  0.98040100  0.47861100  0.33048900  1
  O  O17  1  0.89991100  0.73040100  0.00179000  1
  O  O18  1  0.10187800  0.10008800  0.83048900  1
  O  O19  1  0.47441300  0.82519100  0.13456700  1
  O  O20  1  0.58984600  0.22441300  0.14922200  1
  O  O21  1  0.69062400  0.33984600  0.86543300  1
  O  O22  1  0.47291000  0.88088300  0.88737700  1
  O  O23  1  0.35008900  0.01959900  0.49821000  1
  O  O24  1  0.77709000  0.86911700  0.61262300  1
  O  O25  1  0.66015400  0.52558700  0.35077800  1
  O  O26  1  0.52138900  0.85187800  0.50179000  1
  O  O27  1  0.99350600  0.58553300  0.11262300  1
  O  O28  1  0.17480900  0.30937600  0.64922200  1
  O  O29  1  0.55937600  0.41015400  0.63456700  1
  O  O30  1  0.72861100  0.89812200  0.99821000  1
  O  O31  1  0.41446700  0.52709000  0.40797300  1
  O  O32  1  0.11911700  0.00649400  0.59202700  1
  O  O33  1  0.77558700  0.92480900  0.36543300  1
  O  O34  1  0.26959900  0.27138900  0.16951100  1
  O  O35  1  0.14812200  0.64991100  0.66951100  1
  O  O36  1  0.83553300  0.22291000  0.09202700  1
  O  O37  1  0.07519100  0.44062400  0.85077800  1
  O  O38  1  0.13088300  0.74350600  0.90797300  1
  O  O39  1  0.25649400  0.16446700  0.38737700  1
