# generated using pymatgen
data_ZnAg2C4(SN)4
_symmetry_space_group_name_H-M   'P 1'
_cell_length_a   10.70457443
_cell_length_b   10.70457443
_cell_length_c   7.93791597
_cell_angle_alpha   83.96850791
_cell_angle_beta   83.96850791
_cell_angle_gamma   42.74705032
_symmetry_Int_Tables_number   1
_chemical_formula_structural   ZnAg2C4(SN)4
_chemical_formula_sum   'Zn2 Ag4 C8 S8 N8'
_cell_volume   613.45258315
_cell_formula_units_Z   2
loop_
 _symmetry_equiv_pos_site_id
 _symmetry_equiv_pos_as_xyz
  1  'x, y, z'
loop_
 _atom_site_type_symbol
 _atom_site_label
 _atom_site_symmetry_multiplicity
 _atom_site_fract_x
 _atom_site_fract_y
 _atom_site_fract_z
 _atom_site_occupancy
  Zn  Zn0  1  0.86941000  0.54073700  0.48703000  1
  Zn  Zn1  1  0.54073700  0.86941000  0.98703000  1
  Ag  Ag2  1  0.31124000  0.50829700  0.97283900  1
  Ag  Ag3  1  0.09181800  0.90819000  0.50044100  1
  Ag  Ag4  1  0.50829700  0.31124000  0.47283900  1
  Ag  Ag5  1  0.90819000  0.09181800  0.00044100  1
  C  C6  1  0.61162400  0.54160900  0.90406000  1
  C  C7  1  0.86606600  0.79555300  0.08519900  1
  C  C8  1  0.79555300  0.86606600  0.58519900  1
  C  C9  1  0.18480300  0.06053600  0.20259300  1
  C  C10  1  0.06053600  0.18480300  0.70259300  1
  C  C11  1  0.34055200  0.23132000  0.77686300  1
  C  C12  1  0.54160900  0.61162400  0.40406000  1
  C  C13  1  0.23132000  0.34055200  0.27686300  1
  S  S14  1  0.01476100  0.79293100  0.12774100  1
  S  S15  1  0.16822900  0.97619500  0.76649300  1
  S  S16  1  0.23650500  0.43859900  0.71266600  1
  S  S17  1  0.43859900  0.23650500  0.21266600  1
  S  S18  1  0.39618600  0.61177900  0.35457200  1
  S  S19  1  0.61177900  0.39618600  0.85457200  1
  S  S20  1  0.79293100  0.01476100  0.62774100  1
  S  S21  1  0.97619500  0.16822900  0.26649300  1
  N  N22  1  0.33498700  0.98323500  0.15750600  1
  N  N23  1  0.41789600  0.08038100  0.81940000  1
  N  N24  1  0.64653800  0.61305300  0.43089400  1
  N  N25  1  0.98323500  0.33498700  0.65750600  1
  N  N26  1  0.79966500  0.75670500  0.56020300  1
  N  N27  1  0.08038100  0.41789600  0.31940000  1
  N  N28  1  0.61305300  0.64653800  0.93089400  1
  N  N29  1  0.75670500  0.79966500  0.06020300  1
