# generated using pymatgen
data_Ti2SCl12
_symmetry_space_group_name_H-M   'P 1'
_cell_length_a   14.42191756
_cell_length_b   14.42191756
_cell_length_c   14.42191762
_cell_angle_alpha   103.99954777
_cell_angle_beta   103.99954777
_cell_angle_gamma   103.99954668
_symmetry_Int_Tables_number   1
_chemical_formula_structural   Ti2SCl12
_chemical_formula_sum   'Ti12 S6 Cl72'
_cell_volume   2676.44090255
_cell_formula_units_Z   6
loop_
 _symmetry_equiv_pos_site_id
 _symmetry_equiv_pos_as_xyz
  1  'x, y, z'
loop_
 _atom_site_type_symbol
 _atom_site_label
 _atom_site_symmetry_multiplicity
 _atom_site_fract_x
 _atom_site_fract_y
 _atom_site_fract_z
 _atom_site_occupancy
  Ti  Ti0  1  0.32281800  0.14462100  0.99003900  1
  Ti  Ti1  1  0.67718200  0.85537900  0.00996100  1
  Ti  Ti2  1  0.65258100  0.82142100  0.49115200  1
  Ti  Ti3  1  0.82142100  0.49115200  0.65258100  1
  Ti  Ti4  1  0.50884800  0.34741900  0.17857900  1
  Ti  Ti5  1  0.34741900  0.17857900  0.50884800  1
  Ti  Ti6  1  0.99003900  0.32281800  0.14462100  1
  Ti  Ti7  1  0.85537900  0.00996100  0.67718200  1
  Ti  Ti8  1  0.17857900  0.50884800  0.34741900  1
  Ti  Ti9  1  0.14462100  0.99003900  0.32281800  1
  Ti  Ti10  1  0.00996100  0.67718200  0.85537900  1
  Ti  Ti11  1  0.49115200  0.65258100  0.82142100  1
  S  S12  1  0.44783500  0.83887000  0.17141700  1
  S  S13  1  0.16113000  0.82858300  0.55216500  1
  S  S14  1  0.82858300  0.55216500  0.16113000  1
  S  S15  1  0.55216500  0.16113000  0.82858300  1
  S  S16  1  0.83887000  0.17141700  0.44783500  1
  S  S17  1  0.17141700  0.44783500  0.83887000  1
  Cl  Cl18  1  0.84996400  0.05187200  0.35150100  1
  Cl  Cl19  1  0.63554700  0.81270700  0.32814600  1
  Cl  Cl20  1  0.28986800  0.12173300  0.32187900  1
  Cl  Cl21  1  0.83185700  0.13329200  0.78774000  1
  Cl  Cl22  1  0.01796900  0.53810600  0.71219800  1
  Cl  Cl23  1  0.82417300  0.49076800  0.49784500  1
  Cl  Cl24  1  0.95677000  0.28424500  0.45443500  1
  Cl  Cl25  1  0.98203100  0.46189400  0.28780200  1
  Cl  Cl26  1  0.96197000  0.96868500  0.78566600  1
  Cl  Cl27  1  0.96823000  0.10972300  0.62640300  1
  Cl  Cl28  1  0.28780200  0.98203100  0.46189400  1
  Cl  Cl29  1  0.32187900  0.28986800  0.12173300  1
  Cl  Cl30  1  0.71219800  0.01796900  0.53810600  1
  Cl  Cl31  1  0.13329200  0.78774000  0.83185700  1
  Cl  Cl32  1  0.72100400  0.19871800  0.36414800  1
  Cl  Cl33  1  0.47564400  0.63375100  0.66148100  1
  Cl  Cl34  1  0.89027700  0.37359700  0.03177000  1
  Cl  Cl35  1  0.71575500  0.54556500  0.04323000  1
  Cl  Cl36  1  0.78566600  0.96197000  0.96868500  1
  Cl  Cl37  1  0.17582700  0.50923200  0.50215500  1
  Cl  Cl38  1  0.80128200  0.63585200  0.27899600  1
  Cl  Cl39  1  0.63585200  0.27899600  0.80128200  1
  Cl  Cl40  1  0.19871800  0.36414800  0.72100400  1
  Cl  Cl41  1  0.13714500  0.46945800  0.16159600  1
  Cl  Cl42  1  0.67185400  0.36445300  0.18729300  1
  Cl  Cl43  1  0.03131500  0.21433400  0.03803000  1
  Cl  Cl44  1  0.50215500  0.17582700  0.50923200  1
  Cl  Cl45  1  0.10972300  0.62640300  0.96823000  1
  Cl  Cl46  1  0.86285500  0.53054200  0.83840400  1
  Cl  Cl47  1  0.52435600  0.36624900  0.33851900  1
  Cl  Cl48  1  0.45443500  0.95677000  0.28424500  1
  Cl  Cl49  1  0.36414800  0.72100400  0.19871800  1
  Cl  Cl50  1  0.96868500  0.78566600  0.96197000  1
  Cl  Cl51  1  0.21226000  0.16814300  0.86670800  1
  Cl  Cl52  1  0.03177000  0.89027700  0.37359700  1
  Cl  Cl53  1  0.81270700  0.32814600  0.63554700  1
  Cl  Cl54  1  0.67812100  0.71013200  0.87826700  1
  Cl  Cl55  1  0.32814600  0.63554700  0.81270700  1
  Cl  Cl56  1  0.49784500  0.82417300  0.49076800  1
  Cl  Cl57  1  0.49076900  0.49784500  0.82417300  1
  Cl  Cl58  1  0.36445300  0.18729300  0.67185400  1
  Cl  Cl59  1  0.28424500  0.45443500  0.95677000  1
  Cl  Cl60  1  0.71013200  0.87826700  0.67812100  1
  Cl  Cl61  1  0.87826700  0.67812100  0.71013200  1
  Cl  Cl62  1  0.53054200  0.83840400  0.86285500  1
  Cl  Cl63  1  0.33851900  0.52435600  0.36624900  1
  Cl  Cl64  1  0.46189400  0.28780200  0.98203100  1
  Cl  Cl65  1  0.66148100  0.47564400  0.63375100  1
  Cl  Cl66  1  0.86670800  0.21226000  0.16814300  1
  Cl  Cl67  1  0.63375100  0.66148100  0.47564400  1
  Cl  Cl68  1  0.36624900  0.33851900  0.52435600  1
  Cl  Cl69  1  0.78774000  0.83185700  0.13329200  1
  Cl  Cl70  1  0.37359700  0.03177000  0.89027700  1
  Cl  Cl71  1  0.64849900  0.15003600  0.94812800  1
  Cl  Cl72  1  0.16814300  0.86670800  0.21226000  1
  Cl  Cl73  1  0.04323000  0.71575500  0.54556500  1
  Cl  Cl74  1  0.21433400  0.03803000  0.03131500  1
  Cl  Cl75  1  0.12173300  0.32187900  0.28986800  1
  Cl  Cl76  1  0.05187200  0.35150100  0.84996400  1
  Cl  Cl77  1  0.18729300  0.67185400  0.36445300  1
  Cl  Cl78  1  0.62640300  0.96823000  0.10972300  1
  Cl  Cl79  1  0.03803000  0.03131500  0.21433400  1
  Cl  Cl80  1  0.27899600  0.80128200  0.63585200  1
  Cl  Cl81  1  0.15003600  0.94812800  0.64849900  1
  Cl  Cl82  1  0.54556500  0.04323000  0.71575500  1
  Cl  Cl83  1  0.53810600  0.71219800  0.01796900  1
  Cl  Cl84  1  0.83840400  0.86285500  0.53054200  1
  Cl  Cl85  1  0.16159600  0.13714500  0.46945800  1
  Cl  Cl86  1  0.46945800  0.16159600  0.13714500  1
  Cl  Cl87  1  0.94812800  0.64849900  0.15003600  1
  Cl  Cl88  1  0.50923200  0.50215500  0.17582700  1
  Cl  Cl89  1  0.35150100  0.84996400  0.05187200  1
