# generated using pymatgen
data_Os5C15SO15
_symmetry_space_group_name_H-M   'P 1'
_cell_length_a   7.72355900
_cell_length_b   16.31478400
_cell_length_c   19.16690400
_cell_angle_alpha   90.00000000
_cell_angle_beta   90.00000000
_cell_angle_gamma   90.00000000
_symmetry_Int_Tables_number   1
_chemical_formula_structural   Os5C15SO15
_chemical_formula_sum   'Os20 C60 S4 O60'
_cell_volume   2415.18701121
_cell_formula_units_Z   4
loop_
 _symmetry_equiv_pos_site_id
 _symmetry_equiv_pos_as_xyz
  1  'x, y, z'
loop_
 _atom_site_type_symbol
 _atom_site_label
 _atom_site_symmetry_multiplicity
 _atom_site_fract_x
 _atom_site_fract_y
 _atom_site_fract_z
 _atom_site_occupancy
  Os  Os0  1  0.43142200  0.15864300  0.10267600  1
  Os  Os1  1  0.96206600  0.89986900  0.34181500  1
  Os  Os2  1  0.53793400  0.89986900  0.84181500  1
  Os  Os3  1  0.44236500  0.24885700  0.23498400  1
  Os  Os4  1  0.06857800  0.15864300  0.60267600  1
  Os  Os5  1  0.56857800  0.65864300  0.89732400  1
  Os  Os6  1  0.70852500  0.26809100  0.12809700  1
  Os  Os7  1  0.55763500  0.74885700  0.76501600  1
  Os  Os8  1  0.46206600  0.39986900  0.15818500  1
  Os  Os9  1  0.05763500  0.24885700  0.73498400  1
  Os  Os10  1  0.29147500  0.76809100  0.87190300  1
  Os  Os11  1  0.07210000  0.31409800  0.52851700  1
  Os  Os12  1  0.03793400  0.39986900  0.65818500  1
  Os  Os13  1  0.94236500  0.74885700  0.26501600  1
  Os  Os14  1  0.79147500  0.26809100  0.62809700  1
  Os  Os15  1  0.42790000  0.31409800  0.02851700  1
  Os  Os16  1  0.20852500  0.76809100  0.37190300  1
  Os  Os17  1  0.93142200  0.65864300  0.39732400  1
  Os  Os18  1  0.57210000  0.81409800  0.97148300  1
  Os  Os19  1  0.92790000  0.81409800  0.47148300  1
  C  C20  1  0.74351500  0.89235500  0.99885800  1
  C  C21  1  0.82226400  0.17474200  0.16661400  1
  C  C22  1  0.36241000  0.73715600  0.70513600  1
  C  C23  1  0.75648500  0.89235500  0.49885800  1
  C  C24  1  0.90527000  0.36476100  0.46987900  1
  C  C25  1  0.17773600  0.67474200  0.83338600  1
  C  C26  1  0.83368000  0.65282300  0.22926500  1
  C  C27  1  0.78018700  0.97986700  0.34176300  1
  C  C28  1  0.50328900  0.56784500  0.84182500  1
  C  C29  1  0.15382700  0.76453000  0.95425400  1
  C  C30  1  0.67773600  0.17474200  0.66661400  1
  C  C31  1  0.09473000  0.86476100  0.53012100  1
  C  C32  1  0.21981300  0.47986700  0.65823700  1
  C  C33  1  0.14607900  0.24053700  0.45785100  1
  C  C34  1  0.00328900  0.06784500  0.65817500  1
  C  C35  1  0.99671100  0.56784500  0.34182500  1
  C  C36  1  0.84922600  0.34481700  0.17673100  1
  C  C37  1  0.43007900  0.61964200  0.97136300  1
  C  C38  1  0.93007900  0.11964200  0.52863700  1
  C  C39  1  0.24351500  0.39235500  0.50114200  1
  C  C40  1  0.65077400  0.34481700  0.67673100  1
  C  C41  1  0.33368000  0.15282300  0.27073500  1
  C  C42  1  0.89275300  0.46873800  0.60499700  1
  C  C43  1  0.59473000  0.36476100  0.96987900  1
  C  C44  1  0.30967300  0.31452000  0.29757900  1
  C  C45  1  0.34617300  0.76453000  0.45425400  1
  C  C46  1  0.06992100  0.61964200  0.47136300  1
  C  C47  1  0.27930100  0.10654900  0.57255500  1
  C  C48  1  0.54481100  0.43717300  0.24614400  1
  C  C49  1  0.34922600  0.84481700  0.32326900  1
  C  C50  1  0.04481100  0.93717300  0.25385600  1
  C  C51  1  0.19032700  0.31452000  0.79757900  1
  C  C52  1  0.39275300  0.96873800  0.89500300  1
  C  C53  1  0.72069900  0.60654900  0.42744500  1
  C  C54  1  0.28018700  0.47986700  0.15823700  1
  C  C55  1  0.16632000  0.15282300  0.77073500  1
  C  C56  1  0.13759000  0.73715600  0.20513600  1
  C  C57  1  0.63759000  0.23715600  0.29486400  1
  C  C58  1  0.49671100  0.06784500  0.15817500  1
  C  C59  1  0.64607900  0.74053700  0.04214900  1
  C  C60  1  0.25648500  0.39235500  0.00114200  1
  C  C61  1  0.15077400  0.84481700  0.82326900  1
  C  C62  1  0.22069900  0.10654900  0.07255500  1
  C  C63  1  0.45518900  0.93717300  0.75385600  1
  C  C64  1  0.77930100  0.60654900  0.92744500  1
  C  C65  1  0.10724700  0.96873800  0.39500300  1
  C  C66  1  0.84617300  0.26453000  0.04574600  1
  C  C67  1  0.65382700  0.26453000  0.54574600  1
  C  C68  1  0.80967300  0.81452000  0.20242100  1
  C  C69  1  0.86241000  0.23715600  0.79486400  1
  C  C70  1  0.56992100  0.11964200  0.02863700  1
  C  C71  1  0.85392100  0.74053700  0.54214900  1
  C  C72  1  0.69032700  0.81452000  0.70242100  1
  C  C73  1  0.66632000  0.65282300  0.72926500  1
  C  C74  1  0.32226400  0.67474200  0.33338600  1
  C  C75  1  0.60724700  0.46873800  0.10499700  1
  C  C76  1  0.71981300  0.97986700  0.84176300  1
  C  C77  1  0.95518900  0.43717300  0.74614400  1
  C  C78  1  0.40527000  0.86476100  0.03012100  1
  C  C79  1  0.35392100  0.24053700  0.95785100  1
  S  S80  1  0.26019900  0.28291800  0.13418400  1
  S  S81  1  0.73980100  0.78291800  0.86581600  1
  S  S82  1  0.23980100  0.28291800  0.63418400  1
  S  S83  1  0.76019900  0.78291800  0.36581600  1
  O  O84  1  0.39933000  0.96295200  0.70197700  1
  O  O85  1  0.67664300  0.03145000  0.34220100  1
  O  O86  1  0.06278500  0.75894200  0.00283100  1
  O  O87  1  0.23445100  0.09536900  0.79333500  1
  O  O88  1  0.19299000  0.89963600  0.56515800  1
  O  O89  1  0.80183800  0.51230500  0.57374200  1
  O  O90  1  0.72703000  0.85565200  0.16571500  1
  O  O91  1  0.93721500  0.25894200  0.99716900  1
  O  O92  1  0.25389700  0.72936700  0.16697900  1
  O  O93  1  0.30500400  0.19640700  0.91444500  1
  O  O94  1  0.30183800  0.01230500  0.92625800  1
  O  O95  1  0.65200400  0.94041300  0.51329800  1
  O  O96  1  0.76554900  0.59536900  0.20666500  1
  O  O97  1  0.43721500  0.75894200  0.50283100  1
  O  O98  1  0.80701000  0.39963600  0.43484200  1
  O  O99  1  0.26554900  0.09536900  0.29333500  1
  O  O100  1  0.10338800  0.61892800  0.80990300  1
  O  O101  1  0.56278500  0.25894200  0.49716900  1
  O  O102  1  0.84799600  0.94041300  0.01329800  1
  O  O103  1  0.82335700  0.03145000  0.84220100  1
  O  O104  1  0.90631900  0.57656000  0.94704000  1
  O  O105  1  0.19816200  0.01230500  0.42625800  1
  O  O106  1  0.77297000  0.85565200  0.66571500  1
  O  O107  1  0.39661200  0.61892800  0.30990300  1
  O  O108  1  0.69299000  0.39963600  0.93484200  1
  O  O109  1  0.04546900  0.51024800  0.31219500  1
  O  O110  1  0.06007200  0.88843100  0.79180300  1
  O  O111  1  0.95453100  0.01024800  0.68780500  1
  O  O112  1  0.32335700  0.53145000  0.65779900  1
  O  O113  1  0.09368100  0.07656000  0.05296000  1
  O  O114  1  0.65574300  0.09340700  0.98397200  1
  O  O115  1  0.30701000  0.89963600  0.06515800  1
  O  O116  1  0.75389700  0.22936700  0.33302100  1
  O  O117  1  0.24610300  0.72936700  0.66697900  1
  O  O118  1  0.60338800  0.11892800  0.69009700  1
  O  O119  1  0.19499600  0.19640700  0.41444500  1
  O  O120  1  0.54546900  0.01024800  0.18780500  1
  O  O121  1  0.22703000  0.35565200  0.33428500  1
  O  O122  1  0.27297000  0.35565200  0.83428500  1
  O  O123  1  0.89661200  0.11892800  0.19009700  1
  O  O124  1  0.80500400  0.69640700  0.58555500  1
  O  O125  1  0.15200400  0.44041300  0.98670200  1
  O  O126  1  0.73445100  0.59536900  0.70666500  1
  O  O127  1  0.45453100  0.51024800  0.81219500  1
  O  O128  1  0.15574300  0.59340700  0.51602800  1
  O  O129  1  0.34799600  0.44041300  0.48670200  1
  O  O130  1  0.69499600  0.69640700  0.08555500  1
  O  O131  1  0.93992800  0.38843100  0.20819700  1
  O  O132  1  0.56007200  0.38843100  0.70819700  1
  O  O133  1  0.59368100  0.57656000  0.44704000  1
  O  O134  1  0.10067000  0.96295200  0.20197700  1
  O  O135  1  0.34425700  0.59340700  0.01602800  1
  O  O136  1  0.74610300  0.22936700  0.83302100  1
  O  O137  1  0.84425700  0.09340700  0.48397200  1
  O  O138  1  0.60067000  0.46295200  0.29802300  1
  O  O139  1  0.40631900  0.07656000  0.55296000  1
  O  O140  1  0.17664300  0.53145000  0.15779900  1
  O  O141  1  0.89933000  0.46295200  0.79802300  1
  O  O142  1  0.43992800  0.88843100  0.29180300  1
  O  O143  1  0.69816200  0.51230500  0.07374200  1
