# generated using pymatgen
data_K2IrCBr5O
_symmetry_space_group_name_H-M   'P 1'
_cell_length_a   7.44868700
_cell_length_b   10.64667600
_cell_length_c   15.31783300
_cell_angle_alpha   90.00000000
_cell_angle_beta   90.00000000
_cell_angle_gamma   90.00000000
_symmetry_Int_Tables_number   1
_chemical_formula_structural   K2IrCBr5O
_chemical_formula_sum   'K8 Ir4 C4 Br20 O4'
_cell_volume   1214.76170775
_cell_formula_units_Z   4
loop_
 _symmetry_equiv_pos_site_id
 _symmetry_equiv_pos_as_xyz
  1  'x, y, z'
loop_
 _atom_site_type_symbol
 _atom_site_label
 _atom_site_symmetry_multiplicity
 _atom_site_fract_x
 _atom_site_fract_y
 _atom_site_fract_z
 _atom_site_occupancy
  K  K0  1  0.85018300  0.49880400  0.34829400  1
  K  K1  1  0.35018300  0.99880400  0.15170600  1
  K  K2  1  0.14981700  0.99880400  0.65170600  1
  K  K3  1  0.64981700  0.49880400  0.84829400  1
  K  K4  1  0.35018300  0.50119600  0.15170600  1
  K  K5  1  0.64981700  0.00119600  0.84829400  1
  K  K6  1  0.14981700  0.50119600  0.65170600  1
  K  K7  1  0.85018300  0.00119600  0.34829400  1
  Ir  Ir8  1  0.19980000  0.25000000  0.87580600  1
  Ir  Ir9  1  0.80020000  0.75000000  0.12419400  1
  Ir  Ir10  1  0.69980000  0.75000000  0.62419400  1
  Ir  Ir11  1  0.30020000  0.25000000  0.37580600  1
  C  C12  1  0.95243000  0.25000000  0.04998300  1
  C  C13  1  0.45243000  0.75000000  0.45001700  1
  C  C14  1  0.04757000  0.75000000  0.95001700  1
  C  C15  1  0.54757000  0.25000000  0.54998300  1
  Br  Br16  1  0.69474600  0.98688500  0.62317600  1
  Br  Br17  1  0.80525400  0.51311500  0.12317600  1
  Br  Br18  1  0.57195600  0.25000000  0.27790100  1
  Br  Br19  1  0.19474600  0.01311500  0.87682400  1
  Br  Br20  1  0.30525400  0.01311500  0.37682400  1
  Br  Br21  1  0.19474600  0.48688500  0.87682400  1
  Br  Br22  1  0.96785600  0.75000000  0.52244500  1
  Br  Br23  1  0.60216700  0.75000000  0.25064000  1
  Br  Br24  1  0.46785600  0.25000000  0.97755500  1
  Br  Br25  1  0.39783300  0.25000000  0.74936000  1
  Br  Br26  1  0.69474600  0.51311500  0.62317600  1
  Br  Br27  1  0.30525400  0.48688500  0.37682400  1
  Br  Br28  1  0.10216700  0.25000000  0.24936000  1
  Br  Br29  1  0.42804400  0.75000000  0.72209900  1
  Br  Br30  1  0.80525400  0.98688500  0.12317600  1
  Br  Br31  1  0.92804400  0.25000000  0.77790100  1
  Br  Br32  1  0.53214400  0.75000000  0.02244500  1
  Br  Br33  1  0.89783300  0.75000000  0.75064000  1
  Br  Br34  1  0.07195600  0.75000000  0.22209900  1
  Br  Br35  1  0.03214400  0.25000000  0.47755500  1
  O  O36  1  0.96381800  0.75000000  0.01365500  1
  O  O37  1  0.46381800  0.25000000  0.48634500  1
  O  O38  1  0.53618200  0.75000000  0.51365500  1
  O  O39  1  0.03618200  0.25000000  0.98634500  1
