# generated using pymatgen
data_Sm10Pd21
_symmetry_space_group_name_H-M   'P 1'
_cell_length_a   5.84901200
_cell_length_b   12.92099520
_cell_length_c   16.73859795
_cell_angle_alpha   90.86754583
_cell_angle_beta   89.97209934
_cell_angle_gamma   103.07655669
_symmetry_Int_Tables_number   1
_chemical_formula_structural   Sm10Pd21
_chemical_formula_sum   'Sm20 Pd42'
_cell_volume   1232.06989510
_cell_formula_units_Z   2
loop_
 _symmetry_equiv_pos_site_id
 _symmetry_equiv_pos_as_xyz
  1  'x, y, z'
loop_
 _atom_site_type_symbol
 _atom_site_label
 _atom_site_symmetry_multiplicity
 _atom_site_fract_x
 _atom_site_fract_y
 _atom_site_fract_z
 _atom_site_occupancy
  Sm  Sm0  1  0.53803900  0.06879100  0.27965100  1
  Sm  Sm1  1  0.31570700  0.62897300  0.19821700  1
  Sm  Sm2  1  0.46196100  0.93120900  0.72034900  1
  Sm  Sm3  1  0.42887100  0.85765500  0.01924900  1
  Sm  Sm4  1  0.72185100  0.44831700  0.07894300  1
  Sm  Sm5  1  0.23759400  0.47349400  0.64809000  1
  Sm  Sm6  1  0.27814900  0.55168300  0.92105700  1
  Sm  Sm7  1  0.14491000  0.29091500  0.35572800  1
  Sm  Sm8  1  0.64967300  0.29720500  0.51909900  1
  Sm  Sm9  1  0.88127300  0.76156100  0.86943500  1
  Sm  Sm10  1  0.04259700  0.08492800  0.59386400  1
  Sm  Sm11  1  0.35032700  0.70279500  0.48090100  1
  Sm  Sm12  1  0.92463900  0.85166600  0.18686600  1
  Sm  Sm13  1  0.57112900  0.14234500  0.98075100  1
  Sm  Sm14  1  0.07536100  0.14833400  0.81313400  1
  Sm  Sm15  1  0.95740300  0.91507200  0.40613600  1
  Sm  Sm16  1  0.11872700  0.23843900  0.13056500  1
  Sm  Sm17  1  0.76240600  0.52650600  0.35191000  1
  Sm  Sm18  1  0.68429300  0.37102700  0.80178300  1
  Sm  Sm19  1  0.85509000  0.70908500  0.64427200  1
  Pd  Pd20  1  0.06931800  0.66888700  0.04754400  1
  Pd  Pd21  1  0.15280200  0.30242600  0.52458200  1
  Pd  Pd22  1  0.38337600  0.76668300  0.83929100  1
  Pd  Pd23  1  0.04245300  0.07670500  0.27311400  1
  Pd  Pd24  1  0.31286100  0.11413000  0.43865600  1
  Pd  Pd25  1  0.64019100  0.28241200  0.33593900  1
  Pd  Pd26  1  0.61662400  0.23331700  0.16070900  1
  Pd  Pd27  1  0.73860000  0.47601500  0.64496500  1
  Pd  Pd28  1  0.95754700  0.92329500  0.72688600  1
  Pd  Pd29  1  0.37795100  0.25504100  0.67628600  1
  Pd  Pd30  1  0.26140000  0.52398500  0.35503500  1
  Pd  Pd31  1  0.05643300  0.11582300  0.98341500  1
  Pd  Pd32  1  0.81391200  0.62492800  0.19775400  1
  Pd  Pd33  1  0.84719800  0.69757400  0.47541800  1
  Pd  Pd34  1  0.76867400  0.53876700  0.92182300  1
  Pd  Pd35  1  0.27133200  0.03150800  0.11750400  1
  Pd  Pd36  1  0.60080200  0.66908100  0.04704100  1
  Pd  Pd37  1  0.44913500  0.40709100  0.22668100  1
  Pd  Pd38  1  0.35980900  0.71758800  0.66406100  1
  Pd  Pd39  1  0.76083600  0.03192200  0.11752100  1
  Pd  Pd40  1  0.56559400  0.13435800  0.79023300  1
  Pd  Pd41  1  0.54478100  0.08858700  0.59115200  1
  Pd  Pd42  1  0.18608800  0.37507200  0.80224600  1
  Pd  Pd43  1  0.87630000  0.25516000  0.67661000  1
  Pd  Pd44  1  0.23916400  0.96807800  0.88247900  1
  Pd  Pd45  1  0.00000000  0.50000000  0.50000000  1
  Pd  Pd46  1  0.19745600  0.88759300  0.56067400  1
  Pd  Pd47  1  0.62204900  0.74495900  0.32371400  1
  Pd  Pd48  1  0.95819200  0.40689200  0.22650800  1
  Pd  Pd49  1  0.39919800  0.33091900  0.95295900  1
  Pd  Pd50  1  0.23132600  0.46123300  0.07817700  1
  Pd  Pd51  1  0.94356700  0.88417700  0.01658500  1
  Pd  Pd52  1  0.43440600  0.86564200  0.20976700  1
  Pd  Pd53  1  0.12370000  0.74484000  0.32339000  1
  Pd  Pd54  1  0.45521900  0.91141300  0.40884800  1
  Pd  Pd55  1  0.80254400  0.11240700  0.43932600  1
  Pd  Pd56  1  0.93068200  0.33111300  0.95245600  1
  Pd  Pd57  1  0.72866800  0.96849200  0.88249600  1
  Pd  Pd58  1  0.50000000  0.50000000  0.50000000  1
  Pd  Pd59  1  0.04180800  0.59310800  0.77349200  1
  Pd  Pd60  1  0.55086500  0.59290900  0.77331900  1
  Pd  Pd61  1  0.68713900  0.88587000  0.56134400  1
