# generated using pymatgen
data_ReTe7O7F32
_symmetry_space_group_name_H-M   'P 1'
_cell_length_a   10.86324800
_cell_length_b   11.57070502
_cell_length_c   12.60944238
_cell_angle_alpha   81.72919469
_cell_angle_beta   80.99446725
_cell_angle_gamma   85.33815366
_symmetry_Int_Tables_number   1
_chemical_formula_structural   ReTe7O7F32
_chemical_formula_sum   'Re2 Te14 O14 F64'
_cell_volume   1546.32877909
_cell_formula_units_Z   2
loop_
 _symmetry_equiv_pos_site_id
 _symmetry_equiv_pos_as_xyz
  1  'x, y, z'
loop_
 _atom_site_type_symbol
 _atom_site_label
 _atom_site_symmetry_multiplicity
 _atom_site_fract_x
 _atom_site_fract_y
 _atom_site_fract_z
 _atom_site_occupancy
  Re  Re0  1  0.78856500  0.62250400  0.35971500  1
  Re  Re1  1  0.21143500  0.37749600  0.64028500  1
  Te  Te2  1  0.31493000  0.16386900  0.88067800  1
  Te  Te3  1  0.84343900  0.08695100  0.14461700  1
  Te  Te4  1  0.94886200  0.79415400  0.50704800  1
  Te  Te5  1  0.15656100  0.91304900  0.85538300  1
  Te  Te6  1  0.50100700  0.22227600  0.53711400  1
  Te  Te7  1  0.60729500  0.49356100  0.19024100  1
  Te  Te8  1  0.08533100  0.56140200  0.19459400  1
  Te  Te9  1  0.68507000  0.83613100  0.11932200  1
  Te  Te10  1  0.33978600  0.07347000  0.16537000  1
  Te  Te11  1  0.49899300  0.77772400  0.46288600  1
  Te  Te12  1  0.05113800  0.20584600  0.49295200  1
  Te  Te13  1  0.66021400  0.92653000  0.83463000  1
  Te  Te14  1  0.39270500  0.50643900  0.80975900  1
  Te  Te15  1  0.91466900  0.43859800  0.80540600  1
  O  O16  1  0.32640700  0.26441800  0.57135600  1
  O  O17  1  0.78854400  0.96748700  0.07349300  1
  O  O18  1  0.21145600  0.03251300  0.92650700  1
  O  O19  1  0.33841700  0.39325600  0.73276900  1
  O  O20  1  0.67359300  0.73558200  0.42864400  1
  O  O21  1  0.90925100  0.55973900  0.25100700  1
  O  O22  1  0.66158300  0.60674400  0.26723100  1
  O  O23  1  0.92253100  0.68775100  0.40877200  1
  O  O24  1  0.39304900  0.11708400  0.01479800  1
  O  O25  1  0.09074900  0.44026100  0.74899300  1
  O  O26  1  0.23660700  0.49635600  0.54747900  1
  O  O27  1  0.07746900  0.31224900  0.59122800  1
  O  O28  1  0.76339300  0.50364400  0.45252100  1
  O  O29  1  0.60695100  0.88291600  0.98520200  1
  F  F30  1  0.82861500  0.88158900  0.84041200  1
  F  F31  1  0.25512200  0.55654000  0.13701700  1
  F  F32  1  0.20241500  0.26404900  0.95819200  1
  F  F33  1  0.18532500  0.26027500  0.38957100  1
  F  F34  1  0.91475200  0.15094400  0.59223900  1
  F  F35  1  0.54536900  0.50801900  0.71679100  1
  F  F36  1  0.75625600  0.48938600  0.09249500  1
  F  F37  1  0.09244500  0.72148400  0.20380500  1
  F  F38  1  0.69886000  0.97267000  0.68559800  1
  F  F39  1  0.30114000  0.02733000  0.31440200  1
  F  F40  1  0.53909000  0.37993500  0.50008800  1
  F  F41  1  0.95615900  0.12439500  0.01877200  1
  F  F42  1  0.72866700  0.04710900  0.26976900  1
  F  F43  1  0.89650600  0.20746800  0.20666100  1
  F  F44  1  0.17138500  0.11841100  0.15958800  1
  F  F45  1  0.81467500  0.73972500  0.61042900  1
  F  F46  1  0.54293400  0.39371000  0.11169800  1
  F  F47  1  0.86716700  0.47681000  0.66652300  1
  F  F48  1  0.04419700  0.59985600  0.05434600  1
  F  F49  1  0.62989400  0.77857600  0.80491100  1
  F  F50  1  0.45520700  0.37662500  0.90025700  1
  F  F51  1  0.45706600  0.60629000  0.88830200  1
  F  F52  1  0.72387600  0.19346700  0.08724000  1
  F  F53  1  0.32739200  0.63408100  0.72155400  1
  F  F54  1  0.08524800  0.84905600  0.40776100  1
  F  F55  1  0.08539100  0.40196900  0.18159000  1
  F  F56  1  0.04384100  0.87560500  0.98122800  1
  F  F57  1  0.53393100  0.22721900  0.67982700  1
  F  F58  1  0.49139600  0.97639800  0.82147400  1
  F  F59  1  0.50860400  0.02360200  0.17852600  1
  F  F60  1  0.33047700  0.82281700  0.50066800  1
  F  F61  1  0.46645100  0.06510800  0.58090300  1
  F  F62  1  0.96419300  0.98295400  0.20236400  1
  F  F63  1  0.27612400  0.80653300  0.91276000  1
  F  F64  1  0.01770600  0.10625300  0.39802800  1
  F  F65  1  0.10349400  0.79253200  0.79333900  1
  F  F66  1  0.54479300  0.62337500  0.09974300  1
  F  F67  1  0.31323500  0.92036300  0.14422600  1
  F  F68  1  0.47677200  0.21052200  0.39533100  1
  F  F69  1  0.27133300  0.95289100  0.73023100  1
  F  F70  1  0.74487800  0.44346000  0.86298300  1
  F  F71  1  0.52322800  0.78947800  0.60466900  1
  F  F72  1  0.67260800  0.36591900  0.27844600  1
  F  F73  1  0.46606900  0.77278100  0.32017300  1
  F  F74  1  0.05504000  0.67807800  0.57156700  1
  F  F75  1  0.79758500  0.73595100  0.04180800  1
  F  F76  1  0.91460900  0.59803100  0.81841000  1
  F  F77  1  0.95580300  0.40014400  0.94565400  1
  F  F78  1  0.53354900  0.93489200  0.41909700  1
  F  F79  1  0.46091000  0.62006500  0.49991200  1
  F  F80  1  0.80587800  0.78551400  0.23473300  1
  F  F81  1  0.24374400  0.51061400  0.90750500  1
  F  F82  1  0.66952300  0.17718300  0.49933200  1
  F  F83  1  0.45463100  0.49198100  0.28320900  1
  F  F84  1  0.94496000  0.32192200  0.42843300  1
  F  F85  1  0.13283300  0.52319000  0.33347700  1
  F  F86  1  0.37010600  0.22142400  0.19508900  1
  F  F87  1  0.68676500  0.07963700  0.85577400  1
  F  F88  1  0.15705500  0.08640100  0.55334300  1
  F  F89  1  0.90755500  0.27851600  0.79619500  1
  F  F90  1  0.19412200  0.21448600  0.76526700  1
  F  F91  1  0.03580700  0.01704600  0.79763600  1
  F  F92  1  0.84294500  0.91359900  0.44665700  1
  F  F93  1  0.98229400  0.89374700  0.60197200  1
