# generated using pymatgen
data_CaSiO3
_symmetry_space_group_name_H-M   'P 1'
_cell_length_a   9.57996000
_cell_length_b   8.36318200
_cell_length_c   14.75996888
_cell_angle_alpha   78.28884122
_cell_angle_beta   90.00000000
_cell_angle_gamma   90.00000000
_symmetry_Int_Tables_number   1
_chemical_formula_structural   CaSiO3
_chemical_formula_sum   'Ca12 Si12 O36'
_cell_volume   1157.93633647
_cell_formula_units_Z   12
loop_
 _symmetry_equiv_pos_site_id
 _symmetry_equiv_pos_as_xyz
  1  'x, y, z'
loop_
 _atom_site_type_symbol
 _atom_site_label
 _atom_site_symmetry_multiplicity
 _atom_site_fract_x
 _atom_site_fract_y
 _atom_site_fract_z
 _atom_site_occupancy
  Ca  Ca0  1  0.88457100  0.96444000  0.19077900  1
  Ca  Ca1  1  0.37703600  0.35476000  0.99636700  1
  Ca  Ca2  1  0.37502000  0.70638300  0.50096800  1
  Ca  Ca3  1  0.87703600  0.64524000  0.50363300  1
  Ca  Ca4  1  0.38457100  0.03556000  0.30922100  1
  Ca  Ca5  1  0.61542900  0.96444000  0.69077900  1
  Ca  Ca6  1  0.11542900  0.03556000  0.80922100  1
  Ca  Ca7  1  0.87502000  0.29361700  0.99903200  1
  Ca  Ca8  1  0.12296400  0.35476000  0.49636700  1
  Ca  Ca9  1  0.62498000  0.29361700  0.49903200  1
  Ca  Ca10  1  0.62296400  0.64524000  0.00363300  1
  Ca  Ca11  1  0.12498000  0.70638300  0.00096800  1
  Si  Si12  1  0.63673500  0.67612700  0.63883800  1
  Si  Si13  1  0.13448800  0.50013300  0.65910900  1
  Si  Si14  1  0.36551200  0.50013300  0.15910900  1
  Si  Si15  1  0.86326500  0.67612700  0.13883800  1
  Si  Si16  1  0.12861400  0.69848800  0.81158200  1
  Si  Si17  1  0.86551200  0.49986700  0.34089100  1
  Si  Si18  1  0.63448800  0.49986700  0.84089100  1
  Si  Si19  1  0.37138600  0.69848800  0.31158200  1
  Si  Si20  1  0.87138600  0.30151200  0.18841800  1
  Si  Si21  1  0.13673500  0.32387300  0.86116200  1
  Si  Si22  1  0.36326500  0.32387300  0.36116200  1
  Si  Si23  1  0.62861400  0.30151200  0.68841800  1
  O  O24  1  0.12838900  0.51023700  0.88497100  1
  O  O25  1  0.00695600  0.20128500  0.16330800  1
  O  O26  1  0.23517000  0.21211900  0.40838900  1
  O  O27  1  0.62838900  0.48976300  0.61502900  1
  O  O28  1  0.24641300  0.80636900  0.34537800  1
  O  O29  1  0.26483000  0.21211900  0.90838900  1
  O  O30  1  0.00737200  0.52741300  0.39480600  1
  O  O31  1  0.49262800  0.52741300  0.89480600  1
  O  O32  1  0.99612400  0.21532100  0.88917800  1
  O  O33  1  0.73517000  0.78788100  0.09161100  1
  O  O34  1  0.50737200  0.47258700  0.10519400  1
  O  O35  1  0.75358700  0.19363100  0.65462200  1
  O  O36  1  0.65469400  0.65944300  0.75278500  1
  O  O37  1  0.13750700  0.66468100  0.70572500  1
  O  O38  1  0.37161100  0.51023700  0.38497100  1
  O  O39  1  0.34530600  0.34055700  0.24721500  1
  O  O40  1  0.25663100  0.50512100  0.58190800  1
  O  O41  1  0.76483000  0.78788100  0.59161100  1
  O  O42  1  0.99304400  0.79871500  0.83669200  1
  O  O43  1  0.86249300  0.33531900  0.29427500  1
  O  O44  1  0.74336900  0.49487900  0.41809200  1
  O  O45  1  0.75663100  0.49487900  0.91809200  1
  O  O46  1  0.87161100  0.48976300  0.11502900  1
  O  O47  1  0.24336900  0.50512100  0.08190800  1
  O  O48  1  0.99262800  0.47258700  0.60519400  1
  O  O49  1  0.25358700  0.80636900  0.84537800  1
  O  O50  1  0.74641300  0.19363100  0.15462200  1
  O  O51  1  0.50387600  0.21532100  0.38917800  1
  O  O52  1  0.50695600  0.79871500  0.33669200  1
  O  O53  1  0.84530600  0.65944300  0.25278500  1
  O  O54  1  0.15469400  0.34055700  0.74721500  1
  O  O55  1  0.00387600  0.78467900  0.11082200  1
  O  O56  1  0.36249300  0.66468100  0.20572500  1
  O  O57  1  0.49612400  0.78467900  0.61082200  1
  O  O58  1  0.49304400  0.20128500  0.66330800  1
  O  O59  1  0.63750700  0.33531900  0.79427500  1
