# generated using pymatgen
data_As3Pb5ClO9
_symmetry_space_group_name_H-M   'P 1'
_cell_length_a   10.79276107
_cell_length_b   10.79276107
_cell_length_c   7.36859200
_cell_angle_alpha   90.00000000
_cell_angle_beta   90.00000000
_cell_angle_gamma   119.99999432
_symmetry_Int_Tables_number   1
_chemical_formula_structural   As3Pb5ClO9
_chemical_formula_sum   'As6 Pb10 Cl2 O18'
_cell_volume   743.32765825
_cell_formula_units_Z   2
loop_
 _symmetry_equiv_pos_site_id
 _symmetry_equiv_pos_as_xyz
  1  'x, y, z'
loop_
 _atom_site_type_symbol
 _atom_site_label
 _atom_site_symmetry_multiplicity
 _atom_site_fract_x
 _atom_site_fract_y
 _atom_site_fract_z
 _atom_site_occupancy
  As  As0  1  0.69611100  0.64977700  0.26463600  1
  As  As1  1  0.35022300  0.04633400  0.26463600  1
  As  As2  1  0.95366600  0.30388900  0.26463600  1
  As  As3  1  0.30388900  0.35022300  0.76463600  1
  As  As4  1  0.04633400  0.69611100  0.76463600  1
  As  As5  1  0.64977700  0.95366600  0.76463600  1
  Pb  Pb6  1  0.31234600  0.37469500  0.25049200  1
  Pb  Pb7  1  0.93765100  0.31234600  0.75049200  1
  Pb  Pb8  1  0.37469500  0.06234900  0.75049200  1
  Pb  Pb9  1  0.62530500  0.93765100  0.25049200  1
  Pb  Pb10  1  0.33333300  0.66666700  0.64019700  1
  Pb  Pb11  1  0.06234900  0.68765400  0.25049200  1
  Pb  Pb12  1  0.66666700  0.33333300  0.14019700  1
  Pb  Pb13  1  0.68765400  0.62530500  0.75049200  1
  Pb  Pb14  1  0.00000000  0.00000000  0.02007600  1
  Pb  Pb15  1  0.00000000  0.00000000  0.52007600  1
  Cl  Cl16  1  0.66666700  0.33333300  0.74442600  1
  Cl  Cl17  1  0.33333300  0.66666700  0.24442600  1
  O  O18  1  0.80747400  0.84240700  0.22237600  1
  O  O19  1  0.84240700  0.03493300  0.72237600  1
  O  O20  1  0.56176500  0.93137600  0.54990000  1
  O  O21  1  0.63038900  0.56176500  0.04990000  1
  O  O22  1  0.93137600  0.36961100  0.04990000  1
  O  O23  1  0.17916800  0.41164000  0.79769700  1
  O  O24  1  0.36961100  0.43823500  0.54990000  1
  O  O25  1  0.76752800  0.17916800  0.29769700  1
  O  O26  1  0.58836000  0.76752800  0.79769700  1
  O  O27  1  0.03493300  0.19252600  0.22237600  1
  O  O28  1  0.15759300  0.96506700  0.22237600  1
  O  O29  1  0.23247200  0.82083200  0.79769700  1
  O  O30  1  0.41164000  0.23247200  0.29769700  1
  O  O31  1  0.43823500  0.06862400  0.04990000  1
  O  O32  1  0.19252600  0.15759300  0.72237600  1
  O  O33  1  0.06862400  0.63038900  0.54990000  1
  O  O34  1  0.82083200  0.58836000  0.29769700  1
  O  O35  1  0.96506700  0.80747400  0.72237600  1
