# generated using pymatgen
data_Ce9(Ni13P6)2
_symmetry_space_group_name_H-M   'P 1'
_cell_length_a   14.36983598
_cell_length_b   14.36983598
_cell_length_c   3.84758800
_cell_angle_alpha   90.00000000
_cell_angle_beta   90.00000000
_cell_angle_gamma   119.99999990
_symmetry_Int_Tables_number   1
_chemical_formula_structural   Ce9(Ni13P6)2
_chemical_formula_sum   'Ce9 Ni26 P12'
_cell_volume   688.05446223
_cell_formula_units_Z   1
loop_
 _symmetry_equiv_pos_site_id
 _symmetry_equiv_pos_as_xyz
  1  'x, y, z'
loop_
 _atom_site_type_symbol
 _atom_site_label
 _atom_site_symmetry_multiplicity
 _atom_site_fract_x
 _atom_site_fract_y
 _atom_site_fract_z
 _atom_site_occupancy
  Ce  Ce0  1  0.15012700  0.57506300  0.50000000  1
  Ce  Ce1  1  0.09243000  0.90757000  0.00000000  1
  Ce  Ce2  1  0.81514000  0.90757000  0.00000000  1
  Ce  Ce3  1  0.80884700  0.61769300  0.00000000  1
  Ce  Ce4  1  0.38230700  0.19115300  0.00000000  1
  Ce  Ce5  1  0.80884700  0.19115300  0.00000000  1
  Ce  Ce6  1  0.42493700  0.84987300  0.50000000  1
  Ce  Ce7  1  0.09243000  0.18486000  0.00000000  1
  Ce  Ce8  1  0.42493700  0.57506300  0.50000000  1
  Ni  Ni9  1  0.62047200  0.67192700  0.00000000  1
  Ni  Ni10  1  0.92338100  0.37728400  0.50000000  1
  Ni  Ni11  1  0.72334000  0.44667900  0.50000000  1
  Ni  Ni12  1  0.60232900  0.39767100  0.00000000  1
  Ni  Ni13  1  0.05145500  0.67192700  0.00000000  1
  Ni  Ni14  1  0.32807300  0.94854500  0.00000000  1
  Ni  Ni15  1  0.18942100  0.37884100  0.50000000  1
  Ni  Ni16  1  0.62271600  0.07661900  0.50000000  1
  Ni  Ni17  1  0.79534200  0.39767100  0.00000000  1
  Ni  Ni18  1  0.62271600  0.54609700  0.50000000  1
  Ni  Ni19  1  0.62115900  0.81057900  0.50000000  1
  Ni  Ni20  1  0.72334000  0.27666000  0.50000000  1
  Ni  Ni21  1  0.92338100  0.54609700  0.50000000  1
  Ni  Ni22  1  0.19277000  0.09638500  0.50000000  1
  Ni  Ni23  1  0.18942100  0.81057900  0.50000000  1
  Ni  Ni24  1  0.32807300  0.37952800  0.00000000  1
  Ni  Ni25  1  0.90361500  0.09638500  0.50000000  1
  Ni  Ni26  1  0.45390300  0.07661900  0.50000000  1
  Ni  Ni27  1  0.05145500  0.37952800  0.00000000  1
  Ni  Ni28  1  0.62047200  0.94854500  0.00000000  1
  Ni  Ni29  1  0.60232900  0.20465800  0.00000000  1
  Ni  Ni30  1  0.33333300  0.66666700  0.00000000  1
  Ni  Ni31  1  0.55332100  0.27666000  0.50000000  1
  Ni  Ni32  1  0.45390300  0.37728400  0.50000000  1
  Ni  Ni33  1  0.00000000  0.00000000  0.50000000  1
  Ni  Ni34  1  0.90361500  0.80723000  0.50000000  1
  P  P35  1  0.24061500  0.75938500  0.00000000  1
  P  P36  1  0.51497200  0.48502800  0.00000000  1
  P  P37  1  0.97005600  0.48502800  0.00000000  1
  P  P38  1  0.00255200  0.27717700  0.50000000  1
  P  P39  1  0.24061500  0.48123000  0.00000000  1
  P  P40  1  0.51497200  0.02994400  0.00000000  1
  P  P41  1  0.00255200  0.72537400  0.50000000  1
  P  P42  1  0.27462600  0.99744800  0.50000000  1
  P  P43  1  0.51877000  0.75938500  0.00000000  1
  P  P44  1  0.72282300  0.72537400  0.50000000  1
  P  P45  1  0.72282300  0.99744800  0.50000000  1
  P  P46  1  0.27462600  0.27717700  0.50000000  1
