# generated using pymatgen
data_RuC3Br2O3
_symmetry_space_group_name_H-M   'P 1'
_cell_length_a   6.60668612
_cell_length_b   6.60668612
_cell_length_c   9.56670184
_cell_angle_alpha   76.59644284
_cell_angle_beta   76.59644284
_cell_angle_gamma   69.20835739
_symmetry_Int_Tables_number   1
_chemical_formula_structural   RuC3Br2O3
_chemical_formula_sum   'Ru2 C6 Br4 O6'
_cell_volume   374.57578108
_cell_formula_units_Z   2
loop_
 _symmetry_equiv_pos_site_id
 _symmetry_equiv_pos_as_xyz
  1  'x, y, z'
loop_
 _atom_site_type_symbol
 _atom_site_label
 _atom_site_symmetry_multiplicity
 _atom_site_fract_x
 _atom_site_fract_y
 _atom_site_fract_z
 _atom_site_occupancy
  Ru  Ru0  1  0.93660300  0.93660300  0.21129400  1
  Ru  Ru1  1  0.06339700  0.06339700  0.78870600  1
  C  C2  1  0.90893000  0.27855600  0.64775200  1
  C  C3  1  0.27855600  0.90893000  0.64775200  1
  C  C4  1  0.09107000  0.72144400  0.35224800  1
  C  C5  1  0.23777200  0.23777200  0.79760700  1
  C  C6  1  0.72144400  0.09107000  0.35224800  1
  C  C7  1  0.76222800  0.76222800  0.20239300  1
  Br  Br8  1  0.17103800  0.17103800  0.22553400  1
  Br  Br9  1  0.76274200  0.23725800  0.00000000  1
  Br  Br10  1  0.82896200  0.82896200  0.77446600  1
  Br  Br11  1  0.23725800  0.76274200  0.00000000  1
  O  O12  1  0.34438900  0.34438900  0.79445700  1
  O  O13  1  0.65561100  0.65561100  0.20554300  1
  O  O14  1  0.19126000  0.59018600  0.43459600  1
  O  O15  1  0.59018600  0.19126000  0.43459600  1
  O  O16  1  0.40981400  0.80874000  0.56540400  1
  O  O17  1  0.80874000  0.40981400  0.56540400  1
