# generated using pymatgen
data_BaCeC2O6F
_symmetry_space_group_name_H-M   'P 1'
_cell_length_a   13.49652247
_cell_length_b   13.49652247
_cell_length_c   13.49652193
_cell_angle_alpha   24.07604569
_cell_angle_beta   24.07604569
_cell_angle_gamma   24.07604500
_symmetry_Int_Tables_number   1
_chemical_formula_structural   BaCeC2O6F
_chemical_formula_sum   'Ba2 Ce2 C4 O12 F2'
_cell_volume   359.54037416
_cell_formula_units_Z   2
loop_
 _symmetry_equiv_pos_site_id
 _symmetry_equiv_pos_as_xyz
  1  'x, y, z'
loop_
 _atom_site_type_symbol
 _atom_site_label
 _atom_site_symmetry_multiplicity
 _atom_site_fract_x
 _atom_site_fract_y
 _atom_site_fract_z
 _atom_site_occupancy
  Ba  Ba0  1  0.50000000  0.50000000  0.50000000  1
  Ba  Ba1  1  0.00000000  0.00000000  0.00000000  1
  Ce  Ce2  1  0.75014800  0.75014800  0.75014800  1
  Ce  Ce3  1  0.24985200  0.24985200  0.24985200  1
  C  C4  1  0.39163100  0.39163100  0.39163100  1
  C  C5  1  0.12174200  0.12174200  0.12174200  1
  C  C6  1  0.87825800  0.87825800  0.87825800  1
  C  C7  1  0.60836900  0.60836900  0.60836900  1
  O  O8  1  0.74600300  0.14652200  0.74600300  1
  O  O9  1  0.25399700  0.85347800  0.25399700  1
  O  O10  1  0.12847100  0.52254300  0.52254300  1
  O  O11  1  0.52254300  0.12847100  0.52254300  1
  O  O12  1  0.74600300  0.74600300  0.14652200  1
  O  O13  1  0.87152900  0.47745700  0.47745700  1
  O  O14  1  0.85347800  0.25399700  0.25399700  1
  O  O15  1  0.47745700  0.87152900  0.47745700  1
  O  O16  1  0.25399700  0.25399700  0.85347800  1
  O  O17  1  0.14652200  0.74600300  0.74600300  1
  O  O18  1  0.52254300  0.52254300  0.12847100  1
  O  O19  1  0.47745700  0.47745700  0.87152900  1
  F  F20  1  0.31812400  0.31812400  0.31812400  1
  F  F21  1  0.68187600  0.68187600  0.68187600  1
