# generated using pymatgen
data_BaMg(CO3)2
_symmetry_space_group_name_H-M   'P 1'
_cell_length_a   6.36716362
_cell_length_b   6.36716362
_cell_length_c   6.36716285
_cell_angle_alpha   47.12997841
_cell_angle_beta   47.12997841
_cell_angle_gamma   47.12997745
_symmetry_Int_Tables_number   1
_chemical_formula_structural   BaMg(CO3)2
_chemical_formula_sum   'Ba1 Mg1 C2 O6'
_cell_volume   126.77913208
_cell_formula_units_Z   1
loop_
 _symmetry_equiv_pos_site_id
 _symmetry_equiv_pos_as_xyz
  1  'x, y, z'
loop_
 _atom_site_type_symbol
 _atom_site_label
 _atom_site_symmetry_multiplicity
 _atom_site_fract_x
 _atom_site_fract_y
 _atom_site_fract_z
 _atom_site_occupancy
  Ba  Ba0  1  0.00000000  0.00000000  0.00000000  1
  Mg  Mg1  1  0.50000000  0.50000000  0.50000000  1
  C  C2  1  0.76000300  0.76000300  0.76000300  1
  C  C3  1  0.23999700  0.23999700  0.23999700  1
  O  O4  1  0.61081900  0.05157200  0.61081900  1
  O  O5  1  0.05157200  0.61081900  0.61081900  1
  O  O6  1  0.38918100  0.38918100  0.94842800  1
  O  O7  1  0.38918100  0.94842800  0.38918100  1
  O  O8  1  0.94842800  0.38918100  0.38918100  1
  O  O9  1  0.61081900  0.61081900  0.05157200  1
