# generated using pymatgen
data_AgC3N3O
_symmetry_space_group_name_H-M   'P 1'
_cell_length_a   8.04371800
_cell_length_b   10.41635900
_cell_length_c   11.69432200
_cell_angle_alpha   90.00000000
_cell_angle_beta   90.00000000
_cell_angle_gamma   90.00000000
_symmetry_Int_Tables_number   1
_chemical_formula_structural   AgC3N3O
_chemical_formula_sum   'Ag8 C24 N24 O8'
_cell_volume   979.82343793
_cell_formula_units_Z   8
loop_
 _symmetry_equiv_pos_site_id
 _symmetry_equiv_pos_as_xyz
  1  'x, y, z'
loop_
 _atom_site_type_symbol
 _atom_site_label
 _atom_site_symmetry_multiplicity
 _atom_site_fract_x
 _atom_site_fract_y
 _atom_site_fract_z
 _atom_site_occupancy
  Ag  Ag0  1  0.21383000  0.07851500  0.00489500  1
  Ag  Ag1  1  0.71383000  0.42148500  0.00489500  1
  Ag  Ag2  1  0.78617000  0.92148500  0.99510500  1
  Ag  Ag3  1  0.28617000  0.57851500  0.99510500  1
  Ag  Ag4  1  0.21383000  0.57851500  0.49510500  1
  Ag  Ag5  1  0.28617000  0.07851500  0.50489500  1
  Ag  Ag6  1  0.78617000  0.42148500  0.50489500  1
  Ag  Ag7  1  0.71383000  0.92148500  0.49510500  1
  C  C8  1  0.26103600  0.80310400  0.20278900  1
  C  C9  1  0.43011700  0.89502300  0.84363300  1
  C  C10  1  0.73375600  0.12720200  0.19499400  1
  C  C11  1  0.76103600  0.19689600  0.29721100  1
  C  C12  1  0.73896400  0.69689600  0.70278900  1
  C  C13  1  0.43011700  0.39502300  0.65636700  1
  C  C14  1  0.06988300  0.89502300  0.34363300  1
  C  C15  1  0.93011700  0.60497700  0.84363300  1
  C  C16  1  0.76624400  0.12720200  0.69499400  1
  C  C17  1  0.23896400  0.30310400  0.79721100  1
  C  C18  1  0.23375600  0.37279800  0.19499400  1
  C  C19  1  0.73896400  0.19689600  0.79721100  1
  C  C20  1  0.26624400  0.37279800  0.69499400  1
  C  C21  1  0.56988300  0.60497700  0.34363300  1
  C  C22  1  0.23896400  0.80310400  0.70278900  1
  C  C23  1  0.76624400  0.62720200  0.80500600  1
  C  C24  1  0.06988300  0.39502300  0.15636700  1
  C  C25  1  0.76103600  0.69689600  0.20278900  1
  C  C26  1  0.73375600  0.62720200  0.30500600  1
  C  C27  1  0.56988300  0.10497700  0.15636700  1
  C  C28  1  0.23375600  0.87279800  0.30500600  1
  C  C29  1  0.93011700  0.10497700  0.65636700  1
  C  C30  1  0.26103600  0.30310400  0.29721100  1
  C  C31  1  0.26624400  0.87279800  0.80500600  1
  N  N32  1  0.56296900  0.91609100  0.87914000  1
  N  N33  1  0.64222500  0.07854100  0.62884100  1
  N  N34  1  0.35777500  0.42145900  0.12884100  1
  N  N35  1  0.21234400  0.24794600  0.88252700  1
  N  N36  1  0.35777500  0.92145900  0.37115900  1
  N  N37  1  0.71234400  0.75205400  0.61747300  1
  N  N38  1  0.06296900  0.58390900  0.87914000  1
  N  N39  1  0.14222500  0.42145900  0.62884100  1
  N  N40  1  0.78765600  0.25205400  0.38252700  1
  N  N41  1  0.71234400  0.25205400  0.88252700  1
  N  N42  1  0.06296900  0.08390900  0.62086000  1
  N  N43  1  0.85777500  0.07854100  0.12884100  1
  N  N44  1  0.28765600  0.74794600  0.11747300  1
  N  N45  1  0.93703100  0.91609100  0.37914000  1
  N  N46  1  0.78765600  0.75205400  0.11747300  1
  N  N47  1  0.43703100  0.58390900  0.37914000  1
  N  N48  1  0.14222500  0.92145900  0.87115900  1
  N  N49  1  0.56296900  0.41609100  0.62086000  1
  N  N50  1  0.28765600  0.24794600  0.38252700  1
  N  N51  1  0.21234400  0.74794600  0.61747300  1
  N  N52  1  0.85777500  0.57854100  0.37115900  1
  N  N53  1  0.64222500  0.57854100  0.87115900  1
  N  N54  1  0.93703100  0.41609100  0.12086000  1
  N  N55  1  0.43703100  0.08390900  0.12086000  1
  O  O56  1  0.50753900  0.89793400  0.34211700  1
  O  O57  1  0.00753900  0.10206600  0.15788300  1
  O  O58  1  0.00753900  0.60206600  0.34211700  1
  O  O59  1  0.49246100  0.60206600  0.84211700  1
  O  O60  1  0.99246100  0.39793400  0.65788300  1
  O  O61  1  0.99246100  0.89793400  0.84211700  1
  O  O62  1  0.50753900  0.39793400  0.15788300  1
  O  O63  1  0.49246100  0.10206600  0.65788300  1
