# generated using pymatgen
data_NbTe4
_symmetry_space_group_name_H-M   'P 1'
_cell_length_a   9.34080300
_cell_length_b   9.34080300
_cell_length_c   20.98185200
_cell_angle_alpha   90.00000000
_cell_angle_beta   90.00000000
_cell_angle_gamma   90.00000000
_symmetry_Int_Tables_number   1
_chemical_formula_structural   NbTe4
_chemical_formula_sum   'Nb12 Te48'
_cell_volume   1830.67919048
_cell_formula_units_Z   12
loop_
 _symmetry_equiv_pos_site_id
 _symmetry_equiv_pos_as_xyz
  1  'x, y, z'
loop_
 _atom_site_type_symbol
 _atom_site_label
 _atom_site_symmetry_multiplicity
 _atom_site_fract_x
 _atom_site_fract_y
 _atom_site_fract_z
 _atom_site_occupancy
  Nb  Nb0  1  0.50000000  0.00000000  0.43092200  1
  Nb  Nb1  1  0.00000000  0.50000000  0.76206300  1
  Nb  Nb2  1  0.50000000  0.00000000  0.73793700  1
  Nb  Nb3  1  0.00000000  0.50000000  0.41499500  1
  Nb  Nb4  1  0.00000000  0.50000000  0.56907800  1
  Nb  Nb5  1  0.00000000  0.50000000  0.91499500  1
  Nb  Nb6  1  0.50000000  0.00000000  0.23793700  1
  Nb  Nb7  1  0.00000000  0.50000000  0.26206300  1
  Nb  Nb8  1  0.50000000  0.00000000  0.93092200  1
  Nb  Nb9  1  0.50000000  0.00000000  0.58500500  1
  Nb  Nb10  1  0.00000000  0.50000000  0.06907800  1
  Nb  Nb11  1  0.50000000  0.00000000  0.08500500  1
  Te  Te12  1  0.26200600  0.09027000  0.00304400  1
  Te  Te13  1  0.73799400  0.90973000  0.00304400  1
  Te  Te14  1  0.71544300  0.09554700  0.83439800  1
  Te  Te15  1  0.40973000  0.23799400  0.50304400  1
  Te  Te16  1  0.59554700  0.21544300  0.33439800  1
  Te  Te17  1  0.59554700  0.78455700  0.83439800  1
  Te  Te18  1  0.23799400  0.40973000  0.99695600  1
  Te  Te19  1  0.40973000  0.76200600  0.00304400  1
  Te  Te20  1  0.28455700  0.90445300  0.83439800  1
  Te  Te21  1  0.40445300  0.21544300  0.83439800  1
  Te  Te22  1  0.24146800  0.41711300  0.33491300  1
  Te  Te23  1  0.74146800  0.08288700  0.16508700  1
  Te  Te24  1  0.78455700  0.40445300  0.16560200  1
  Te  Te25  1  0.73799400  0.09027000  0.50304400  1
  Te  Te26  1  0.76200600  0.59027000  0.99695600  1
  Te  Te27  1  0.91711300  0.74146800  0.83491300  1
  Te  Te28  1  0.71544300  0.90445300  0.33439800  1
  Te  Te29  1  0.76200600  0.40973000  0.49695600  1
  Te  Te30  1  0.78455700  0.59554700  0.66560200  1
  Te  Te31  1  0.59027000  0.23799400  0.00304400  1
  Te  Te32  1  0.28455700  0.09554700  0.33439800  1
  Te  Te33  1  0.41711300  0.24146800  0.16508700  1
  Te  Te34  1  0.09554700  0.28455700  0.16560200  1
  Te  Te35  1  0.09027000  0.73799400  0.99695600  1
  Te  Te36  1  0.23799400  0.59027000  0.49695600  1
  Te  Te37  1  0.75853200  0.58288700  0.33491300  1
  Te  Te38  1  0.41711300  0.75853200  0.66508700  1
  Te  Te39  1  0.90973000  0.73799400  0.49695600  1
  Te  Te40  1  0.74146800  0.91711300  0.66508700  1
  Te  Te41  1  0.75853200  0.41711300  0.83491300  1
  Te  Te42  1  0.08288700  0.25853200  0.83491300  1
  Te  Te43  1  0.59027000  0.76200600  0.50304400  1
  Te  Te44  1  0.26200600  0.90973000  0.50304400  1
  Te  Te45  1  0.58288700  0.24146800  0.66508700  1
  Te  Te46  1  0.90973000  0.26200600  0.99695600  1
  Te  Te47  1  0.09027000  0.26200600  0.49695600  1
  Te  Te48  1  0.21544300  0.59554700  0.16560200  1
  Te  Te49  1  0.25853200  0.91711300  0.16508700  1
  Te  Te50  1  0.40445300  0.78455700  0.33439800  1
  Te  Te51  1  0.08288700  0.74146800  0.33491300  1
  Te  Te52  1  0.90445300  0.71544300  0.16560200  1
  Te  Te53  1  0.58288700  0.75853200  0.16508700  1
  Te  Te54  1  0.21544300  0.40445300  0.66560200  1
  Te  Te55  1  0.24146800  0.58288700  0.83491300  1
  Te  Te56  1  0.09554700  0.71544300  0.66560200  1
  Te  Te57  1  0.90445300  0.28455700  0.66560200  1
  Te  Te58  1  0.91711300  0.25853200  0.33491300  1
  Te  Te59  1  0.25853200  0.08288700  0.66508700  1
