# generated using pymatgen
data_Fe7(P2O7)4
_symmetry_space_group_name_H-M   'P 1'
_cell_length_a   6.53016709
_cell_length_b   6.53016709
_cell_length_c   23.95393400
_cell_angle_alpha   90.00000000
_cell_angle_beta   90.00000000
_cell_angle_gamma   97.93530071
_symmetry_Int_Tables_number   1
_chemical_formula_structural   Fe7(P2O7)4
_chemical_formula_sum   'Fe14 P16 O56'
_cell_volume   1011.68859144
_cell_formula_units_Z   2
loop_
 _symmetry_equiv_pos_site_id
 _symmetry_equiv_pos_as_xyz
  1  'x, y, z'
loop_
 _atom_site_type_symbol
 _atom_site_label
 _atom_site_symmetry_multiplicity
 _atom_site_fract_x
 _atom_site_fract_y
 _atom_site_fract_z
 _atom_site_occupancy
  Fe  Fe0  1  0.30757000  0.30757000  0.00000000  1
  Fe  Fe1  1  0.07125000  0.07125000  0.50000000  1
  Fe  Fe2  1  0.69243000  0.69243000  0.50000000  1
  Fe  Fe3  1  0.96402400  0.68032100  0.13761000  1
  Fe  Fe4  1  0.68032100  0.96402400  0.86239000  1
  Fe  Fe5  1  0.28540400  0.58625200  0.87621100  1
  Fe  Fe6  1  0.31967900  0.03597600  0.36239000  1
  Fe  Fe7  1  0.92875000  0.92875000  0.00000000  1
  Fe  Fe8  1  0.71459600  0.41374800  0.37621100  1
  Fe  Fe9  1  0.03597600  0.31967900  0.63761000  1
  Fe  Fe10  1  0.72079900  0.27920100  0.75000000  1
  Fe  Fe11  1  0.27920100  0.72079900  0.25000000  1
  Fe  Fe12  1  0.41374800  0.71459600  0.62378900  1
  Fe  Fe13  1  0.58625200  0.28540400  0.12378900  1
  P  P14  1  0.47612800  0.75980900  0.11989200  1
  P  P15  1  0.07384200  0.17837000  0.12413300  1
  P  P16  1  0.75980900  0.47612800  0.88010800  1
  P  P17  1  0.18960400  0.59509000  0.50404800  1
  P  P18  1  0.70178000  0.77647200  0.73300800  1
  P  P19  1  0.22352800  0.29822000  0.76699200  1
  P  P20  1  0.59509000  0.18960400  0.49595200  1
  P  P21  1  0.52387200  0.24019100  0.61989200  1
  P  P22  1  0.29822000  0.22352800  0.23300800  1
  P  P23  1  0.81039600  0.40491000  0.00404800  1
  P  P24  1  0.82163000  0.92615800  0.37586700  1
  P  P25  1  0.24019100  0.52387200  0.38010800  1
  P  P26  1  0.17837000  0.07384200  0.87586700  1
  P  P27  1  0.92615800  0.82163000  0.62413300  1
  P  P28  1  0.77647200  0.70178000  0.26699200  1
  P  P29  1  0.40491000  0.81039600  0.99595200  1
  O  O30  1  0.98392800  0.57247400  0.87966500  1
  O  O31  1  0.72103500  0.72453000  0.40472200  1
  O  O32  1  0.29317300  0.71637200  0.34420000  1
  O  O33  1  0.95631700  0.70267900  0.22539000  1
  O  O34  1  0.36415900  0.39086200  0.62907500  1
  O  O35  1  0.77952200  0.59178700  0.75818900  1
  O  O36  1  0.22047800  0.40821300  0.25818900  1
  O  O37  1  0.01607200  0.42752600  0.37966500  1
  O  O38  1  0.04368300  0.29732100  0.72539000  1
  O  O39  1  0.63584100  0.60913800  0.12907500  1
  O  O40  1  0.50299300  0.27016000  0.20095500  1
  O  O41  1  0.29378700  0.60432500  0.44329700  1
  O  O42  1  0.09896400  0.37900500  0.52126700  1
  O  O43  1  0.40821300  0.22047800  0.74181100  1
  O  O44  1  0.74258900  0.02560000  0.49650800  1
  O  O45  1  0.70682700  0.28362800  0.84420000  1
  O  O46  1  0.08763600  0.66782500  0.62731700  1
  O  O47  1  0.27896500  0.27547000  0.90472200  1
  O  O48  1  0.27547000  0.27896500  0.09527800  1
  O  O49  1  0.39086200  0.36415900  0.37092500  1
  O  O50  1  0.38461700  0.68101000  0.53838200  1
  O  O51  1  0.01039100  0.03034400  0.59775200  1
  O  O52  1  0.59178700  0.77952200  0.24181100  1
  O  O53  1  0.71637200  0.29317300  0.65580000  1
  O  O54  1  0.37900500  0.09896400  0.47873300  1
  O  O55  1  0.96965600  0.98960900  0.90224800  1
  O  O56  1  0.72984000  0.49700700  0.29904500  1
  O  O57  1  0.03034400  0.01039100  0.40224800  1
  O  O58  1  0.31899000  0.61538300  0.96161800  1
  O  O59  1  0.72453000  0.72103500  0.59527800  1
  O  O60  1  0.60913800  0.63584100  0.87092500  1
  O  O61  1  0.39567500  0.70621300  0.05670300  1
  O  O62  1  0.12390100  0.12828700  0.81326400  1
  O  O63  1  0.98960900  0.96965600  0.09775200  1
  O  O64  1  0.68101000  0.38461700  0.46161800  1
  O  O65  1  0.25741100  0.97440000  0.99650800  1
  O  O66  1  0.12828700  0.12390100  0.18673600  1
  O  O67  1  0.49700700  0.72984000  0.70095500  1
  O  O68  1  0.57247400  0.98392800  0.12033500  1
  O  O69  1  0.90103600  0.62099500  0.02126700  1
  O  O70  1  0.62099500  0.90103600  0.97873300  1
  O  O71  1  0.28362800  0.70682700  0.15580000  1
  O  O72  1  0.70621300  0.39567500  0.94329700  1
  O  O73  1  0.60432500  0.29378700  0.55670300  1
  O  O74  1  0.97440000  0.25741100  0.00349200  1
  O  O75  1  0.61538300  0.31899000  0.03838200  1
  O  O76  1  0.02560000  0.74258900  0.50349200  1
  O  O77  1  0.29732100  0.04368300  0.27461000  1
  O  O78  1  0.91236400  0.33217500  0.12731700  1
  O  O79  1  0.66782500  0.08763600  0.37268300  1
  O  O80  1  0.87609900  0.87171300  0.31326400  1
  O  O81  1  0.42752600  0.01607200  0.62033500  1
  O  O82  1  0.27016000  0.50299300  0.79904500  1
  O  O83  1  0.70267900  0.95631700  0.77461000  1
  O  O84  1  0.87171300  0.87609900  0.68673600  1
  O  O85  1  0.33217500  0.91236400  0.87268300  1
