# generated using pymatgen
data_Ag9(BiO3)2
_symmetry_space_group_name_H-M   'P 1'
_cell_length_a   8.97927788
_cell_length_b   8.97927788
_cell_length_c   25.15106500
_cell_angle_alpha   90.00000000
_cell_angle_beta   90.00000000
_cell_angle_gamma   104.33890034
_symmetry_Int_Tables_number   1
_chemical_formula_structural   Ag9(BiO3)2
_chemical_formula_sum   'Ag36 Bi8 O24'
_cell_volume   1964.69330793
_cell_formula_units_Z   4
loop_
 _symmetry_equiv_pos_site_id
 _symmetry_equiv_pos_as_xyz
  1  'x, y, z'
loop_
 _atom_site_type_symbol
 _atom_site_label
 _atom_site_symmetry_multiplicity
 _atom_site_fract_x
 _atom_site_fract_y
 _atom_site_fract_z
 _atom_site_occupancy
  Ag  Ag0  1  0.73415900  0.26584100  0.15451000  1
  Ag  Ag1  1  0.52344500  0.47655500  0.15180200  1
  Ag  Ag2  1  0.37310900  0.37310900  0.50000000  1
  Ag  Ag3  1  0.00000000  0.50000000  0.50000000  1
  Ag  Ag4  1  0.62570800  0.12112600  0.25000000  1
  Ag  Ag5  1  0.63068700  0.87041000  0.34211800  1
  Ag  Ag6  1  0.26584100  0.73415900  0.84549000  1
  Ag  Ag7  1  0.12959000  0.36931300  0.34211800  1
  Ag  Ag8  1  0.52344500  0.47655500  0.34819800  1
  Ag  Ag9  1  0.87041000  0.63068700  0.65788200  1
  Ag  Ag10  1  0.12959000  0.36931300  0.15788200  1
  Ag  Ag11  1  0.62689100  0.62689100  0.50000000  1
  Ag  Ag12  1  0.63499400  0.61506200  0.25000000  1
  Ag  Ag13  1  0.63828300  0.36171700  0.44627000  1
  Ag  Ag14  1  0.47655500  0.52344500  0.65180200  1
  Ag  Ag15  1  0.36171700  0.63828300  0.94627000  1
  Ag  Ag16  1  0.36931300  0.12959000  0.84211800  1
  Ag  Ag17  1  0.73415900  0.26584100  0.34549000  1
  Ag  Ag18  1  0.12112600  0.62570800  0.75000000  1
  Ag  Ag19  1  0.36931300  0.12959000  0.65788200  1
  Ag  Ag20  1  0.36171700  0.63828300  0.55373000  1
  Ag  Ag21  1  0.47655500  0.52344500  0.84819800  1
  Ag  Ag22  1  0.62689100  0.62689100  0.00000000  1
  Ag  Ag23  1  0.36500600  0.38493800  0.75000000  1
  Ag  Ag24  1  0.50000000  0.00000000  0.00000000  1
  Ag  Ag25  1  0.87887400  0.37429200  0.25000000  1
  Ag  Ag26  1  0.63828300  0.36171700  0.05373000  1
  Ag  Ag27  1  0.87041000  0.63068700  0.84211800  1
  Ag  Ag28  1  0.37429200  0.87887400  0.75000000  1
  Ag  Ag29  1  0.61506200  0.63499400  0.75000000  1
  Ag  Ag30  1  0.26584100  0.73415900  0.65451000  1
  Ag  Ag31  1  0.63068700  0.87041000  0.15788200  1
  Ag  Ag32  1  0.38493800  0.36500600  0.25000000  1
  Ag  Ag33  1  0.37310900  0.37310900  0.00000000  1
  Ag  Ag34  1  0.00000000  0.50000000  0.00000000  1
  Ag  Ag35  1  0.50000000  0.00000000  0.50000000  1
  Bi  Bi36  1  0.32156200  0.05965700  0.12057300  1
  Bi  Bi37  1  0.05965700  0.32156200  0.62057300  1
  Bi  Bi38  1  0.94034300  0.67843800  0.12057300  1
  Bi  Bi39  1  0.67843800  0.94034300  0.87942700  1
  Bi  Bi40  1  0.67843800  0.94034300  0.62057300  1
  Bi  Bi41  1  0.05965700  0.32156200  0.87942700  1
  Bi  Bi42  1  0.32156200  0.05965700  0.37942700  1
  Bi  Bi43  1  0.94034300  0.67843800  0.37942700  1
  O  O44  1  0.46761900  0.93983400  0.65742100  1
  O  O45  1  0.57841700  0.84603900  0.95153800  1
  O  O46  1  0.06016600  0.53238100  0.84257900  1
  O  O47  1  0.84603900  0.57841700  0.04846200  1
  O  O48  1  0.57841700  0.84603900  0.54846200  1
  O  O49  1  0.68060200  0.72811200  0.84417800  1
  O  O50  1  0.84603900  0.57841700  0.45153800  1
  O  O51  1  0.42158300  0.15396100  0.04846200  1
  O  O52  1  0.31939800  0.27188800  0.34417800  1
  O  O53  1  0.93983400  0.46761900  0.34257900  1
  O  O54  1  0.31939800  0.27188800  0.15582200  1
  O  O55  1  0.27188800  0.31939800  0.65582200  1
  O  O56  1  0.53238100  0.06016600  0.34257900  1
  O  O57  1  0.27188800  0.31939800  0.84417800  1
  O  O58  1  0.72811200  0.68060200  0.15582200  1
  O  O59  1  0.72811200  0.68060200  0.34417800  1
  O  O60  1  0.42158300  0.15396100  0.45153800  1
  O  O61  1  0.68060200  0.72811200  0.65582200  1
  O  O62  1  0.53238100  0.06016600  0.15742100  1
  O  O63  1  0.15396100  0.42158300  0.54846200  1
  O  O64  1  0.15396100  0.42158300  0.95153800  1
  O  O65  1  0.06016600  0.53238100  0.65742100  1
  O  O66  1  0.93983400  0.46761900  0.15742100  1
  O  O67  1  0.46761900  0.93983400  0.84257900  1
