# generated using pymatgen
data_K(MoO2)4
_symmetry_space_group_name_H-M   'P 1'
_cell_length_a   10.48770100
_cell_length_b   10.48770100
_cell_length_c   6.51987200
_cell_angle_alpha   90.00000000
_cell_angle_beta   90.00000000
_cell_angle_gamma   90.00000000
_symmetry_Int_Tables_number   1
_chemical_formula_structural   K(MoO2)4
_chemical_formula_sum   'K4 Mo16 O32'
_cell_volume   717.13292821
_cell_formula_units_Z   4
loop_
 _symmetry_equiv_pos_site_id
 _symmetry_equiv_pos_as_xyz
  1  'x, y, z'
loop_
 _atom_site_type_symbol
 _atom_site_label
 _atom_site_symmetry_multiplicity
 _atom_site_fract_x
 _atom_site_fract_y
 _atom_site_fract_z
 _atom_site_occupancy
  K  K0  1  0.00000000  0.50000000  0.86303300  1
  K  K1  1  0.50000000  0.00000000  0.13696700  1
  K  K2  1  0.00000000  0.50000000  0.36814900  1
  K  K3  1  0.50000000  0.00000000  0.63185100  1
  Mo  Mo4  1  0.15334000  0.16899600  0.37830600  1
  Mo  Mo5  1  0.84666000  0.83100400  0.37830600  1
  Mo  Mo6  1  0.34666000  0.33100400  0.62169400  1
  Mo  Mo7  1  0.65334000  0.66899600  0.62169400  1
  Mo  Mo8  1  0.35252000  0.33397400  0.12574200  1
  Mo  Mo9  1  0.64748000  0.66602600  0.12574200  1
  Mo  Mo10  1  0.14748000  0.16602600  0.87425800  1
  Mo  Mo11  1  0.85252000  0.83397400  0.87425800  1
  Mo  Mo12  1  0.16899600  0.84666000  0.62169400  1
  Mo  Mo13  1  0.83100400  0.15334000  0.62169400  1
  Mo  Mo14  1  0.33100400  0.65334000  0.37830600  1
  Mo  Mo15  1  0.66899600  0.34666000  0.37830600  1
  Mo  Mo16  1  0.16602600  0.85252000  0.12574200  1
  Mo  Mo17  1  0.83397400  0.14748000  0.12574200  1
  Mo  Mo18  1  0.33397400  0.64748000  0.87425800  1
  Mo  Mo19  1  0.66602600  0.35252000  0.87425800  1
  O  O20  1  0.16312700  0.04319000  0.12822100  1
  O  O21  1  0.83687300  0.95681000  0.12822100  1
  O  O22  1  0.33687300  0.45681000  0.87177900  1
  O  O23  1  0.66312700  0.54319000  0.87177900  1
  O  O24  1  0.33761100  0.45673100  0.36357600  1
  O  O25  1  0.66238900  0.54326900  0.36357600  1
  O  O26  1  0.16238900  0.04326900  0.63642400  1
  O  O27  1  0.83761100  0.95673100  0.63642400  1
  O  O28  1  0.15664700  0.29824600  0.12148200  1
  O  O29  1  0.84335300  0.70175400  0.12148200  1
  O  O30  1  0.34335300  0.20175400  0.87851800  1
  O  O31  1  0.65664700  0.79824600  0.87851800  1
  O  O32  1  0.35401000  0.19793500  0.37408800  1
  O  O33  1  0.64599000  0.80206500  0.37408800  1
  O  O34  1  0.14599000  0.30206500  0.62591200  1
  O  O35  1  0.85401000  0.69793500  0.62591200  1
  O  O36  1  0.54319000  0.33687300  0.12822100  1
  O  O37  1  0.45681000  0.66312700  0.12822100  1
  O  O38  1  0.95681000  0.16312700  0.87177900  1
  O  O39  1  0.04319000  0.83687300  0.87177900  1
  O  O40  1  0.80206500  0.35401000  0.62591200  1
  O  O41  1  0.19793500  0.64599000  0.62591200  1
  O  O42  1  0.69793500  0.14599000  0.37408800  1
  O  O43  1  0.30206500  0.85401000  0.37408800  1
  O  O44  1  0.79824600  0.34335300  0.12148200  1
  O  O45  1  0.20175400  0.65664700  0.12148200  1
  O  O46  1  0.70175400  0.15664700  0.87851800  1
  O  O47  1  0.29824600  0.84335300  0.87851800  1
  O  O48  1  0.54326900  0.33761100  0.63642400  1
  O  O49  1  0.45673100  0.66238900  0.63642400  1
  O  O50  1  0.95673100  0.16238900  0.36357600  1
  O  O51  1  0.04326900  0.83761100  0.36357600  1
