# generated using pymatgen
data_GaBr2
_symmetry_space_group_name_H-M   'P 1'
_cell_length_a   12.98451532
_cell_length_b   12.98451532
_cell_length_c   12.98451570
_cell_angle_alpha   115.04511919
_cell_angle_beta   115.04511919
_cell_angle_gamma   115.04511506
_symmetry_Int_Tables_number   1
_chemical_formula_structural   GaBr2
_chemical_formula_sum   'Ga12 Br24'
_cell_volume   1220.12972910
_cell_formula_units_Z   12
loop_
 _symmetry_equiv_pos_site_id
 _symmetry_equiv_pos_as_xyz
  1  'x, y, z'
loop_
 _atom_site_type_symbol
 _atom_site_label
 _atom_site_symmetry_multiplicity
 _atom_site_fract_x
 _atom_site_fract_y
 _atom_site_fract_z
 _atom_site_occupancy
  Ga  Ga0  1  0.39621900  0.61644100  0.19828500  1
  Ga  Ga1  1  0.36928800  0.19803900  0.58541300  1
  Ga  Ga2  1  0.19828500  0.39621900  0.61644100  1
  Ga  Ga3  1  0.11644100  0.89621900  0.69828500  1
  Ga  Ga4  1  0.61644100  0.19828500  0.39621900  1
  Ga  Ga5  1  0.08541300  0.69803900  0.86928800  1
  Ga  Ga6  1  0.86928800  0.08541300  0.69803900  1
  Ga  Ga7  1  0.69828500  0.11644100  0.89621900  1
  Ga  Ga8  1  0.89621900  0.69828500  0.11644100  1
  Ga  Ga9  1  0.58541300  0.36928800  0.19803900  1
  Ga  Ga10  1  0.19803900  0.58541300  0.36928800  1
  Ga  Ga11  1  0.69803900  0.86928800  0.08541300  1
  Br  Br12  1  0.45635200  0.42159300  0.62121000  1
  Br  Br13  1  0.42159300  0.62121000  0.45635200  1
  Br  Br14  1  0.02734700  0.56601700  0.62937800  1
  Br  Br15  1  0.12937800  0.06601700  0.52734700  1
  Br  Br16  1  0.92159300  0.95635200  0.12121000  1
  Br  Br17  1  0.35662800  0.30191700  0.00038500  1
  Br  Br18  1  0.58158200  0.29465200  0.83355400  1
  Br  Br19  1  0.85662800  0.50038500  0.80191700  1
  Br  Br20  1  0.33355400  0.79465200  0.08158200  1
  Br  Br21  1  0.06601700  0.52734700  0.12937800  1
  Br  Br22  1  0.62121000  0.45635200  0.42159300  1
  Br  Br23  1  0.00038500  0.35662800  0.30191700  1
  Br  Br24  1  0.29465200  0.83355400  0.58158200  1
  Br  Br25  1  0.56601700  0.62937800  0.02734700  1
  Br  Br26  1  0.52734700  0.12937800  0.06601700  1
  Br  Br27  1  0.79465200  0.08158200  0.33355400  1
  Br  Br28  1  0.50038500  0.80191700  0.85662800  1
  Br  Br29  1  0.12121000  0.92159300  0.95635200  1
  Br  Br30  1  0.08158200  0.33355400  0.79465200  1
  Br  Br31  1  0.83355400  0.58158200  0.29465200  1
  Br  Br32  1  0.95635200  0.12121000  0.92159300  1
  Br  Br33  1  0.62937800  0.02734700  0.56601700  1
  Br  Br34  1  0.30191700  0.00038500  0.35662800  1
  Br  Br35  1  0.80191700  0.85662800  0.50038500  1
