# generated using pymatgen
data_MnInFe(CO)9
_symmetry_space_group_name_H-M   'P 1'
_cell_length_a   13.43237179
_cell_length_b   13.44192588
_cell_length_c   17.92098677
_cell_angle_alpha   112.05560858
_cell_angle_beta   111.89544168
_cell_angle_gamma   89.92569883
_symmetry_Int_Tables_number   1
_chemical_formula_structural   MnInFe(CO)9
_chemical_formula_sum   'Mn8 In8 Fe8 C72 O72'
_cell_volume   2746.18837510
_cell_formula_units_Z   8
loop_
 _symmetry_equiv_pos_site_id
 _symmetry_equiv_pos_as_xyz
  1  'x, y, z'
loop_
 _atom_site_type_symbol
 _atom_site_label
 _atom_site_symmetry_multiplicity
 _atom_site_fract_x
 _atom_site_fract_y
 _atom_site_fract_z
 _atom_site_occupancy
  Mn  Mn0  1  0.83907719  0.18452099  0.06298282  1
  Mn  Mn1  1  0.87902410  0.33887606  0.56209580  1
  Mn  Mn2  1  0.12289482  0.66264071  0.43771900  1
  Mn  Mn3  1  0.22446152  0.37840890  0.06199987  1
  Mn  Mn4  1  0.31625044  0.27507161  0.43674758  1
  Mn  Mn5  1  0.16115837  0.81536678  0.93704606  1
  Mn  Mn6  1  0.77366396  0.62067572  0.93648068  1
  Mn  Mn7  1  0.68260949  0.72566894  0.56224646  1
  In  In8  1  0.26563876  0.08292678  0.43832880  1
  In  In9  1  0.73869895  0.91792775  0.56403525  1
  In  In10  1  0.82477810  0.14729587  0.56262782  1
  In  In11  1  0.35330779  0.76239352  0.93702576  1
  In  In12  1  0.64650061  0.23733626  0.06201964  1
  In  In13  1  0.41682749  0.32571887  0.06269537  1
  In  In14  1  0.58306380  0.67271039  0.93803771  1
  In  In15  1  0.17459557  0.85468526  0.43758494  1
  Fe  Fe16  1  0.39850911  0.64743796  0.79761309  1
  Fe  Fe17  1  0.14979067  0.89786046  0.29682297  1
  Fe  Fe18  1  0.28970405  0.03924810  0.57881049  1
  Fe  Fe19  1  0.46263740  0.21127806  0.92137770  1
  Fe  Fe20  1  0.60119882  0.35156842  0.20241237  1
  Fe  Fe21  1  0.71117987  0.96162330  0.42237288  1
  Fe  Fe22  1  0.53812170  0.78884205  0.07759251  1
  Fe  Fe23  1  0.85252800  0.10280225  0.70373413  1
  C  C24  1  0.89527612  0.32268664  0.15103762  1
  C  C25  1  0.71678859  0.13412160  0.68018688  1
  C  C26  1  0.78798220  0.57047419  0.02315879  1
  C  C27  1  0.52615745  0.34335050  0.94574297  1
  C  C28  1  0.74497632  0.67088906  0.84848993  1
  C  C29  1  0.07897075  0.76477049  0.22009339  1
  C  C30  1  0.69267264  0.48673678  0.85094986  1
  C  C31  1  0.26581839  0.63984089  0.71989840  1
  C  C32  1  0.17746549  0.24548658  0.34981754  1
  C  C33  1  0.73451447  0.35834544  0.27866703  1
  C  C34  1  0.92903297  0.26532096  0.47560758  1
  C  C35  1  0.28828329  0.98210276  0.65409777  1
  C  C36  1  0.65041253  0.59365983  0.56028359  1
  C  C37  1  0.63228894  0.80478194  0.64744282  1
  C  C38  1  0.42174304  0.10211988  0.94362941  1
  C  C39  1  0.26249335  0.32605067  0.52300761  1
  C  C40  1  0.09183008  0.53287849  0.43982082  1
  C  C41  1  0.01359451  0.34459011  0.64733598  1
  C  C42  1  0.60193182  0.02397152  0.44535042  1
  C  C43  1  0.07038572  0.73456343  0.52283526  1
  C  C44  1  0.15795753  0.86549698  0.85267368  1
  C  C45  1  0.28577384  0.86649909  0.32180294  1
  C  C46  1  0.54672368  0.71258169  0.47535777  1
  C  C47  1  0.10287762  0.67787837  0.84767259  1
  C  C48  1  0.54577481  0.21619976  0.17916167  1
  C  C49  1  0.26288772  0.69706955  0.52367894  1
  C  C50  1  0.57856643  0.89777369  0.05488634  1
  C  C51  1  0.73901712  0.30391853  0.47691633  1
  C  C52  1  0.36857645  0.53608151  0.82251642  1
  C  C53  1  0.21219417  0.43096728  0.97718440  1
  C  C54  1  0.92192180  0.23646183  0.77943747  1
  C  C55  1  0.81978334  0.75600817  0.65117320  1
  C  C56  1  0.52062877  0.13475276  0.84637578  1
  C  C57  1  0.45301293  0.78308697  0.82076064  1
  C  C58  1  0.71487939  0.01910206  0.34783835  1
  C  C59  1  0.25351829  0.32864007  0.15003571  1
  C  C60  1  0.98790103  0.65732848  0.35302117  1
  C  C61  1  0.82519208  0.76165231  0.02057485  1
  C  C62  1  0.17460363  0.23775934  0.97720039  1
  C  C63  1  0.80581063  0.24104611  0.97857088  1
  C  C64  1  0.96419314  0.04727292  0.67943161  1
  C  C65  1  0.96976416  0.15163485  0.06228879  1
  C  C66  1  0.14316289  0.95575712  0.22083805  1
  C  C67  1  0.91037758  0.46900761  0.56045753  1
  C  C68  1  0.03137961  0.84909600  0.93949868  1
  C  C69  1  0.76689935  0.04780763  0.97701786  1
  C  C70  1  0.17244411  0.60430089  0.34884698  1
  C  C71  1  0.63390481  0.46366941  0.17924308  1
  C  C72  1  0.84223497  0.13492014  0.14763965  1
  C  C73  1  0.33022743  0.21443219  0.84761619  1
  C  C74  1  0.86043294  0.04676647  0.78111426  1
  C  C75  1  0.39858603  0.97541205  0.55603389  1
  C  C76  1  0.73899511  0.67305828  0.47773804  1
  C  C77  1  0.84276131  0.92137921  0.44658286  1
  C  C78  1  0.47549488  0.65756806  0.05584287  1
  C  C79  1  0.15710958  0.07762198  0.55606123  1
  C  C80  1  0.34791949  0.40646994  0.43730633  1
  C  C81  1  0.09254592  0.40976455  0.05975171  1
  C  C82  1  0.54447261  0.42126508  0.27929636  1
  C  C83  1  0.82847722  0.39633599  0.65006782  1
  C  C84  1  0.36422146  0.19384673  0.35055172  1
  C  C85  1  0.48175709  0.86679171  0.15311262  1
  C  C86  1  0.90482121  0.58850836  0.93754615  1
  C  C87  1  0.03765311  0.95383666  0.31990221  1
  C  C88  1  0.30502545  0.51163561  0.14870139  1
  C  C89  1  0.67063121  0.78648645  0.15137845  1
  C  C90  1  0.45298923  0.28911079  0.52257510  1
  C  C91  1  0.23398105  0.95162474  0.02323090  1
  C  C92  1  0.19578950  0.76011525  0.02221081  1
  C  C93  1  0.63508828  0.82871998  0.34829353  1
  C  C94  1  0.45490459  0.57766073  0.72064590  1
  C  C95  1  0.36554864  0.17259719  0.65152141  1
  O  O96  1  0.94875539  0.87063488  0.94243226  1
  O  O97  1  0.61182615  0.97249711  0.04738202  1
  O  O98  1  0.56690405  0.42739534  0.95620909  1
  O  O99  1  0.93316963  0.40869560  0.20676621  1
  O  O100  1  0.37253030  0.84348702  0.33292384  1
  O  O101  1  0.85942510  0.84987329  0.07380084  1
  O  O102  1  0.17981303  0.63279738  0.66708288  1
  O  O103  1  0.72589193  0.96068653  0.92509510  1
  O  O104  1  0.51220030  0.13047511  0.17013496  1
  O  O105  1  0.00700619  0.42751707  0.05736325  1
  O  O106  1  0.39355971  0.14421485  0.29631130  1
  O  O107  1  0.43583815  0.57448038  0.04780243  1
  O  O108  1  0.90308105  0.65223904  0.30034691  1
  O  O109  1  0.53930727  0.30178763  0.57608441  1
  O  O110  1  0.52742385  0.06391108  0.45491005  1
  O  O111  1  0.27261140  0.30142918  0.20755891  1
  O  O112  1  0.35373208  0.59510746  0.20317986  1
  O  O113  1  0.03340768  0.67841464  0.16781243  1
  O  O114  1  0.96210697  0.22386158  0.42215068  1
  O  O115  1  0.24339652  0.21656170  0.80085315  1
  O  O116  1  0.09148400  0.22896512  0.29445586  1
  O  O117  1  0.92641070  0.89015833  0.45650229  1
  O  O118  1  0.48600288  0.86908052  0.82986911  1
  O  O119  1  0.14268804  0.14878433  0.92489310  1
  O  O120  1  0.92809153  0.55208064  0.55807260  1
  O  O121  1  0.27440163  0.03874167  0.07544822  1
  O  O122  1  0.65133515  0.28104401  0.42243162  1
  O  O123  1  0.06460756  0.59257672  0.79097738  1
  O  O124  1  0.48755370  0.53329253  0.66696586  1
  O  O125  1  0.46043883  0.70130476  0.42226833  1
  O  O126  1  0.80079192  0.53641352  0.07603444  1
  O  O127  1  0.15498245  0.89534301  0.79913899  1
  O  O128  1  0.34981347  0.71781339  0.57894326  1
  O  O129  1  0.63072700  0.50789916  0.55753950  1
  O  O130  1  0.09757902  0.35051965  0.70129783  1
  O  O131  1  0.47288509  0.93451055  0.54713054  1
  O  O132  1  0.96038112  0.98681985  0.32850633  1
  O  O133  1  0.58669835  0.74165062  0.30171767  1
  O  O134  1  0.77296752  0.63738343  0.42382470  1
  O  O135  1  0.64318439  0.40364936  0.79630101  1
  O  O136  1  0.82131131  0.36620940  0.33073223  1
  O  O137  1  0.36771876  0.49169385  0.43912314  1
  O  O138  1  0.20106045  0.56561901  0.29203774  1
  O  O139  1  0.07294650  0.45041766  0.44271540  1
  O  O140  1  0.28736725  0.94422088  0.70249648  1
  O  O141  1  0.22978415  0.35880292  0.57795526  1
  O  O142  1  0.96625401  0.32343426  0.83106929  1
  O  O143  1  0.71709796  0.05611287  0.29923147  1
  O  O144  1  0.05256020  0.13029939  0.05964286  1
  O  O145  1  0.84574103  0.10520000  0.20134602  1
  O  O146  1  0.79801876  0.43397383  0.70590323  1
  O  O147  1  0.98988197  0.56970208  0.93930576  1
  O  O148  1  0.39029589  0.02728423  0.95202395  1
  O  O149  1  0.19973154  0.46579068  0.92479725  1
  O  O150  1  0.60287330  0.85265805  0.70205254  1
  O  O151  1  0.72955741  0.70127330  0.79304245  1
  O  O152  1  0.07313239  0.10773526  0.54716404  1
  O  O153  1  0.78406112  0.27604187  0.92513525  1
  O  O154  1  0.41440762  0.25947447  0.69801117  1
  O  O155  1  0.03377431  0.77460185  0.57414177  1
  O  O156  1  0.63049534  0.15790511  0.67011586  1
  O  O157  1  0.90487198  0.77271573  0.70766901  1
  O  O158  1  0.75670184  0.78468508  0.19941816  1
  O  O159  1  0.86834549  0.01272504  0.83366700  1
  O  O160  1  0.21815699  0.72843839  0.07764513  1
  O  O161  1  0.55867157  0.08624824  0.79766370  1
  O  O162  1  0.34668837  0.45945965  0.83281799  1
  O  O163  1  0.65927748  0.54046294  0.17067443  1
  O  O164  1  0.50968084  0.46540856  0.33156577  1
  O  O165  1  0.13517065  0.99288963  0.17005978  1
  O  O166  1  0.04082796  0.01385046  0.66982652  1
  O  O167  1  0.44535599  0.91774341  0.20225028  1
