# generated using pymatgen
data_SiO2
_symmetry_space_group_name_H-M   'P 1'
_cell_length_a   12.90969908
_cell_length_b   12.90969908
_cell_length_c   24.69497111
_cell_angle_alpha   72.48420034
_cell_angle_beta   72.48420034
_cell_angle_gamma   22.71676506
_symmetry_Int_Tables_number   1
_chemical_formula_structural   SiO2
_chemical_formula_sum   'Si28 O56'
_cell_volume   1512.63165794
_cell_formula_units_Z   28
loop_
 _symmetry_equiv_pos_site_id
 _symmetry_equiv_pos_as_xyz
  1  'x, y, z'
loop_
 _atom_site_type_symbol
 _atom_site_label
 _atom_site_symmetry_multiplicity
 _atom_site_fract_x
 _atom_site_fract_y
 _atom_site_fract_z
 _atom_site_occupancy
  Si  Si0  1  0.79696000  0.62816800  0.61905300  1
  Si  Si1  1  0.70363900  0.56359000  0.05236300  1
  Si  Si2  1  0.90383200  0.97422400  0.08666200  1
  Si  Si3  1  0.09616800  0.02577600  0.91333800  1
  Si  Si4  1  0.62816800  0.79696000  0.11905300  1
  Si  Si5  1  0.63756700  0.79329200  0.42796100  1
  Si  Si6  1  0.79329200  0.63756700  0.92796100  1
  Si  Si7  1  0.43641000  0.29636100  0.44763700  1
  Si  Si8  1  0.26962400  0.30116900  0.25491300  1
  Si  Si9  1  0.40911000  0.33900700  0.63831700  1
  Si  Si10  1  0.69883100  0.73037600  0.24508700  1
  Si  Si11  1  0.29636100  0.43641000  0.94763700  1
  Si  Si12  1  0.37183200  0.20304000  0.88094700  1
  Si  Si13  1  0.02577600  0.09616800  0.41333800  1
  Si  Si14  1  0.20670800  0.36243300  0.07203900  1
  Si  Si15  1  0.97422400  0.90383200  0.58666200  1
  Si  Si16  1  0.20304000  0.37183200  0.38094700  1
  Si  Si17  1  0.30116900  0.26962400  0.75491300  1
  Si  Si18  1  0.66099300  0.59089000  0.86168300  1
  Si  Si19  1  0.00178700  0.13262000  0.54126400  1
  Si  Si20  1  0.99821300  0.86738000  0.45873600  1
  Si  Si21  1  0.56359000  0.70363900  0.55236300  1
  Si  Si22  1  0.36243300  0.20670800  0.57203900  1
  Si  Si23  1  0.13262000  0.00178700  0.04126400  1
  Si  Si24  1  0.86738000  0.99821300  0.95873600  1
  Si  Si25  1  0.73037600  0.69883100  0.74508700  1
  Si  Si26  1  0.33900700  0.40911000  0.13831700  1
  Si  Si27  1  0.59089000  0.66099300  0.36168300  1
  O  O28  1  0.07083500  0.72928600  0.13192300  1
  O  O29  1  0.03195900  0.96166100  0.42054800  1
  O  O30  1  0.08274700  0.06352000  0.97384200  1
  O  O31  1  0.92916500  0.27071400  0.86807700  1
  O  O32  1  0.74268000  0.40507800  0.38902200  1
  O  O33  1  0.11153800  0.36479100  0.90968200  1
  O  O34  1  0.28185000  0.54609200  0.45173600  1
  O  O35  1  0.39472900  0.20173200  0.81273600  1
  O  O36  1  0.62686100  0.68258800  0.79462400  1
  O  O37  1  0.88846200  0.63520900  0.09031800  1
  O  O38  1  0.40507800  0.74268000  0.88902200  1
  O  O39  1  0.91725300  0.93648000  0.02615800  1
  O  O40  1  0.37148900  0.25327300  0.50408700  1
  O  O41  1  0.36343500  0.10164600  0.09197400  1
  O  O42  1  0.67151200  0.66828400  0.39688000  1
  O  O43  1  0.59492200  0.25732000  0.11097800  1
  O  O44  1  0.65878800  0.65077400  0.60734400  1
  O  O45  1  0.62851100  0.74672700  0.49591300  1
  O  O46  1  0.96166100  0.03195900  0.92054800  1
  O  O47  1  0.06352000  0.08274700  0.47384200  1
  O  O48  1  0.63656500  0.89835400  0.90802600  1
  O  O49  1  0.96804100  0.03833900  0.57945200  1
  O  O50  1  0.75796300  0.02774200  0.43851700  1
  O  O51  1  0.65077400  0.65878800  0.10734400  1
  O  O52  1  0.66828400  0.67151200  0.89688000  1
  O  O53  1  0.63520900  0.88846200  0.59031800  1
  O  O54  1  0.24203700  0.97225800  0.56148300  1
  O  O55  1  0.79826800  0.60527100  0.68726400  1
  O  O56  1  0.34922600  0.34121200  0.89265600  1
  O  O57  1  0.03833900  0.96804100  0.07945200  1
  O  O58  1  0.74672700  0.62851100  0.99591300  1
  O  O59  1  0.72928600  0.07083500  0.63192300  1
  O  O60  1  0.97225800  0.24203700  0.06148300  1
  O  O61  1  0.02774200  0.75796300  0.93851700  1
  O  O62  1  0.98934400  0.51156900  0.76443900  1
  O  O63  1  0.45390800  0.71815000  0.04826400  1
  O  O64  1  0.60527100  0.79826800  0.18726400  1
  O  O65  1  0.89835400  0.63656500  0.40802600  1
  O  O66  1  0.54609200  0.28185000  0.95173600  1
  O  O67  1  0.25732000  0.59492200  0.61097800  1
  O  O68  1  0.10164600  0.36343500  0.59197400  1
  O  O69  1  0.68258800  0.62686100  0.29462400  1
  O  O70  1  0.33171600  0.32848800  0.10312000  1
  O  O71  1  0.36479100  0.11153800  0.40968200  1
  O  O72  1  0.20173200  0.39472900  0.31273600  1
  O  O73  1  0.48843100  0.01065600  0.73556100  1
  O  O74  1  0.31741200  0.37313900  0.70537600  1
  O  O75  1  0.93648000  0.91725300  0.52615800  1
  O  O76  1  0.32848800  0.33171600  0.60312000  1
  O  O77  1  0.71815000  0.45390800  0.54826400  1
  O  O78  1  0.37313900  0.31741200  0.20537600  1
  O  O79  1  0.34121200  0.34922600  0.39265600  1
  O  O80  1  0.27071400  0.92916500  0.36807700  1
  O  O81  1  0.51156900  0.98934400  0.26443900  1
  O  O82  1  0.25327300  0.37148900  0.00408700  1
  O  O83  1  0.01065600  0.48843100  0.23556100  1
