# generated using pymatgen
data_Bi4Cl2O5
_symmetry_space_group_name_H-M   'P 1'
_cell_length_a   3.86079900
_cell_length_b   15.48087300
_cell_length_c   41.30677700
_cell_angle_alpha   90.00000000
_cell_angle_beta   90.00000000
_cell_angle_gamma   90.00000000
_symmetry_Int_Tables_number   1
_chemical_formula_structural   Bi4Cl2O5
_chemical_formula_sum   'Bi48 Cl24 O60'
_cell_volume   2468.84571199
_cell_formula_units_Z   12
loop_
 _symmetry_equiv_pos_site_id
 _symmetry_equiv_pos_as_xyz
  1  'x, y, z'
loop_
 _atom_site_type_symbol
 _atom_site_label
 _atom_site_symmetry_multiplicity
 _atom_site_fract_x
 _atom_site_fract_y
 _atom_site_fract_z
 _atom_site_occupancy
  Bi  Bi0  1  0.75000000  0.88607700  0.84167800  1
  Bi  Bi1  1  0.25000000  0.51623100  0.26833600  1
  Bi  Bi2  1  0.75000000  0.25768700  0.59695500  1
  Bi  Bi3  1  0.75000000  0.23830300  0.40798900  1
  Bi  Bi4  1  0.25000000  0.63448300  0.17550400  1
  Bi  Bi5  1  0.75000000  0.78754400  0.74693400  1
  Bi  Bi6  1  0.25000000  0.46650600  0.91129500  1
  Bi  Bi7  1  0.25000000  0.21245600  0.25306600  1
  Bi  Bi8  1  0.25000000  0.38607700  0.65832200  1
  Bi  Bi9  1  0.25000000  0.10979200  0.64969200  1
  Bi  Bi10  1  0.75000000  0.60979200  0.85030800  1
  Bi  Bi11  1  0.25000000  0.34185300  0.33821200  1
  Bi  Bi12  1  0.25000000  0.03349400  0.41129500  1
  Bi  Bi13  1  0.75000000  0.10099700  0.99253400  1
  Bi  Bi14  1  0.75000000  0.36551700  0.82449600  1
  Bi  Bi15  1  0.75000000  0.26169700  0.90798900  1
  Bi  Bi16  1  0.75000000  0.48376900  0.73166400  1
  Bi  Bi17  1  0.75000000  0.13448300  0.32449600  1
  Bi  Bi18  1  0.75000000  0.71245600  0.24693400  1
  Bi  Bi19  1  0.75000000  0.09622200  0.49086800  1
  Bi  Bi20  1  0.75000000  0.96650600  0.58870500  1
  Bi  Bi21  1  0.75000000  0.52637500  0.57806900  1
  Bi  Bi22  1  0.25000000  0.75768700  0.90304500  1
  Bi  Bi23  1  0.25000000  0.90377800  0.50913200  1
  Bi  Bi24  1  0.75000000  0.89020800  0.35030800  1
  Bi  Bi25  1  0.75000000  0.84185300  0.16178800  1
  Bi  Bi26  1  0.25000000  0.89900300  0.00746600  1
  Bi  Bi27  1  0.25000000  0.76169700  0.59201100  1
  Bi  Bi28  1  0.75000000  0.40377800  0.99086800  1
  Bi  Bi29  1  0.25000000  0.15814700  0.83821200  1
  Bi  Bi30  1  0.25000000  0.74231300  0.40304500  1
  Bi  Bi31  1  0.25000000  0.11392300  0.15832200  1
  Bi  Bi32  1  0.25000000  0.47362500  0.42193100  1
  Bi  Bi33  1  0.75000000  0.97362500  0.07806900  1
  Bi  Bi34  1  0.25000000  0.28754400  0.75306600  1
  Bi  Bi35  1  0.75000000  0.01623100  0.23166400  1
  Bi  Bi36  1  0.25000000  0.98376900  0.76833600  1
  Bi  Bi37  1  0.25000000  0.39020800  0.14969200  1
  Bi  Bi38  1  0.75000000  0.39900300  0.49253400  1
  Bi  Bi39  1  0.25000000  0.73830300  0.09201100  1
  Bi  Bi40  1  0.25000000  0.60099700  0.50746600  1
  Bi  Bi41  1  0.25000000  0.59622200  0.00913200  1
  Bi  Bi42  1  0.75000000  0.61392300  0.34167800  1
  Bi  Bi43  1  0.75000000  0.65814700  0.66178800  1
  Bi  Bi44  1  0.75000000  0.53349400  0.08870500  1
  Bi  Bi45  1  0.75000000  0.24231300  0.09695500  1
  Bi  Bi46  1  0.25000000  0.02637500  0.92193100  1
  Bi  Bi47  1  0.25000000  0.86551700  0.67550400  1
  Cl  Cl48  1  0.25000000  0.63635600  0.72408500  1
  Cl  Cl49  1  0.75000000  0.49102200  0.19777500  1
  Cl  Cl50  1  0.75000000  0.00897800  0.69777500  1
  Cl  Cl51  1  0.75000000  0.62536600  0.44641900  1
  Cl  Cl52  1  0.25000000  0.99102200  0.30222500  1
  Cl  Cl53  1  0.25000000  0.36167100  0.05490600  1
  Cl  Cl54  1  0.25000000  0.13832900  0.55490600  1
  Cl  Cl55  1  0.75000000  0.24244900  0.19441700  1
  Cl  Cl56  1  0.25000000  0.25542800  0.47018300  1
  Cl  Cl57  1  0.75000000  0.13635600  0.77591500  1
  Cl  Cl58  1  0.25000000  0.75755100  0.80558300  1
  Cl  Cl59  1  0.75000000  0.87463400  0.94641900  1
  Cl  Cl60  1  0.75000000  0.86167100  0.44509400  1
  Cl  Cl61  1  0.25000000  0.50897800  0.80222500  1
  Cl  Cl62  1  0.25000000  0.74244900  0.30558300  1
  Cl  Cl63  1  0.25000000  0.12536600  0.05358100  1
  Cl  Cl64  1  0.25000000  0.24457200  0.97018300  1
  Cl  Cl65  1  0.75000000  0.75542800  0.02981700  1
  Cl  Cl66  1  0.75000000  0.36364400  0.27591500  1
  Cl  Cl67  1  0.75000000  0.25755100  0.69441700  1
  Cl  Cl68  1  0.75000000  0.74457200  0.52981700  1
  Cl  Cl69  1  0.25000000  0.37463400  0.55358100  1
  Cl  Cl70  1  0.75000000  0.63832900  0.94509400  1
  Cl  Cl71  1  0.25000000  0.86364400  0.22408500  1
  O  O72  1  0.25000000  0.25597000  0.62693300  1
  O  O73  1  0.75000000  0.38996000  0.62453700  1
  O  O74  1  0.25000000  0.98277000  0.62630000  1
  O  O75  1  0.25000000  0.03026600  0.97995700  1
  O  O76  1  0.25000000  0.09075100  0.22393100  1
  O  O77  1  0.25000000  0.51191900  0.32065700  1
  O  O78  1  0.25000000  0.73116800  0.64867600  1
  O  O79  1  0.75000000  0.79525800  0.69054400  1
  O  O80  1  0.75000000  0.26883200  0.35132400  1
  O  O81  1  0.25000000  0.29525800  0.80945600  1
  O  O82  1  0.75000000  0.70474200  0.19054400  1
  O  O83  1  0.25000000  0.46973400  0.47995700  1
  O  O84  1  0.25000000  0.89629100  0.56456200  1
  O  O85  1  0.25000000  0.13974100  0.88997100  1
  O  O86  1  0.75000000  0.66731200  0.10999400  1
  O  O87  1  0.75000000  0.37286000  0.12249800  1
  O  O88  1  0.75000000  0.59075100  0.27606900  1
  O  O89  1  0.75000000  0.75597000  0.87306700  1
  O  O90  1  0.25000000  0.98808100  0.82065700  1
  O  O91  1  0.75000000  0.97205500  0.52110500  1
  O  O92  1  0.25000000  0.20474200  0.30945600  1
  O  O93  1  0.75000000  0.11004000  0.12453700  1
  O  O94  1  0.25000000  0.88996000  0.87546300  1
  O  O95  1  0.25000000  0.36025900  0.38997100  1
  O  O96  1  0.25000000  0.60370900  0.06456200  1
  O  O97  1  0.75000000  0.23116800  0.85132400  1
  O  O98  1  0.25000000  0.62714000  0.87750200  1
  O  O99  1  0.75000000  0.83268800  0.60999400  1
  O  O100  1  0.25000000  0.91002000  0.06154500  1
  O  O101  1  0.25000000  0.85461100  0.73232600  1
  O  O102  1  0.75000000  0.10370900  0.43543800  1
  O  O103  1  0.75000000  0.08998000  0.93845500  1
  O  O104  1  0.75000000  0.63974100  0.61002900  1
  O  O105  1  0.25000000  0.40924900  0.72393100  1
  O  O106  1  0.75000000  0.35461100  0.76767400  1
  O  O107  1  0.25000000  0.24403000  0.12693300  1
  O  O108  1  0.75000000  0.86025900  0.11002900  1
  O  O109  1  0.75000000  0.39629100  0.93543800  1
  O  O110  1  0.25000000  0.16731200  0.39000600  1
  O  O111  1  0.25000000  0.33268800  0.89000600  1
  O  O112  1  0.75000000  0.48277000  0.87370000  1
  O  O113  1  0.25000000  0.58998000  0.56154500  1
  O  O114  1  0.75000000  0.12714000  0.62249800  1
  O  O115  1  0.75000000  0.96973400  0.02004300  1
  O  O116  1  0.75000000  0.74403000  0.37306700  1
  O  O117  1  0.75000000  0.53026600  0.52004300  1
  O  O118  1  0.25000000  0.02794500  0.47889500  1
  O  O119  1  0.75000000  0.48808100  0.67934300  1
  O  O120  1  0.25000000  0.76883200  0.14867600  1
  O  O121  1  0.25000000  0.64538900  0.23232600  1
  O  O122  1  0.75000000  0.52794500  0.02110500  1
  O  O123  1  0.25000000  0.61004000  0.37546300  1
  O  O124  1  0.75000000  0.90924900  0.77606900  1
  O  O125  1  0.75000000  0.01723000  0.37370000  1
  O  O126  1  0.25000000  0.47205500  0.97889500  1
  O  O127  1  0.75000000  0.14538900  0.26767400  1
  O  O128  1  0.75000000  0.41002000  0.43845500  1
  O  O129  1  0.25000000  0.51723000  0.12630000  1
  O  O130  1  0.25000000  0.87286000  0.37750200  1
  O  O131  1  0.75000000  0.01191900  0.17934300  1
