# generated using pymatgen
data_InRe2C10ClO10
_symmetry_space_group_name_H-M   'P 1'
_cell_length_a   13.03937100
_cell_length_b   10.73510300
_cell_length_c   25.64021262
_cell_angle_alpha   82.91357442
_cell_angle_beta   90.00000000
_cell_angle_gamma   90.00000000
_symmetry_Int_Tables_number   1
_chemical_formula_structural   InRe2C10ClO10
_chemical_formula_sum   'In8 Re16 C80 Cl8 O80'
_cell_volume   3561.67471300
_cell_formula_units_Z   8
loop_
 _symmetry_equiv_pos_site_id
 _symmetry_equiv_pos_as_xyz
  1  'x, y, z'
loop_
 _atom_site_type_symbol
 _atom_site_label
 _atom_site_symmetry_multiplicity
 _atom_site_fract_x
 _atom_site_fract_y
 _atom_site_fract_z
 _atom_site_occupancy
  In  In0  1  0.27985500  0.57212300  0.11177800  1
  In  In1  1  0.77985500  0.92787700  0.38822200  1
  In  In2  1  0.22014500  0.07212300  0.61177800  1
  In  In3  1  0.29391600  0.49536100  0.26619300  1
  In  In4  1  0.72014500  0.42787700  0.88822200  1
  In  In5  1  0.70608400  0.50463900  0.73380700  1
  In  In6  1  0.20608400  0.99536100  0.76619300  1
  In  In7  1  0.79391600  0.00463900  0.23380700  1
  Re  Re8  1  0.66670800  0.17674200  0.93129400  1
  Re  Re9  1  0.83329200  0.67674200  0.43129400  1
  Re  Re10  1  0.23423200  0.24998900  0.31480100  1
  Re  Re11  1  0.73423200  0.25001100  0.18519900  1
  Re  Re12  1  0.78930200  0.63064300  0.94099400  1
  Re  Re13  1  0.13806700  0.19094900  0.82554500  1
  Re  Re14  1  0.86193300  0.80905100  0.17445500  1
  Re  Re15  1  0.26576800  0.74998900  0.81480100  1
  Re  Re16  1  0.71069800  0.13064300  0.44099400  1
  Re  Re17  1  0.63806700  0.30905100  0.67445500  1
  Re  Re18  1  0.28930200  0.86935700  0.55900600  1
  Re  Re19  1  0.16670800  0.32325800  0.56870600  1
  Re  Re20  1  0.36193300  0.69094900  0.32554500  1
  Re  Re21  1  0.21069800  0.36935700  0.05900600  1
  Re  Re22  1  0.76576800  0.75001100  0.68519900  1
  Re  Re23  1  0.33329200  0.82325800  0.06870600  1
  C  C24  1  0.15322000  0.21569900  0.25196300  1
  C  C25  1  0.02623800  0.27040900  0.59433800  1
  C  C26  1  0.64549900  0.82126600  0.72020400  1
  C  C27  1  0.68598000  0.65211600  0.45201100  1
  C  C28  1  0.31402000  0.34788400  0.54798900  1
  C  C29  1  0.65935400  0.26657900  0.47834500  1
  C  C30  1  0.34100800  0.38887500  0.01743100  1
  C  C31  1  0.23911300  0.79070000  0.29773300  1
  C  C32  1  0.97376200  0.72959100  0.40566200  1
  C  C33  1  0.47376200  0.77040900  0.09433800  1
  C  C34  1  0.19891900  0.09188400  0.35698000  1
  C  C35  1  0.47915500  0.57392400  0.34562900  1
  C  C36  1  0.85450100  0.32126600  0.22020400  1
  C  C37  1  0.59229700  0.18560600  0.62948800  1
  C  C38  1  0.18014200  0.80196400  0.87293800  1
  C  C39  1  0.21544000  0.75717000  0.61538500  1
  C  C40  1  0.29763400  0.87250600  0.13940100  1
  C  C41  1  0.70236600  0.12749400  0.86059900  1
  C  C42  1  0.12386300  0.49156900  0.53943600  1
  C  C43  1  0.35273800  0.00686900  0.50986200  1
  C  C44  1  0.73911300  0.70930000  0.20226700  1
  C  C45  1  0.35450100  0.17873400  0.27979600  1
  C  C46  1  0.20236600  0.37250600  0.63940100  1
  C  C47  1  0.26088700  0.29070000  0.79773300  1
  C  C48  1  0.84064600  0.76657900  0.97834500  1
  C  C49  1  0.34678000  0.71569900  0.75196300  1
  C  C50  1  0.65899200  0.61112500  0.98256900  1
  C  C51  1  0.84100800  0.11112500  0.48256900  1
  C  C52  1  0.80108100  0.90811600  0.64302000  1
  C  C53  1  0.68014200  0.69803600  0.62706200  1
  C  C54  1  0.52623800  0.22959100  0.90566200  1
  C  C55  1  0.41129400  0.86956000  0.60615200  1
  C  C56  1  0.81402000  0.15211600  0.95201100  1
  C  C57  1  0.52084500  0.42607600  0.65437100  1
  C  C58  1  0.43750800  0.76057600  0.26010200  1
  C  C59  1  0.71544000  0.74283000  0.88461500  1
  C  C60  1  0.06249200  0.26057600  0.76010200  1
  C  C61  1  0.31985800  0.30196400  0.37293800  1
  C  C62  1  0.72417200  0.39827900  0.61714200  1
  C  C63  1  0.14549900  0.67873400  0.77979600  1
  C  C64  1  0.14216000  0.25201900  0.50120400  1
  C  C65  1  0.08870600  0.36956000  0.10615200  1
  C  C66  1  0.35784000  0.75201900  0.00120400  1
  C  C67  1  0.64726200  0.99313100  0.49013800  1
  C  C68  1  0.90770300  0.68560600  0.12948800  1
  C  C69  1  0.30108100  0.59188400  0.85698000  1
  C  C70  1  0.15935400  0.23342100  0.02165500  1
  C  C71  1  0.84678000  0.78430100  0.74803700  1
  C  C72  1  0.85273800  0.49313100  0.99013800  1
  C  C73  1  0.87613700  0.50843100  0.46056400  1
  C  C74  1  0.40770300  0.81439400  0.37051200  1
  C  C75  1  0.76088700  0.20930000  0.70226700  1
  C  C76  1  0.69891900  0.40811600  0.14302000  1
  C  C77  1  0.11558200  0.34705900  0.33938000  1
  C  C78  1  0.18598000  0.84788400  0.04798900  1
  C  C79  1  0.65322000  0.28430100  0.24803700  1
  C  C80  1  0.56249200  0.23942400  0.73989800  1
  C  C81  1  0.78456000  0.24283000  0.38461500  1
  C  C82  1  0.09229700  0.31439400  0.87051200  1
  C  C83  1  0.85784000  0.74798100  0.49879600  1
  C  C84  1  0.27582800  0.60172100  0.38285800  1
  C  C85  1  0.28456000  0.25717000  0.11538500  1
  C  C86  1  0.02084500  0.07392400  0.84562900  1
  C  C87  1  0.37613700  0.99156900  0.03943600  1
  C  C88  1  0.64216000  0.24798100  0.99879600  1
  C  C89  1  0.58870600  0.13044000  0.39384800  1
  C  C90  1  0.97915500  0.92607600  0.15437100  1
  C  C91  1  0.15899200  0.88887500  0.51743100  1
  C  C92  1  0.81985800  0.19803600  0.12706200  1
  C  C93  1  0.62386300  0.00843100  0.96056400  1
  C  C94  1  0.93750800  0.73942400  0.23989800  1
  C  C95  1  0.14726200  0.50686900  0.00986200  1
  C  C96  1  0.61558200  0.15294100  0.16062000  1
  C  C97  1  0.22417200  0.10172100  0.88285800  1
  C  C98  1  0.34064600  0.73342100  0.52165500  1
  C  C99  1  0.77582800  0.89827900  0.11714200  1
  C  C100  1  0.38441800  0.84705900  0.83938000  1
  C  C101  1  0.88441800  0.65294100  0.66062000  1
  C  C102  1  0.79763400  0.62749400  0.36059900  1
  C  C103  1  0.91129400  0.63044000  0.89384800  1
  Cl  Cl104  1  0.08523400  0.98493400  0.68451900  1
  Cl  Cl105  1  0.33867000  0.08763700  0.69417300  1
  Cl  Cl106  1  0.66133000  0.91236300  0.30582700  1
  Cl  Cl107  1  0.83867000  0.41236300  0.80582700  1
  Cl  Cl108  1  0.91476600  0.01506600  0.31548100  1
  Cl  Cl109  1  0.41476600  0.48493400  0.18451900  1
  Cl  Cl110  1  0.16133000  0.58763700  0.19417300  1
  Cl  Cl111  1  0.58523400  0.51506600  0.81548100  1
  O  O112  1  0.38837100  0.08821100  0.48161800  1
  O  O113  1  0.17000100  0.85057200  0.28117000  1
  O  O114  1  0.43370400  0.88467200  0.39896500  1
  O  O115  1  0.67000100  0.64942800  0.21883000  1
  O  O116  1  0.94472000  0.24214300  0.60901300  1
  O  O117  1  0.77503600  0.59631700  0.32052900  1
  O  O118  1  0.11162900  0.58821100  0.98161800  1
  O  O119  1  0.86864800  0.16586900  0.09324400  1
  O  O120  1  0.04906300  0.40530000  0.35419600  1
  O  O121  1  0.32793400  0.19445900  0.14829100  1
  O  O122  1  0.10604500  0.19431300  0.21584900  1
  O  O123  1  0.72519300  0.95205000  0.08460500  1
  O  O124  1  0.17206600  0.69445900  0.64829100  1
  O  O125  1  0.91940400  0.36653200  0.24229800  1
  O  O126  1  0.37027300  0.65251100  0.49953000  1
  O  O127  1  0.45325700  0.49411400  0.64279600  1
  O  O128  1  0.95093700  0.59470000  0.64580400  1
  O  O129  1  0.52085300  0.19921200  0.77820600  1
  O  O130  1  0.97914700  0.69921200  0.27820600  1
  O  O131  1  0.82999900  0.14942800  0.71883000  1
  O  O132  1  0.41660000  0.40030400  0.99365700  1
  O  O133  1  0.47914700  0.80078800  0.22179400  1
  O  O134  1  0.05528000  0.75785700  0.39098700  1
  O  O135  1  0.58059600  0.86653200  0.74229800  1
  O  O136  1  0.08340000  0.90030400  0.49365700  1
  O  O137  1  0.10075300  0.86033300  0.03591300  1
  O  O138  1  0.82793400  0.30554100  0.35170900  1
  O  O139  1  0.27503600  0.90368300  0.17947100  1
  O  O140  1  0.93370400  0.61532800  0.10103500  1
  O  O141  1  0.60604500  0.30568700  0.28415100  1
  O  O142  1  0.67921800  0.50174100  0.11717600  1
  O  O143  1  0.22496400  0.40368300  0.67947100  1
  O  O144  1  0.89395500  0.80568700  0.78415100  1
  O  O145  1  0.12938600  0.21093800  0.46194500  1
  O  O146  1  0.27480700  0.04795000  0.91539500  1
  O  O147  1  0.90093500  0.40811000  0.47851700  1
  O  O148  1  0.44472000  0.25785700  0.89098700  1
  O  O149  1  0.54674300  0.50588600  0.35720400  1
  O  O150  1  0.67206600  0.80554100  0.85170900  1
  O  O151  1  0.63135200  0.66586900  0.59324400  1
  O  O152  1  0.48159600  0.87045600  0.63349200  1
  O  O153  1  0.02085300  0.30078800  0.72179400  1
  O  O154  1  0.87061400  0.78906200  0.53805500  1
  O  O155  1  0.12972700  0.15251100  0.99953000  1
  O  O156  1  0.77480700  0.45205000  0.58460500  1
  O  O157  1  0.17921800  0.99825900  0.38282400  1
  O  O158  1  0.89924700  0.13966700  0.96408700  1
  O  O159  1  0.45093700  0.90530000  0.85419600  1
  O  O160  1  0.88837100  0.41178900  0.01838200  1
  O  O161  1  0.58340000  0.59969600  0.00634300  1
  O  O162  1  0.37061400  0.71093800  0.96194500  1
  O  O163  1  0.36864800  0.33413100  0.40675600  1
  O  O164  1  0.41940400  0.13346800  0.25770200  1
  O  O165  1  0.60075300  0.63966700  0.46408700  1
  O  O166  1  0.62972700  0.34748900  0.50047000  1
  O  O167  1  0.39395500  0.69431300  0.71584900  1
  O  O168  1  0.08059600  0.63346800  0.75770200  1
  O  O169  1  0.09906500  0.59189000  0.52148300  1
  O  O170  1  0.87027300  0.84748900  0.00047000  1
  O  O171  1  0.32999900  0.35057200  0.78117000  1
  O  O172  1  0.95325700  0.00588600  0.85720400  1
  O  O173  1  0.39924700  0.36033300  0.53591300  1
  O  O174  1  0.40093500  0.09189000  0.02148300  1
  O  O175  1  0.56629600  0.11532800  0.60103500  1
  O  O176  1  0.13135200  0.83413100  0.90675600  1
  O  O177  1  0.91660000  0.09969600  0.50634300  1
  O  O178  1  0.22519300  0.54795000  0.41539500  1
  O  O179  1  0.51840400  0.12954400  0.36650800  1
  O  O180  1  0.98159600  0.62954400  0.86650800  1
  O  O181  1  0.55528000  0.74214300  0.10901300  1
  O  O182  1  0.01840400  0.37045600  0.13349200  1
  O  O183  1  0.54906300  0.09470000  0.14580400  1
  O  O184  1  0.06629600  0.38467200  0.89896500  1
  O  O185  1  0.32078200  0.49825900  0.88282400  1
  O  O186  1  0.59906500  0.90811000  0.97851700  1
  O  O187  1  0.61162900  0.91178900  0.51838200  1
  O  O188  1  0.82078200  0.00174100  0.61717600  1
  O  O189  1  0.04674300  0.99411400  0.14279600  1
  O  O190  1  0.72496400  0.09631700  0.82052900  1
  O  O191  1  0.62938600  0.28906200  0.03805500  1
