# generated using pymatgen
data_Yb(PO3)3
_symmetry_space_group_name_H-M   'P 1'
_cell_length_a   20.52292700
_cell_length_b   10.31892000
_cell_length_c   11.59716889
_cell_angle_alpha   82.54938646
_cell_angle_beta   90.00000000
_cell_angle_gamma   90.00000000
_symmetry_Int_Tables_number   1
_chemical_formula_structural   Yb(PO3)3
_chemical_formula_sum   'Yb12 P36 O108'
_cell_volume   2435.24809787
_cell_formula_units_Z   12
loop_
 _symmetry_equiv_pos_site_id
 _symmetry_equiv_pos_as_xyz
  1  'x, y, z'
loop_
 _atom_site_type_symbol
 _atom_site_label
 _atom_site_symmetry_multiplicity
 _atom_site_fract_x
 _atom_site_fract_y
 _atom_site_fract_z
 _atom_site_occupancy
  Yb  Yb0  1  0.65763700  0.98196100  0.49912400  1
  Yb  Yb1  1  0.32438900  0.01966600  0.99948800  1
  Yb  Yb2  1  0.67561100  0.98033400  0.00051200  1
  Yb  Yb3  1  0.82438900  0.48033400  0.00051200  1
  Yb  Yb4  1  0.00000000  0.00000000  0.00000000  1
  Yb  Yb5  1  0.84236300  0.48196100  0.49912400  1
  Yb  Yb6  1  0.15763700  0.51803900  0.50087600  1
  Yb  Yb7  1  0.34236300  0.01803900  0.50087600  1
  Yb  Yb8  1  0.00000000  0.00000000  0.50000000  1
  Yb  Yb9  1  0.50000000  0.50000000  0.00000000  1
  Yb  Yb10  1  0.50000000  0.50000000  0.50000000  1
  Yb  Yb11  1  0.17561100  0.51966600  0.99948800  1
  P  P12  1  0.22114800  0.82210200  0.35595500  1
  P  P13  1  0.05213900  0.53116100  0.23801900  1
  P  P14  1  0.55213900  0.96883900  0.76198100  1
  P  P15  1  0.43875100  0.81079100  0.86077000  1
  P  P16  1  0.06124900  0.31079100  0.86077000  1
  P  P17  1  0.56124900  0.18920900  0.13923000  1
  P  P18  1  0.72114800  0.67789800  0.64404500  1
  P  P19  1  0.45692800  0.18136100  0.67972700  1
  P  P20  1  0.37575100  0.32412900  0.85251800  1
  P  P21  1  0.38951100  0.48088500  0.25407100  1
  P  P22  1  0.20840900  0.19119800  0.16705500  1
  P  P23  1  0.62424900  0.67587100  0.14748200  1
  P  P24  1  0.44786100  0.03116100  0.23801900  1
  P  P25  1  0.12424900  0.82412900  0.85251800  1
  P  P26  1  0.27661000  0.50450400  0.73762500  1
  P  P27  1  0.77885200  0.17789800  0.64404500  1
  P  P28  1  0.70840900  0.30880200  0.83294500  1
  P  P29  1  0.61048900  0.51911500  0.74592900  1
  P  P30  1  0.27885200  0.32210200  0.35595500  1
  P  P31  1  0.11048900  0.98088500  0.25407100  1
  P  P32  1  0.04307200  0.68136100  0.67972700  1
  P  P33  1  0.87575100  0.17587100  0.14748200  1
  P  P34  1  0.88951100  0.01911500  0.74592900  1
  P  P35  1  0.22339000  0.00450400  0.73762500  1
  P  P36  1  0.94786100  0.46883900  0.76198100  1
  P  P37  1  0.93875100  0.68920900  0.13923000  1
  P  P38  1  0.11384900  0.19276900  0.65339000  1
  P  P39  1  0.88615100  0.80723100  0.34661000  1
  P  P40  1  0.38615100  0.69276900  0.65339000  1
  P  P41  1  0.54307200  0.81863900  0.32027300  1
  P  P42  1  0.61384900  0.30723100  0.34661000  1
  P  P43  1  0.77661000  0.99549600  0.26237500  1
  P  P44  1  0.79159100  0.80880200  0.83294500  1
  P  P45  1  0.95692800  0.31863900  0.32027300  1
  P  P46  1  0.72339000  0.49549600  0.26237500  1
  P  P47  1  0.29159100  0.69119800  0.16705500  1
  O  O48  1  0.91183000  0.45822900  0.65134700  1
  O  O49  1  0.48115500  0.29684300  0.60034800  1
  O  O50  1  0.89139700  0.76568500  0.21785000  1
  O  O51  1  0.58817000  0.95822900  0.65134700  1
  O  O52  1  0.76217400  0.57031800  0.60628100  1
  O  O53  1  0.03546700  0.21313800  0.95652300  1
  O  O54  1  0.68547700  0.76368900  0.55032100  1
  O  O55  1  0.75812400  0.96241300  0.14480800  1
  O  O56  1  0.87995900  0.68977600  0.43609000  1
  O  O57  1  0.41283300  0.48948700  0.37547900  1
  O  O58  1  0.98352700  0.60857200  0.75173900  1
  O  O59  1  0.31452300  0.23631100  0.44967900  1
  O  O60  1  0.08817000  0.54177100  0.34865300  1
  O  O61  1  0.76689900  0.77232700  0.70892200  1
  O  O62  1  0.82843900  0.11904700  0.74570200  1
  O  O63  1  0.99452700  0.63803400  0.23225600  1
  O  O64  1  0.68342800  0.37882600  0.33733200  1
  O  O65  1  0.09749900  0.42610700  0.89524000  1
  O  O66  1  0.06030700  0.09893400  0.63397700  1
  O  O67  1  0.83781600  0.26056800  0.05729900  1
  O  O68  1  0.12004100  0.31022400  0.56391000  1
  O  O69  1  0.30517300  0.81364500  0.08758300  1
  O  O70  1  0.67156100  0.61904700  0.74570200  1
  O  O71  1  0.80517300  0.68635500  0.91241700  1
  O  O72  1  0.17156100  0.88095300  0.25429800  1
  O  O73  1  0.77726500  0.52964900  0.33923400  1
  O  O74  1  0.62004100  0.18977600  0.43609000  1
  O  O75  1  0.23782600  0.42968200  0.39371900  1
  O  O76  1  0.14010800  0.12169400  0.20248100  1
  O  O77  1  0.08379200  0.58353200  0.62733000  1
  O  O78  1  0.43969300  0.59893400  0.63397700  1
  O  O79  1  0.58089300  0.77131500  0.21277900  1
  O  O80  1  0.58279000  0.57153900  0.10678200  1
  O  O81  1  0.06207200  0.94393200  0.16682800  1
  O  O82  1  0.91620800  0.41646800  0.37267000  1
  O  O83  1  0.31657200  0.62117400  0.66266800  1
  O  O84  1  0.39139700  0.73431500  0.78215000  1
  O  O85  1  0.73310100  0.27232700  0.70892200  1
  O  O86  1  0.96453300  0.78686200  0.04347700  1
  O  O87  1  0.51647300  0.10857200  0.75173900  1
  O  O88  1  0.46453300  0.71313800  0.95652300  1
  O  O89  1  0.22273500  0.47035100  0.66076600  1
  O  O90  1  0.18342800  0.12117400  0.66266800  1
  O  O91  1  0.08716700  0.98948700  0.37547900  1
  O  O92  1  0.90975200  0.45503800  0.87315000  1
  O  O93  1  0.60860300  0.26568500  0.21785000  1
  O  O94  1  0.32843900  0.38095300  0.25429800  1
  O  O95  1  0.24566300  0.59329900  0.12677000  1
  O  O96  1  0.85989200  0.87830600  0.79751900  1
  O  O97  1  0.18547700  0.73631100  0.44967900  1
  O  O98  1  0.16218400  0.73943200  0.94270100  1
  O  O99  1  0.25433700  0.09329900  0.12677000  1
  O  O100  1  0.69482700  0.18635500  0.91241700  1
  O  O101  1  0.58716700  0.51051300  0.62452100  1
  O  O102  1  0.56207200  0.55606800  0.83317200  1
  O  O103  1  0.91721000  0.07153900  0.10678200  1
  O  O104  1  0.66218400  0.76056800  0.05729900  1
  O  O105  1  0.90250100  0.57389300  0.10476000  1
  O  O106  1  0.19482700  0.31364500  0.08758300  1
  O  O107  1  0.59024800  0.95503800  0.87315000  1
  O  O108  1  0.40250100  0.92610700  0.89524000  1
  O  O109  1  0.43792800  0.44393200  0.16682800  1
  O  O110  1  0.81657200  0.87882600  0.33733200  1
  O  O111  1  0.67078400  0.61359200  0.25225600  1
  O  O112  1  0.75433700  0.40670100  0.87323000  1
  O  O113  1  0.25812400  0.53758700  0.85519200  1
  O  O114  1  0.17078400  0.88640800  0.74774400  1
  O  O115  1  0.50547300  0.13803400  0.23225600  1
  O  O116  1  0.41183000  0.04177100  0.34865300  1
  O  O117  1  0.08279000  0.92846100  0.89321800  1
  O  O118  1  0.58379200  0.91646800  0.37267000  1
  O  O119  1  0.74187600  0.46241300  0.14480800  1
  O  O120  1  0.81452300  0.26368900  0.55032100  1
  O  O121  1  0.32921600  0.38640800  0.74774400  1
  O  O122  1  0.74566300  0.90670100  0.87323000  1
  O  O123  1  0.26217400  0.92968200  0.39371900  1
  O  O124  1  0.72273500  0.02964900  0.33923400  1
  O  O125  1  0.41721000  0.42846100  0.89321800  1
  O  O126  1  0.09024800  0.54496200  0.12685000  1
  O  O127  1  0.73782600  0.07031800  0.60628100  1
  O  O128  1  0.26689900  0.72767300  0.29107800  1
  O  O129  1  0.82921600  0.11359200  0.25225600  1
  O  O130  1  0.08089300  0.72868500  0.78722100  1
  O  O131  1  0.93792800  0.05606800  0.83317200  1
  O  O132  1  0.24187600  0.03758700  0.85519200  1
  O  O133  1  0.27726500  0.97035100  0.66076600  1
  O  O134  1  0.40975200  0.04496200  0.12685000  1
  O  O135  1  0.10860300  0.23431500  0.78215000  1
  O  O136  1  0.41620800  0.08353200  0.62733000  1
  O  O137  1  0.64010800  0.37830600  0.79751900  1
  O  O138  1  0.98115500  0.20315700  0.39965200  1
  O  O139  1  0.37995900  0.81022400  0.56391000  1
  O  O140  1  0.51884500  0.70315700  0.39965200  1
  O  O141  1  0.01884500  0.79684300  0.60034800  1
  O  O142  1  0.23310100  0.22767300  0.29107800  1
  O  O143  1  0.01647300  0.39142800  0.24826100  1
  O  O144  1  0.00547300  0.36196600  0.76774400  1
  O  O145  1  0.91283300  0.01051300  0.62452100  1
  O  O146  1  0.53546700  0.28686200  0.04347700  1
  O  O147  1  0.33781600  0.23943200  0.94270100  1
  O  O148  1  0.91910700  0.27131500  0.21277900  1
  O  O149  1  0.48352700  0.89142800  0.24826100  1
  O  O150  1  0.93969300  0.90106600  0.36602300  1
  O  O151  1  0.49452700  0.86196600  0.76774400  1
  O  O152  1  0.59749900  0.07389300  0.10476000  1
  O  O153  1  0.35989200  0.62169400  0.20248100  1
  O  O154  1  0.56030700  0.40106600  0.36602300  1
  O  O155  1  0.41910700  0.22868500  0.78722100  1
