# generated using pymatgen
data_Fe3C9S2O9
_symmetry_space_group_name_H-M   'P 1'
_cell_length_a   6.88624500
_cell_length_b   9.21092479
_cell_length_c   13.18122565
_cell_angle_alpha   93.98866674
_cell_angle_beta   94.12941676
_cell_angle_gamma   111.17747912
_symmetry_Int_Tables_number   1
_chemical_formula_structural   Fe3C9S2O9
_chemical_formula_sum   'Fe6 C18 S4 O18'
_cell_volume   773.46427313
_cell_formula_units_Z   2
loop_
 _symmetry_equiv_pos_site_id
 _symmetry_equiv_pos_as_xyz
  1  'x, y, z'
loop_
 _atom_site_type_symbol
 _atom_site_label
 _atom_site_symmetry_multiplicity
 _atom_site_fract_x
 _atom_site_fract_y
 _atom_site_fract_z
 _atom_site_occupancy
  Fe  Fe0  1  0.28615500  0.19725600  0.33959400  1
  Fe  Fe1  1  0.71384500  0.80274400  0.66040600  1
  Fe  Fe2  1  0.58233200  0.73717600  0.83993900  1
  Fe  Fe3  1  0.13115500  0.91494200  0.24186100  1
  Fe  Fe4  1  0.41766800  0.26282400  0.16006100  1
  Fe  Fe5  1  0.86884500  0.08505800  0.75813900  1
  C  C6  1  0.71806000  0.91068200  0.55331800  1
  C  C7  1  0.28194000  0.08931800  0.44668200  1
  C  C8  1  0.10681100  0.81176600  0.11958800  1
  C  C9  1  0.64693100  0.56984100  0.87349600  1
  C  C10  1  0.35306900  0.43015900  0.12650400  1
  C  C11  1  0.14341500  0.17220700  0.73569100  1
  C  C12  1  0.85658500  0.82779300  0.26430900  1
  C  C13  1  0.90717400  0.72624200  0.61914300  1
  C  C14  1  0.30195100  0.62202300  0.82368300  1
  C  C15  1  0.20351700  0.77713700  0.31567000  1
  C  C16  1  0.59473600  0.82436200  0.96594200  1
  C  C17  1  0.69804900  0.37797700  0.17631700  1
  C  C18  1  0.79648300  0.22286300  0.68433000  1
  C  C19  1  0.49541800  0.62690600  0.61969500  1
  C  C20  1  0.40526400  0.17563800  0.03405800  1
  C  C21  1  0.50458200  0.37309400  0.38030500  1
  C  C22  1  0.89318900  0.18823400  0.88041200  1
  C  C23  1  0.09282600  0.27375800  0.38085700  1
  S  S24  1  0.47260600  0.07752400  0.25063700  1
  S  S25  1  0.52739400  0.92247600  0.74936300  1
  S  S26  1  0.91668200  0.87354100  0.81363800  1
  S  S27  1  0.08331800  0.12645900  0.18636200  1
  O  O28  1  0.08696400  0.74988000  0.03785900  1
  O  O29  1  0.68340500  0.46302700  0.89696200  1
  O  O30  1  0.24890100  0.68599700  0.35729600  1
  O  O31  1  0.31835300  0.23168900  0.72434600  1
  O  O32  1  0.28400500  0.02555900  0.51970400  1
  O  O33  1  0.96923200  0.32146800  0.40796200  1
  O  O34  1  0.87576400  0.45076200  0.18559400  1
  O  O35  1  0.31659500  0.53697300  0.10303800  1
  O  O36  1  0.60940200  0.88386000  0.04792000  1
  O  O37  1  0.12423600  0.54923800  0.81440600  1
  O  O38  1  0.91303600  0.25012000  0.96214100  1
  O  O39  1  0.39059800  0.11614000  0.95208000  1
  O  O40  1  0.64455000  0.48675700  0.41211000  1
  O  O41  1  0.68164700  0.76831100  0.27565400  1
  O  O42  1  0.75109900  0.31400300  0.64270400  1
  O  O43  1  0.35545000  0.51324300  0.58789000  1
  O  O44  1  0.03076800  0.67853200  0.59203800  1
  O  O45  1  0.71599500  0.97444100  0.48029600  1
