# generated using pymatgen
data_CrFe2C10(Se2O5)2
_symmetry_space_group_name_H-M   'P 1'
_cell_length_a   17.63663000
_cell_length_b   6.68423700
_cell_length_c   17.27162211
_cell_angle_alpha   83.26771601
_cell_angle_beta   90.00000000
_cell_angle_gamma   90.00000000
_symmetry_Int_Tables_number   1
_chemical_formula_structural   CrFe2C10(Se2O5)2
_chemical_formula_sum   'Cr4 Fe8 C40 Se16 O40'
_cell_volume   2022.06741900
_cell_formula_units_Z   4
loop_
 _symmetry_equiv_pos_site_id
 _symmetry_equiv_pos_as_xyz
  1  'x, y, z'
loop_
 _atom_site_type_symbol
 _atom_site_label
 _atom_site_symmetry_multiplicity
 _atom_site_fract_x
 _atom_site_fract_y
 _atom_site_fract_z
 _atom_site_occupancy
  Cr  Cr0  1  0.38387400  0.77869800  0.61883300  1
  Cr  Cr1  1  0.88387400  0.22130200  0.88116700  1
  Cr  Cr2  1  0.11612600  0.77869800  0.11883300  1
  Cr  Cr3  1  0.61612600  0.22130200  0.38116700  1
  Fe  Fe4  1  0.46234700  0.15386200  0.19748100  1
  Fe  Fe5  1  0.65041200  0.32841800  0.13542700  1
  Fe  Fe6  1  0.15041200  0.67158200  0.36457300  1
  Fe  Fe7  1  0.34958800  0.67158200  0.86457300  1
  Fe  Fe8  1  0.96234700  0.84613800  0.30251900  1
  Fe  Fe9  1  0.84958800  0.32841800  0.63542700  1
  Fe  Fe10  1  0.53765300  0.84613800  0.80251900  1
  Fe  Fe11  1  0.03765300  0.15386200  0.69748100  1
  C  C12  1  0.08728900  0.91352800  0.70390800  1
  C  C13  1  0.06669700  0.21752100  0.59780300  1
  C  C14  1  0.11136300  0.27107600  0.75078900  1
  C  C15  1  0.37465400  0.72045700  0.96176200  1
  C  C16  1  0.69250900  0.57543100  0.10287300  1
  C  C17  1  0.40309300  0.94087600  0.52435100  1
  C  C18  1  0.90309300  0.05912400  0.97564900  1
  C  C19  1  0.75846800  0.20238900  0.64589600  1
  C  C20  1  0.56669700  0.78247900  0.90219700  1
  C  C21  1  0.80749100  0.57543100  0.60287300  1
  C  C22  1  0.70026100  0.05294700  0.36482300  1
  C  C23  1  0.29973900  0.94705300  0.63517700  1
  C  C24  1  0.43330300  0.21752100  0.09780300  1
  C  C25  1  0.25846800  0.79761100  0.85410400  1
  C  C26  1  0.38863700  0.27107600  0.25078900  1
  C  C27  1  0.52959300  0.38563100  0.39900000  1
  C  C28  1  0.88863700  0.72892400  0.24921100  1
  C  C29  1  0.12534600  0.72045700  0.46176200  1
  C  C30  1  0.17833900  0.61474600  0.06603200  1
  C  C31  1  0.20026100  0.94705300  0.13517700  1
  C  C32  1  0.62534600  0.27954300  0.03823800  1
  C  C33  1  0.93330300  0.78247900  0.40219700  1
  C  C34  1  0.47040700  0.61436900  0.60100000  1
  C  C35  1  0.61136300  0.72892400  0.74921100  1
  C  C36  1  0.02959300  0.61436900  0.10100000  1
  C  C37  1  0.97040700  0.38563100  0.89900000  1
  C  C38  1  0.09690700  0.94087600  0.02435100  1
  C  C39  1  0.82166100  0.38525400  0.93396800  1
  C  C40  1  0.41271100  0.91352800  0.20390800  1
  C  C41  1  0.30749100  0.42456900  0.89712700  1
  C  C42  1  0.91271100  0.08647200  0.29609200  1
  C  C43  1  0.24153200  0.79761100  0.35410400  1
  C  C44  1  0.58728900  0.08647200  0.79609200  1
  C  C45  1  0.74153200  0.20238900  0.14589600  1
  C  C46  1  0.59690700  0.05912400  0.47564900  1
  C  C47  1  0.67833900  0.38525400  0.43396800  1
  C  C48  1  0.32166100  0.61474600  0.56603200  1
  C  C49  1  0.79973900  0.05294700  0.86482300  1
  C  C50  1  0.87465400  0.27954300  0.53823800  1
  C  C51  1  0.19250900  0.42456900  0.39712700  1
  Se  Se52  1  0.08566100  0.99678900  0.32357600  1
  Se  Se53  1  0.63928800  0.45645000  0.26302700  1
  Se  Se54  1  0.54017900  0.99872500  0.30712000  1
  Se  Se55  1  0.41433900  0.99678900  0.82357600  1
  Se  Se56  1  0.36071200  0.54355000  0.73697300  1
  Se  Se57  1  0.86071200  0.45645000  0.76302700  1
  Se  Se58  1  0.95982100  0.99872500  0.80712000  1
  Se  Se59  1  0.04017900  0.00127500  0.19288000  1
  Se  Se60  1  0.58566100  0.00321100  0.17642400  1
  Se  Se61  1  0.46705300  0.52213700  0.82332000  1
  Se  Se62  1  0.96705300  0.47786300  0.67668000  1
  Se  Se63  1  0.91433900  0.00321100  0.67642400  1
  Se  Se64  1  0.13928800  0.54355000  0.23697300  1
  Se  Se65  1  0.45982100  0.00127500  0.69288000  1
  Se  Se66  1  0.53294700  0.47786300  0.17668000  1
  Se  Se67  1  0.03294700  0.52213700  0.32332000  1
  O  O68  1  0.78182900  0.48768900  0.96643600  1
  O  O69  1  0.41277100  0.03942900  0.46483000  1
  O  O70  1  0.60896300  0.24882500  0.97598000  1
  O  O71  1  0.78199900  0.73112500  0.58313100  1
  O  O72  1  0.41601800  0.25227500  0.03315700  1
  O  O73  1  0.89103700  0.24882500  0.47598000  1
  O  O74  1  0.28182900  0.51231100  0.53356400  1
  O  O75  1  0.71817100  0.48768900  0.46643600  1
  O  O76  1  0.39103700  0.75117500  0.02402000  1
  O  O77  1  0.70047800  0.12279100  0.65189700  1
  O  O78  1  0.25163900  0.05250800  0.14312000  1
  O  O79  1  0.75163900  0.94749200  0.35688000  1
  O  O80  1  0.29952200  0.87720900  0.34810300  1
  O  O81  1  0.84123700  0.65779800  0.21560400  1
  O  O82  1  0.28199900  0.26887500  0.91686900  1
  O  O83  1  0.91277100  0.96057100  0.03517000  1
  O  O84  1  0.08398200  0.25227500  0.53315700  1
  O  O85  1  0.34123700  0.34220200  0.28439600  1
  O  O86  1  0.58398200  0.74772500  0.96684300  1
  O  O87  1  0.38034100  0.76375100  0.20565600  1
  O  O88  1  0.65876300  0.65779800  0.71560400  1
  O  O89  1  0.91601800  0.74772500  0.46684300  1
  O  O90  1  0.08722900  0.03942900  0.96483000  1
  O  O91  1  0.71800100  0.73112500  0.08313100  1
  O  O92  1  0.47816200  0.48753800  0.40958800  1
  O  O93  1  0.10896300  0.75117500  0.52402000  1
  O  O94  1  0.24836100  0.05250800  0.64312000  1
  O  O95  1  0.79952200  0.12279100  0.15189700  1
  O  O96  1  0.58722900  0.96057100  0.53517000  1
  O  O97  1  0.74836100  0.94749200  0.85688000  1
  O  O98  1  0.21817100  0.51231100  0.03356400  1
  O  O99  1  0.11965900  0.76375100  0.70565600  1
  O  O100  1  0.02183800  0.48753800  0.90958800  1
  O  O101  1  0.52183800  0.51246200  0.59041200  1
  O  O102  1  0.97816200  0.51246200  0.09041200  1
  O  O103  1  0.88034100  0.23624900  0.29434400  1
  O  O104  1  0.20047800  0.87720900  0.84810300  1
  O  O105  1  0.61965900  0.23624900  0.79434400  1
  O  O106  1  0.21800100  0.26887500  0.41686900  1
  O  O107  1  0.15876300  0.34220200  0.78439600  1
