# generated using pymatgen
data_AuC5(SCl)4
_symmetry_space_group_name_H-M   'P 1'
_cell_length_a   9.51618121
_cell_length_b   9.51618121
_cell_length_c   8.13703470
_cell_angle_alpha   85.49567387
_cell_angle_beta   85.49567387
_cell_angle_gamma   74.12658936
_symmetry_Int_Tables_number   1
_chemical_formula_structural   AuC5(SCl)4
_chemical_formula_sum   'Au2 C10 S8 Cl8'
_cell_volume   705.33211353
_cell_formula_units_Z   2
loop_
 _symmetry_equiv_pos_site_id
 _symmetry_equiv_pos_as_xyz
  1  'x, y, z'
loop_
 _atom_site_type_symbol
 _atom_site_label
 _atom_site_symmetry_multiplicity
 _atom_site_fract_x
 _atom_site_fract_y
 _atom_site_fract_z
 _atom_site_occupancy
  Au  Au0  1  0.85659100  0.85659100  0.11428800  1
  Au  Au1  1  0.14340900  0.14340900  0.88571200  1
  C  C2  1  0.34647000  0.46604100  0.67343500  1
  C  C3  1  0.47896500  0.47896500  0.92562600  1
  C  C4  1  0.91885300  0.35450500  0.39722600  1
  C  C5  1  0.46604100  0.34647000  0.67343500  1
  C  C6  1  0.35450500  0.91885300  0.39722600  1
  C  C7  1  0.52103500  0.52103500  0.07437400  1
  C  C8  1  0.64549500  0.08114700  0.60277400  1
  C  C9  1  0.08114700  0.64549500  0.60277400  1
  C  C10  1  0.53395900  0.65353000  0.32656500  1
  C  C11  1  0.65353000  0.53395900  0.32656500  1
  S  S12  1  0.21144800  0.50950800  0.52303000  1
  S  S13  1  0.67663500  0.42092800  0.16564000  1
  S  S14  1  0.57907200  0.32336500  0.83436000  1
  S  S15  1  0.78855200  0.49049200  0.47697000  1
  S  S16  1  0.49049200  0.78855200  0.47697000  1
  S  S17  1  0.50950800  0.21144800  0.52303000  1
  S  S18  1  0.42092800  0.67663500  0.16564000  1
  S  S19  1  0.32336500  0.57907200  0.83436000  1
  Cl  Cl20  1  0.96686900  0.96686900  0.29050100  1
  Cl  Cl21  1  0.94859400  0.35273700  0.87351000  1
  Cl  Cl22  1  0.05140600  0.64726300  0.12649000  1
  Cl  Cl23  1  0.74801700  0.74801700  0.92980200  1
  Cl  Cl24  1  0.35273700  0.94859400  0.87351000  1
  Cl  Cl25  1  0.03313100  0.03313100  0.70949900  1
  Cl  Cl26  1  0.64726300  0.05140600  0.12649000  1
  Cl  Cl27  1  0.25198300  0.25198300  0.07019800  1
