# generated using pymatgen
data_Zn10Fe(B4Rh9)2
_symmetry_space_group_name_H-M   'P 1'
_cell_length_a   17.89576500
_cell_length_b   17.89576500
_cell_length_c   2.87724900
_cell_angle_alpha   90.00000000
_cell_angle_beta   90.00000000
_cell_angle_gamma   90.00000000
_symmetry_Int_Tables_number   1
_chemical_formula_structural   Zn10Fe(B4Rh9)2
_chemical_formula_sum   'Zn20 Fe2 B16 Rh36'
_cell_volume   921.46317534
_cell_formula_units_Z   2
loop_
 _symmetry_equiv_pos_site_id
 _symmetry_equiv_pos_as_xyz
  1  'x, y, z'
loop_
 _atom_site_type_symbol
 _atom_site_label
 _atom_site_symmetry_multiplicity
 _atom_site_fract_x
 _atom_site_fract_y
 _atom_site_fract_z
 _atom_site_occupancy
  Zn  Zn0  1  0.70912800  0.79087200  0.50000000  1
  Zn  Zn1  1  0.20912800  0.70912800  0.50000000  1
  Zn  Zn2  1  0.96812400  0.81217300  0.50000000  1
  Zn  Zn3  1  0.16898100  0.33101900  0.50000000  1
  Zn  Zn4  1  0.44974700  0.94974700  0.50000000  1
  Zn  Zn5  1  0.33101900  0.83101900  0.50000000  1
  Zn  Zn6  1  0.94974700  0.55025300  0.50000000  1
  Zn  Zn7  1  0.66898100  0.16898100  0.50000000  1
  Zn  Zn8  1  0.05025300  0.44974700  0.50000000  1
  Zn  Zn9  1  0.46812400  0.68782700  0.50000000  1
  Zn  Zn10  1  0.53187600  0.31217400  0.50000000  1
  Zn  Zn11  1  0.79087200  0.29087200  0.50000000  1
  Zn  Zn12  1  0.83101900  0.66898100  0.50000000  1
  Zn  Zn13  1  0.03187600  0.18782700  0.50000000  1
  Zn  Zn14  1  0.18782700  0.96812400  0.50000000  1
  Zn  Zn15  1  0.68782700  0.53187600  0.50000000  1
  Zn  Zn16  1  0.29087200  0.20912800  0.50000000  1
  Zn  Zn17  1  0.55025300  0.05025300  0.50000000  1
  Zn  Zn18  1  0.81217300  0.03187600  0.50000000  1
  Zn  Zn19  1  0.31217400  0.46812400  0.50000000  1
  Fe  Fe20  1  0.50000000  0.50000000  0.50000000  1
  Fe  Fe21  1  0.00000000  0.00000000  0.50000000  1
  B  B22  1  0.87563800  0.16623100  0.50000000  1
  B  B23  1  0.66627200  0.96137400  0.50000000  1
  B  B24  1  0.03862600  0.66627200  0.50000000  1
  B  B25  1  0.33376900  0.62436200  0.50000000  1
  B  B26  1  0.96137400  0.33372800  0.50000000  1
  B  B27  1  0.83372800  0.46137400  0.50000000  1
  B  B28  1  0.12436200  0.83376900  0.50000000  1
  B  B29  1  0.66623100  0.37563800  0.50000000  1
  B  B30  1  0.33372800  0.03862600  0.50000000  1
  B  B31  1  0.62436200  0.66623100  0.50000000  1
  B  B32  1  0.53862600  0.83372800  0.50000000  1
  B  B33  1  0.83376900  0.87563800  0.50000000  1
  B  B34  1  0.16627200  0.53862600  0.50000000  1
  B  B35  1  0.16623100  0.12436200  0.50000000  1
  B  B36  1  0.46137400  0.16627200  0.50000000  1
  B  B37  1  0.37563800  0.33376900  0.50000000  1
  Rh  Rh38  1  0.91260300  0.25498900  0.00000000  1
  Rh  Rh39  1  0.58739700  0.75498900  0.00000000  1
  Rh  Rh40  1  0.17390200  0.45210800  0.00000000  1
  Rh  Rh41  1  0.66047500  0.28922300  0.00000000  1
  Rh  Rh42  1  0.06685000  0.90206500  0.00000000  1
  Rh  Rh43  1  0.43315000  0.40206500  0.00000000  1
  Rh  Rh44  1  0.41768500  0.08231500  0.00000000  1
  Rh  Rh45  1  0.41260300  0.24501100  0.00000000  1
  Rh  Rh46  1  0.21077700  0.83952500  0.00000000  1
  Rh  Rh47  1  0.28922300  0.33952500  0.00000000  1
  Rh  Rh48  1  0.24501100  0.58739700  0.00000000  1
  Rh  Rh49  1  0.04789200  0.32609800  0.00000000  1
  Rh  Rh50  1  0.08231500  0.58231500  0.00000000  1
  Rh  Rh51  1  0.95210800  0.67390200  0.00000000  1
  Rh  Rh52  1  0.54789200  0.17390200  0.00000000  1
  Rh  Rh53  1  0.09793500  0.06685000  0.00000000  1
  Rh  Rh54  1  0.93315000  0.09793500  0.00000000  1
  Rh  Rh55  1  0.78922300  0.16047500  0.00000000  1
  Rh  Rh56  1  0.32609800  0.95210800  0.00000000  1
  Rh  Rh57  1  0.67390200  0.04789200  0.00000000  1
  Rh  Rh58  1  0.16047500  0.21077700  0.00000000  1
  Rh  Rh59  1  0.59793500  0.43315000  0.00000000  1
  Rh  Rh60  1  0.74501100  0.91260300  0.00000000  1
  Rh  Rh61  1  0.08739700  0.74501100  0.00000000  1
  Rh  Rh62  1  0.82609800  0.54789200  0.00000000  1
  Rh  Rh63  1  0.71077700  0.66047500  0.00000000  1
  Rh  Rh64  1  0.83952500  0.78922300  0.00000000  1
  Rh  Rh65  1  0.25498900  0.08739700  0.00000000  1
  Rh  Rh66  1  0.58231500  0.91768500  0.00000000  1
  Rh  Rh67  1  0.91768500  0.41768500  0.00000000  1
  Rh  Rh68  1  0.75498900  0.41260300  0.00000000  1
  Rh  Rh69  1  0.90206500  0.93315000  0.00000000  1
  Rh  Rh70  1  0.40206500  0.56685000  0.00000000  1
  Rh  Rh71  1  0.33952500  0.71077700  0.00000000  1
  Rh  Rh72  1  0.45210800  0.82609800  0.00000000  1
  Rh  Rh73  1  0.56685000  0.59793500  0.00000000  1
