# generated using pymatgen
data_Ba2Fe6O11
_symmetry_space_group_name_H-M   'P 1'
_cell_length_a   5.26835200
_cell_length_b   9.09608600
_cell_length_c   23.53977800
_cell_angle_alpha   90.00000000
_cell_angle_beta   90.00000000
_cell_angle_gamma   90.00000000
_symmetry_Int_Tables_number   1
_chemical_formula_structural   Ba2Fe6O11
_chemical_formula_sum   'Ba8 Fe24 O44'
_cell_volume   1128.05871422
_cell_formula_units_Z   4
loop_
 _symmetry_equiv_pos_site_id
 _symmetry_equiv_pos_as_xyz
  1  'x, y, z'
loop_
 _atom_site_type_symbol
 _atom_site_label
 _atom_site_symmetry_multiplicity
 _atom_site_fract_x
 _atom_site_fract_y
 _atom_site_fract_z
 _atom_site_occupancy
  Ba  Ba0  1  0.39333800  0.00000000  0.35971900  1
  Ba  Ba1  1  0.52323000  0.50000000  0.65355000  1
  Ba  Ba2  1  0.97677000  0.00000000  0.15355000  1
  Ba  Ba3  1  0.60666200  0.00000000  0.64028100  1
  Ba  Ba4  1  0.47677000  0.50000000  0.34645000  1
  Ba  Ba5  1  0.10666200  0.50000000  0.85971900  1
  Ba  Ba6  1  0.02323000  0.00000000  0.84645000  1
  Ba  Ba7  1  0.89333800  0.50000000  0.14028100  1
  Fe  Fe8  1  0.50000000  0.83358000  0.50000000  1
  Fe  Fe9  1  0.49453900  0.17880900  0.07296200  1
  Fe  Fe10  1  0.00000000  0.00000000  0.50000000  1
  Fe  Fe11  1  0.99453900  0.67880900  0.42703800  1
  Fe  Fe12  1  0.39087700  0.29405500  0.21417500  1
  Fe  Fe13  1  0.50000000  0.16642000  0.50000000  1
  Fe  Fe14  1  0.00000000  0.33358000  0.00000000  1
  Fe  Fe15  1  0.00546100  0.32119100  0.57296200  1
  Fe  Fe16  1  0.99453900  0.32119100  0.42703800  1
  Fe  Fe17  1  0.89087700  0.20594500  0.28582500  1
  Fe  Fe18  1  0.89087700  0.79405500  0.28582500  1
  Fe  Fe19  1  0.39087700  0.70594500  0.21417500  1
  Fe  Fe20  1  0.60912300  0.29405500  0.78582500  1
  Fe  Fe21  1  0.00000000  0.66642000  0.00000000  1
  Fe  Fe22  1  0.60912300  0.70594500  0.78582500  1
  Fe  Fe23  1  0.10912300  0.20594500  0.71417500  1
  Fe  Fe24  1  0.50000000  0.50000000  0.50000000  1
  Fe  Fe25  1  0.49453900  0.82119100  0.07296200  1
  Fe  Fe26  1  0.50546100  0.82119100  0.92703800  1
  Fe  Fe27  1  0.50546100  0.17880900  0.92703800  1
  Fe  Fe28  1  0.10912300  0.79405500  0.71417500  1
  Fe  Fe29  1  0.00000000  0.00000000  0.00000000  1
  Fe  Fe30  1  0.00546100  0.67880900  0.57296200  1
  Fe  Fe31  1  0.50000000  0.50000000  0.00000000  1
  O  O32  1  0.68057200  0.34526300  0.04930100  1
  O  O33  1  0.18057200  0.15473700  0.45069900  1
  O  O34  1  0.96878100  0.73648900  0.78574600  1
  O  O35  1  0.53121900  0.23648900  0.28574600  1
  O  O36  1  0.00865000  0.67647100  0.34658600  1
  O  O37  1  0.99135000  0.67647100  0.65341400  1
  O  O38  1  0.31942800  0.34526300  0.95069900  1
  O  O39  1  0.53121900  0.76351100  0.28574600  1
  O  O40  1  0.18294900  0.50000000  0.44481200  1
  O  O41  1  0.94775200  0.00000000  0.29651800  1
  O  O42  1  0.55224800  0.50000000  0.79651800  1
  O  O43  1  0.67182000  0.00000000  0.45529200  1
  O  O44  1  0.68057200  0.65473700  0.04930100  1
  O  O45  1  0.82818000  0.50000000  0.95529200  1
  O  O46  1  0.05224800  0.00000000  0.70348200  1
  O  O47  1  0.14898200  0.16310600  0.04931400  1
  O  O48  1  0.17182000  0.50000000  0.04470800  1
  O  O49  1  0.85101800  0.16310600  0.95068600  1
  O  O50  1  0.03121900  0.73648900  0.21425400  1
  O  O51  1  0.99135000  0.32352900  0.65341400  1
  O  O52  1  0.46878100  0.23648900  0.71425400  1
  O  O53  1  0.68294900  0.00000000  0.05518800  1
  O  O54  1  0.46878100  0.76351100  0.71425400  1
  O  O55  1  0.35101800  0.66310600  0.54931400  1
  O  O56  1  0.49135000  0.82352900  0.84658600  1
  O  O57  1  0.44775200  0.50000000  0.20348200  1
  O  O58  1  0.03121900  0.26351100  0.21425400  1
  O  O59  1  0.50865000  0.82352900  0.15341400  1
  O  O60  1  0.31705100  0.00000000  0.94481200  1
  O  O61  1  0.14898200  0.83689400  0.04931400  1
  O  O62  1  0.50865000  0.17647100  0.15341400  1
  O  O63  1  0.96878100  0.26351100  0.78574600  1
  O  O64  1  0.35101800  0.33689400  0.54931400  1
  O  O65  1  0.31942800  0.65473700  0.95069900  1
  O  O66  1  0.81942800  0.84526300  0.54930100  1
  O  O67  1  0.81705100  0.50000000  0.55518800  1
  O  O68  1  0.18057200  0.84526300  0.45069900  1
  O  O69  1  0.00865000  0.32352900  0.34658600  1
  O  O70  1  0.85101800  0.83689400  0.95068600  1
  O  O71  1  0.32818000  0.00000000  0.54470800  1
  O  O72  1  0.64898200  0.66310600  0.45068600  1
  O  O73  1  0.64898200  0.33689400  0.45068600  1
  O  O74  1  0.81942800  0.15473700  0.54930100  1
  O  O75  1  0.49135000  0.17647100  0.84658600  1
