# generated using pymatgen
data_Tl2Zn(CN)4
_symmetry_space_group_name_H-M   'P 1'
_cell_length_a   17.81058439
_cell_length_b   17.81058439
_cell_length_c   17.81058439
_cell_angle_alpha   60.00000000
_cell_angle_beta   60.00000000
_cell_angle_gamma   60.00000000
_symmetry_Int_Tables_number   1
_chemical_formula_structural   Tl2Zn(CN)4
_chemical_formula_sum   'Tl32 Zn16 C64 N64'
_cell_volume   3995.02508639
_cell_formula_units_Z   16
loop_
 _symmetry_equiv_pos_site_id
 _symmetry_equiv_pos_as_xyz
  1  'x, y, z'
loop_
 _atom_site_type_symbol
 _atom_site_label
 _atom_site_symmetry_multiplicity
 _atom_site_fract_x
 _atom_site_fract_y
 _atom_site_fract_z
 _atom_site_occupancy
  Tl  Tl0  1  0.93843300  0.18470000  0.93843300  1
  Tl  Tl1  1  0.43361900  0.97702500  0.68777400  1
  Tl  Tl2  1  0.18777400  0.47702500  0.93361900  1
  Tl  Tl3  1  0.18470000  0.93843300  0.93843300  1
  Tl  Tl4  1  0.93843300  0.93843300  0.93843300  1
  Tl  Tl5  1  0.68777400  0.43361900  0.97702500  1
  Tl  Tl6  1  0.43843300  0.43843300  0.68470000  1
  Tl  Tl7  1  0.68470000  0.43843300  0.43843300  1
  Tl  Tl8  1  0.90158100  0.97702500  0.43361900  1
  Tl  Tl9  1  0.97702500  0.43361900  0.90158100  1
  Tl  Tl10  1  0.40158100  0.47702500  0.18777400  1
  Tl  Tl11  1  0.93361900  0.40158100  0.18777400  1
  Tl  Tl12  1  0.97702500  0.90158100  0.68777400  1
  Tl  Tl13  1  0.47702500  0.40158100  0.93361900  1
  Tl  Tl14  1  0.90158100  0.68777400  0.97702500  1
  Tl  Tl15  1  0.43843300  0.68470000  0.43843300  1
  Tl  Tl16  1  0.43843300  0.43843300  0.43843300  1
  Tl  Tl17  1  0.18777400  0.93361900  0.40158100  1
  Tl  Tl18  1  0.90158100  0.43361900  0.68777400  1
  Tl  Tl19  1  0.40158100  0.18777400  0.93361900  1
  Tl  Tl20  1  0.43361900  0.68777400  0.90158100  1
  Tl  Tl21  1  0.47702500  0.18777400  0.40158100  1
  Tl  Tl22  1  0.93361900  0.47702500  0.40158100  1
  Tl  Tl23  1  0.40158100  0.93361900  0.47702500  1
  Tl  Tl24  1  0.68777400  0.97702500  0.90158100  1
  Tl  Tl25  1  0.93843300  0.93843300  0.18470000  1
  Tl  Tl26  1  0.18777400  0.40158100  0.47702500  1
  Tl  Tl27  1  0.68777400  0.90158100  0.43361900  1
  Tl  Tl28  1  0.43361900  0.90158100  0.97702500  1
  Tl  Tl29  1  0.93361900  0.18777400  0.47702500  1
  Tl  Tl30  1  0.97702500  0.68777400  0.43361900  1
  Tl  Tl31  1  0.47702500  0.93361900  0.18777400  1
  Zn  Zn32  1  0.62876100  0.11371600  0.62876100  1
  Zn  Zn33  1  0.62876100  0.62876100  0.62876100  1
  Zn  Zn34  1  0.62876100  0.62876100  0.11371600  1
  Zn  Zn35  1  0.61371600  0.12876100  0.12876100  1
  Zn  Zn36  1  0.75000000  0.75000000  0.75000000  1
  Zn  Zn37  1  0.12876100  0.61371600  0.12876100  1
  Zn  Zn38  1  0.25000000  0.75000000  0.25000000  1
  Zn  Zn39  1  0.11371600  0.62876100  0.62876100  1
  Zn  Zn40  1  0.25000000  0.75000000  0.75000000  1
  Zn  Zn41  1  0.75000000  0.25000000  0.75000000  1
  Zn  Zn42  1  0.25000000  0.25000000  0.25000000  1
  Zn  Zn43  1  0.75000000  0.75000000  0.25000000  1
  Zn  Zn44  1  0.12876100  0.12876100  0.12876100  1
  Zn  Zn45  1  0.12876100  0.12876100  0.61371600  1
  Zn  Zn46  1  0.25000000  0.25000000  0.75000000  1
  Zn  Zn47  1  0.75000000  0.25000000  0.25000000  1
  C  C48  1  0.61424100  0.76458600  0.06462300  1
  C  C49  1  0.61424100  0.55655000  0.76458600  1
  C  C50  1  0.11424100  0.05655000  0.56462300  1
  C  C51  1  0.56462300  0.11424100  0.05655000  1
  C  C52  1  0.82972900  0.11738900  0.76433800  1
  C  C53  1  0.28854300  0.11738900  0.82972900  1
  C  C54  1  0.06462300  0.76458600  0.55655000  1
  C  C55  1  0.79586000  0.79586000  0.79586000  1
  C  C56  1  0.26458600  0.11424100  0.56462300  1
  C  C57  1  0.05655000  0.26458600  0.56462300  1
  C  C58  1  0.82972900  0.28854300  0.11738900  1
  C  C59  1  0.05655000  0.11424100  0.26458600  1
  C  C60  1  0.26458600  0.56462300  0.05655000  1
  C  C61  1  0.26433800  0.78854300  0.61738900  1
  C  C62  1  0.11738900  0.82972900  0.28854300  1
  C  C63  1  0.61424100  0.06462300  0.55655000  1
  C  C64  1  0.11424100  0.56462300  0.26458600  1
  C  C65  1  0.76433800  0.82972900  0.11738900  1
  C  C66  1  0.78854300  0.32972900  0.61738900  1
  C  C67  1  0.25439100  0.58187000  0.58187000  1
  C  C68  1  0.08187000  0.08187000  0.75439100  1
  C  C69  1  0.79586000  0.61241900  0.79586000  1
  C  C70  1  0.29586000  0.29586000  0.11241900  1
  C  C71  1  0.29586000  0.29586000  0.29586000  1
  C  C72  1  0.11738900  0.28854300  0.76433800  1
  C  C73  1  0.26433800  0.61738900  0.32972900  1
  C  C74  1  0.78854300  0.26433800  0.32972900  1
  C  C75  1  0.32972900  0.26433800  0.61738900  1
  C  C76  1  0.11424100  0.26458600  0.05655000  1
  C  C77  1  0.11241900  0.29586000  0.29586000  1
  C  C78  1  0.55655000  0.06462300  0.76458600  1
  C  C79  1  0.28854300  0.76433800  0.11738900  1
  C  C80  1  0.26433800  0.32972900  0.78854300  1
  C  C81  1  0.76458600  0.55655000  0.06462300  1
  C  C82  1  0.58187000  0.58187000  0.25439100  1
  C  C83  1  0.78854300  0.61738900  0.26433800  1
  C  C84  1  0.61738900  0.78854300  0.32972900  1
  C  C85  1  0.61738900  0.26433800  0.78854300  1
  C  C86  1  0.05655000  0.56462300  0.11424100  1
  C  C87  1  0.61738900  0.32972900  0.26433800  1
  C  C88  1  0.28854300  0.82972900  0.76433800  1
  C  C89  1  0.79586000  0.79586000  0.61241900  1
  C  C90  1  0.76433800  0.11738900  0.28854300  1
  C  C91  1  0.08187000  0.75439100  0.08187000  1
  C  C92  1  0.06462300  0.55655000  0.61424100  1
  C  C93  1  0.61241900  0.79586000  0.79586000  1
  C  C94  1  0.58187000  0.58187000  0.58187000  1
  C  C95  1  0.56462300  0.05655000  0.26458600  1
  C  C96  1  0.58187000  0.25439100  0.58187000  1
  C  C97  1  0.76458600  0.06462300  0.61424100  1
  C  C98  1  0.82972900  0.76433800  0.28854300  1
  C  C99  1  0.06462300  0.61424100  0.76458600  1
  C  C100  1  0.11738900  0.76433800  0.82972900  1
  C  C101  1  0.56462300  0.26458600  0.11424100  1
  C  C102  1  0.29586000  0.11241900  0.29586000  1
  C  C103  1  0.76458600  0.61424100  0.55655000  1
  C  C104  1  0.08187000  0.08187000  0.08187000  1
  C  C105  1  0.55655000  0.61424100  0.06462300  1
  C  C106  1  0.32972900  0.78854300  0.26433800  1
  C  C107  1  0.55655000  0.76458600  0.61424100  1
  C  C108  1  0.75439100  0.08187000  0.08187000  1
  C  C109  1  0.32972900  0.61738900  0.78854300  1
  C  C110  1  0.76433800  0.28854300  0.82972900  1
  C  C111  1  0.26458600  0.05655000  0.11424100  1
  N  N112  1  0.55489700  0.33531000  0.55489700  1
  N  N113  1  0.77464100  0.30914700  0.87627000  1
  N  N114  1  0.59766700  0.52004400  0.84450300  1
  N  N115  1  0.82283200  0.53150300  0.82283200  1
  N  N116  1  0.87627000  0.77464100  0.30914700  1
  N  N117  1  0.32283200  0.32283200  0.32283200  1
  N  N118  1  0.82283200  0.82283200  0.53150300  1
  N  N119  1  0.77464100  0.03994200  0.30914700  1
  N  N120  1  0.53994200  0.27464100  0.80914700  1
  N  N121  1  0.55489700  0.55489700  0.33531000  1
  N  N122  1  0.33531000  0.55489700  0.55489700  1
  N  N123  1  0.05489700  0.05489700  0.83531000  1
  N  N124  1  0.34450300  0.02004400  0.09766700  1
  N  N125  1  0.30914700  0.77464100  0.03994200  1
  N  N126  1  0.30914700  0.03994200  0.87627000  1
  N  N127  1  0.32283200  0.03150300  0.32283200  1
  N  N128  1  0.03778500  0.84450300  0.52004400  1
  N  N129  1  0.03778500  0.59766700  0.84450300  1
  N  N130  1  0.83531000  0.05489700  0.05489700  1
  N  N131  1  0.87627000  0.03994200  0.77464100  1
  N  N132  1  0.53778500  0.09766700  0.02004400  1
  N  N133  1  0.53150300  0.82283200  0.82283200  1
  N  N134  1  0.27464100  0.37627000  0.80914700  1
  N  N135  1  0.53778500  0.34450300  0.09766700  1
  N  N136  1  0.84450300  0.03778500  0.59766700  1
  N  N137  1  0.03150300  0.32283200  0.32283200  1
  N  N138  1  0.03994200  0.77464100  0.87627000  1
  N  N139  1  0.53994200  0.80914700  0.37627000  1
  N  N140  1  0.53994200  0.37627000  0.27464100  1
  N  N141  1  0.37627000  0.80914700  0.27464100  1
  N  N142  1  0.87627000  0.30914700  0.03994200  1
  N  N143  1  0.05489700  0.05489700  0.05489700  1
  N  N144  1  0.80914700  0.53994200  0.27464100  1
  N  N145  1  0.32283200  0.32283200  0.03150300  1
  N  N146  1  0.84450300  0.52004400  0.03778500  1
  N  N147  1  0.02004400  0.09766700  0.34450300  1
  N  N148  1  0.80914700  0.27464100  0.37627000  1
  N  N149  1  0.09766700  0.34450300  0.02004400  1
  N  N150  1  0.03778500  0.52004400  0.59766700  1
  N  N151  1  0.84450300  0.59766700  0.52004400  1
  N  N152  1  0.27464100  0.53994200  0.37627000  1
  N  N153  1  0.52004400  0.03778500  0.84450300  1
  N  N154  1  0.59766700  0.03778500  0.52004400  1
  N  N155  1  0.09766700  0.02004400  0.53778500  1
  N  N156  1  0.53778500  0.02004400  0.34450300  1
  N  N157  1  0.03994200  0.87627000  0.30914700  1
  N  N158  1  0.34450300  0.09766700  0.53778500  1
  N  N159  1  0.09766700  0.53778500  0.34450300  1
  N  N160  1  0.30914700  0.87627000  0.77464100  1
  N  N161  1  0.59766700  0.84450300  0.03778500  1
  N  N162  1  0.02004400  0.34450300  0.53778500  1
  N  N163  1  0.82283200  0.82283200  0.82283200  1
  N  N164  1  0.02004400  0.53778500  0.09766700  1
  N  N165  1  0.77464100  0.87627000  0.03994200  1
  N  N166  1  0.34450300  0.53778500  0.02004400  1
  N  N167  1  0.05489700  0.83531000  0.05489700  1
  N  N168  1  0.37627000  0.27464100  0.53994200  1
  N  N169  1  0.55489700  0.55489700  0.55489700  1
  N  N170  1  0.52004400  0.59766700  0.03778500  1
  N  N171  1  0.52004400  0.84450300  0.59766700  1
  N  N172  1  0.37627000  0.53994200  0.80914700  1
  N  N173  1  0.03994200  0.30914700  0.77464100  1
  N  N174  1  0.80914700  0.37627000  0.53994200  1
  N  N175  1  0.27464100  0.80914700  0.53994200  1
