# generated using pymatgen
data_SiO2
_symmetry_space_group_name_H-M   'P 1'
_cell_length_a   13.38371349
_cell_length_b   13.38371349
_cell_length_c   20.85589100
_cell_angle_alpha   90.00000000
_cell_angle_beta   90.00000000
_cell_angle_gamma   116.84496195
_symmetry_Int_Tables_number   1
_chemical_formula_structural   SiO2
_chemical_formula_sum   'Si56 O112'
_cell_volume   3333.18693860
_cell_formula_units_Z   56
loop_
 _symmetry_equiv_pos_site_id
 _symmetry_equiv_pos_as_xyz
  1  'x, y, z'
loop_
 _atom_site_type_symbol
 _atom_site_label
 _atom_site_symmetry_multiplicity
 _atom_site_fract_x
 _atom_site_fract_y
 _atom_site_fract_z
 _atom_site_occupancy
  Si  Si0  1  0.54874700  0.45125300  0.30819900  1
  Si  Si1  1  0.04874700  0.95125300  0.69180100  1
  Si  Si2  1  0.55869400  0.81507900  0.93605000  1
  Si  Si3  1  0.31507900  0.05869400  0.93605000  1
  Si  Si4  1  0.22197300  0.35561400  0.18480300  1
  Si  Si5  1  0.05048800  0.94951200  0.94586400  1
  Si  Si6  1  0.52820200  0.47179800  0.81890900  1
  Si  Si7  1  0.36405000  0.86405000  0.87631600  1
  Si  Si8  1  0.02820200  0.97179800  0.18109100  1
  Si  Si9  1  0.13595000  0.63595000  0.87631600  1
  Si  Si10  1  0.97179800  0.02820200  0.81890900  1
  Si  Si11  1  0.18284300  0.43172100  0.69287200  1
  Si  Si12  1  0.35561400  0.22197300  0.81519700  1
  Si  Si13  1  0.43172100  0.18284300  0.30712800  1
  Si  Si14  1  0.27802700  0.14438600  0.18480300  1
  Si  Si15  1  0.31715700  0.06827900  0.69287200  1
  Si  Si16  1  0.47179800  0.52820200  0.18109100  1
  Si  Si17  1  0.64438600  0.77802700  0.18480300  1
  Si  Si18  1  0.13437800  0.63437800  0.72369800  1
  Si  Si19  1  0.64512500  0.78058800  0.43100700  1
  Si  Si20  1  0.85561400  0.72197300  0.18480300  1
  Si  Si21  1  0.86562200  0.36562200  0.27630200  1
  Si  Si22  1  0.06827900  0.31715700  0.30712800  1
  Si  Si23  1  0.72197300  0.85561400  0.81519700  1
  Si  Si24  1  0.81507900  0.55869400  0.06395000  1
  Si  Si25  1  0.46645600  0.53354400  0.43217700  1
  Si  Si26  1  0.68284300  0.93172100  0.30712800  1
  Si  Si27  1  0.68492100  0.94130600  0.06395000  1
  Si  Si28  1  0.21941200  0.35487500  0.43100700  1
  Si  Si29  1  0.96645600  0.03354400  0.56782300  1
  Si  Si30  1  0.55048800  0.44951200  0.05413600  1
  Si  Si31  1  0.77802700  0.64438600  0.81519700  1
  Si  Si32  1  0.14438600  0.27802700  0.81519700  1
  Si  Si33  1  0.28058800  0.14512500  0.43100700  1
  Si  Si34  1  0.94130600  0.68492100  0.93605000  1
  Si  Si35  1  0.78058800  0.64512500  0.56899300  1
  Si  Si36  1  0.95125300  0.04874700  0.30819900  1
  Si  Si37  1  0.05869400  0.31507900  0.06395000  1
  Si  Si38  1  0.93172100  0.68284300  0.69287200  1
  Si  Si39  1  0.53354400  0.46645600  0.56782300  1
  Si  Si40  1  0.44130600  0.18492100  0.06395000  1
  Si  Si41  1  0.56827900  0.81715700  0.69287200  1
  Si  Si42  1  0.81715700  0.56827900  0.30712800  1
  Si  Si43  1  0.85487500  0.71941200  0.43100700  1
  Si  Si44  1  0.86405000  0.36405000  0.12368400  1
  Si  Si45  1  0.44951200  0.55048800  0.94586400  1
  Si  Si46  1  0.35487500  0.21941200  0.56899300  1
  Si  Si47  1  0.71941200  0.85487500  0.56899300  1
  Si  Si48  1  0.63437800  0.13437800  0.27630200  1
  Si  Si49  1  0.03354400  0.96645600  0.43217700  1
  Si  Si50  1  0.63595000  0.13595000  0.12368400  1
  Si  Si51  1  0.14512500  0.28058800  0.56899300  1
  Si  Si52  1  0.36562200  0.86562200  0.72369800  1
  Si  Si53  1  0.18492100  0.44130600  0.93605000  1
  Si  Si54  1  0.94951200  0.05048800  0.05413600  1
  Si  Si55  1  0.45125300  0.54874700  0.69180100  1
  O  O56  1  0.36063700  0.97316600  0.69065000  1
  O  O57  1  0.64838100  0.03341400  0.09046800  1
  O  O58  1  0.49502400  0.31750900  0.30112500  1
  O  O59  1  0.52230600  0.47769400  0.12575500  1
  O  O60  1  0.25000000  0.25000000  0.57661600  1
  O  O61  1  0.00136600  0.99863400  0.74884500  1
  O  O62  1  0.99502400  0.81750900  0.69887500  1
  O  O63  1  0.52683400  0.13936300  0.30935000  1
  O  O64  1  0.97316600  0.36063700  0.30935000  1
  O  O65  1  0.33608100  0.47252800  0.17562600  1
  O  O66  1  0.47252800  0.33608100  0.82437400  1
  O  O67  1  0.16331900  0.34874200  0.88089800  1
  O  O68  1  0.50178100  0.68429300  0.95593600  1
  O  O69  1  0.88802500  0.38802500  0.19981300  1
  O  O70  1  0.75000000  0.25000000  0.11296200  1
  O  O71  1  0.02683400  0.63936300  0.69065000  1
  O  O72  1  0.36236800  0.14584800  0.37381300  1
  O  O73  1  0.14838100  0.53341400  0.90953200  1
  O  O74  1  0.65125800  0.83668100  0.88089800  1
  O  O75  1  0.66391900  0.52747200  0.82437400  1
  O  O76  1  0.99863400  0.00136600  0.25115500  1
  O  O77  1  0.86777700  0.65182900  0.24583400  1
  O  O78  1  0.15741200  0.34258800  0.50000000  1
  O  O79  1  0.49821900  0.31570700  0.04406400  1
  O  O80  1  0.63936300  0.02683400  0.30935000  1
  O  O81  1  0.47316600  0.86063700  0.69065000  1
  O  O82  1  0.63763200  0.85415200  0.62618700  1
  O  O83  1  0.38691100  0.11308900  0.00000000  1
  O  O84  1  0.65182900  0.86777700  0.75416600  1
  O  O85  1  0.31570700  0.49821900  0.95593600  1
  O  O86  1  0.47608300  0.33052900  0.57280400  1
  O  O87  1  0.81570700  0.99821900  0.04406400  1
  O  O88  1  0.47769400  0.52230600  0.87424500  1
  O  O89  1  0.86063700  0.47316600  0.30935000  1
  O  O90  1  0.35161900  0.96658600  0.90953200  1
  O  O91  1  0.14584800  0.36236800  0.62618700  1
  O  O92  1  0.63222300  0.84817100  0.24583400  1
  O  O93  1  0.68249100  0.50497600  0.30112500  1
  O  O94  1  0.85161900  0.46658600  0.09046800  1
  O  O95  1  0.34817100  0.13222300  0.24583400  1
  O  O96  1  0.98448000  0.01552000  0.37637400  1
  O  O97  1  0.35415200  0.13763200  0.62618700  1
  O  O98  1  0.84258800  0.65741200  0.50000000  1
  O  O99  1  0.02391700  0.16947100  0.57280400  1
  O  O100  1  0.97608300  0.83052900  0.42719600  1
  O  O101  1  0.02747200  0.16391900  0.82437400  1
  O  O102  1  0.86236800  0.64584800  0.62618700  1
  O  O103  1  0.00000000  0.00000000  0.50000000  1
  O  O104  1  0.50136600  0.49863400  0.25115500  1
  O  O105  1  0.48448000  0.51552000  0.62362600  1
  O  O106  1  0.13936300  0.52683400  0.69065000  1
  O  O107  1  0.68429300  0.50178100  0.04406400  1
  O  O108  1  0.85415200  0.63763200  0.37381300  1
  O  O109  1  0.25000000  0.25000000  0.19693600  1
  O  O110  1  0.31750900  0.49502400  0.69887500  1
  O  O111  1  0.25000000  0.75000000  0.71188400  1
  O  O112  1  0.25000000  0.75000000  0.88703800  1
  O  O113  1  0.96658600  0.35161900  0.09046800  1
  O  O114  1  0.64584800  0.86236800  0.37381300  1
  O  O115  1  0.66331900  0.84874200  0.11910200  1
  O  O116  1  0.49863400  0.50136600  0.74884500  1
  O  O117  1  0.83052900  0.97608300  0.57280400  1
  O  O118  1  0.75000000  0.75000000  0.19693600  1
  O  O119  1  0.50497600  0.68249100  0.69887500  1
  O  O120  1  0.36777700  0.15182900  0.75416600  1
  O  O121  1  0.51552000  0.48448000  0.37637400  1
  O  O122  1  0.25000000  0.25000000  0.80306400  1
  O  O123  1  0.46658600  0.85161900  0.90953200  1
  O  O124  1  0.52747200  0.66391900  0.17562600  1
  O  O125  1  0.50000000  0.50000000  0.50000000  1
  O  O126  1  0.34258800  0.15741200  0.50000000  1
  O  O127  1  0.00000000  0.00000000  0.00000000  1
  O  O128  1  0.33668100  0.15125800  0.88089800  1
  O  O129  1  0.75000000  0.75000000  0.57661600  1
  O  O130  1  0.83608100  0.97252800  0.82437400  1
  O  O131  1  0.00497600  0.18249100  0.30112500  1
  O  O132  1  0.13763200  0.35415200  0.37381300  1
  O  O133  1  0.16947100  0.02391700  0.42719600  1
  O  O134  1  0.88691100  0.61308900  0.00000000  1
  O  O135  1  0.84874200  0.66331900  0.88089800  1
  O  O136  1  0.75000000  0.75000000  0.42338400  1
  O  O137  1  0.61308900  0.88691100  0.00000000  1
  O  O138  1  0.84817100  0.63222300  0.75416600  1
  O  O139  1  0.83668100  0.65125800  0.11910200  1
  O  O140  1  0.15125800  0.33668100  0.11910200  1
  O  O141  1  0.81750900  0.99502400  0.30112500  1
  O  O142  1  0.97252800  0.83608100  0.17562600  1
  O  O143  1  0.02230600  0.97769400  0.87424500  1
  O  O144  1  0.13222300  0.34817100  0.75416600  1
  O  O145  1  0.25000000  0.25000000  0.42338400  1
  O  O146  1  0.03341400  0.64838100  0.90953200  1
  O  O147  1  0.15182900  0.36777700  0.24583400  1
  O  O148  1  0.18249100  0.00497600  0.69887500  1
  O  O149  1  0.00178100  0.18429300  0.04406400  1
  O  O150  1  0.01552000  0.98448000  0.62362600  1
  O  O151  1  0.11197500  0.61197500  0.80018700  1
  O  O152  1  0.38802500  0.88802500  0.80018700  1
  O  O153  1  0.50000000  0.50000000  0.00000000  1
  O  O154  1  0.75000000  0.25000000  0.28811600  1
  O  O155  1  0.97769400  0.02230600  0.12575500  1
  O  O156  1  0.53341400  0.14838100  0.09046800  1
  O  O157  1  0.18429300  0.00178100  0.95593600  1
  O  O158  1  0.75000000  0.75000000  0.80306400  1
  O  O159  1  0.66947100  0.52391700  0.57280400  1
  O  O160  1  0.61197500  0.11197500  0.19981300  1
  O  O161  1  0.65741200  0.84258800  0.50000000  1
  O  O162  1  0.52391700  0.66947100  0.42719600  1
  O  O163  1  0.99821900  0.81570700  0.95593600  1
  O  O164  1  0.34874200  0.16331900  0.11910200  1
  O  O165  1  0.16391900  0.02747200  0.17562600  1
  O  O166  1  0.33052900  0.47608300  0.42719600  1
  O  O167  1  0.11308900  0.38691100  0.00000000  1
