# generated using pymatgen
data_Ru2S4Cl13
_symmetry_space_group_name_H-M   'P 1'
_cell_length_a   15.58107800
_cell_length_b   9.17895200
_cell_length_c   33.96740841
_cell_angle_alpha   83.80665993
_cell_angle_beta   90.00000000
_cell_angle_gamma   90.00000000
_symmetry_Int_Tables_number   1
_chemical_formula_structural   Ru2S4Cl13
_chemical_formula_sum   'Ru16 S32 Cl104'
_cell_volume   4829.59632683
_cell_formula_units_Z   8
loop_
 _symmetry_equiv_pos_site_id
 _symmetry_equiv_pos_as_xyz
  1  'x, y, z'
loop_
 _atom_site_type_symbol
 _atom_site_label
 _atom_site_symmetry_multiplicity
 _atom_site_fract_x
 _atom_site_fract_y
 _atom_site_fract_z
 _atom_site_occupancy
  Ru  Ru0  1  0.72088600  0.88257600  0.50426100  1
  Ru  Ru1  1  0.56389500  0.01740400  0.23174000  1
  Ru  Ru2  1  0.78623800  0.58498400  0.91919500  1
  Ru  Ru3  1  0.94297800  0.14579100  0.75203500  1
  Ru  Ru4  1  0.93610500  0.51740400  0.73174000  1
  Ru  Ru5  1  0.21376200  0.41501600  0.08080500  1
  Ru  Ru6  1  0.43610500  0.98259600  0.76826000  1
  Ru  Ru7  1  0.27911400  0.11742400  0.49573900  1
  Ru  Ru8  1  0.06389500  0.48259600  0.26826000  1
  Ru  Ru9  1  0.44297800  0.35420900  0.74796500  1
  Ru  Ru10  1  0.28623800  0.91501600  0.58080500  1
  Ru  Ru11  1  0.55702200  0.64579100  0.25203500  1
  Ru  Ru12  1  0.22088600  0.61742400  0.99573900  1
  Ru  Ru13  1  0.05702200  0.85420900  0.24796500  1
  Ru  Ru14  1  0.71376200  0.08498400  0.41919500  1
  Ru  Ru15  1  0.77911400  0.38257600  0.00426100  1
  S  S16  1  0.87244000  0.00646700  0.80050300  1
  S  S17  1  0.62756000  0.50646700  0.30050300  1
  S  S18  1  0.21377700  0.50753900  0.93871500  1
  S  S19  1  0.60922000  0.72881000  0.51995500  1
  S  S20  1  0.45147900  0.12119000  0.89224600  1
  S  S21  1  0.53452400  0.85360200  0.28966500  1
  S  S22  1  0.05744000  0.01485400  0.76318900  1
  S  S23  1  0.54852100  0.87881000  0.10775400  1
  S  S24  1  0.78622300  0.49246100  0.06128500  1
  S  S25  1  0.55744000  0.48514600  0.73681100  1
  S  S26  1  0.79555000  0.11427600  0.36467500  1
  S  S27  1  0.10922000  0.77119000  0.98004500  1
  S  S28  1  0.12756000  0.99353300  0.19949700  1
  S  S29  1  0.37244000  0.49353300  0.69949700  1
  S  S30  1  0.20445000  0.88572400  0.63532500  1
  S  S31  1  0.04852100  0.62119000  0.39224600  1
  S  S32  1  0.89078000  0.22881000  0.01995500  1
  S  S33  1  0.70445000  0.61427600  0.86467500  1
  S  S34  1  0.81809700  0.72128000  0.53110900  1
  S  S35  1  0.03452400  0.64639800  0.21033500  1
  S  S36  1  0.68190300  0.22128000  0.03110900  1
  S  S37  1  0.46547600  0.14639800  0.71033500  1
  S  S38  1  0.29555000  0.38572400  0.13532500  1
  S  S39  1  0.71377700  0.99246100  0.56128500  1
  S  S40  1  0.96547600  0.35360200  0.78966500  1
  S  S41  1  0.31809700  0.77872000  0.96889100  1
  S  S42  1  0.28622300  0.00753900  0.43871500  1
  S  S43  1  0.18190300  0.27872000  0.46889100  1
  S  S44  1  0.95147900  0.37881000  0.60775400  1
  S  S45  1  0.94256000  0.98514600  0.23681100  1
  S  S46  1  0.44256000  0.51485400  0.26318900  1
  S  S47  1  0.39078000  0.27119000  0.48004500  1
  Cl  Cl48  1  0.71518000  0.33868900  0.41475900  1
  Cl  Cl49  1  0.11451200  0.89836300  0.14689100  1
  Cl  Cl50  1  0.10068100  0.38538500  0.33219400  1
  Cl  Cl51  1  0.40951900  0.86302200  0.30666400  1
  Cl  Cl52  1  0.61288800  0.51998900  0.20185500  1
  Cl  Cl53  1  0.05496500  0.78806000  0.42659100  1
  Cl  Cl54  1  0.07628500  0.86032000  0.62270100  1
  Cl  Cl55  1  0.76863900  0.32471100  0.93493800  1
  Cl  Cl56  1  0.89931900  0.61461500  0.66780600  1
  Cl  Cl57  1  0.89068300  0.77821300  0.04689600  1
  Cl  Cl58  1  0.12797100  0.89457400  0.92590400  1
  Cl  Cl59  1  0.47674500  0.82723200  0.20355200  1
  Cl  Cl60  1  0.39068300  0.72178700  0.45310400  1
  Cl  Cl61  1  0.32494000  0.16877400  0.76649100  1
  Cl  Cl62  1  0.78466300  0.87320300  0.60694500  1
  Cl  Cl63  1  0.06651000  0.89705500  0.81770200  1
  Cl  Cl64  1  0.59327900  0.96210200  0.58682100  1
  Cl  Cl65  1  0.34460500  0.83749300  0.73804000  1
  Cl  Cl66  1  0.88711200  0.01998900  0.70185500  1
  Cl  Cl67  1  0.05852600  0.18864000  0.47077200  1
  Cl  Cl68  1  0.02325500  0.32723200  0.70355200  1
  Cl  Cl69  1  0.62797100  0.60542600  0.57409600  1
  Cl  Cl70  1  0.89862600  0.56683900  0.87506600  1
  Cl  Cl71  1  0.21533700  0.12679700  0.39305500  1
  Cl  Cl72  1  0.39060300  0.43303900  0.51679600  1
  Cl  Cl73  1  0.18244100  0.91859300  0.52623400  1
  Cl  Cl74  1  0.57350200  0.05001700  0.89798100  1
  Cl  Cl75  1  0.67506000  0.83122600  0.23350900  1
  Cl  Cl76  1  0.60939700  0.56696100  0.48320400  1
  Cl  Cl77  1  0.94503500  0.21194000  0.57340900  1
  Cl  Cl78  1  0.65539500  0.16250700  0.26196000  1
  Cl  Cl79  1  0.84460500  0.66250700  0.76196000  1
  Cl  Cl80  1  0.42371500  0.36032000  0.12270100  1
  Cl  Cl81  1  0.75731300  0.52822500  0.29235200  1
  Cl  Cl82  1  0.88548800  0.10163700  0.85310900  1
  Cl  Cl83  1  0.60931700  0.27821300  0.54689600  1
  Cl  Cl84  1  0.83687500  0.55344600  0.49627400  1
  Cl  Cl85  1  0.24268700  0.47177500  0.70764800  1
  Cl  Cl86  1  0.21518000  0.16131100  0.08524100  1
  Cl  Cl87  1  0.68244100  0.58140700  0.97376600  1
  Cl  Cl88  1  0.52325500  0.17276800  0.79644800  1
  Cl  Cl89  1  0.10931700  0.22178700  0.95310400  1
  Cl  Cl90  1  0.92371500  0.13968000  0.37729900  1
  Cl  Cl91  1  0.28482000  0.66131100  0.58524100  1
  Cl  Cl92  1  0.26863900  0.17528900  0.56506200  1
  Cl  Cl93  1  0.90672100  0.46210200  0.08682100  1
  Cl  Cl94  1  0.23136100  0.67528900  0.06506200  1
  Cl  Cl95  1  0.15539500  0.33749300  0.23804000  1
  Cl  Cl96  1  0.71533700  0.37320300  0.10694500  1
  Cl  Cl97  1  0.04919700  0.67143600  0.73667600  1
  Cl  Cl98  1  0.43349000  0.39705500  0.31770200  1
  Cl  Cl99  1  0.61451200  0.60163700  0.35310900  1
  Cl  Cl100  1  0.81755900  0.08140700  0.47376600  1
  Cl  Cl101  1  0.60068100  0.11461500  0.16780600  1
  Cl  Cl102  1  0.54919700  0.82856400  0.76332400  1
  Cl  Cl103  1  0.31755900  0.41859300  0.02623400  1
  Cl  Cl104  1  0.95080300  0.32856400  0.26332400  1
  Cl  Cl105  1  0.07350200  0.44998300  0.60201900  1
  Cl  Cl106  1  0.87202900  0.10542600  0.07409600  1
  Cl  Cl107  1  0.74268700  0.02822500  0.79235200  1
  Cl  Cl108  1  0.28466300  0.62679700  0.89305500  1
  Cl  Cl109  1  0.42649800  0.94998300  0.10201900  1
  Cl  Cl110  1  0.38548800  0.39836300  0.64689100  1
  Cl  Cl111  1  0.25731300  0.97177500  0.20764800  1
  Cl  Cl112  1  0.17506000  0.66877400  0.26649100  1
  Cl  Cl113  1  0.39931900  0.88538500  0.83219400  1
  Cl  Cl114  1  0.78482000  0.83868900  0.91475900  1
  Cl  Cl115  1  0.61114300  0.05527800  0.47396500  1
  Cl  Cl116  1  0.38885700  0.94472200  0.52603500  1
  Cl  Cl117  1  0.38711200  0.48001100  0.79814500  1
  Cl  Cl118  1  0.69988000  0.42066300  0.83868000  1
  Cl  Cl119  1  0.10137400  0.43316100  0.12493400  1
  Cl  Cl120  1  0.56651000  0.60294500  0.68229800  1
  Cl  Cl121  1  0.16312500  0.44655400  0.50372600  1
  Cl  Cl122  1  0.89060300  0.06696100  0.98320400  1
  Cl  Cl123  1  0.45080300  0.17143600  0.23667600  1
  Cl  Cl124  1  0.59048100  0.13697800  0.69333600  1
  Cl  Cl125  1  0.19988000  0.07933700  0.66132000  1
  Cl  Cl126  1  0.44503500  0.28806000  0.92659100  1
  Cl  Cl127  1  0.40672100  0.03789800  0.41317900  1
  Cl  Cl128  1  0.97674500  0.67276800  0.29644800  1
  Cl  Cl129  1  0.90951900  0.63697800  0.19333600  1
  Cl  Cl130  1  0.39862600  0.93316100  0.62493400  1
  Cl  Cl131  1  0.11288800  0.98001100  0.29814500  1
  Cl  Cl132  1  0.60137400  0.06683900  0.37506600  1
  Cl  Cl133  1  0.94147400  0.81136000  0.52922800  1
  Cl  Cl134  1  0.33687500  0.94655400  0.00372600  1
  Cl  Cl135  1  0.88885700  0.55527800  0.97396500  1
  Cl  Cl136  1  0.93349000  0.10294500  0.18229800  1
  Cl  Cl137  1  0.73136100  0.82471100  0.43493800  1
  Cl  Cl138  1  0.55852600  0.31136000  0.02922800  1
  Cl  Cl139  1  0.66312500  0.05344600  0.99627400  1
  Cl  Cl140  1  0.92649800  0.55001700  0.39798100  1
  Cl  Cl141  1  0.37202900  0.39457400  0.42590400  1
  Cl  Cl142  1  0.57628500  0.63968000  0.87729900  1
  Cl  Cl143  1  0.82494000  0.33122600  0.73350900  1
  Cl  Cl144  1  0.11114300  0.44472200  0.02603500  1
  Cl  Cl145  1  0.55496500  0.71194000  0.07340900  1
  Cl  Cl146  1  0.44147400  0.68864000  0.97077200  1
  Cl  Cl147  1  0.09048100  0.36302200  0.80666400  1
  Cl  Cl148  1  0.09327900  0.53789800  0.91317900  1
  Cl  Cl149  1  0.30012000  0.57933700  0.16132000  1
  Cl  Cl150  1  0.10939700  0.93303900  0.01679600  1
  Cl  Cl151  1  0.80012000  0.92066300  0.33868000  1
