# generated using pymatgen
data_Tl4Fe(CN)6
_symmetry_space_group_name_H-M   'P 1'
_cell_length_a   7.36155700
_cell_length_b   7.80870558
_cell_length_c   13.48306158
_cell_angle_alpha   105.20192005
_cell_angle_beta   90.52830080
_cell_angle_gamma   97.93636619
_symmetry_Int_Tables_number   1
_chemical_formula_structural   Tl4Fe(CN)6
_chemical_formula_sum   'Tl8 Fe2 C12 N12'
_cell_volume   739.94124032
_cell_formula_units_Z   2
loop_
 _symmetry_equiv_pos_site_id
 _symmetry_equiv_pos_as_xyz
  1  'x, y, z'
loop_
 _atom_site_type_symbol
 _atom_site_label
 _atom_site_symmetry_multiplicity
 _atom_site_fract_x
 _atom_site_fract_y
 _atom_site_fract_z
 _atom_site_occupancy
  Tl  Tl0  1  0.11956000  0.96728100  0.63418400  1
  Tl  Tl1  1  0.71771500  0.46256400  0.58168000  1
  Tl  Tl2  1  0.88044000  0.03271900  0.36581600  1
  Tl  Tl3  1  0.24337300  0.43264700  0.06834600  1
  Tl  Tl4  1  0.75662700  0.56735300  0.93165400  1
  Tl  Tl5  1  0.64952100  0.02462200  0.85214800  1
  Tl  Tl6  1  0.28228500  0.53743600  0.41832000  1
  Tl  Tl7  1  0.35047900  0.97537800  0.14785200  1
  Fe  Fe8  1  0.77317300  0.49998900  0.25227600  1
  Fe  Fe9  1  0.22682700  0.50001100  0.74772400  1
  C  C10  1  0.58230300  0.64231300  0.25421900  1
  C  C11  1  0.95690100  0.35222500  0.24363400  1
  C  C12  1  0.13936000  0.37227200  0.61360300  1
  C  C13  1  0.41769700  0.35768700  0.74578100  1
  C  C14  1  0.07302900  0.34883300  0.81084200  1
  C  C15  1  0.92697100  0.65116700  0.18915800  1
  C  C16  1  0.04309900  0.64777500  0.75636600  1
  C  C17  1  0.62387500  0.34809800  0.31754500  1
  C  C18  1  0.37612500  0.65190200  0.68245500  1
  C  C19  1  0.32079500  0.63164400  0.87998800  1
  C  C20  1  0.86064000  0.62772800  0.38639700  1
  C  C21  1  0.67920500  0.36835600  0.12001200  1
  N  N22  1  0.97953600  0.25929300  0.85501200  1
  N  N23  1  0.46381200  0.74093700  0.63577100  1
  N  N24  1  0.53618800  0.25906300  0.36422900  1
  N  N25  1  0.08746700  0.29754600  0.52732800  1
  N  N26  1  0.91253300  0.70245400  0.47267200  1
  N  N27  1  0.92939400  0.74378800  0.75976800  1
  N  N28  1  0.02046400  0.74070700  0.14498800  1
  N  N29  1  0.07060600  0.25621200  0.24023200  1
  N  N30  1  0.38472800  0.70404500  0.96416900  1
  N  N31  1  0.54145400  0.27559200  0.74863500  1
  N  N32  1  0.45854600  0.72440800  0.25136500  1
  N  N33  1  0.61527200  0.29595500  0.03583100  1
