# generated using pymatgen
data_K2ZnH12(SO7)2
_symmetry_space_group_name_H-M   'P 1'
_cell_length_a   11.94155200
_cell_length_b   7.28940100
_cell_length_c   9.82606491
_cell_angle_alpha   71.69871181
_cell_angle_beta   90.00000000
_cell_angle_gamma   90.00000000
_symmetry_Int_Tables_number   1
_chemical_formula_structural   K2ZnH12(SO7)2
_chemical_formula_sum   'K4 Zn2 H24 S4 O28'
_cell_volume   812.06332541
_cell_formula_units_Z   2
loop_
 _symmetry_equiv_pos_site_id
 _symmetry_equiv_pos_as_xyz
  1  'x, y, z'
loop_
 _atom_site_type_symbol
 _atom_site_label
 _atom_site_symmetry_multiplicity
 _atom_site_fract_x
 _atom_site_fract_y
 _atom_site_fract_z
 _atom_site_occupancy
  K  K0  1  0.68583600  0.35370400  0.82041700  1
  K  K1  1  0.18583600  0.64629600  0.67958300  1
  K  K2  1  0.31416400  0.64629600  0.17958300  1
  K  K3  1  0.81416400  0.35370400  0.32041700  1
  Zn  Zn4  1  0.50000000  0.00000000  0.50000000  1
  Zn  Zn5  1  0.00000000  0.00000000  0.00000000  1
  H  H6  1  0.12937400  0.11225400  0.71635600  1
  H  H7  1  0.20342800  0.30062200  0.96964400  1
  H  H8  1  0.62937400  0.88774600  0.78364400  1
  H  H9  1  0.87037100  0.94355600  0.67227100  1
  H  H10  1  0.94847900  0.62832000  0.83784900  1
  H  H11  1  0.37037100  0.05644400  0.82772900  1
  H  H12  1  0.04291400  0.58380200  0.16489000  1
  H  H13  1  0.55152100  0.62832000  0.33784900  1
  H  H14  1  0.45708600  0.58380200  0.66489000  1
  H  H15  1  0.05152100  0.37168000  0.16215100  1
  H  H16  1  0.77039700  0.07655400  0.60384000  1
  H  H17  1  0.72960300  0.07655400  0.10384000  1
  H  H18  1  0.70342800  0.69937800  0.53035600  1
  H  H19  1  0.54291400  0.41619800  0.33511000  1
  H  H20  1  0.37062600  0.11225400  0.21635600  1
  H  H21  1  0.95708600  0.41619800  0.83511000  1
  H  H22  1  0.12962900  0.05644400  0.32772900  1
  H  H23  1  0.62962900  0.94355600  0.17227100  1
  H  H24  1  0.22960300  0.92344600  0.39616000  1
  H  H25  1  0.44847900  0.37168000  0.66215100  1
  H  H26  1  0.29657200  0.30062200  0.46964400  1
  H  H27  1  0.87062600  0.88774600  0.28364400  1
  H  H28  1  0.79657200  0.69937800  0.03035600  1
  H  H29  1  0.27039700  0.92344600  0.89616000  1
  S  S30  1  0.11362000  0.32971500  0.50272000  1
  S  S31  1  0.38638000  0.32971500  0.00272000  1
  S  S32  1  0.88638000  0.67028500  0.49728000  1
  S  S33  1  0.61362000  0.67028500  0.99728000  1
  O  O34  1  0.94826100  0.54865900  0.77123800  1
  O  O35  1  0.15638100  0.92455600  0.34647900  1
  O  O36  1  0.05173900  0.45134100  0.22876200  1
  O  O37  1  0.51796700  0.76147500  0.44481200  1
  O  O38  1  0.39721300  0.72621400  0.44179500  1
  O  O39  1  0.88377400  0.74857800  0.31734700  1
  O  O40  1  0.11622600  0.25142200  0.68265300  1
  O  O41  1  0.61622600  0.74857800  0.81734700  1
  O  O42  1  0.65638100  0.07544400  0.15352100  1
  O  O43  1  0.84819100  0.11918800  0.01081500  1
  O  O44  1  0.84361900  0.07544400  0.65352100  1
  O  O45  1  0.34819100  0.88081200  0.48918500  1
  O  O46  1  0.60278700  0.27378600  0.55820500  1
  O  O47  1  0.44826100  0.45134100  0.72876200  1
  O  O48  1  0.34361900  0.92455600  0.84647900  1
  O  O49  1  0.01796700  0.23852500  0.05518800  1
  O  O50  1  0.25546600  0.40785300  0.96248900  1
  O  O51  1  0.98203300  0.76147500  0.94481200  1
  O  O52  1  0.75546600  0.59214700  0.53751100  1
  O  O53  1  0.38377400  0.25142200  0.18265300  1
  O  O54  1  0.24453400  0.40785300  0.46248900  1
  O  O55  1  0.55173900  0.54865900  0.27123800  1
  O  O56  1  0.15180900  0.88081200  0.98918500  1
  O  O57  1  0.74453400  0.59214700  0.03751100  1
  O  O58  1  0.10278700  0.72621400  0.94179500  1
  O  O59  1  0.65180900  0.11918800  0.51081500  1
  O  O60  1  0.48203300  0.23852500  0.55518800  1
  O  O61  1  0.89721300  0.27378600  0.05820500  1
