# generated using pymatgen
data_YbBeF4
_symmetry_space_group_name_H-M   'P 1'
_cell_length_a   6.57353700
_cell_length_b   7.11663028
_cell_length_c   7.52021875
_cell_angle_alpha   103.52582795
_cell_angle_beta   92.59101119
_cell_angle_gamma   103.46402438
_symmetry_Int_Tables_number   1
_chemical_formula_structural   YbBeF4
_chemical_formula_sum   'Yb4 Be4 F16'
_cell_volume   330.79536529
_cell_formula_units_Z   4
loop_
 _symmetry_equiv_pos_site_id
 _symmetry_equiv_pos_as_xyz
  1  'x, y, z'
loop_
 _atom_site_type_symbol
 _atom_site_label
 _atom_site_symmetry_multiplicity
 _atom_site_fract_x
 _atom_site_fract_y
 _atom_site_fract_z
 _atom_site_occupancy
  Yb  Yb0  1  0.24124600  0.01217200  0.88493500  1
  Yb  Yb1  1  0.22336400  0.93932400  0.41965000  1
  Yb  Yb2  1  0.80014000  0.99693100  0.14593700  1
  Yb  Yb3  1  0.75060900  0.11047300  0.69164000  1
  Be  Be4  1  0.79422200  0.59121400  0.61528700  1
  Be  Be5  1  0.23899500  0.47891200  0.29874000  1
  Be  Be6  1  0.40974900  0.35791500  0.60491400  1
  Be  Be7  1  0.60960700  0.62981800  0.23288300  1
  F  F8  1  0.51519600  0.81899800  0.28498200  1
  F  F9  1  0.39721100  0.44588100  0.16365100  1
  F  F10  1  0.41453100  0.89662000  0.64765800  1
  F  F11  1  0.96861100  0.14894900  0.94185200  1
  F  F12  1  0.74785900  0.66892800  0.08458800  1
  F  F13  1  0.27779800  0.23930400  0.72317800  1
  F  F14  1  0.88487900  0.42471500  0.65409900  1
  F  F15  1  0.57585900  0.08948400  0.97977900  1
  F  F16  1  0.24516800  0.38674400  0.45594100  1
  F  F17  1  0.14013800  0.97173700  0.14813300  1
  F  F18  1  0.10492500  0.61347500  0.29921500  1
  F  F19  1  0.94269400  0.80591800  0.69117200  1
  F  F20  1  0.71425200  0.58165400  0.40351200  1
  F  F21  1  0.51827700  0.20148100  0.48892800  1
  F  F22  1  0.91605500  0.03292200  0.43974800  1
  F  F23  1  0.56861400  0.55643100  0.69957600  1
