# generated using pymatgen
data_SrAl2(SiO4)2
_symmetry_space_group_name_H-M   'P 1'
_cell_length_a   9.38512716
_cell_length_b   9.38512716
_cell_length_c   9.64965912
_cell_angle_alpha   81.05555954
_cell_angle_beta   81.05555954
_cell_angle_gamma   74.48105678
_symmetry_Int_Tables_number   1
_chemical_formula_structural   SrAl2(SiO4)2
_chemical_formula_sum   'Sr4 Al8 Si8 O32'
_cell_volume   803.19067467
_cell_formula_units_Z   4
loop_
 _symmetry_equiv_pos_site_id
 _symmetry_equiv_pos_as_xyz
  1  'x, y, z'
loop_
 _atom_site_type_symbol
 _atom_site_label
 _atom_site_symmetry_multiplicity
 _atom_site_fract_x
 _atom_site_fract_y
 _atom_site_fract_z
 _atom_site_occupancy
  Sr  Sr0  1  0.94883900  0.63401200  0.77779300  1
  Sr  Sr1  1  0.05116100  0.36598800  0.22220700  1
  Sr  Sr2  1  0.36598800  0.05116100  0.72220700  1
  Sr  Sr3  1  0.63401200  0.94883900  0.27779300  1
  Al  Al4  1  0.85861900  0.96981200  0.88613600  1
  Al  Al5  1  0.26583000  0.53099500  0.96431600  1
  Al  Al6  1  0.03018800  0.14138100  0.61386400  1
  Al  Al7  1  0.53099500  0.26583000  0.46431600  1
  Al  Al8  1  0.96981200  0.85861900  0.38613600  1
  Al  Al9  1  0.73417000  0.46900500  0.03568400  1
  Al  Al10  1  0.14138100  0.03018800  0.11386400  1
  Al  Al11  1  0.46900500  0.73417000  0.53568400  1
  Si  Si12  1  0.75946900  0.00330200  0.61320300  1
  Si  Si13  1  0.24053100  0.99669800  0.38679700  1
  Si  Si14  1  0.51968700  0.72030000  0.86739700  1
  Si  Si15  1  0.48031300  0.27970000  0.13260300  1
  Si  Si16  1  0.99669800  0.24053100  0.88679700  1
  Si  Si17  1  0.00330200  0.75946900  0.11320300  1
  Si  Si18  1  0.27970000  0.48031300  0.63260300  1
  Si  Si19  1  0.72030000  0.51968700  0.36739700  1
  O  O20  1  0.31298200  0.37467700  0.09558400  1
  O  O21  1  0.87674600  0.13999500  0.91297900  1
  O  O22  1  0.63697400  0.39344700  0.44168800  1
  O  O23  1  0.62532300  0.68701800  0.40441600  1
  O  O24  1  0.23247000  0.48540500  0.80299200  1
  O  O25  1  0.60415600  0.07941700  0.54163900  1
  O  O26  1  0.60655300  0.36302600  0.05831200  1
  O  O27  1  0.12749400  0.97003400  0.71511400  1
  O  O28  1  0.13999500  0.87674600  0.41297900  1
  O  O29  1  0.84342800  0.84796500  0.54174100  1
  O  O30  1  0.36302600  0.60655300  0.55831200  1
  O  O31  1  0.95966700  0.71986400  0.28429900  1
  O  O32  1  0.37467700  0.31298200  0.59558400  1
  O  O33  1  0.15203500  0.15657200  0.95825900  1
  O  O34  1  0.92058300  0.39584400  0.95836100  1
  O  O35  1  0.71986400  0.95966700  0.78429900  1
  O  O36  1  0.76753000  0.51459500  0.19700800  1
  O  O37  1  0.39344700  0.63697400  0.94168800  1
  O  O38  1  0.07941700  0.60415600  0.04163900  1
  O  O39  1  0.68701800  0.62532300  0.90441600  1
  O  O40  1  0.15657200  0.15203500  0.45825900  1
  O  O41  1  0.86000500  0.12325400  0.58702100  1
  O  O42  1  0.28013600  0.04033300  0.21570100  1
  O  O43  1  0.04033300  0.28013600  0.71570100  1
  O  O44  1  0.51459500  0.76753000  0.69700800  1
  O  O45  1  0.12325400  0.86000500  0.08702100  1
  O  O46  1  0.39584400  0.92058300  0.45836100  1
  O  O47  1  0.97003400  0.12749400  0.21511400  1
  O  O48  1  0.87250600  0.02996600  0.28488600  1
  O  O49  1  0.48540500  0.23247000  0.30299200  1
  O  O50  1  0.84796500  0.84342800  0.04174100  1
  O  O51  1  0.02996600  0.87250600  0.78488600  1
