# generated using pymatgen
data_SnPO3
_symmetry_space_group_name_H-M   'P 1'
_cell_length_a   7.35448096
_cell_length_b   7.35448096
_cell_length_c   4.85821990
_cell_angle_alpha   75.53409497
_cell_angle_beta   75.53409497
_cell_angle_gamma   120.57708055
_symmetry_Int_Tables_number   1
_chemical_formula_structural   SnPO3
_chemical_formula_sum   'Sn2 P2 O6'
_cell_volume   195.39734301
_cell_formula_units_Z   2
loop_
 _symmetry_equiv_pos_site_id
 _symmetry_equiv_pos_as_xyz
  1  'x, y, z'
loop_
 _atom_site_type_symbol
 _atom_site_label
 _atom_site_symmetry_multiplicity
 _atom_site_fract_x
 _atom_site_fract_y
 _atom_site_fract_z
 _atom_site_occupancy
  Sn  Sn0  1  0.41005000  0.68533500  0.65789800  1
  Sn  Sn1  1  0.68533500  0.41005000  0.15789800  1
  P  P2  1  0.78397200  0.06213900  0.85769900  1
  P  P3  1  0.06213900  0.78397200  0.35769900  1
  O  O4  1  0.63559000  0.02019300  0.66703600  1
  O  O5  1  0.02019300  0.63559000  0.16703600  1
  O  O6  1  0.84548300  0.27860400  0.91868700  1
  O  O7  1  0.27860400  0.84548300  0.41868700  1
  O  O8  1  0.66982600  0.83280800  0.16178100  1
  O  O9  1  0.83280800  0.66982600  0.66178100  1
