# generated using pymatgen
data_P2SN3Cl5O
_symmetry_space_group_name_H-M   'P 1'
_cell_length_a   10.60575300
_cell_length_b   10.70721825
_cell_length_c   17.39545332
_cell_angle_alpha   89.46993530
_cell_angle_beta   106.00982816
_cell_angle_gamma   119.19328866
_symmetry_Int_Tables_number   1
_chemical_formula_structural   P2SN3Cl5O
_chemical_formula_sum   'P12 S6 N18 Cl30 O6'
_cell_volume   1639.01747636
_cell_formula_units_Z   6
loop_
 _symmetry_equiv_pos_site_id
 _symmetry_equiv_pos_as_xyz
  1  'x, y, z'
loop_
 _atom_site_type_symbol
 _atom_site_label
 _atom_site_symmetry_multiplicity
 _atom_site_fract_x
 _atom_site_fract_y
 _atom_site_fract_z
 _atom_site_occupancy
  P  P0  1  0.82655900  0.39641500  0.12089600  1
  P  P1  1  0.67655100  0.12364500  0.19214200  1
  P  P2  1  0.71214400  0.77242900  0.89052000  1
  P  P3  1  0.32344900  0.87635500  0.80785800  1
  P  P4  1  0.51403600  0.50005200  0.21526500  1
  P  P5  1  0.28785600  0.22757100  0.10948000  1
  P  P6  1  0.17344100  0.60358500  0.87910400  1
  P  P7  1  0.70460100  0.84237200  0.54739900  1
  P  P8  1  0.76965800  0.59227500  0.57269500  1
  P  P9  1  0.23034200  0.40772500  0.42730500  1
  P  P10  1  0.48596400  0.49994800  0.78473500  1
  P  P11  1  0.29539900  0.15762800  0.45260100  1
  S  S12  1  0.82230500  0.61444500  0.20819800  1
  S  S13  1  0.38053000  0.71823400  0.48058900  1
  S  S14  1  0.63014600  0.98821300  0.90474200  1
  S  S15  1  0.61947000  0.28176600  0.51941100  1
  S  S16  1  0.17769500  0.38555500  0.79180200  1
  S  S17  1  0.36985400  0.01178700  0.09525800  1
  N  N18  1  0.35248400  0.48978600  0.81534200  1
  N  N19  1  0.52206700  0.01272500  0.12281200  1
  N  N20  1  0.77112800  0.28447800  0.17963900  1
  N  N21  1  0.11152500  0.43766100  0.84504300  1
  N  N22  1  0.47793300  0.98727500  0.87718800  1
  N  N23  1  0.63476800  0.43232400  0.53201700  1
  N  N24  1  0.22887200  0.71552200  0.82036100  1
  N  N25  1  0.39280000  0.15587400  0.13304700  1
  N  N26  1  0.88847500  0.56233900  0.15495700  1
  N  N27  1  0.54193300  0.82757500  0.53722400  1
  N  N28  1  0.60720000  0.84412600  0.86695300  1
  N  N29  1  0.45806700  0.17242500  0.46277600  1
  N  N30  1  0.36523200  0.56767600  0.46798300  1
  N  N31  1  0.64877700  0.62707500  0.83455200  1
  N  N32  1  0.28801000  0.29918400  0.44900700  1
  N  N33  1  0.35122300  0.37292500  0.16544800  1
  N  N34  1  0.64751600  0.51021400  0.18465800  1
  N  N35  1  0.71199000  0.70081600  0.55099300  1
  Cl  Cl36  1  0.84720100  0.60382300  0.69374700  1
  Cl  Cl37  1  0.66714700  0.34167600  0.01248800  1
  Cl  Cl38  1  0.95520200  0.64643600  0.53911500  1
  Cl  Cl39  1  0.00138200  0.40461200  0.09301700  1
  Cl  Cl40  1  0.15279900  0.39617700  0.30625300  1
  Cl  Cl41  1  0.78381700  0.94308500  0.45798400  1
  Cl  Cl42  1  0.33285300  0.65832400  0.98751200  1
  Cl  Cl43  1  0.99861800  0.59538800  0.90698300  1
  Cl  Cl44  1  0.74765900  0.73999000  0.00703700  1
  Cl  Cl45  1  0.92256900  0.90792600  0.88691600  1
  Cl  Cl46  1  0.04479800  0.35356400  0.46088500  1
  Cl  Cl47  1  0.36777400  0.78784200  0.36713600  1
  Cl  Cl48  1  0.15777500  0.01331800  0.35182600  1
  Cl  Cl49  1  0.19840400  0.97227700  0.79144800  1
  Cl  Cl50  1  0.63977200  0.12864600  0.29895100  1
  Cl  Cl51  1  0.91510700  0.59168200  0.32579000  1
  Cl  Cl52  1  0.08489300  0.40831800  0.67421000  1
  Cl  Cl53  1  0.21618300  0.05691500  0.54201600  1
  Cl  Cl54  1  0.49366900  0.31622300  0.78988700  1
  Cl  Cl55  1  0.50633100  0.68377700  0.21011300  1
  Cl  Cl56  1  0.76825500  0.14946100  0.84844300  1
  Cl  Cl57  1  0.84222500  0.98668200  0.64817400  1
  Cl  Cl58  1  0.63222600  0.21215800  0.63286400  1
  Cl  Cl59  1  0.55345300  0.48184000  0.33364800  1
  Cl  Cl60  1  0.25234100  0.26001000  0.99296300  1
  Cl  Cl61  1  0.36022800  0.87135400  0.70104900  1
  Cl  Cl62  1  0.07743100  0.09207400  0.11308400  1
  Cl  Cl63  1  0.80159600  0.02772300  0.20855200  1
  Cl  Cl64  1  0.23174500  0.85053900  0.15155700  1
  Cl  Cl65  1  0.44654700  0.51816000  0.66635200  1
  O  O66  1  0.73681300  0.27616300  0.49576500  1
  O  O67  1  0.12537300  0.23327500  0.78901800  1
  O  O68  1  0.26318700  0.72383700  0.50423500  1
  O  O69  1  0.28985800  0.96341300  0.00998400  1
  O  O70  1  0.71014200  0.03658700  0.99001600  1
  O  O71  1  0.87462700  0.76672500  0.21098200  1
