# generated using pymatgen
data_Sr2MnMoO6
_symmetry_space_group_name_H-M   'P 1'
_cell_length_a   5.69326100
_cell_length_b   5.75338036
_cell_length_c   9.89574170
_cell_angle_alpha   89.30571746
_cell_angle_beta   73.28045036
_cell_angle_gamma   60.34591476
_symmetry_Int_Tables_number   1
_chemical_formula_structural   Sr2MnMoO6
_chemical_formula_sum   'Sr4 Mn2 Mo2 O12'
_cell_volume   266.45579359
_cell_formula_units_Z   2
loop_
 _symmetry_equiv_pos_site_id
 _symmetry_equiv_pos_as_xyz
  1  'x, y, z'
loop_
 _atom_site_type_symbol
 _atom_site_label
 _atom_site_symmetry_multiplicity
 _atom_site_fract_x
 _atom_site_fract_y
 _atom_site_fract_z
 _atom_site_occupancy
  Sr  Sr0  1  0.24998900  0.37500500  0.12503300  1
  Sr  Sr1  1  0.25000500  0.87500100  0.62498800  1
  Sr  Sr2  1  0.75000100  0.62499200  0.87500100  1
  Sr  Sr3  1  0.75000000  0.12501000  0.37501600  1
  Mn  Mn4  1  0.00001800  0.49993400  0.49977500  1
  Mn  Mn5  1  0.99994300  0.00004600  0.00006200  1
  Mo  Mo6  1  0.49999700  0.75000300  0.25002900  1
  Mo  Mo7  1  0.50004100  0.24998900  0.74997100  1
  O  O8  1  0.73749100  0.39373000  0.13127800  1
  O  O9  1  0.73766400  0.89352300  0.63117400  1
  O  O10  1  0.26243800  0.60636400  0.86878100  1
  O  O11  1  0.26239800  0.10639600  0.36880900  1
  O  O12  1  0.20934700  0.15936300  0.84061700  1
  O  O13  1  0.20928800  0.65931000  0.34068900  1
  O  O14  1  0.79071200  0.34066700  0.65933000  1
  O  O15  1  0.79065400  0.84065300  0.15941300  1
  O  O16  1  0.68128800  0.10467100  0.89531800  1
  O  O17  1  0.68136800  0.60465000  0.39535600  1
  O  O18  1  0.31866700  0.39534100  0.60464900  1
  O  O19  1  0.31869200  0.89534900  0.10471000  1
