# generated using pymatgen
data_In2Cl3
_symmetry_space_group_name_H-M   'P 1'
_cell_length_a   12.77342200
_cell_length_b   14.74335900
_cell_length_c   25.43814100
_cell_angle_alpha   90.00000000
_cell_angle_beta   90.00000000
_cell_angle_gamma   90.00000000
_symmetry_Int_Tables_number   1
_chemical_formula_structural   In2Cl3
_chemical_formula_sum   'In64 Cl96'
_cell_volume   4790.59074671
_cell_formula_units_Z   32
loop_
 _symmetry_equiv_pos_site_id
 _symmetry_equiv_pos_as_xyz
  1  'x, y, z'
loop_
 _atom_site_type_symbol
 _atom_site_label
 _atom_site_symmetry_multiplicity
 _atom_site_fract_x
 _atom_site_fract_y
 _atom_site_fract_z
 _atom_site_occupancy
  In  In0  1  0.25716400  0.07950300  0.33625400  1
  In  In1  1  0.41077800  0.36898400  0.75000000  1
  In  In2  1  0.58121400  0.64152400  0.66134900  1
  In  In3  1  0.07831500  0.37897300  0.05442200  1
  In  In4  1  0.91878600  0.14152400  0.33865100  1
  In  In5  1  0.58922200  0.63101600  0.25000000  1
  In  In6  1  0.07831500  0.37897300  0.44557800  1
  In  In7  1  0.57974800  0.17287100  0.84514300  1
  In  In8  1  0.25716400  0.07950300  0.16374600  1
  In  In9  1  0.41464400  0.36496600  0.52962100  1
  In  In10  1  0.26807900  0.10747800  0.84111400  1
  In  In11  1  0.23192100  0.60747800  0.34111400  1
  In  In12  1  0.25289800  0.11235800  0.49493200  1
  In  In13  1  0.91878600  0.14152400  0.16134900  1
  In  In14  1  0.76807900  0.39252200  0.65888600  1
  In  In15  1  0.07730400  0.37192500  0.25000000  1
  In  In16  1  0.74283600  0.92049700  0.66374600  1
  In  In17  1  0.07974800  0.32712900  0.84514300  1
  In  In18  1  0.42168500  0.87897300  0.55442200  1
  In  In19  1  0.42168500  0.87897300  0.94557800  1
  In  In20  1  0.07974800  0.32712900  0.65485700  1
  In  In21  1  0.42025200  0.82712900  0.34514300  1
  In  In22  1  0.42025200  0.82712900  0.15485700  1
  In  In23  1  0.74283600  0.92049700  0.83625400  1
  In  In24  1  0.57831500  0.12102700  0.05442200  1
  In  In25  1  0.75716400  0.42049700  0.33625400  1
  In  In26  1  0.57831500  0.12102700  0.44557800  1
  In  In27  1  0.26807900  0.10747800  0.65888600  1
  In  In28  1  0.41464400  0.36496600  0.97037900  1
  In  In29  1  0.75289800  0.38764200  0.00506800  1
  In  In30  1  0.75289800  0.38764200  0.49493200  1
  In  In31  1  0.57974800  0.17287100  0.65485700  1
  In  In32  1  0.75716400  0.42049700  0.16374600  1
  In  In33  1  0.58121400  0.64152400  0.83865100  1
  In  In34  1  0.24710200  0.61235800  0.99493200  1
  In  In35  1  0.23192100  0.60747800  0.15888600  1
  In  In36  1  0.58535600  0.63503400  0.02962100  1
  In  In37  1  0.58535600  0.63503400  0.47037900  1
  In  In38  1  0.08121400  0.85847600  0.66134900  1
  In  In39  1  0.41878600  0.35847600  0.33865100  1
  In  In40  1  0.92168500  0.62102700  0.55442200  1
  In  In41  1  0.91464400  0.13503400  0.97037900  1
  In  In42  1  0.24283600  0.57950300  0.83625400  1
  In  In43  1  0.73192100  0.89252200  0.34111400  1
  In  In44  1  0.41878600  0.35847600  0.16134900  1
  In  In45  1  0.92025200  0.67287100  0.15485700  1
  In  In46  1  0.74710200  0.88764200  0.50506800  1
  In  In47  1  0.42269600  0.87192500  0.75000000  1
  In  In48  1  0.76807900  0.39252200  0.84111400  1
  In  In49  1  0.91077800  0.13101600  0.75000000  1
  In  In50  1  0.25289800  0.11235800  0.00506800  1
  In  In51  1  0.57730400  0.12807500  0.25000000  1
  In  In52  1  0.73192100  0.89252200  0.15888600  1
  In  In53  1  0.74710200  0.88764200  0.99493200  1
  In  In54  1  0.24283600  0.57950300  0.66374600  1
  In  In55  1  0.91464400  0.13503400  0.52962100  1
  In  In56  1  0.92168500  0.62102700  0.94557800  1
  In  In57  1  0.08535600  0.86496600  0.47037900  1
  In  In58  1  0.08922200  0.86898400  0.25000000  1
  In  In59  1  0.92025200  0.67287100  0.34514300  1
  In  In60  1  0.08121400  0.85847600  0.83865100  1
  In  In61  1  0.92269600  0.62807500  0.75000000  1
  In  In62  1  0.08535600  0.86496600  0.02962100  1
  In  In63  1  0.24710200  0.61235800  0.50506800  1
  Cl  Cl64  1  0.39668100  0.35973900  0.65184300  1
  Cl  Cl65  1  0.39347000  0.66489800  0.25000000  1
  Cl  Cl66  1  0.36568700  0.76574000  0.82307300  1
  Cl  Cl67  1  0.78797700  0.59950500  0.25000000  1
  Cl  Cl68  1  0.91585900  0.37431000  0.55304000  1
  Cl  Cl69  1  0.83929700  0.27460800  0.43063600  1
  Cl  Cl70  1  0.59067500  0.40061800  0.06375200  1
  Cl  Cl71  1  0.89668100  0.14026100  0.65184300  1
  Cl  Cl72  1  0.83258700  0.75875600  0.45586200  1
  Cl  Cl73  1  0.16741300  0.24124400  0.54413800  1
  Cl  Cl74  1  0.33929700  0.22539200  0.06936400  1
  Cl  Cl75  1  0.67824200  0.50577000  0.94020900  1
  Cl  Cl76  1  0.13431300  0.26574000  0.17692700  1
  Cl  Cl77  1  0.17824200  0.99423000  0.55979100  1
  Cl  Cl78  1  0.41585900  0.12569000  0.94696000  1
  Cl  Cl79  1  0.66257200  0.01653700  0.55555000  1
  Cl  Cl80  1  0.10653000  0.16489800  0.75000000  1
  Cl  Cl81  1  0.16257200  0.48346300  0.55555000  1
  Cl  Cl82  1  0.33742800  0.98346300  0.44445000  1
  Cl  Cl83  1  0.16070300  0.72539200  0.56936400  1
  Cl  Cl84  1  0.28797700  0.90049500  0.25000000  1
  Cl  Cl85  1  0.63431300  0.23426000  0.17692700  1
  Cl  Cl86  1  0.66070300  0.77460800  0.93063600  1
  Cl  Cl87  1  0.10502700  0.70532900  0.75000000  1
  Cl  Cl88  1  0.55818000  0.45793800  0.25000000  1
  Cl  Cl89  1  0.66070300  0.77460800  0.56936400  1
  Cl  Cl90  1  0.75616600  0.04782400  0.25000000  1
  Cl  Cl91  1  0.44182000  0.54206200  0.75000000  1
  Cl  Cl92  1  0.82175800  0.00577000  0.44020900  1
  Cl  Cl93  1  0.16070300  0.72539200  0.93063600  1
  Cl  Cl94  1  0.09067500  0.09938200  0.43624800  1
  Cl  Cl95  1  0.58414100  0.87431000  0.44696000  1
  Cl  Cl96  1  0.16257200  0.48346300  0.94445000  1
  Cl  Cl97  1  0.13431300  0.26574000  0.32307300  1
  Cl  Cl98  1  0.25616600  0.45217600  0.25000000  1
  Cl  Cl99  1  0.10400600  0.69139000  0.25000000  1
  Cl  Cl100  1  0.83742800  0.51653700  0.05555000  1
  Cl  Cl101  1  0.66257200  0.01653700  0.94445000  1
  Cl  Cl102  1  0.41585900  0.12569000  0.55304000  1
  Cl  Cl103  1  0.60502800  0.79467100  0.75000000  1
  Cl  Cl104  1  0.58414100  0.87431000  0.05304000  1
  Cl  Cl105  1  0.67824200  0.50577000  0.55979100  1
  Cl  Cl106  1  0.32175800  0.49423000  0.05979100  1
  Cl  Cl107  1  0.33742800  0.98346300  0.05555000  1
  Cl  Cl108  1  0.01633600  0.48061500  0.32337000  1
  Cl  Cl109  1  0.89668100  0.14026100  0.84815700  1
  Cl  Cl110  1  0.16741300  0.24124400  0.95586200  1
  Cl  Cl111  1  0.89347000  0.83510200  0.25000000  1
  Cl  Cl112  1  0.39599400  0.19139000  0.75000000  1
  Cl  Cl113  1  0.91585900  0.37431000  0.94696000  1
  Cl  Cl114  1  0.24383400  0.95217600  0.75000000  1
  Cl  Cl115  1  0.36568700  0.76574000  0.67692700  1
  Cl  Cl116  1  0.74383400  0.54782400  0.75000000  1
  Cl  Cl117  1  0.63431300  0.23426000  0.32307300  1
  Cl  Cl118  1  0.39497300  0.20532900  0.25000000  1
  Cl  Cl119  1  0.05818000  0.04206200  0.25000000  1
  Cl  Cl120  1  0.60400600  0.80861000  0.25000000  1
  Cl  Cl121  1  0.90932500  0.90061800  0.93624800  1
  Cl  Cl122  1  0.94182000  0.95793800  0.75000000  1
  Cl  Cl123  1  0.66741300  0.25875600  0.54413800  1
  Cl  Cl124  1  0.83929700  0.27460800  0.06936400  1
  Cl  Cl125  1  0.89497200  0.29467100  0.25000000  1
  Cl  Cl126  1  0.08414100  0.62569000  0.44696000  1
  Cl  Cl127  1  0.33929700  0.22539200  0.43063600  1
  Cl  Cl128  1  0.82175800  0.00577000  0.05979100  1
  Cl  Cl129  1  0.10331900  0.85973900  0.34815700  1
  Cl  Cl130  1  0.60653000  0.33510200  0.75000000  1
  Cl  Cl131  1  0.10331900  0.85973900  0.15184300  1
  Cl  Cl132  1  0.33258700  0.74124400  0.45586200  1
  Cl  Cl133  1  0.51633600  0.01938500  0.17663000  1
  Cl  Cl134  1  0.59067500  0.40061800  0.43624800  1
  Cl  Cl135  1  0.71202300  0.09950500  0.75000000  1
  Cl  Cl136  1  0.86568700  0.73426000  0.82307300  1
  Cl  Cl137  1  0.48366400  0.98061500  0.82337000  1
  Cl  Cl138  1  0.40932500  0.59938200  0.56375200  1
  Cl  Cl139  1  0.40932500  0.59938200  0.93624800  1
  Cl  Cl140  1  0.48366400  0.98061500  0.67663000  1
  Cl  Cl141  1  0.83258700  0.75875600  0.04413800  1
  Cl  Cl142  1  0.86568700  0.73426000  0.67692700  1
  Cl  Cl143  1  0.60331900  0.64026100  0.34815700  1
  Cl  Cl144  1  0.51633600  0.01938500  0.32337000  1
  Cl  Cl145  1  0.17824200  0.99423000  0.94020900  1
  Cl  Cl146  1  0.01633600  0.48061500  0.17663000  1
  Cl  Cl147  1  0.83742800  0.51653700  0.44445000  1
  Cl  Cl148  1  0.98366400  0.51938500  0.67663000  1
  Cl  Cl149  1  0.98366400  0.51938500  0.82337000  1
  Cl  Cl150  1  0.08414100  0.62569000  0.05304000  1
  Cl  Cl151  1  0.32175800  0.49423000  0.44020900  1
  Cl  Cl152  1  0.60331900  0.64026100  0.15184300  1
  Cl  Cl153  1  0.33258700  0.74124400  0.04413800  1
  Cl  Cl154  1  0.66741300  0.25875600  0.95586200  1
  Cl  Cl155  1  0.90932500  0.90061800  0.56375200  1
  Cl  Cl156  1  0.39668100  0.35973900  0.84815700  1
  Cl  Cl157  1  0.21202300  0.40049500  0.75000000  1
  Cl  Cl158  1  0.09067500  0.09938200  0.06375200  1
  Cl  Cl159  1  0.89599400  0.30861000  0.75000000  1
