# generated using pymatgen
data_Cs3(FeS2)2
_symmetry_space_group_name_H-M   'P 1'
_cell_length_a   7.62960400
_cell_length_b   11.13846600
_cell_length_c   13.11640500
_cell_angle_alpha   90.00000000
_cell_angle_beta   90.00000000
_cell_angle_gamma   90.00000000
_symmetry_Int_Tables_number   1
_chemical_formula_structural   Cs3(FeS2)2
_chemical_formula_sum   'Cs12 Fe8 S16'
_cell_volume   1114.65944129
_cell_formula_units_Z   4
loop_
 _symmetry_equiv_pos_site_id
 _symmetry_equiv_pos_as_xyz
  1  'x, y, z'
loop_
 _atom_site_type_symbol
 _atom_site_label
 _atom_site_symmetry_multiplicity
 _atom_site_fract_x
 _atom_site_fract_y
 _atom_site_fract_z
 _atom_site_occupancy
  Cs  Cs0  1  0.98840800  0.75000000  0.05316700  1
  Cs  Cs1  1  0.10802700  0.02987100  0.21188500  1
  Cs  Cs2  1  0.51159200  0.25000000  0.55316700  1
  Cs  Cs3  1  0.01159200  0.25000000  0.94683300  1
  Cs  Cs4  1  0.60802700  0.47012900  0.28811500  1
  Cs  Cs5  1  0.89197300  0.52987100  0.78811500  1
  Cs  Cs6  1  0.89197300  0.97012900  0.78811500  1
  Cs  Cs7  1  0.39197300  0.52987100  0.71188500  1
  Cs  Cs8  1  0.39197300  0.97012900  0.71188500  1
  Cs  Cs9  1  0.10802700  0.47012900  0.21188500  1
  Cs  Cs10  1  0.48840800  0.75000000  0.44683300  1
  Cs  Cs11  1  0.60802700  0.02987100  0.28811500  1
  Fe  Fe12  1  0.99053200  0.37237500  0.50686100  1
  Fe  Fe13  1  0.50946800  0.87237500  0.00686100  1
  Fe  Fe14  1  0.49053200  0.12762500  0.99313900  1
  Fe  Fe15  1  0.00946800  0.87237500  0.49313900  1
  Fe  Fe16  1  0.49053200  0.37237500  0.99313900  1
  Fe  Fe17  1  0.00946800  0.62762500  0.49313900  1
  Fe  Fe18  1  0.99053200  0.12762500  0.50686100  1
  Fe  Fe19  1  0.50946800  0.62762500  0.00686100  1
  S  S20  1  0.04452400  0.25000000  0.64265900  1
  S  S21  1  0.59463200  0.75000000  0.87666300  1
  S  S22  1  0.72576500  0.48911900  0.03696000  1
  S  S23  1  0.45547600  0.75000000  0.14265900  1
  S  S24  1  0.72576500  0.01088100  0.03696000  1
  S  S25  1  0.90536800  0.25000000  0.37666300  1
  S  S26  1  0.22576500  0.01088100  0.46304000  1
  S  S27  1  0.54452400  0.25000000  0.85734100  1
  S  S28  1  0.22576500  0.48911900  0.46304000  1
  S  S29  1  0.77423500  0.51088100  0.53696000  1
  S  S30  1  0.95547600  0.75000000  0.35734100  1
  S  S31  1  0.40536800  0.25000000  0.12333700  1
  S  S32  1  0.27423500  0.98911900  0.96304000  1
  S  S33  1  0.77423500  0.98911900  0.53696000  1
  S  S34  1  0.09463200  0.75000000  0.62333700  1
  S  S35  1  0.27423500  0.51088100  0.96304000  1
