# generated using pymatgen
data_SNClO
_symmetry_space_group_name_H-M   'P 1'
_cell_length_a   11.61682200
_cell_length_b   5.83108800
_cell_length_c   14.28561755
_cell_angle_alpha   71.95499575
_cell_angle_beta   90.00000000
_cell_angle_gamma   90.00000000
_symmetry_Int_Tables_number   1
_chemical_formula_structural   SNClO
_chemical_formula_sum   'S12 N12 Cl12 O12'
_cell_volume   920.09207141
_cell_formula_units_Z   12
loop_
 _symmetry_equiv_pos_site_id
 _symmetry_equiv_pos_as_xyz
  1  'x, y, z'
loop_
 _atom_site_type_symbol
 _atom_site_label
 _atom_site_symmetry_multiplicity
 _atom_site_fract_x
 _atom_site_fract_y
 _atom_site_fract_z
 _atom_site_occupancy
  S  S0  1  0.52398800  0.28195200  0.85561900  1
  S  S1  1  0.02398800  0.71804800  0.64438100  1
  S  S2  1  0.47601200  0.71804800  0.14438100  1
  S  S3  1  0.90126100  0.54961000  0.81947400  1
  S  S4  1  0.78714700  0.74229300  0.64237900  1
  S  S5  1  0.71285300  0.74229300  0.14237900  1
  S  S6  1  0.28714700  0.25770700  0.85762100  1
  S  S7  1  0.40126100  0.45039000  0.68052600  1
  S  S8  1  0.21285300  0.25770700  0.35762100  1
  S  S9  1  0.09873900  0.45039000  0.18052600  1
  S  S10  1  0.97601200  0.28195200  0.35561900  1
  S  S11  1  0.59873900  0.54961000  0.31947400  1
  N  N12  1  0.00589800  0.52786300  0.75064400  1
  N  N13  1  0.40763000  0.15186700  0.90251600  1
  N  N14  1  0.09237000  0.15186700  0.40251600  1
  N  N15  1  0.99410200  0.47213700  0.24935600  1
  N  N16  1  0.71361100  0.64551800  0.25923800  1
  N  N17  1  0.90763000  0.84813300  0.59748400  1
  N  N18  1  0.59237000  0.84813300  0.09748400  1
  N  N19  1  0.21361100  0.35448200  0.24076200  1
  N  N20  1  0.50589800  0.47213700  0.74935600  1
  N  N21  1  0.28638900  0.35448200  0.74076200  1
  N  N22  1  0.78638900  0.64551800  0.75923800  1
  N  N23  1  0.49410200  0.52786300  0.25064400  1
  Cl  Cl24  1  0.24351600  0.55527600  0.40184900  1
  Cl  Cl25  1  0.75648400  0.44472400  0.59815100  1
  Cl  Cl26  1  0.61666800  0.00232300  0.83849000  1
  Cl  Cl27  1  0.11666800  0.99767700  0.66151000  1
  Cl  Cl28  1  0.05961500  0.18841000  0.11854000  1
  Cl  Cl29  1  0.44038500  0.18841000  0.61854000  1
  Cl  Cl30  1  0.38333200  0.99767700  0.16151000  1
  Cl  Cl31  1  0.94038500  0.81159000  0.88146000  1
  Cl  Cl32  1  0.88333200  0.00232300  0.33849000  1
  Cl  Cl33  1  0.25648400  0.55527600  0.90184900  1
  Cl  Cl34  1  0.55961500  0.81159000  0.38146000  1
  Cl  Cl35  1  0.74351600  0.44472400  0.09815100  1
  O  O36  1  0.69557000  0.90815100  0.60385500  1
  O  O37  1  0.08926500  0.61480300  0.58271700  1
  O  O38  1  0.38617400  0.66875500  0.60205200  1
  O  O39  1  0.19557000  0.09184900  0.89614500  1
  O  O40  1  0.11382600  0.66875500  0.10205200  1
  O  O41  1  0.88617400  0.33124500  0.89794800  1
  O  O42  1  0.58926500  0.38519700  0.91728300  1
  O  O43  1  0.80443000  0.90815100  0.10385500  1
  O  O44  1  0.41073500  0.61480300  0.08271700  1
  O  O45  1  0.61382600  0.33124500  0.39794800  1
  O  O46  1  0.91073500  0.38519700  0.41728300  1
  O  O47  1  0.30443000  0.09184900  0.39614500  1
