# generated using pymatgen
data_SiO2
_symmetry_space_group_name_H-M   'P 1'
_cell_length_a   8.43751200
_cell_length_b   12.52024900
_cell_length_c   29.05548100
_cell_angle_alpha   90.00000000
_cell_angle_beta   90.00000000
_cell_angle_gamma   90.00000000
_symmetry_Int_Tables_number   1
_chemical_formula_structural   SiO2
_chemical_formula_sum   'Si56 O112'
_cell_volume   3069.41378327
_cell_formula_units_Z   56
loop_
 _symmetry_equiv_pos_site_id
 _symmetry_equiv_pos_as_xyz
  1  'x, y, z'
loop_
 _atom_site_type_symbol
 _atom_site_label
 _atom_site_symmetry_multiplicity
 _atom_site_fract_x
 _atom_site_fract_y
 _atom_site_fract_z
 _atom_site_occupancy
  Si  Si0  1  0.43496200  0.21618400  0.04146500  1
  Si  Si1  1  0.93575100  0.26755300  0.70144700  1
  Si  Si2  1  0.43140000  0.04949600  0.39340100  1
  Si  Si3  1  0.56016100  0.54495500  0.54932600  1
  Si  Si4  1  0.43694600  0.15637600  0.55649200  1
  Si  Si5  1  0.43612100  0.63318700  0.11489500  1
  Si  Si6  1  0.06860000  0.04949600  0.39340100  1
  Si  Si7  1  0.56305400  0.84362400  0.44350800  1
  Si  Si8  1  0.43140000  0.95050400  0.89340100  1
  Si  Si9  1  0.43575100  0.73244700  0.29855300  1
  Si  Si10  1  0.56860000  0.95050400  0.60659900  1
  Si  Si11  1  0.06016100  0.54495500  0.95067400  1
  Si  Si12  1  0.06503800  0.21618400  0.04146500  1
  Si  Si13  1  0.93694600  0.15637600  0.94350800  1
  Si  Si14  1  0.93140000  0.04949600  0.10659900  1
  Si  Si15  1  0.56387900  0.36681300  0.88510500  1
  Si  Si16  1  0.56305400  0.15637600  0.94350800  1
  Si  Si17  1  0.56503800  0.21618400  0.45853500  1
  Si  Si18  1  0.06860000  0.95050400  0.89340100  1
  Si  Si19  1  0.06387900  0.36681300  0.61489500  1
  Si  Si20  1  0.06016100  0.45504500  0.45067400  1
  Si  Si21  1  0.06424900  0.26755300  0.79855300  1
  Si  Si22  1  0.06387900  0.63318700  0.11489500  1
  Si  Si23  1  0.43575100  0.26755300  0.79855300  1
  Si  Si24  1  0.56387900  0.63318700  0.38510500  1
  Si  Si25  1  0.06327500  0.96531400  0.19867500  1
  Si  Si26  1  0.93496200  0.78381700  0.95853500  1
  Si  Si27  1  0.56860000  0.04949600  0.10659900  1
  Si  Si28  1  0.43496200  0.78381700  0.54146500  1
  Si  Si29  1  0.06503800  0.78381700  0.54146500  1
  Si  Si30  1  0.06327500  0.03468600  0.69867500  1
  Si  Si31  1  0.56327500  0.03468600  0.80132500  1
  Si  Si32  1  0.43983900  0.45504500  0.45067400  1
  Si  Si33  1  0.43694600  0.84362400  0.05649200  1
  Si  Si34  1  0.93672500  0.96531400  0.30132500  1
  Si  Si35  1  0.93496200  0.21618400  0.45853500  1
  Si  Si36  1  0.56503800  0.78381700  0.95853500  1
  Si  Si37  1  0.06305400  0.15637600  0.55649200  1
  Si  Si38  1  0.56016100  0.45504500  0.04932600  1
  Si  Si39  1  0.56327500  0.96531400  0.30132500  1
  Si  Si40  1  0.06305400  0.84362400  0.05649200  1
  Si  Si41  1  0.56424900  0.26755300  0.70144700  1
  Si  Si42  1  0.93983900  0.45504500  0.04932600  1
  Si  Si43  1  0.93612100  0.63318700  0.38510500  1
  Si  Si44  1  0.93140000  0.95050400  0.60659900  1
  Si  Si45  1  0.56424900  0.73244700  0.20144700  1
  Si  Si46  1  0.43612100  0.36681300  0.61489500  1
  Si  Si47  1  0.06424900  0.73244700  0.29855300  1
  Si  Si48  1  0.93983900  0.54495500  0.54932600  1
  Si  Si49  1  0.43983900  0.54495500  0.95067400  1
  Si  Si50  1  0.93694600  0.84362400  0.44350800  1
  Si  Si51  1  0.43672500  0.03468600  0.69867500  1
  Si  Si52  1  0.93575100  0.73244700  0.20144700  1
  Si  Si53  1  0.93612100  0.36681300  0.88510500  1
  Si  Si54  1  0.93672500  0.03468600  0.80132500  1
  Si  Si55  1  0.43672500  0.96531400  0.19867500  1
  O  O56  1  0.25000000  0.13077700  0.56480500  1
  O  O57  1  0.01714500  0.27099400  0.57940800  1
  O  O58  1  0.50000000  0.68387300  0.25000000  1
  O  O59  1  0.75000000  0.90990000  0.59868700  1
  O  O60  1  0.53850700  0.83798400  0.31214500  1
  O  O61  1  0.01789700  0.67060700  0.94626300  1
  O  O62  1  0.04339300  0.35695700  0.83870500  1
  O  O63  1  0.97317700  0.83957500  0.49832300  1
  O  O64  1  0.51714500  0.27099400  0.92059200  1
  O  O65  1  0.03850700  0.83798400  0.18785500  1
  O  O66  1  0.03660000  0.03481300  0.33856100  1
  O  O67  1  0.45660700  0.64304300  0.33870500  1
  O  O68  1  0.50000000  0.99298700  0.25000000  1
  O  O69  1  0.51789700  0.32939300  0.05373700  1
  O  O70  1  0.75000000  0.99425100  0.30554400  1
  O  O71  1  0.47083100  0.51900300  0.09062600  1
  O  O72  1  0.75000000  0.09010000  0.09868700  1
  O  O73  1  0.55343000  0.13801900  0.41395300  1
  O  O74  1  0.98285500  0.27099400  0.92059200  1
  O  O75  1  0.25000000  0.23458000  0.02812200  1
  O  O76  1  0.75000000  0.23466300  0.70650400  1
  O  O77  1  0.46340000  0.03481300  0.33856100  1
  O  O78  1  0.25000000  0.76542000  0.52812200  1
  O  O79  1  0.50000000  0.00701300  0.75000000  1
  O  O80  1  0.52916900  0.51900300  0.40937400  1
  O  O81  1  0.25000000  0.00574900  0.69445600  1
  O  O82  1  0.75000000  0.35842600  0.87108900  1
  O  O83  1  0.75000000  0.00574900  0.80554400  1
  O  O84  1  0.25000000  0.35842600  0.62891100  1
  O  O85  1  0.75000000  0.76542000  0.97187800  1
  O  O86  1  0.25000000  0.99425100  0.19445600  1
  O  O87  1  0.75000000  0.47178700  0.05410400  1
  O  O88  1  0.25000000  0.23466300  0.79349600  1
  O  O89  1  0.04339300  0.64304300  0.33870500  1
  O  O90  1  0.95660700  0.64304300  0.16129500  1
  O  O91  1  0.02916900  0.51900300  0.09062600  1
  O  O92  1  0.97083100  0.51900300  0.40937400  1
  O  O93  1  0.48210300  0.32939300  0.44626300  1
  O  O94  1  0.05343000  0.86198100  0.58604700  1
  O  O95  1  0.94657000  0.86198100  0.91395300  1
  O  O96  1  0.98210300  0.32939300  0.05373700  1
  O  O97  1  0.96340000  0.96518700  0.66143900  1
  O  O98  1  0.54339300  0.64304300  0.16129500  1
  O  O99  1  0.45664100  0.06398700  0.92000200  1
  O  O100  1  0.47083100  0.48099700  0.59062600  1
  O  O101  1  0.52682300  0.16042500  0.99832300  1
  O  O102  1  0.45660700  0.35695700  0.83870500  1
  O  O103  1  0.53850700  0.16201600  0.81214500  1
  O  O104  1  0.75000000  0.23458000  0.47187800  1
  O  O105  1  0.98285500  0.72900600  0.42059200  1
  O  O106  1  0.01789700  0.32939300  0.44626300  1
  O  O107  1  0.51714500  0.72900600  0.42059200  1
  O  O108  1  0.25000000  0.47178700  0.44589600  1
  O  O109  1  0.25000000  0.90990000  0.90131300  1
  O  O110  1  0.53660000  0.03481300  0.16143900  1
  O  O111  1  0.00000000  0.50000000  0.00000000  1
  O  O112  1  0.75000000  0.13077700  0.93519500  1
  O  O113  1  0.48285500  0.72900600  0.07940800  1
  O  O114  1  0.96149300  0.83798400  0.31214500  1
  O  O115  1  0.00000000  0.50000000  0.50000000  1
  O  O116  1  0.46149300  0.83798400  0.18785500  1
  O  O117  1  0.48210300  0.67060700  0.94626300  1
  O  O118  1  0.96340000  0.03481300  0.16143900  1
  O  O119  1  0.51789700  0.67060700  0.55373700  1
  O  O120  1  0.25000000  0.76533700  0.29349600  1
  O  O121  1  0.53660000  0.96518700  0.66143900  1
  O  O122  1  0.02682300  0.83957500  0.00167700  1
  O  O123  1  0.03850700  0.16201600  0.68785500  1
  O  O124  1  0.02916900  0.48099700  0.59062600  1
  O  O125  1  0.54339300  0.35695700  0.66129500  1
  O  O126  1  0.46340000  0.96518700  0.83856100  1
  O  O127  1  0.00000000  0.31612700  0.75000000  1
  O  O128  1  0.94657000  0.13801900  0.41395300  1
  O  O129  1  0.75000000  0.64157400  0.37108900  1
  O  O130  1  0.47317700  0.83957500  0.00167700  1
  O  O131  1  0.95664100  0.06398700  0.57999800  1
  O  O132  1  0.48285500  0.27099400  0.57940800  1
  O  O133  1  0.96149300  0.16201600  0.81214500  1
  O  O134  1  0.00000000  0.68387300  0.25000000  1
  O  O135  1  0.01714500  0.72900600  0.07940800  1
  O  O136  1  0.45664100  0.93601300  0.42000200  1
  O  O137  1  0.00000000  0.99298700  0.25000000  1
  O  O138  1  0.50000000  0.50000000  0.50000000  1
  O  O139  1  0.25000000  0.09010000  0.40131300  1
  O  O140  1  0.55343000  0.86198100  0.91395300  1
  O  O141  1  0.47317700  0.16042500  0.50167700  1
  O  O142  1  0.75000000  0.52821300  0.55410400  1
  O  O143  1  0.03660000  0.96518700  0.83856100  1
  O  O144  1  0.02682300  0.16042500  0.50167700  1
  O  O145  1  0.50000000  0.50000000  0.00000000  1
  O  O146  1  0.50000000  0.31612700  0.75000000  1
  O  O147  1  0.54335900  0.06398700  0.57999800  1
  O  O148  1  0.25000000  0.52821300  0.94589600  1
  O  O149  1  0.75000000  0.76533700  0.20650400  1
  O  O150  1  0.95664100  0.93601300  0.07999800  1
  O  O151  1  0.44657000  0.13801900  0.08604700  1
  O  O152  1  0.05343000  0.13801900  0.08604700  1
  O  O153  1  0.04335900  0.93601300  0.42000200  1
  O  O154  1  0.04335900  0.06398700  0.92000200  1
  O  O155  1  0.44657000  0.86198100  0.58604700  1
  O  O156  1  0.52916900  0.48099700  0.90937400  1
  O  O157  1  0.97083100  0.48099700  0.90937400  1
  O  O158  1  0.25000000  0.86922300  0.06480500  1
  O  O159  1  0.25000000  0.64157400  0.12891100  1
  O  O160  1  0.97317700  0.16042500  0.99832300  1
  O  O161  1  0.52682300  0.83957500  0.49832300  1
  O  O162  1  0.00000000  0.00701300  0.75000000  1
  O  O163  1  0.75000000  0.86922300  0.43519500  1
  O  O164  1  0.95660700  0.35695700  0.66129500  1
  O  O165  1  0.46149300  0.16201600  0.68785500  1
  O  O166  1  0.98210300  0.67060700  0.55373700  1
  O  O167  1  0.54335900  0.93601300  0.07999800  1
