# generated using pymatgen
data_SiO2
_symmetry_space_group_name_H-M   'P 1'
_cell_length_a   13.22997826
_cell_length_b   13.22997826
_cell_length_c   29.20676200
_cell_angle_alpha   90.00000000
_cell_angle_beta   90.00000000
_cell_angle_gamma   142.57228175
_symmetry_Int_Tables_number   1
_chemical_formula_structural   SiO2
_chemical_formula_sum   'Si56 O112'
_cell_volume   3106.94702110
_cell_formula_units_Z   56
loop_
 _symmetry_equiv_pos_site_id
 _symmetry_equiv_pos_as_xyz
  1  'x, y, z'
loop_
 _atom_site_type_symbol
 _atom_site_label
 _atom_site_symmetry_multiplicity
 _atom_site_fract_x
 _atom_site_fract_y
 _atom_site_fract_z
 _atom_site_occupancy
  Si  Si0  1  0.41835500  0.95720800  0.54972200  1
  Si  Si1  1  0.84006200  0.79392700  0.60626100  1
  Si  Si2  1  0.20178000  0.42606700  0.45406800  1
  Si  Si3  1  0.04279200  0.58164500  0.54972200  1
  Si  Si4  1  0.34006200  0.29392700  0.89373900  1
  Si  Si5  1  0.91835500  0.45720800  0.95027800  1
  Si  Si6  1  0.26384700  0.10798200  0.05100100  1
  Si  Si7  1  0.64142800  0.99249000  0.60595000  1
  Si  Si8  1  0.92606700  0.70178000  0.95406800  1
  Si  Si9  1  0.39201800  0.23615300  0.44899900  1
  Si  Si10  1  0.85857200  0.50751000  0.10595000  1
  Si  Si11  1  0.96201400  0.67639000  0.20035000  1
  Si  Si12  1  0.50751000  0.85857200  0.89405000  1
  Si  Si13  1  0.19477400  0.16700500  0.20029600  1
  Si  Si14  1  0.89201800  0.73615300  0.05100100  1
  Si  Si15  1  0.53798600  0.82361000  0.70035000  1
  Si  Si16  1  0.79392700  0.84006200  0.39373900  1
  Si  Si17  1  0.10798200  0.26384700  0.94899900  1
  Si  Si18  1  0.17639000  0.46201400  0.70035000  1
  Si  Si19  1  0.80522600  0.83299500  0.79970400  1
  Si  Si20  1  0.79822000  0.57393300  0.54593200  1
  Si  Si21  1  0.20607300  0.15993800  0.60626100  1
  Si  Si22  1  0.42606700  0.20178000  0.54593200  1
  Si  Si23  1  0.65993800  0.70607300  0.10626100  1
  Si  Si24  1  0.45720800  0.91835500  0.04972200  1
  Si  Si25  1  0.82361000  0.53798600  0.29965000  1
  Si  Si26  1  0.29392700  0.34006200  0.10626100  1
  Si  Si27  1  0.70607300  0.65993800  0.89373900  1
  Si  Si28  1  0.99249000  0.64142800  0.39405000  1
  Si  Si29  1  0.33299500  0.30522600  0.29970400  1
  Si  Si30  1  0.70178000  0.92606700  0.04593200  1
  Si  Si31  1  0.60798200  0.76384700  0.55100100  1
  Si  Si32  1  0.15993800  0.20607300  0.39373900  1
  Si  Si33  1  0.58164500  0.04279200  0.45027800  1
  Si  Si34  1  0.69477400  0.66700500  0.29970400  1
  Si  Si35  1  0.23615300  0.39201800  0.55100100  1
  Si  Si36  1  0.54279200  0.08164500  0.95027800  1
  Si  Si37  1  0.00751000  0.35857200  0.60595000  1
  Si  Si38  1  0.16700500  0.19477400  0.79970400  1
  Si  Si39  1  0.57393300  0.79822000  0.45406800  1
  Si  Si40  1  0.08164500  0.54279200  0.04972200  1
  Si  Si41  1  0.73615300  0.89201800  0.94899900  1
  Si  Si42  1  0.32361000  0.03798600  0.20035000  1
  Si  Si43  1  0.46201400  0.17639000  0.29965000  1
  Si  Si44  1  0.07393300  0.29822000  0.04593200  1
  Si  Si45  1  0.95720800  0.41835500  0.45027800  1
  Si  Si46  1  0.03798600  0.32361000  0.79965000  1
  Si  Si47  1  0.67639000  0.96201400  0.79965000  1
  Si  Si48  1  0.76384700  0.60798200  0.44899900  1
  Si  Si49  1  0.29822000  0.07393300  0.95406800  1
  Si  Si50  1  0.14142800  0.49249000  0.89405000  1
  Si  Si51  1  0.35857200  0.00751000  0.39405000  1
  Si  Si52  1  0.66700500  0.69477400  0.70029600  1
  Si  Si53  1  0.83299500  0.80522600  0.20029600  1
  Si  Si54  1  0.30522600  0.33299500  0.70029600  1
  Si  Si55  1  0.49249000  0.14142800  0.10595000  1
  O  O56  1  0.10818100  0.26499800  0.80531200  1
  O  O57  1  0.04222600  0.38287100  0.66083400  1
  O  O58  1  0.75928000  0.24072000  0.44631200  1
  O  O59  1  0.69978600  0.72649200  0.16062200  1
  O  O60  1  0.87597100  0.12402900  0.03705800  1
  O  O61  1  0.30021400  0.27350800  0.83937800  1
  O  O62  1  0.38287100  0.04222600  0.33916600  1
  O  O63  1  0.66282800  0.93055500  0.92124700  1
  O  O64  1  0.19978600  0.22649200  0.33937800  1
  O  O65  1  0.39215400  0.05692100  0.55681200  1
  O  O66  1  0.80698600  0.74515000  0.42226300  1
  O  O67  1  0.04155400  0.51356200  0.91022100  1
  O  O68  1  0.48643800  0.95844600  0.91022100  1
  O  O69  1  0.45777400  0.11712900  0.16083400  1
  O  O70  1  0.74515000  0.80698600  0.57773700  1
  O  O71  1  0.24072000  0.75928000  0.55368800  1
  O  O72  1  0.22649200  0.19978600  0.66062200  1
  O  O73  1  0.95844600  0.48643800  0.08977900  1
  O  O74  1  0.16363400  0.83636600  0.19566000  1
  O  O75  1  0.25327200  0.24672800  0.75000000  1
  O  O76  1  0.66153000  0.33847000  0.09449700  1
  O  O77  1  0.88287100  0.54222600  0.16083400  1
  O  O78  1  0.60818100  0.76499800  0.69468800  1
  O  O79  1  0.45844600  0.98643800  0.41022100  1
  O  O80  1  0.75327200  0.74672800  0.75000000  1
  O  O81  1  0.74672800  0.75327200  0.25000000  1
  O  O82  1  0.46127100  0.53872900  0.09796600  1
  O  O83  1  0.27350800  0.30021400  0.16062200  1
  O  O84  1  0.03872900  0.96127100  0.59796600  1
  O  O85  1  0.73500200  0.89181900  0.80531200  1
  O  O86  1  0.16153000  0.83847000  0.40550300  1
  O  O87  1  0.93696200  0.06303800  0.95354700  1
  O  O88  1  0.60784600  0.94307900  0.44318800  1
  O  O89  1  0.24672800  0.25327200  0.25000000  1
  O  O90  1  0.55692100  0.89215400  0.05681200  1
  O  O91  1  0.15379200  0.32318000  0.49997100  1
  O  O92  1  0.33636600  0.66363400  0.69566000  1
  O  O93  1  0.32318000  0.15379200  0.50002900  1
  O  O94  1  0.43055500  0.16282800  0.42124700  1
  O  O95  1  0.96127100  0.03872900  0.40203400  1
  O  O96  1  0.74072000  0.25928000  0.94631200  1
  O  O97  1  0.51356200  0.04155400  0.08977900  1
  O  O98  1  0.01356200  0.54155400  0.41022100  1
  O  O99  1  0.33847000  0.66153000  0.90550300  1
  O  O100  1  0.99319000  0.00681000  0.19564700  1
  O  O101  1  0.10784600  0.44307900  0.05681200  1
  O  O102  1  0.05692100  0.39215400  0.44318800  1
  O  O103  1  0.23500200  0.39181900  0.69468800  1
  O  O104  1  0.33717200  0.06944500  0.07875300  1
  O  O105  1  0.72649200  0.69978600  0.83937800  1
  O  O106  1  0.86617800  0.72261200  0.91110400  1
  O  O107  1  0.89181900  0.73500200  0.19468800  1
  O  O108  1  0.00000000  0.50000000  0.50000000  1
  O  O109  1  0.22261200  0.36617800  0.41110400  1
  O  O110  1  0.84620800  0.67682000  0.50002900  1
  O  O111  1  0.37597100  0.62402900  0.46294200  1
  O  O112  1  0.54155400  0.01356200  0.58977900  1
  O  O113  1  0.72261200  0.86617800  0.08889600  1
  O  O114  1  0.25485000  0.19301400  0.42226300  1
  O  O115  1  0.65379200  0.82318000  0.00002900  1
  O  O116  1  0.80021400  0.77350800  0.66062200  1
  O  O117  1  0.83717200  0.56944500  0.42124700  1
  O  O118  1  0.76499800  0.60818100  0.30531200  1
  O  O119  1  0.49319000  0.50681000  0.30435300  1
  O  O120  1  0.91000300  0.58999700  0.25000000  1
  O  O121  1  0.12402900  0.87597100  0.96294200  1
  O  O122  1  0.82318000  0.65379200  0.99997100  1
  O  O123  1  0.83636600  0.16363400  0.80434000  1
  O  O124  1  0.83847000  0.16153000  0.59449700  1
  O  O125  1  0.16282800  0.43055500  0.57875300  1
  O  O126  1  0.56944500  0.83717200  0.57875300  1
  O  O127  1  0.17682000  0.34620800  0.00002900  1
  O  O128  1  0.61712900  0.95777400  0.66083400  1
  O  O129  1  0.58999700  0.91000300  0.75000000  1
  O  O130  1  0.00681000  0.99319000  0.80435300  1
  O  O131  1  0.24515000  0.30698600  0.92226300  1
  O  O132  1  0.56303800  0.43696200  0.45354700  1
  O  O133  1  0.62402900  0.37597100  0.53705800  1
  O  O134  1  0.50000000  0.00000000  0.00000000  1
  O  O135  1  0.69301400  0.75485000  0.92226300  1
  O  O136  1  0.36617800  0.22261200  0.58889600  1
  O  O137  1  0.30698600  0.24515000  0.07773700  1
  O  O138  1  0.34620800  0.17682000  0.99997100  1
  O  O139  1  0.50000000  0.00000000  0.50000000  1
  O  O140  1  0.26499800  0.10818100  0.19468800  1
  O  O141  1  0.19301400  0.25485000  0.57773700  1
  O  O142  1  0.11712900  0.45777400  0.83916600  1
  O  O143  1  0.89215400  0.55692100  0.94318800  1
  O  O144  1  0.66363400  0.33636600  0.30434000  1
  O  O145  1  0.77738800  0.63382200  0.58889600  1
  O  O146  1  0.53872900  0.46127100  0.90203400  1
  O  O147  1  0.41000300  0.08999700  0.25000000  1
  O  O148  1  0.44307900  0.10784600  0.94318800  1
  O  O149  1  0.13382200  0.27738800  0.08889600  1
  O  O150  1  0.67682000  0.84620800  0.49997100  1
  O  O151  1  0.93055500  0.66282800  0.07875300  1
  O  O152  1  0.94307900  0.60784600  0.55681200  1
  O  O153  1  0.25928000  0.74072000  0.05368800  1
  O  O154  1  0.63382200  0.77738800  0.41110400  1
  O  O155  1  0.06944500  0.33717200  0.92124700  1
  O  O156  1  0.39181900  0.23500200  0.30531200  1
  O  O157  1  0.00000000  0.50000000  0.00000000  1
  O  O158  1  0.50681000  0.49319000  0.69564700  1
  O  O159  1  0.54222600  0.88287100  0.83916600  1
  O  O160  1  0.27738800  0.13382200  0.91110400  1
  O  O161  1  0.77350800  0.80021400  0.33937800  1
  O  O162  1  0.95777400  0.61712900  0.33916600  1
  O  O163  1  0.98643800  0.45844600  0.58977900  1
  O  O164  1  0.06303800  0.93696200  0.04645300  1
  O  O165  1  0.08999700  0.41000300  0.75000000  1
  O  O166  1  0.43696200  0.56303800  0.54645300  1
  O  O167  1  0.75485000  0.69301400  0.07773700  1
