# generated using pymatgen
data_SrTeO3
_symmetry_space_group_name_H-M   'P 1'
_cell_length_a   5.99365100
_cell_length_b   14.59121092
_cell_length_c   26.70280780
_cell_angle_alpha   93.78794742
_cell_angle_beta   96.31558572
_cell_angle_gamma   101.83785509
_symmetry_Int_Tables_number   1
_chemical_formula_structural   SrTeO3
_chemical_formula_sum   'Sr24 Te24 O72'
_cell_volume   2262.29766754
_cell_formula_units_Z   24
loop_
 _symmetry_equiv_pos_site_id
 _symmetry_equiv_pos_as_xyz
  1  'x, y, z'
loop_
 _atom_site_type_symbol
 _atom_site_label
 _atom_site_symmetry_multiplicity
 _atom_site_fract_x
 _atom_site_fract_y
 _atom_site_fract_z
 _atom_site_occupancy
  Sr  Sr0  1  0.71992900  0.56413000  0.44498200  1
  Sr  Sr1  1  0.21220400  0.93637000  0.05499500  1
  Sr  Sr2  1  0.87598400  0.32762700  0.92359900  1
  Sr  Sr3  1  0.76908800  0.34608300  0.63715600  1
  Sr  Sr4  1  0.12390600  0.53864500  0.21083600  1
  Sr  Sr5  1  0.28066700  0.15291900  0.86130000  1
  Sr  Sr6  1  0.71619800  0.84644000  0.13891300  1
  Sr  Sr7  1  0.63583400  0.44344700  0.30250700  1
  Sr  Sr8  1  0.87399200  0.96271900  0.29000600  1
  Sr  Sr9  1  0.12654900  0.67261600  0.07705700  1
  Sr  Sr10  1  0.22926400  0.65405500  0.36235800  1
  Sr  Sr11  1  0.96693100  0.75053200  0.74981300  1
  Sr  Sr12  1  0.50125500  0.50000100  0.99993100  1
  Sr  Sr13  1  0.36594700  0.55711100  0.69768300  1
  Sr  Sr14  1  0.12253800  0.17100500  0.57677900  1
  Sr  Sr15  1  0.61047800  0.94428500  0.80297400  1
  Sr  Sr16  1  0.87879500  0.82796400  0.42398000  1
  Sr  Sr17  1  0.28106600  0.43559800  0.55513500  1
  Sr  Sr18  1  0.49784100  0.00041800  0.49968100  1
  Sr  Sr19  1  0.87808100  0.46160600  0.78938000  1
  Sr  Sr20  1  0.03361700  0.24902800  0.24970300  1
  Sr  Sr21  1  0.12417400  0.03991000  0.71033100  1
  Sr  Sr22  1  0.39024500  0.05715000  0.19720700  1
  Sr  Sr23  1  0.78702000  0.06427600  0.94478000  1
  Te  Te24  1  0.12936900  0.40536100  0.38427900  1
  Te  Te25  1  0.72245400  0.68604000  0.29278600  1
  Te  Te26  1  0.63884600  0.29705800  0.49962000  1
  Te  Te27  1  0.83899900  0.09431200  0.11518000  1
  Te  Te28  1  0.34252400  0.20353900  0.00039000  1
  Te  Te29  1  0.53548000  0.84300000  0.67304000  1
  Te  Te30  1  0.36148700  0.70364000  0.50047300  1
  Te  Te31  1  0.97860300  0.88441000  0.57359800  1
  Te  Te32  1  0.24376200  0.81515000  0.20834000  1
  Te  Te33  1  0.01929400  0.11593800  0.42605000  1
  Te  Te34  1  0.15879100  0.90572900  0.88495700  1
  Te  Te35  1  0.39697400  0.41300500  0.86070700  1
  Te  Te36  1  0.75425300  0.18596600  0.79237400  1
  Te  Te37  1  0.66016900  0.79690700  0.99977800  1
  Te  Te38  1  0.02250600  0.61441900  0.92676100  1
  Te  Te39  1  0.86982800  0.59434000  0.61585100  1
  Te  Te40  1  0.61895100  0.08531400  0.64034500  1
  Te  Te41  1  0.27891500  0.31392500  0.70781400  1
  Te  Te42  1  0.60245100  0.58677100  0.13945400  1
  Te  Te43  1  0.98091600  0.38402800  0.07365000  1
  Te  Te44  1  0.48577500  0.34170300  0.17331200  1
  Te  Te45  1  0.51373700  0.65850300  0.82728700  1
  Te  Te46  1  0.37840000  0.91343700  0.35959600  1
  Te  Te47  1  0.46436900  0.15849200  0.32690300  1
  O  O48  1  0.03910700  0.89813000  0.21438400  1
  O  O49  1  0.52578000  0.70206600  0.44366700  1
  O  O50  1  0.90130900  0.66441400  0.15551300  1
  O  O51  1  0.27295900  0.89716600  0.55450200  1
  O  O52  1  0.80075900  0.67566100  0.36268100  1
  O  O53  1  0.56223200  0.33664900  0.82663700  1
  O  O54  1  0.42705700  0.60467200  0.28709300  1
  O  O55  1  0.06709000  0.69683100  0.46502600  1
  O  O56  1  0.01210000  0.00148000  0.61222800  1
  O  O57  1  0.23910800  0.07493700  0.00873000  1
  O  O58  1  0.47305600  0.29587400  0.55622600  1
  O  O59  1  0.58073600  0.83391200  0.34443600  1
  O  O60  1  0.57290800  0.99787200  0.11058200  1
  O  O61  1  0.00314300  0.36665900  0.31736600  1
  O  O62  1  0.89582200  0.49822500  0.88755700  1
  O  O63  1  0.34489200  0.21906800  0.18580800  1
  O  O64  1  0.99340400  0.99983300  0.38700900  1
  O  O65  1  0.44010600  0.28098700  0.31274000  1
  O  O66  1  0.40979200  0.48543000  0.37612100  1
  O  O67  1  0.34106000  0.88240500  0.42585600  1
  O  O68  1  0.19582900  0.32297000  0.63790200  1
  O  O69  1  0.42729800  0.00098000  0.88865200  1
  O  O70  1  0.89320900  0.16224800  0.67408800  1
  O  O71  1  0.04836300  0.01502700  0.12399600  1
  O  O72  1  0.80664900  0.90078500  0.51226900  1
  O  O73  1  0.96083500  0.10370800  0.78680500  1
  O  O74  1  0.10669600  0.50094700  0.11229300  1
  O  O75  1  0.90070500  0.59713000  0.98877000  1
  O  O76  1  0.12266800  0.20059300  0.94293800  1
  O  O77  1  0.89153500  0.59351000  0.27433200  1
  O  O78  1  0.65718300  0.11731100  0.57417200  1
  O  O79  1  0.81484500  0.13280100  0.18216600  1
  O  O80  1  0.44071300  0.66449600  0.17372100  1
  O  O81  1  0.72064900  0.10093500  0.44299100  1
  O  O82  1  0.32401800  0.60068000  0.94345100  1
  O  O83  1  0.68070900  0.39772700  0.05531100  1
  O  O84  1  0.26179000  0.82498800  0.13836000  1
  O  O85  1  0.76740100  0.92558400  0.99214900  1
  O  O86  1  0.58993100  0.51328700  0.62418600  1
  O  O87  1  0.57736800  0.39278000  0.71280800  1
  O  O88  1  0.03715800  0.49880600  0.60992900  1
  O  O89  1  0.96001700  0.50026300  0.38912900  1
  O  O90  1  0.17866600  0.86384600  0.81844500  1
  O  O91  1  0.66718800  0.59526000  0.78159400  1
  O  O92  1  0.47481200  0.09391700  0.77304300  1
  O  O93  1  0.46724100  0.38039400  0.92670000  1
  O  O94  1  0.21992000  0.62733600  0.78819200  1
  O  O95  1  0.88004000  0.79758500  0.05672900  1
  O  O96  1  0.10537600  0.40088300  0.01207900  1
  O  O97  1  0.60195300  0.19842700  0.96706700  1
  O  O98  1  0.20319700  0.09675900  0.28081200  1
  O  O99  1  0.77896100  0.37048600  0.21264300  1
  O  O100  1  0.30693500  0.87184300  0.71149200  1
  O  O101  1  0.93166300  0.30162700  0.53509100  1
  O  O102  1  0.11607700  0.40805400  0.72700400  1
  O  O103  1  0.10063200  0.33309700  0.84452400  1
  O  O104  1  0.65439000  0.42615600  0.49325500  1
  O  O105  1  0.99852300  0.63152500  0.68273400  1
  O  O106  1  0.79436400  0.90488400  0.71980900  1
  O  O107  1  0.34833400  0.57538200  0.50914700  1
  O  O108  1  0.53201500  0.62008400  0.07351600  1
  O  O109  1  0.10479300  0.83492200  0.32639600  1
  O  O110  1  0.56309100  0.72017900  0.68555200  1
  O  O111  1  0.33457500  0.40523700  0.21934100  1
  O  O112  1  0.64815600  0.78045800  0.81311400  1
  O  O113  1  0.95230900  0.98667500  0.87627400  1
  O  O114  1  0.68922800  0.12704400  0.28818300  1
  O  O115  1  0.73133200  0.17430800  0.86208800  1
  O  O116  1  0.52603300  0.90591300  0.22659700  1
  O  O117  1  0.41720400  0.16479900  0.65584600  1
  O  O118  1  0.18692000  0.09951500  0.48790100  1
  O  O119  1  0.40478400  0.80240300  0.03441600  1
