# generated using pymatgen
data_Os4C12SO12
_symmetry_space_group_name_H-M   'P 1'
_cell_length_a   8.51497400
_cell_length_b   15.25600994
_cell_length_c   16.66958219
_cell_angle_alpha   104.24304828
_cell_angle_beta   90.03854415
_cell_angle_gamma   106.17603507
_symmetry_Int_Tables_number   1
_chemical_formula_structural   Os4C12SO12
_chemical_formula_sum   'Os16 C48 S4 O48'
_cell_volume   2010.21540852
_cell_formula_units_Z   4
loop_
 _symmetry_equiv_pos_site_id
 _symmetry_equiv_pos_as_xyz
  1  'x, y, z'
loop_
 _atom_site_type_symbol
 _atom_site_label
 _atom_site_symmetry_multiplicity
 _atom_site_fract_x
 _atom_site_fract_y
 _atom_site_fract_z
 _atom_site_occupancy
  Os  Os0  1  0.78584100  0.13801200  0.16320400  1
  Os  Os1  1  0.13880700  0.21251600  0.15740000  1
  Os  Os2  1  0.07443400  0.69766200  0.89496800  1
  Os  Os3  1  0.03202100  0.68498000  0.72304000  1
  Os  Os4  1  0.37714900  0.30234900  0.60376700  1
  Os  Os5  1  0.65074400  0.68342800  0.22289300  1
  Os  Os6  1  0.92702200  0.30233900  0.10551600  1
  Os  Os7  1  0.86219800  0.78766400  0.84301600  1
  Os  Os8  1  0.07255100  0.21137200  0.65466600  1
  Os  Os9  1  0.21395400  0.86216700  0.83743500  1
  Os  Os10  1  0.92661000  0.78779000  0.34274400  1
  Os  Os11  1  0.62237600  0.69675100  0.39425700  1
  Os  Os12  1  0.34550100  0.31644200  0.77599700  1
  Os  Os13  1  0.64691600  0.86125500  0.33733400  1
  Os  Os14  1  0.96819900  0.31566800  0.27758700  1
  Os  Os15  1  0.35156100  0.13837900  0.66185600  1
  C  C16  1  0.84409900  0.62123700  0.64663200  1
  C  C17  1  0.22209700  0.38020700  0.85294300  1
  C  C18  1  0.50295700  0.56745600  0.23264800  1
  C  C19  1  0.08088400  0.90914600  0.38501300  1
  C  C20  1  0.93558400  0.43137700  0.26700000  1
  C  C21  1  0.92579300  0.27014200  0.71720400  1
  C  C22  1  0.39441300  0.88359800  0.76944300  1
  C  C23  1  0.60647100  0.11436000  0.23162100  1
  C  C24  1  0.35602700  0.86448000  0.92710900  1
  C  C25  1  0.90732500  0.25124300  0.98872800  1
  C  C26  1  0.49329900  0.43183100  0.76478000  1
  C  C27  1  0.77303900  0.61833300  0.14712100  1
  C  C28  1  0.06982900  0.41936100  0.09645000  1
  C  C29  1  0.81112200  0.31121800  0.35913000  1
  C  C30  1  0.09088100  0.74786600  0.01195500  1
  C  C31  1  0.77796000  0.74289400  0.93643700  1
  C  C32  1  0.82743700  0.90830500  0.88656900  1
  C  C33  1  0.50785400  0.86521200  0.42747100  1
  C  C34  1  0.76607100  0.99022300  0.38491100  1
  C  C35  1  0.60776000  0.34670000  0.60009600  1
  C  C36  1  0.06466500  0.56918800  0.73363900  1
  C  C37  1  0.96548500  0.74478300  0.43751800  1
  C  C38  1  0.65570700  0.72891200  0.78098000  1
  C  C39  1  0.17718100  0.09216300  0.11542300  1
  C  C40  1  0.74238600  0.34741600  0.10019900  1
  C  C41  1  0.65304600  0.74728000  0.51106900  1
  C  C42  1  0.26011300  0.65299600  0.89967900  1
  C  C43  1  0.48792600  0.88346600  0.26968200  1
  C  C44  1  0.77967200  0.00953400  0.11540700  1
  C  C45  1  0.07330700  0.72733100  0.28104400  1
  C  C46  1  0.50853300  0.11522700  0.72972800  1
  C  C47  1  0.49814500  0.30925400  0.85626600  1
  C  C48  1  0.34848700  0.41906100  0.59537900  1
  C  C49  1  0.15512300  0.38103800  0.35394100  1
  C  C50  1  0.19159500  0.69236600  0.64253400  1
  C  C51  1  0.34667700  0.25090300  0.48688600  1
  C  C52  1  0.65159900  0.58068200  0.40278900  1
  C  C53  1  0.49731200  0.68908100  0.14179600  1
  C  C54  1  0.22755900  0.01039900  0.61346800  1
  C  C55  1  0.22055000  0.99068200  0.88605600  1
  C  C56  1  0.92927300  0.58053200  0.90214700  1
  C  C57  1  0.91540400  0.09050200  0.61404200  1
  C  C58  1  0.64453500  0.13567500  0.07294200  1
  C  C59  1  0.22290600  0.25753500  0.06380000  1
  C  C60  1  0.03171500  0.25531700  0.56073000  1
  C  C61  1  0.34516300  0.27283500  0.21935200  1
  C  C62  1  0.49181700  0.13589300  0.57234200  1
  C  C63  1  0.39275900  0.64975100  0.39742500  1
  S  S64  1  0.83275500  0.83774300  0.23065800  1
  S  S65  1  0.00508600  0.83983700  0.73106000  1
  S  S66  1  0.16418400  0.16180400  0.76805500  1
  S  S67  1  0.99611500  0.16094000  0.26912000  1
  O  O68  1  0.91328800  0.50367400  0.26795000  1
  O  O69  1  0.82109700  0.01625700  0.59313900  1
  O  O70  1  0.62865700  0.37541700  0.09948500  1
  O  O71  1  0.89674900  0.21777000  0.91771000  1
  O  O72  1  0.49754700  0.10231600  0.27358700  1
  O  O73  1  0.83846900  0.50880600  0.90492100  1
  O  O74  1  0.17103800  0.98455300  0.40821600  1
  O  O75  1  0.42307900  0.87680600  0.48172100  1
  O  O76  1  0.66913600  0.50870500  0.40606600  1
  O  O77  1  0.45097300  0.87463000  0.98157200  1
  O  O78  1  0.84163900  0.06812800  0.41349200  1
  O  O79  1  0.08722600  0.49699500  0.73298400  1
  O  O80  1  0.32433100  0.21649700  0.41587500  1
  O  O81  1  0.71363800  0.72036300  0.99297300  1
  O  O82  1  0.16023000  0.68910300  0.24271100  1
  O  O83  1  0.27012300  0.41893700  0.39996700  1
  O  O84  1  0.83782800  0.30589000  0.75716900  1
  O  O85  1  0.14186200  0.41564700  0.89863800  1
  O  O86  1  0.29413100  0.70021000  0.59693400  1
  O  O87  1  0.19885000  0.01837900  0.09309300  1
  O  O88  1  0.15749400  0.49124700  0.09190000  1
  O  O89  1  0.98956000  0.27862700  0.50485000  1
  O  O90  1  0.32891200  0.49066900  0.59240200  1
  O  O91  1  0.59239700  0.30102700  0.90202500  1
  O  O92  1  0.09706000  0.78122200  0.08295900  1
  O  O93  1  0.21972500  0.06785600  0.91614600  1
  O  O94  1  0.46997600  0.30995200  0.25800900  1
  O  O95  1  0.14831000  0.93352800  0.58366300  1
  O  O96  1  0.50280300  0.89384400  0.72706100  1
  O  O97  1  0.40988900  0.49471400  0.23148900  1
  O  O98  1  0.60657000  0.10344700  0.77125100  1
  O  O99  1  0.57653500  0.12496900  0.51790900  1
  O  O100  1  0.81016500  0.98317600  0.90981300  1
  O  O101  1  0.71044900  0.30573400  0.40590700  1
  O  O102  1  0.53075500  0.69296200  0.74212200  1
  O  O103  1  0.58818900  0.50369400  0.76484000  1
  O  O104  1  0.72805800  0.58532800  0.60099400  1
  O  O105  1  0.25094000  0.62098900  0.39676900  1
  O  O106  1  0.40170400  0.69573900  0.09601300  1
  O  O107  1  0.00486900  0.72211800  0.49445500  1
  O  O108  1  0.28757600  0.28141600  0.00796200  1
  O  O109  1  0.85081500  0.58056800  0.10148300  1
  O  O110  1  0.74988000  0.37338700  0.60081800  1
  O  O111  1  0.54978900  0.12445600  0.01805900  1
  O  O112  1  0.39049500  0.89515300  0.22777600  1
  O  O113  1  0.37469800  0.62574000  0.90016000  1
  O  O114  1  0.67559500  0.78043600  0.58220800  1
  O  O115  1  0.77953700  0.93206800  0.08652400  1
