# generated using pymatgen
data_TaTeCl9
_symmetry_space_group_name_H-M   'P 1'
_cell_length_a   11.80802574
_cell_length_b   11.80802574
_cell_length_c   20.08940820
_cell_angle_alpha   73.73587660
_cell_angle_beta   73.73587660
_cell_angle_gamma   32.86459495
_symmetry_Int_Tables_number   1
_chemical_formula_structural   TaTeCl9
_chemical_formula_sum   'Ta4 Te4 Cl36'
_cell_volume   1453.76737467
_cell_formula_units_Z   4
loop_
 _symmetry_equiv_pos_site_id
 _symmetry_equiv_pos_as_xyz
  1  'x, y, z'
loop_
 _atom_site_type_symbol
 _atom_site_label
 _atom_site_symmetry_multiplicity
 _atom_site_fract_x
 _atom_site_fract_y
 _atom_site_fract_z
 _atom_site_occupancy
  Ta  Ta0  1  0.44239400  0.84807100  0.62573900  1
  Ta  Ta1  1  0.15192900  0.55760600  0.87426100  1
  Ta  Ta2  1  0.55760600  0.15192900  0.37426100  1
  Ta  Ta3  1  0.84807100  0.44239400  0.12573900  1
  Te  Te4  1  0.27896700  0.88477000  0.83985500  1
  Te  Te5  1  0.72103300  0.11523000  0.16014500  1
  Te  Te6  1  0.11523000  0.72103300  0.66014500  1
  Te  Te7  1  0.88477000  0.27896700  0.33985500  1
  Cl  Cl8  1  0.77830600  0.86729700  0.17387000  1
  Cl  Cl9  1  0.89690700  0.04940100  0.59690900  1
  Cl  Cl10  1  0.05198900  0.12105000  0.20549900  1
  Cl  Cl11  1  0.10216200  0.36589500  0.12802500  1
  Cl  Cl12  1  0.98598600  0.73938600  0.96959300  1
  Cl  Cl13  1  0.40372400  0.50493200  0.86026300  1
  Cl  Cl14  1  0.47992300  0.69664500  0.93613500  1
  Cl  Cl15  1  0.36589500  0.10216200  0.62802500  1
  Cl  Cl16  1  0.59627600  0.49506800  0.13973700  1
  Cl  Cl17  1  0.30335500  0.52007700  0.56386500  1
  Cl  Cl18  1  0.86729700  0.77830600  0.67387000  1
  Cl  Cl19  1  0.63410500  0.89783800  0.37197500  1
  Cl  Cl20  1  0.26061400  0.01401400  0.53040700  1
  Cl  Cl21  1  0.22169400  0.13270300  0.82613000  1
  Cl  Cl22  1  0.89783800  0.63410500  0.87197500  1
  Cl  Cl23  1  0.62472400  0.76572000  0.06609600  1
  Cl  Cl24  1  0.69664500  0.47992300  0.43613500  1
  Cl  Cl25  1  0.95059900  0.10309300  0.90309100  1
  Cl  Cl26  1  0.67003400  0.62080900  0.23542200  1
  Cl  Cl27  1  0.62080900  0.67003400  0.73542200  1
  Cl  Cl28  1  0.10309300  0.95059900  0.40309100  1
  Cl  Cl29  1  0.49506800  0.59627600  0.63973700  1
  Cl  Cl30  1  0.37919100  0.32996600  0.26457800  1
  Cl  Cl31  1  0.73938600  0.98598600  0.46959300  1
  Cl  Cl32  1  0.04940100  0.89690700  0.09690900  1
  Cl  Cl33  1  0.01401400  0.26061400  0.03040700  1
  Cl  Cl34  1  0.94801100  0.87895000  0.79450100  1
  Cl  Cl35  1  0.87895000  0.94801100  0.29450100  1
  Cl  Cl36  1  0.50493200  0.40372400  0.36026300  1
  Cl  Cl37  1  0.76572000  0.62472400  0.56609600  1
  Cl  Cl38  1  0.32996600  0.37919100  0.76457800  1
  Cl  Cl39  1  0.23428000  0.37527600  0.43390400  1
  Cl  Cl40  1  0.12105000  0.05198900  0.70549900  1
  Cl  Cl41  1  0.52007700  0.30335500  0.06386500  1
  Cl  Cl42  1  0.37527600  0.23428000  0.93390400  1
  Cl  Cl43  1  0.13270300  0.22169400  0.32613000  1
