# generated using pymatgen
data_Sr2NiN2
_symmetry_space_group_name_H-M   'P 1'
_cell_length_a   3.85391200
_cell_length_b   7.71063100
_cell_length_c   12.52465700
_cell_angle_alpha   90.00000000
_cell_angle_beta   90.00000000
_cell_angle_gamma   90.00000000
_symmetry_Int_Tables_number   1
_chemical_formula_structural   Sr2NiN2
_chemical_formula_sum   'Sr8 Ni4 N8'
_cell_volume   372.18387644
_cell_formula_units_Z   4
loop_
 _symmetry_equiv_pos_site_id
 _symmetry_equiv_pos_as_xyz
  1  'x, y, z'
loop_
 _atom_site_type_symbol
 _atom_site_label
 _atom_site_symmetry_multiplicity
 _atom_site_fract_x
 _atom_site_fract_y
 _atom_site_fract_z
 _atom_site_occupancy
  Sr  Sr0  1  0.25000000  0.11689200  0.39655100  1
  Sr  Sr1  1  0.75000000  0.87334700  0.89896900  1
  Sr  Sr2  1  0.25000000  0.62665300  0.39896900  1
  Sr  Sr3  1  0.25000000  0.12665300  0.10103100  1
  Sr  Sr4  1  0.75000000  0.88310800  0.60344900  1
  Sr  Sr5  1  0.75000000  0.37334700  0.60103100  1
  Sr  Sr6  1  0.25000000  0.61689200  0.10344900  1
  Sr  Sr7  1  0.75000000  0.38310800  0.89655100  1
  Ni  Ni8  1  0.75000000  0.87176100  0.24818500  1
  Ni  Ni9  1  0.25000000  0.12823900  0.75181500  1
  Ni  Ni10  1  0.75000000  0.37176100  0.25181500  1
  Ni  Ni11  1  0.25000000  0.62823900  0.74818500  1
  N  N12  1  0.75000000  0.36790700  0.39222800  1
  N  N13  1  0.75000000  0.87551600  0.38931300  1
  N  N14  1  0.25000000  0.12448400  0.61068700  1
  N  N15  1  0.25000000  0.63209300  0.60777200  1
  N  N16  1  0.25000000  0.62448400  0.88931300  1
  N  N17  1  0.75000000  0.37551600  0.11068700  1
  N  N18  1  0.25000000  0.13209300  0.89222800  1
  N  N19  1  0.75000000  0.86790700  0.10777200  1
