# generated using pymatgen
data_InCu(WO4)2
_symmetry_space_group_name_H-M   'P 1'
_cell_length_a   7.67551901
_cell_length_b   7.67551901
_cell_length_c   5.08392207
_cell_angle_alpha   88.58172000
_cell_angle_beta   88.58172000
_cell_angle_gamma   100.93500357
_symmetry_Int_Tables_number   1
_chemical_formula_structural   InCu(WO4)2
_chemical_formula_sum   'In2 Cu2 W4 O16'
_cell_volume   293.85145741
_cell_formula_units_Z   2
loop_
 _symmetry_equiv_pos_site_id
 _symmetry_equiv_pos_as_xyz
  1  'x, y, z'
loop_
 _atom_site_type_symbol
 _atom_site_label
 _atom_site_symmetry_multiplicity
 _atom_site_fract_x
 _atom_site_fract_y
 _atom_site_fract_z
 _atom_site_occupancy
  In  In0  1  0.16744000  0.83256000  0.75000000  1
  In  In1  1  0.83256000  0.16744000  0.25000000  1
  Cu  Cu2  1  0.65028600  0.34971400  0.75000000  1
  Cu  Cu3  1  0.34971400  0.65028600  0.25000000  1
  W  W4  1  0.82991000  0.65929300  0.25590600  1
  W  W5  1  0.17009000  0.34070700  0.74409400  1
  W  W6  1  0.65929300  0.82991000  0.75590600  1
  W  W7  1  0.34070700  0.17009000  0.24409400  1
  O  O8  1  0.94496500  0.31101100  0.89704800  1
  O  O9  1  0.59495300  0.69539400  0.44427200  1
  O  O10  1  0.30460600  0.40504700  0.05572800  1
  O  O11  1  0.80491900  0.43290200  0.40498400  1
  O  O12  1  0.19508100  0.56709800  0.59501600  1
  O  O13  1  0.43290200  0.80491900  0.90498400  1
  O  O14  1  0.31101100  0.94496500  0.39704800  1
  O  O15  1  0.19688400  0.09064900  0.93221700  1
  O  O16  1  0.69539400  0.59495300  0.94427200  1
  O  O17  1  0.80311600  0.90935100  0.06778300  1
  O  O18  1  0.40504700  0.30460600  0.55572800  1
  O  O19  1  0.68898900  0.05503500  0.60295200  1
  O  O20  1  0.05503500  0.68898900  0.10295200  1
  O  O21  1  0.09064900  0.19688400  0.43221700  1
  O  O22  1  0.56709800  0.19508100  0.09501600  1
  O  O23  1  0.90935100  0.80311600  0.56778300  1
