# generated using pymatgen
data_Ta2As
_symmetry_space_group_name_H-M   'P 1'
_cell_length_a   3.49248900
_cell_length_b   11.93785400
_cell_length_c   14.95049600
_cell_angle_alpha   90.00000000
_cell_angle_beta   90.00000000
_cell_angle_gamma   90.00000000
_symmetry_Int_Tables_number   1
_chemical_formula_structural   Ta2As
_chemical_formula_sum   'Ta24 As12'
_cell_volume   623.32839513
_cell_formula_units_Z   12
loop_
 _symmetry_equiv_pos_site_id
 _symmetry_equiv_pos_as_xyz
  1  'x, y, z'
loop_
 _atom_site_type_symbol
 _atom_site_label
 _atom_site_symmetry_multiplicity
 _atom_site_fract_x
 _atom_site_fract_y
 _atom_site_fract_z
 _atom_site_occupancy
  Ta  Ta0  1  0.00000000  0.19572100  0.29751100  1
  Ta  Ta1  1  0.00000000  0.52868800  0.10941700  1
  Ta  Ta2  1  0.50000000  0.91509800  0.07974100  1
  Ta  Ta3  1  0.00000000  0.88465300  0.92768800  1
  Ta  Ta4  1  0.00000000  0.85880000  0.47777900  1
  Ta  Ta5  1  0.50000000  0.69572100  0.20248900  1
  Ta  Ta6  1  0.50000000  0.38465300  0.57231200  1
  Ta  Ta7  1  0.00000000  0.58490200  0.57974100  1
  Ta  Ta8  1  0.50000000  0.61534700  0.42768800  1
  Ta  Ta9  1  0.00000000  0.07941400  0.75631100  1
  Ta  Ta10  1  0.50000000  0.64120000  0.97777900  1
  Ta  Ta11  1  0.00000000  0.14120000  0.52222100  1
  Ta  Ta12  1  0.00000000  0.41509800  0.42025900  1
  Ta  Ta13  1  0.50000000  0.42058600  0.25631100  1
  Ta  Ta14  1  0.50000000  0.57941400  0.74368900  1
  Ta  Ta15  1  0.50000000  0.97131200  0.60941700  1
  Ta  Ta16  1  0.50000000  0.35880000  0.02222100  1
  Ta  Ta17  1  0.00000000  0.11534700  0.07231200  1
  Ta  Ta18  1  0.50000000  0.08490200  0.92025900  1
  Ta  Ta19  1  0.00000000  0.47131200  0.89058300  1
  Ta  Ta20  1  0.00000000  0.80427900  0.70248900  1
  Ta  Ta21  1  0.50000000  0.30427900  0.79751100  1
  Ta  Ta22  1  0.00000000  0.92058600  0.24368900  1
  Ta  Ta23  1  0.50000000  0.02868800  0.39058300  1
  As  As24  1  0.00000000  0.41965300  0.70408500  1
  As  As25  1  0.00000000  0.24567600  0.91914300  1
  As  As26  1  0.00000000  0.31243500  0.15088800  1
  As  As27  1  0.50000000  0.74567600  0.58085700  1
  As  As28  1  0.50000000  0.25432400  0.41914300  1
  As  As29  1  0.00000000  0.58034700  0.29591500  1
  As  As30  1  0.50000000  0.18756500  0.65088800  1
  As  As31  1  0.00000000  0.75432400  0.08085700  1
  As  As32  1  0.50000000  0.81243500  0.34911200  1
  As  As33  1  0.00000000  0.68756500  0.84911200  1
  As  As34  1  0.50000000  0.08034700  0.20408500  1
  As  As35  1  0.50000000  0.91965300  0.79591500  1
