# generated using pymatgen
data_Dy5Mg24
_symmetry_space_group_name_H-M   'P 1'
_cell_length_a   9.75567571
_cell_length_b   9.75567571
_cell_length_c   9.75567571
_cell_angle_alpha   109.47122063
_cell_angle_beta   109.47122063
_cell_angle_gamma   109.47122063
_symmetry_Int_Tables_number   1
_chemical_formula_structural   Dy5Mg24
_chemical_formula_sum   'Dy5 Mg24'
_cell_volume   714.74343690
_cell_formula_units_Z   1
loop_
 _symmetry_equiv_pos_site_id
 _symmetry_equiv_pos_as_xyz
  1  'x, y, z'
loop_
 _atom_site_type_symbol
 _atom_site_label
 _atom_site_symmetry_multiplicity
 _atom_site_fract_x
 _atom_site_fract_y
 _atom_site_fract_z
 _atom_site_occupancy
  Dy  Dy0  1  0.36946300  0.00000000  0.00000000  1
  Dy  Dy1  1  0.00000000  0.00000000  0.00000000  1
  Dy  Dy2  1  0.00000000  0.36946300  0.00000000  1
  Dy  Dy3  1  0.00000000  0.00000000  0.36946300  1
  Dy  Dy4  1  0.63053700  0.63053700  0.63053700  1
  Mg  Mg5  1  0.67943300  0.28632500  0.67943300  1
  Mg  Mg6  1  0.37217000  0.18098700  0.37217000  1
  Mg  Mg7  1  0.62783000  0.80881700  0.00000000  1
  Mg  Mg8  1  0.00000000  0.60689200  0.32056700  1
  Mg  Mg9  1  0.71367500  0.39310800  0.39310800  1
  Mg  Mg10  1  0.60689200  0.32056700  0.00000000  1
  Mg  Mg11  1  0.39310800  0.39310800  0.71367500  1
  Mg  Mg12  1  0.80881700  0.62783000  0.00000000  1
  Mg  Mg13  1  0.39310800  0.71367500  0.39310800  1
  Mg  Mg14  1  0.80881700  0.00000000  0.62783000  1
  Mg  Mg15  1  0.67943300  0.67943300  0.28632500  1
  Mg  Mg16  1  0.28632500  0.67943300  0.67943300  1
  Mg  Mg17  1  0.19118300  0.19118300  0.81901300  1
  Mg  Mg18  1  0.19118300  0.81901300  0.19118300  1
  Mg  Mg19  1  0.32056700  0.00000000  0.60689200  1
  Mg  Mg20  1  0.00000000  0.62783000  0.80881700  1
  Mg  Mg21  1  0.81901300  0.19118300  0.19118300  1
  Mg  Mg22  1  0.18098700  0.37217000  0.37217000  1
  Mg  Mg23  1  0.60689200  0.00000000  0.32056700  1
  Mg  Mg24  1  0.00000000  0.80881700  0.62783000  1
  Mg  Mg25  1  0.32056700  0.60689200  0.00000000  1
  Mg  Mg26  1  0.00000000  0.32056700  0.60689200  1
  Mg  Mg27  1  0.62783000  0.00000000  0.80881700  1
  Mg  Mg28  1  0.37217000  0.37217000  0.18098700  1
