# generated using pymatgen
data_Sb(PO3)4
_symmetry_space_group_name_H-M   'P 1'
_cell_length_a   7.36275586
_cell_length_b   7.36275586
_cell_length_c   10.28941823
_cell_angle_alpha   66.18748544
_cell_angle_beta   66.18748544
_cell_angle_gamma   70.92327981
_symmetry_Int_Tables_number   1
_chemical_formula_structural   Sb(PO3)4
_chemical_formula_sum   'Sb2 P8 O24'
_cell_volume   457.83537193
_cell_formula_units_Z   2
loop_
 _symmetry_equiv_pos_site_id
 _symmetry_equiv_pos_as_xyz
  1  'x, y, z'
loop_
 _atom_site_type_symbol
 _atom_site_label
 _atom_site_symmetry_multiplicity
 _atom_site_fract_x
 _atom_site_fract_y
 _atom_site_fract_z
 _atom_site_occupancy
  Sb  Sb0  1  0.93905900  0.06094100  0.75000000  1
  Sb  Sb1  1  0.06094100  0.93905900  0.25000000  1
  P  P2  1  0.25661800  0.72055300  0.98051100  1
  P  P3  1  0.29169200  0.30813600  0.19939100  1
  P  P4  1  0.72055300  0.25661800  0.48051100  1
  P  P5  1  0.30813600  0.29169200  0.69939100  1
  P  P6  1  0.74338200  0.27944700  0.01948900  1
  P  P7  1  0.27944700  0.74338200  0.51948900  1
  P  P8  1  0.69186400  0.70830800  0.30060900  1
  P  P9  1  0.70830800  0.69186400  0.80060900  1
  O  O10  1  0.83291700  0.08849100  0.41258600  1
  O  O11  1  0.19241800  0.34757700  0.34275400  1
  O  O12  1  0.88100700  0.72589800  0.32003900  1
  O  O13  1  0.72442600  0.20123700  0.90986900  1
  O  O14  1  0.49155800  0.22665000  0.56010400  1
  O  O15  1  0.27557400  0.79876300  0.09013100  1
  O  O16  1  0.16708300  0.91150900  0.58741400  1
  O  O17  1  0.77335000  0.50844200  0.93989600  1
  O  O18  1  0.46525100  0.70483100  0.85035500  1
  O  O19  1  0.70483100  0.46525100  0.35035500  1
  O  O20  1  0.34757700  0.19241800  0.84275400  1
  O  O21  1  0.80758200  0.65242300  0.65724600  1
  O  O22  1  0.53474900  0.29516900  0.14964500  1
  O  O23  1  0.72589800  0.88100700  0.82003900  1
  O  O24  1  0.08849100  0.83291700  0.91258600  1
  O  O25  1  0.27410200  0.11899300  0.17996100  1
  O  O26  1  0.29516900  0.53474900  0.64964500  1
  O  O27  1  0.22665000  0.49155800  0.06010400  1
  O  O28  1  0.65242300  0.80758200  0.15724600  1
  O  O29  1  0.11899300  0.27410200  0.67996100  1
  O  O30  1  0.91150900  0.16708300  0.08741400  1
  O  O31  1  0.79876300  0.27557400  0.59013100  1
  O  O32  1  0.50844200  0.77335000  0.43989600  1
  O  O33  1  0.20123700  0.72442600  0.40986900  1
