# generated using pymatgen
data_Cu9Se8
_symmetry_space_group_name_H-M   'P 1'
_cell_length_a   3.86975950
_cell_length_b   3.90853256
_cell_length_c   31.65062034
_cell_angle_alpha   60.94626402
_cell_angle_beta   60.91907174
_cell_angle_gamma   60.29897630
_symmetry_Int_Tables_number   1
_chemical_formula_structural   Cu9Se8
_chemical_formula_sum   'Cu9 Se8'
_cell_volume   343.98858639
_cell_formula_units_Z   1
loop_
 _symmetry_equiv_pos_site_id
 _symmetry_equiv_pos_as_xyz
  1  'x, y, z'
loop_
 _atom_site_type_symbol
 _atom_site_label
 _atom_site_symmetry_multiplicity
 _atom_site_fract_x
 _atom_site_fract_y
 _atom_site_fract_z
 _atom_site_occupancy
  Cu  Cu0  1  0.30436100  0.26337900  0.03199300  1
  Cu  Cu1  1  0.24996700  0.25877100  0.15319500  1
  Cu  Cu2  1  0.82309000  0.71407200  0.21854300  1
  Cu  Cu3  1  0.81464200  0.71743500  0.34333900  1
  Cu  Cu4  1  0.82235500  0.72524800  0.46545300  1
  Cu  Cu5  1  0.82375700  0.72577600  0.59011100  1
  Cu  Cu6  1  0.82519200  0.72680500  0.71475300  1
  Cu  Cu7  1  0.82736000  0.73294500  0.83828200  1
  Cu  Cu8  1  0.84934800  0.76442400  0.95788600  1
  Se  Se9  1  0.07233200  0.01079500  0.99569500  1
  Se  Se10  1  0.00639600  0.00095900  0.12195600  1
  Se  Se11  1  0.06509700  0.97011400  0.25045500  1
  Se  Se12  1  0.06588300  0.97667100  0.49819500  1
  Se  Se13  1  0.06443200  0.97583300  0.37362400  1
  Se  Se14  1  0.06776000  0.97745000  0.62271300  1
  Se  Se15  1  0.07129000  0.98101800  0.74647000  1
  Se  Se16  1  0.07773600  0.99330700  0.86821000  1
