# generated using pymatgen
data_Bi2O3
_symmetry_space_group_name_H-M   'P 1'
_cell_length_a   3.98330584
_cell_length_b   3.98330584
_cell_length_c   7.34603128
_cell_angle_alpha   72.53260442
_cell_angle_beta   72.53260442
_cell_angle_gamma   56.92612125
_symmetry_Int_Tables_number   1
_chemical_formula_structural   Bi2O3
_chemical_formula_sum   'Bi2 O3'
_cell_volume   91.80188740
_cell_formula_units_Z   1
loop_
 _symmetry_equiv_pos_site_id
 _symmetry_equiv_pos_as_xyz
  1  'x, y, z'
loop_
 _atom_site_type_symbol
 _atom_site_label
 _atom_site_symmetry_multiplicity
 _atom_site_fract_x
 _atom_site_fract_y
 _atom_site_fract_z
 _atom_site_occupancy
  Bi  Bi0  1  0.01437700  0.01437700  0.01525700  1
  Bi  Bi1  1  0.47233700  0.47233700  0.51188000  1
  O  O2  1  0.56920900  0.56920900  0.16760800  1
  O  O3  1  0.80568300  0.80568300  0.50093700  1
  O  O4  1  0.34339500  0.34339500  0.84931800  1
