# generated using pymatgen
data_Y2Se3
_symmetry_space_group_name_H-M   'P 1'
_cell_length_a   14.45399827
_cell_length_b   14.45399827
_cell_length_c   14.45399827
_cell_angle_alpha   144.88107572
_cell_angle_beta   144.88107572
_cell_angle_gamma   50.51178398
_symmetry_Int_Tables_number   1
_chemical_formula_structural   Y2Se3
_chemical_formula_sum   'Y16 Se24'
_cell_volume   994.32274311
_cell_formula_units_Z   8
loop_
 _symmetry_equiv_pos_site_id
 _symmetry_equiv_pos_as_xyz
  1  'x, y, z'
loop_
 _atom_site_type_symbol
 _atom_site_label
 _atom_site_symmetry_multiplicity
 _atom_site_fract_x
 _atom_site_fract_y
 _atom_site_fract_z
 _atom_site_occupancy
  Y  Y0  1  0.58250200  0.08250200  0.50000000  1
  Y  Y1  1  0.87500000  0.50698800  0.13198800  1
  Y  Y2  1  0.57651400  0.46898500  0.62486300  1
  Y  Y3  1  0.16749800  0.16749800  0.00000000  1
  Y  Y4  1  0.84412200  0.95165100  0.37513700  1
  Y  Y5  1  0.37500000  0.74301200  0.86801200  1
  Y  Y6  1  0.53101500  0.15587800  0.10752900  1
  Y  Y7  1  0.25698800  0.12500000  0.63198800  1
  Y  Y8  1  0.83250200  0.83250200  0.00000000  1
  Y  Y9  1  0.04834900  0.42348600  0.89247100  1
  Y  Y10  1  0.49301200  0.62500000  0.36801200  1
  Y  Y11  1  0.91749800  0.41749800  0.50000000  1
  Y  Y12  1  0.21898500  0.82651400  0.12486300  1
  Y  Y13  1  0.90587800  0.78101500  0.60752900  1
  Y  Y14  1  0.70165100  0.09412200  0.87513700  1
  Y  Y15  1  0.17348600  0.29834900  0.39247100  1
  Se  Se16  1  0.24456800  0.99895900  0.11221000  1
  Se  Se17  1  0.67477500  0.78751100  0.25303500  1
  Se  Se18  1  0.88674900  0.13235700  0.88779000  1
  Se  Se19  1  0.86325100  0.25104100  0.74560800  1
  Se  Se20  1  0.50543200  0.11764300  0.25439200  1
  Se  Se21  1  0.53447600  0.42174100  0.74696500  1
  Se  Se22  1  0.90805500  0.65307300  0.09604600  1
  Se  Se23  1  0.21552400  0.46248900  0.38726400  1
  Se  Se24  1  0.34692700  0.44297300  0.25498300  1
  Se  Se25  1  0.55702700  0.81200900  0.90395400  1
  Se  Se26  1  0.07522500  0.82825900  0.61273600  1
  Se  Se27  1  0.53751100  0.92477500  0.75303500  1
  Se  Se28  1  0.17174100  0.78447600  0.24696500  1
  Se  Se29  1  0.18799100  0.09194500  0.74501700  1
  Se  Se30  1  0.57825900  0.32522500  0.11273600  1
  Se  Se31  1  0.88235700  0.13674900  0.38779000  1
  Se  Se32  1  0.00104100  0.11325100  0.24560800  1
  Se  Se33  1  0.21248900  0.46552400  0.88726400  1
  Se  Se34  1  0.74895900  0.49456800  0.61221000  1
  Se  Se35  1  0.19297300  0.59692700  0.75498300  1
  Se  Se36  1  0.84194500  0.43799100  0.24501700  1
  Se  Se37  1  0.86764300  0.75543200  0.75439200  1
  Se  Se38  1  0.56200900  0.80702700  0.40395400  1
  Se  Se39  1  0.40307300  0.15805500  0.59604600  1
