# generated using pymatgen
data_La2Th3O9
_symmetry_space_group_name_H-M   'P 1'
_cell_length_a   14.51939691
_cell_length_b   14.51939691
_cell_length_c   14.51939691
_cell_angle_alpha   164.21043726
_cell_angle_beta   164.21043726
_cell_angle_gamma   22.40163563
_symmetry_Int_Tables_number   1
_chemical_formula_structural   La2Th3O9
_chemical_formula_sum   'La2 Th3 O9'
_cell_volume   226.58875074
_cell_formula_units_Z   1
loop_
 _symmetry_equiv_pos_site_id
 _symmetry_equiv_pos_as_xyz
  1  'x, y, z'
loop_
 _atom_site_type_symbol
 _atom_site_label
 _atom_site_symmetry_multiplicity
 _atom_site_fract_x
 _atom_site_fract_y
 _atom_site_fract_z
 _atom_site_occupancy
  La  La0  1  0.44325800  0.94325800  0.50000000  1
  La  La1  1  0.05674200  0.55674200  0.50000000  1
  Th  Th2  1  0.65153500  0.15153500  0.50000000  1
  Th  Th3  1  0.25000000  0.75000000  0.50000000  1
  Th  Th4  1  0.84846500  0.34846500  0.50000000  1
  O  O5  1  0.10630500  0.10630500  0.00000000  1
  O  O6  1  0.69865900  0.69865900  0.00000000  1
  O  O7  1  0.30134100  0.30134100  0.00000000  1
  O  O8  1  0.89369500  0.89369500  0.00000000  1
  O  O9  1  0.40228200  0.40228200  0.00000000  1
  O  O10  1  0.00000000  0.00000000  0.00000000  1
  O  O11  1  0.59771800  0.59771800  0.00000000  1
  O  O12  1  0.20277100  0.20277100  0.00000000  1
  O  O13  1  0.79722900  0.79722900  0.00000000  1
