# generated using pymatgen
data_Cu2HgI4
_symmetry_space_group_name_H-M   'P 1'
_cell_length_a   7.11813338
_cell_length_b   7.11813338
_cell_length_c   19.45315700
_cell_angle_alpha   90.00000000
_cell_angle_beta   90.00000000
_cell_angle_gamma   117.16752005
_symmetry_Int_Tables_number   1
_chemical_formula_structural   Cu2HgI4
_chemical_formula_sum   'Cu4 Hg2 I8'
_cell_volume   876.90771872
_cell_formula_units_Z   2
loop_
 _symmetry_equiv_pos_site_id
 _symmetry_equiv_pos_as_xyz
  1  'x, y, z'
loop_
 _atom_site_type_symbol
 _atom_site_label
 _atom_site_symmetry_multiplicity
 _atom_site_fract_x
 _atom_site_fract_y
 _atom_site_fract_z
 _atom_site_occupancy
  Cu  Cu0  1  0.50000000  0.50000000  0.00000000  1
  Cu  Cu1  1  0.00000000  0.50000000  0.00000000  1
  Cu  Cu2  1  0.50000000  0.50000000  0.50000000  1
  Cu  Cu3  1  0.50000000  0.00000000  0.50000000  1
  Hg  Hg4  1  0.00000000  0.50000000  0.50000000  1
  Hg  Hg5  1  0.50000000  0.00000000  0.00000000  1
  I  I6  1  0.64927400  0.31913000  0.59699400  1
  I  I7  1  0.68087000  0.35072600  0.09699400  1
  I  I8  1  0.68087000  0.35072600  0.90300600  1
  I  I9  1  0.64927400  0.31913000  0.40300600  1
  I  I10  1  0.35072600  0.68087000  0.59699400  1
  I  I11  1  0.31913000  0.64927400  0.90300600  1
  I  I12  1  0.31913000  0.64927400  0.09699400  1
  I  I13  1  0.35072600  0.68087000  0.40300600  1
