# generated using pymatgen
data_K3ClO
_symmetry_space_group_name_H-M   'P 1'
_cell_length_a   7.37415510
_cell_length_b   7.37415510
_cell_length_c   5.27561400
_cell_angle_alpha   90.00000000
_cell_angle_beta   90.00000000
_cell_angle_gamma   90.05389697
_symmetry_Int_Tables_number   1
_chemical_formula_structural   K3ClO
_chemical_formula_sum   'K6 Cl2 O2'
_cell_volume   286.87807341
_cell_formula_units_Z   2
loop_
 _symmetry_equiv_pos_site_id
 _symmetry_equiv_pos_as_xyz
  1  'x, y, z'
loop_
 _atom_site_type_symbol
 _atom_site_label
 _atom_site_symmetry_multiplicity
 _atom_site_fract_x
 _atom_site_fract_y
 _atom_site_fract_z
 _atom_site_occupancy
  K  K0  1  0.29375800  0.70624200  0.00000000  1
  K  K1  1  0.21395200  0.19775400  0.00000000  1
  K  K2  1  0.80224600  0.78604800  0.00000000  1
  K  K3  1  0.52501100  0.97743900  0.50000000  1
  K  K4  1  0.02256100  0.47498900  0.50000000  1
  K  K5  1  0.70568000  0.29432000  0.00000000  1
  Cl  Cl6  1  0.99904600  0.00095400  0.50000000  1
  Cl  Cl7  1  0.49693300  0.50306700  0.50000000  1
  O  O8  1  0.00554800  0.49243500  0.00000000  1
  O  O9  1  0.50756500  0.99445200  0.00000000  1
