# generated using pymatgen
data_Rb3Bi7Pb3(IO)10
_symmetry_space_group_name_H-M   'P 1'
_cell_length_a   6.66513900
_cell_length_b   8.61620790
_cell_length_c   21.03689009
_cell_angle_alpha   80.61523436
_cell_angle_beta   82.69273501
_cell_angle_gamma   77.51062332
_symmetry_Int_Tables_number   1
_chemical_formula_structural   Rb3Bi7Pb3(IO)10
_chemical_formula_sum   'Rb3 Bi7 Pb3 I10 O10'
_cell_volume   1158.42404114
_cell_formula_units_Z   1
loop_
 _symmetry_equiv_pos_site_id
 _symmetry_equiv_pos_as_xyz
  1  'x, y, z'
loop_
 _atom_site_type_symbol
 _atom_site_label
 _atom_site_symmetry_multiplicity
 _atom_site_fract_x
 _atom_site_fract_y
 _atom_site_fract_z
 _atom_site_occupancy
  Rb  Rb0  1  0.25327600  0.54830800  0.40958200  1
  Rb  Rb1  1  0.00553600  0.38753900  0.73046900  1
  Rb  Rb2  1  0.39854900  0.74624700  0.68920700  1
  Bi  Bi3  1  0.79801300  0.90281000  0.99344500  1
  Bi  Bi4  1  0.34046000  0.14922600  0.00266800  1
  Bi  Bi5  1  0.50914300  0.01592600  0.16432200  1
  Bi  Bi6  1  0.39790900  0.42993500  0.14134300  1
  Bi  Bi7  1  0.65535000  0.79132800  0.36845000  1
  Bi  Bi8  1  0.22854200  0.97769300  0.49083900  1
  Bi  Bi9  1  0.74917200  0.53284500  0.90810000  1
  Pb  Pb10  1  0.14167700  0.94095400  0.27736100  1
  Pb  Pb11  1  0.50572000  0.25605700  0.58017400  1
  Pb  Pb12  1  0.72301400  0.90361200  0.81568600  1
  I  I13  1  0.81445900  0.50689100  0.08442100  1
  I  I14  1  0.27909000  0.55260900  0.96075300  1
  I  I15  1  0.02687600  0.60461400  0.25738200  1
  I  I16  1  0.01131700  0.99127100  0.11464900  1
  I  I17  1  0.78174800  0.34592200  0.45549200  1
  I  I18  1  0.35547600  0.16392200  0.35987000  1
  I  I19  1  0.10870200  0.60781000  0.57392300  1
  I  I20  1  0.86371900  0.02151400  0.65782100  1
  I  I21  1  0.52635500  0.31272000  0.81798800  1
  I  I22  1  0.14448700  0.98929200  0.84256400  1
  O  O23  1  0.40192200  0.22965300  0.08988300  1
  O  O24  1  0.51004900  0.93044600  0.05544100  1
  O  O25  1  0.43936900  0.77955300  0.30827900  1
  O  O26  1  0.50340500  0.23556200  0.20777900  1
  O  O27  1  0.39694100  0.05975200  0.54958800  1
  O  O28  1  0.45265500  0.78891900  0.45534800  1
  O  O29  1  0.81109300  0.63063400  0.81257800  1
  O  O30  1  0.45406000  0.42376300  0.73303700  1
  O  O31  1  0.63940300  0.13270200  0.94782500  1
  O  O32  1  0.69118100  0.77863600  0.92508600  1
