# generated using pymatgen
data_Co(IO3)2
_symmetry_space_group_name_H-M   'P 1'
_cell_length_a   5.45393400
_cell_length_b   10.87049445
_cell_length_c   10.90932118
_cell_angle_alpha   119.24851003
_cell_angle_beta   90.02255735
_cell_angle_gamma   90.01656073
_symmetry_Int_Tables_number   1
_chemical_formula_structural   Co(IO3)2
_chemical_formula_sum   'Co4 I8 O24'
_cell_volume   564.32147564
_cell_formula_units_Z   4
loop_
 _symmetry_equiv_pos_site_id
 _symmetry_equiv_pos_as_xyz
  1  'x, y, z'
loop_
 _atom_site_type_symbol
 _atom_site_label
 _atom_site_symmetry_multiplicity
 _atom_site_fract_x
 _atom_site_fract_y
 _atom_site_fract_z
 _atom_site_occupancy
  Co  Co0  1  0.57092400  0.50942500  0.50519300  1
  Co  Co1  1  0.57138100  0.00512300  0.00205900  1
  Co  Co2  1  0.07180000  0.99404400  0.49399500  1
  Co  Co3  1  0.07185300  0.49087200  0.99838600  1
  I  I4  1  0.96294800  0.83541300  0.68393800  1
  I  I5  1  0.96324200  0.33215600  0.18634000  1
  I  I6  1  0.46317700  0.66686500  0.31585400  1
  I  I7  1  0.99500800  0.83668000  0.15089500  1
  I  I8  1  0.46378500  0.16568800  0.81424100  1
  I  I9  1  0.49308800  0.65993100  0.84681000  1
  I  I10  1  0.99132100  0.33873800  0.65436400  1
  I  I11  1  0.49367000  0.16380700  0.34694500  1
  O  O12  1  0.77946800  0.97708500  0.82392300  1
  O  O13  1  0.78531200  0.67910000  0.65556300  1
  O  O14  1  0.36248900  0.64900800  0.46708400  1
  O  O15  1  0.86255100  0.85580600  0.53422000  1
  O  O16  1  0.78722100  0.47545700  0.32796400  1
  O  O17  1  0.78145300  0.17595900  0.15661800  1
  O  O18  1  0.28521200  0.82260200  0.34238600  1
  O  O19  1  0.28256500  0.52244100  0.17686500  1
  O  O20  1  0.35923600  0.14134800  0.96098400  1
  O  O21  1  0.85930000  0.35367400  0.03779600  1
  O  O22  1  0.84940000  0.95742600  0.32001400  1
  O  O23  1  0.86754100  0.67049600  0.12845100  1
  O  O24  1  0.28200200  0.32200600  0.84525200  1
  O  O25  1  0.28491600  0.02481800  0.67129100  1
  O  O26  1  0.28241700  0.63541300  0.96628800  1
  O  O27  1  0.78060700  0.85776400  0.03056700  1
  O  O28  1  0.84562100  0.45465200  0.82556100  1
  O  O29  1  0.85974300  0.17050700  0.62321700  1
  O  O30  1  0.36283700  0.82708200  0.87385600  1
  O  O31  1  0.34506900  0.54262700  0.67694700  1
  O  O32  1  0.27774700  0.14038500  0.46485400  1
  O  O33  1  0.77921500  0.36621600  0.53787300  1
  O  O34  1  0.36492800  0.33096600  0.37300000  1
  O  O35  1  0.34900300  0.04422100  0.17660700  1
