# generated using pymatgen
data_Tl3PbCl5
_symmetry_space_group_name_H-M   'P 1'
_cell_length_a   8.72162900
_cell_length_b   8.74372200
_cell_length_c   14.74717600
_cell_angle_alpha   90.00000000
_cell_angle_beta   90.00000000
_cell_angle_gamma   90.00000000
_symmetry_Int_Tables_number   1
_chemical_formula_structural   Tl3PbCl5
_chemical_formula_sum   'Tl12 Pb4 Cl20'
_cell_volume   1124.61225878
_cell_formula_units_Z   4
loop_
 _symmetry_equiv_pos_site_id
 _symmetry_equiv_pos_as_xyz
  1  'x, y, z'
loop_
 _atom_site_type_symbol
 _atom_site_label
 _atom_site_symmetry_multiplicity
 _atom_site_fract_x
 _atom_site_fract_y
 _atom_site_fract_z
 _atom_site_occupancy
  Tl  Tl0  1  0.08497400  0.62923800  0.71397800  1
  Tl  Tl1  1  0.10659500  0.66121600  0.01632000  1
  Tl  Tl2  1  0.75512000  0.69158600  0.55065600  1
  Tl  Tl3  1  0.25512000  0.80841400  0.44934400  1
  Tl  Tl4  1  0.60659500  0.83878400  0.98368000  1
  Tl  Tl5  1  0.58497400  0.87076200  0.28602200  1
  Tl  Tl6  1  0.91502600  0.12923800  0.78602200  1
  Tl  Tl7  1  0.89340500  0.16121600  0.48368000  1
  Tl  Tl8  1  0.24488000  0.19158600  0.94934400  1
  Tl  Tl9  1  0.74488000  0.30841400  0.05065600  1
  Tl  Tl10  1  0.39340500  0.33878400  0.51632000  1
  Tl  Tl11  1  0.41502600  0.37076200  0.21397800  1
  Pb  Pb12  1  0.93869600  0.52590400  0.29734100  1
  Pb  Pb13  1  0.43869600  0.97409600  0.70265900  1
  Pb  Pb14  1  0.06130400  0.02590400  0.20265900  1
  Pb  Pb15  1  0.56130400  0.47409600  0.79734100  1
  Cl  Cl16  1  0.06294400  0.49801900  0.49169300  1
  Cl  Cl17  1  0.62046300  0.53204100  0.38086500  1
  Cl  Cl18  1  0.78769900  0.65214100  0.14730800  1
  Cl  Cl19  1  0.41561800  0.66867600  0.63434800  1
  Cl  Cl20  1  0.21461500  0.67954200  0.23369400  1
  Cl  Cl21  1  0.71461500  0.82045800  0.76630600  1
  Cl  Cl22  1  0.91561800  0.83132400  0.36565200  1
  Cl  Cl23  1  0.28769900  0.84785900  0.85269200  1
  Cl  Cl24  1  0.12046300  0.96795900  0.61913500  1
  Cl  Cl25  1  0.56294400  0.00198100  0.50830700  1
  Cl  Cl26  1  0.93705600  0.99801900  0.00830700  1
  Cl  Cl27  1  0.37953700  0.03204100  0.11913500  1
  Cl  Cl28  1  0.21230100  0.15214100  0.35269200  1
  Cl  Cl29  1  0.58438200  0.16867600  0.86565200  1
  Cl  Cl30  1  0.78538500  0.17954200  0.26630600  1
  Cl  Cl31  1  0.28538500  0.32045800  0.73369400  1
  Cl  Cl32  1  0.08438200  0.33132400  0.13434800  1
  Cl  Cl33  1  0.71230100  0.34785900  0.64730800  1
  Cl  Cl34  1  0.87953700  0.46795900  0.88086500  1
  Cl  Cl35  1  0.43705600  0.50198100  0.99169300  1
