# generated using pymatgen
data_AlHO2
_symmetry_space_group_name_H-M   'P 1'
_cell_length_a   3.82148700
_cell_length_b   3.89895800
_cell_length_c   3.90831600
_cell_angle_alpha   90.00000000
_cell_angle_beta   90.00000000
_cell_angle_gamma   90.00000000
_symmetry_Int_Tables_number   1
_chemical_formula_structural   AlHO2
_chemical_formula_sum   'Al2 H2 O4'
_cell_volume   58.23319439
_cell_formula_units_Z   2
loop_
 _symmetry_equiv_pos_site_id
 _symmetry_equiv_pos_as_xyz
  1  'x, y, z'
loop_
 _atom_site_type_symbol
 _atom_site_label
 _atom_site_symmetry_multiplicity
 _atom_site_fract_x
 _atom_site_fract_y
 _atom_site_fract_z
 _atom_site_occupancy
  Al  Al0  1  0.00000000  0.77617900  0.23865100  1
  Al  Al1  1  0.00000000  0.27617900  0.76134900  1
  H  H2  1  0.50000000  0.55665900  0.45041600  1
  H  H3  1  0.50000000  0.05665900  0.54958400  1
  O  O4  1  0.00000000  0.76919600  0.75396200  1
  O  O5  1  0.50000000  0.25596600  0.71768100  1
  O  O6  1  0.50000000  0.75596600  0.28231900  1
  O  O7  1  0.00000000  0.26919600  0.24603800  1
