# generated using pymatgen
data_W43N38
_symmetry_space_group_name_H-M   'P 1'
_cell_length_a   7.94539901
_cell_length_b   7.94539926
_cell_length_c   151.28650206
_cell_angle_alpha   20.74338779
_cell_angle_beta   20.74338309
_cell_angle_gamma   21.02731532
_symmetry_Int_Tables_number   1
_chemical_formula_structural   W43N38
_chemical_formula_sum   'W43 N38'
_cell_volume   1058.03840848
_cell_formula_units_Z   1
loop_
 _symmetry_equiv_pos_site_id
 _symmetry_equiv_pos_as_xyz
  1  'x, y, z'
loop_
 _atom_site_type_symbol
 _atom_site_label
 _atom_site_symmetry_multiplicity
 _atom_site_fract_x
 _atom_site_fract_y
 _atom_site_fract_z
 _atom_site_occupancy
  W  W0  1  0.00962470  0.00962470  0.00002689  1
  W  W1  1  0.00185046  0.00185046  0.05239054  1
  W  W2  1  0.11866509  0.11866509  0.05900423  1
  W  W3  1  0.03638285  0.03638285  0.10273900  1
  W  W4  1  0.87871060  0.87871060  0.04632847  1
  W  W5  1  0.99695166  0.99695166  0.15944182  1
  W  W6  1  0.86779880  0.86779880  0.10029012  1
  W  W7  1  0.00972305  0.00972305  0.21043729  1
  W  W8  1  0.87794814  0.87794814  0.15203733  1
  W  W9  1  0.87462953  0.87462953  0.20490481  1
  W  W10  1  0.00841442  0.00841442  0.31586088  1
  W  W11  1  0.00815943  0.00815943  0.26353623  1
  W  W12  1  0.87447258  0.87447258  0.25743432  1
  W  W13  1  0.87602128  0.87602128  0.30989607  1
  W  W14  1  0.01277227  0.01277227  0.42076896  1
  W  W15  1  0.01190805  0.01190805  0.36825922  1
  W  W16  1  0.87569080  0.87569080  0.36255721  1
  W  W17  1  0.87570806  0.87570806  0.41518930  1
  W  W18  1  0.01246838  0.01246838  0.47343455  1
  W  W19  1  0.87456251  0.87456251  0.46796328  1
  W  W20  1  0.01415203  0.01415203  0.52586674  1
  W  W21  1  0.87271565  0.87271565  0.52085558  1
  W  W22  1  0.99444507  0.99444507  0.63301535  1
  W  W23  1  0.01198173  0.01198173  0.57900810  1
  W  W24  1  0.87232929  0.87232929  0.57359904  1
  W  W25  1  0.11194052  0.11194052  0.69116497  1
  W  W26  1  0.87583136  0.87583136  0.62555749  1
  W  W27  1  0.87574559  0.87574559  0.67801512  1
  W  W28  1  0.00211961  0.00211961  0.78925898  1
  W  W29  1  0.01179065  0.01179065  0.73667056  1
  W  W30  1  0.00033237  0.00033237  0.68402327  1
  W  W31  1  0.11550527  0.11550527  0.79619578  1
  W  W32  1  0.86770828  0.86770828  0.73163049  1
  W  W33  1  0.01779031  0.01779031  0.84134474  1
  W  W34  1  0.87618365  0.87618365  0.78340720  1
  W  W35  1  0.12502531  0.12502531  0.90045096  1
  W  W36  1  0.87233086  0.87233086  0.83641083  1
  W  W37  1  -0.00026998  -0.00026998  0.89477286  1
  W  W38  1  0.11315176  0.11315176  0.95422208  1
  W  W39  1  0.88458885  0.88458885  0.88788713  1
  W  W40  1  0.00581531  0.00581531  0.94663094  1
  W  W41  1  0.87623225  0.87623225  0.94126998  1
  W  W42  1  0.86633129  0.86633129  0.99514079  1
  N  N43  1  0.28144208  0.28144208  0.01330677  1
  N  N44  1  0.27027854  0.27027854  0.06699416  1
  N  N45  1  0.72464651  0.72464651  0.03840021  1
  N  N46  1  0.27734719  0.27734719  0.11899076  1
  N  N47  1  0.74574976  0.74574976  0.08915439  1
  N  N48  1  0.27286720  0.27286720  0.17218673  1
  N  N49  1  0.72950306  0.72950306  0.14180516  1
  N  N50  1  0.27021325  0.27021325  0.22490505  1
  N  N51  1  0.72184711  0.72184711  0.19616638  1
  N  N52  1  0.27249231  0.27249231  0.27728825  1
  N  N53  1  0.71764746  0.71764746  0.24895639  1
  N  N54  1  0.27256582  0.27256582  0.32990061  1
  N  N55  1  0.71963575  0.71963575  0.30148202  1
  N  N56  1  0.27267707  0.27267707  0.38250235  1
  N  N57  1  0.71868651  0.71868651  0.35418571  1
  N  N58  1  0.27165921  0.27165921  0.43523674  1
  N  N59  1  0.72023964  0.72023964  0.40667221  1
  N  N60  1  0.27105863  0.27105863  0.48796961  1
  N  N61  1  0.72038613  0.72038613  0.45923559  1
  N  N62  1  0.27076664  0.27076664  0.54070609  1
  N  N63  1  0.71942660  0.71942660  0.51197236  1
  N  N64  1  0.26890170  0.26890170  0.59357022  1
  N  N65  1  0.71742070  0.71742070  0.56482229  1
  N  N66  1  0.27815801  0.27815801  0.64500127  1
  N  N67  1  0.71409138  0.71409138  0.61752649  1
  N  N68  1  0.26863344  0.26863344  0.69863051  1
  N  N69  1  0.71209697  0.71209697  0.67128474  1
  N  N70  1  0.28140240  0.28140240  0.75005403  1
  N  N71  1  0.73381357  0.73381357  0.72158311  1
  N  N72  1  0.26906941  0.26906941  0.80399312  1
  N  N73  1  0.71990861  0.71990861  0.77571951  1
  N  N74  1  0.28154996  0.28154996  0.85558549  1
  N  N75  1  0.73810610  0.73810610  0.82649681  1
  N  N76  1  0.27723455  0.27723455  0.90836849  1
  N  N77  1  0.72278824  0.72278824  0.88073122  1
  N  N78  1  0.26911502  0.26911502  0.96191972  1
  N  N79  1  0.72280855  0.72280855  0.93362789  1
  N  N80  1  0.73752524  0.73752524  0.98416702  1
