# generated using pymatgen
data_V5Fe3O16
_symmetry_space_group_name_H-M   'P 1'
_cell_length_a   11.10766400
_cell_length_b   4.52903200
_cell_length_c   4.93098168
_cell_angle_alpha   89.54911040
_cell_angle_beta   90.00000000
_cell_angle_gamma   90.00000000
_symmetry_Int_Tables_number   1
_chemical_formula_structural   V5Fe3O16
_chemical_formula_sum   'V5 Fe3 O16'
_cell_volume   248.05504538
_cell_formula_units_Z   1
loop_
 _symmetry_equiv_pos_site_id
 _symmetry_equiv_pos_as_xyz
  1  'x, y, z'
loop_
 _atom_site_type_symbol
 _atom_site_label
 _atom_site_symmetry_multiplicity
 _atom_site_fract_x
 _atom_site_fract_y
 _atom_site_fract_z
 _atom_site_occupancy
  V  V0  1  0.41356500  0.50000000  0.50000000  1
  V  V1  1  0.91550400  0.50000000  0.50000000  1
  V  V2  1  0.33460700  0.00000000  0.00000000  1
  V  V3  1  0.66064800  0.00000000  0.50000000  1
  V  V4  1  0.08453300  0.50000000  0.00000000  1
  Fe  Fe5  1  0.83379200  0.00000000  0.00000000  1
  Fe  Fe6  1  0.16618300  0.00000000  0.50000000  1
  Fe  Fe7  1  0.58041900  0.50000000  0.00000000  1
  O  O8  1  0.05686300  0.27806600  0.68387000  1
  O  O9  1  0.56178300  0.26206600  0.65481200  1
  O  O10  1  0.94487300  0.27973400  0.18257200  1
  O  O11  1  0.43655200  0.27207300  0.16742600  1
  O  O12  1  0.31246500  0.22635500  0.66632600  1
  O  O13  1  0.81290400  0.23993500  0.65330900  1
  O  O14  1  0.18823800  0.23520100  0.15095400  1
  O  O15  1  0.69201600  0.21444200  0.18661300  1
  O  O16  1  0.31246500  0.77364500  0.33367400  1
  O  O17  1  0.81290400  0.76006500  0.34669100  1
  O  O18  1  0.18823800  0.76479900  0.84904600  1
  O  O19  1  0.69201600  0.78555800  0.81338700  1
  O  O20  1  0.05686300  0.72193400  0.31613000  1
  O  O21  1  0.56178300  0.73793400  0.34518800  1
  O  O22  1  0.43655200  0.72792700  0.83257400  1
  O  O23  1  0.94487300  0.72026600  0.81742800  1
