# generated using pymatgen
data_Ce9GdO20
_symmetry_space_group_name_H-M   'P 1'
_cell_length_a   6.68631100
_cell_length_b   7.72216818
_cell_length_c   8.63864034
_cell_angle_alpha   102.91744426
_cell_angle_beta   97.46375100
_cell_angle_gamma   106.72266519
_symmetry_Int_Tables_number   1
_chemical_formula_structural   Ce9GdO20
_chemical_formula_sum   'Ce9 Gd1 O20'
_cell_volume   407.25140874
_cell_formula_units_Z   1
loop_
 _symmetry_equiv_pos_site_id
 _symmetry_equiv_pos_as_xyz
  1  'x, y, z'
loop_
 _atom_site_type_symbol
 _atom_site_label
 _atom_site_symmetry_multiplicity
 _atom_site_fract_x
 _atom_site_fract_y
 _atom_site_fract_z
 _atom_site_occupancy
  Ce  Ce0  1  0.80040300  0.60091300  0.60084900  1
  Ce  Ce1  1  0.59939000  0.19877600  0.19880900  1
  Ce  Ce2  1  0.00000000  0.50000000  0.00000000  1
  Ce  Ce3  1  0.80042100  0.09990400  0.60106000  1
  Ce  Ce4  1  0.19959700  0.39908700  0.39915100  1
  Ce  Ce5  1  0.60136500  0.70092500  0.19941700  1
  Ce  Ce6  1  0.39863500  0.29907500  0.80058300  1
  Ce  Ce7  1  0.19957900  0.90009600  0.39894000  1
  Ce  Ce8  1  0.40061000  0.80122400  0.80119100  1
  Gd  Gd9  1  0.00000000  0.00000000  0.00000000  1
  O  O10  1  0.85016700  0.32514100  0.45025000  1
  O  O11  1  0.64699500  0.92418400  0.05068000  1
  O  O12  1  0.94968400  0.77306300  0.15137900  1
  O  O13  1  0.44981200  0.52473100  0.64987500  1
  O  O14  1  0.85003100  0.82504400  0.45004200  1
  O  O15  1  0.25195200  0.12605300  0.25195400  1
  O  O16  1  0.74958600  0.37486200  0.74997900  1
  O  O17  1  0.64970000  0.42508900  0.04985500  1
  O  O18  1  0.55018900  0.97485700  0.35029300  1
  O  O19  1  0.44981100  0.02514300  0.64970700  1
  O  O20  1  0.05040400  0.72281900  0.84866600  1
  O  O21  1  0.94959600  0.27718100  0.15133400  1
  O  O22  1  0.35030000  0.57491100  0.95014500  1
  O  O23  1  0.25041400  0.62513800  0.25002100  1
  O  O24  1  0.74804800  0.87394700  0.74804600  1
  O  O25  1  0.55018800  0.47526900  0.35012500  1
  O  O26  1  0.14996900  0.17495600  0.54995800  1
  O  O27  1  0.05031600  0.22693700  0.84862100  1
  O  O28  1  0.35300500  0.07581600  0.94932000  1
  O  O29  1  0.14983300  0.67485900  0.54975000  1
