# generated using pymatgen
data_NdPb8F19
_symmetry_space_group_name_H-M   'P 1'
_cell_length_a   4.15081180
_cell_length_b   4.15081180
_cell_length_c   32.17011667
_cell_angle_alpha   89.44246635
_cell_angle_beta   89.44246635
_cell_angle_gamma   60.76850955
_symmetry_Int_Tables_number   1
_chemical_formula_structural   NdPb8F19
_chemical_formula_sum   'Nd1 Pb8 F19'
_cell_volume   483.65210392
_cell_formula_units_Z   1
loop_
 _symmetry_equiv_pos_site_id
 _symmetry_equiv_pos_as_xyz
  1  'x, y, z'
loop_
 _atom_site_type_symbol
 _atom_site_label
 _atom_site_symmetry_multiplicity
 _atom_site_fract_x
 _atom_site_fract_y
 _atom_site_fract_z
 _atom_site_occupancy
  Nd  Nd0  1  0.65727400  0.65727400  0.86962800  1
  Pb  Pb1  1  0.98094300  0.98094300  0.98685900  1
  Pb  Pb2  1  0.36406500  0.36406500  0.10801500  1
  Pb  Pb3  1  0.68671600  0.68671600  0.21807000  1
  Pb  Pb4  1  0.01388100  0.01388100  0.33109000  1
  Pb  Pb5  1  0.33918100  0.33918100  0.44288000  1
  Pb  Pb6  1  0.66618600  0.66618600  0.55310700  1
  Pb  Pb7  1  0.98965000  0.98965000  0.66240000  1
  Pb  Pb8  1  0.31234300  0.31234300  0.76989900  1
  F  F9  1  0.68733600  0.68733600  0.13944600  1
  F  F10  1  0.02231100  0.02231100  0.08264500  1
  F  F11  1  0.34748500  0.34748500  0.18777500  1
  F  F12  1  0.35241700  0.35241700  0.36074600  1
  F  F13  1  0.01472600  0.01472600  0.24700600  1
  F  F14  1  0.68550700  0.68550700  0.30314500  1
  F  F15  1  0.67129700  0.67129700  0.47218000  1
  F  F16  1  0.00626500  0.00626500  0.41481400  1
  F  F17  1  0.99899200  0.99899200  0.58126400  1
  F  F18  1  0.32099800  0.32099800  0.69197500  1
  F  F19  1  0.33344500  0.33344500  0.52551400  1
  F  F20  1  0.65632900  0.65632900  0.63591200  1
  F  F21  1  0.63905400  0.63905400  0.79706000  1
  F  F22  1  0.97699900  0.97699900  0.74091300  1
  F  F23  1  0.97325100  0.97325100  0.90782800  1
  F  F24  1  0.96544300  0.96544300  0.83164100  1
  F  F25  1  0.31141300  0.31141300  0.86328600  1
  F  F26  1  0.30235500  0.30235500  0.95667000  1
  F  F27  1  0.63295700  0.63295700  0.01267600  1
