# generated using pymatgen
data_NaPrS2
_symmetry_space_group_name_H-M   'P 1'
_cell_length_a   7.28293944
_cell_length_b   7.28293944
_cell_length_c   7.28293944
_cell_angle_alpha   133.47396199
_cell_angle_beta   133.47396199
_cell_angle_gamma   67.91079332
_symmetry_Int_Tables_number   1
_chemical_formula_structural   NaPrS2
_chemical_formula_sum   'Na2 Pr2 S4'
_cell_volume   199.92732114
_cell_formula_units_Z   2
loop_
 _symmetry_equiv_pos_site_id
 _symmetry_equiv_pos_as_xyz
  1  'x, y, z'
loop_
 _atom_site_type_symbol
 _atom_site_label
 _atom_site_symmetry_multiplicity
 _atom_site_fract_x
 _atom_site_fract_y
 _atom_site_fract_z
 _atom_site_occupancy
  Na  Na0  1  0.25000000  0.75000000  0.50000000  1
  Na  Na1  1  0.50000000  0.50000000  0.00000000  1
  Pr  Pr2  1  0.00000000  0.00000000  0.00000000  1
  Pr  Pr3  1  0.75000000  0.25000000  0.50000000  1
  S  S4  1  0.76324600  0.76324600  0.00000000  1
  S  S5  1  0.51324600  0.01324600  0.50000000  1
  S  S6  1  0.23675400  0.23675400  0.00000000  1
  S  S7  1  0.98675400  0.48675400  0.50000000  1
