# generated using pymatgen
data_LaSb2Au
_symmetry_space_group_name_H-M   'P 1'
_cell_length_a   5.77501800
_cell_length_b   5.77501800
_cell_length_c   6.50769800
_cell_angle_alpha   90.00000000
_cell_angle_beta   90.00000000
_cell_angle_gamma   90.00000000
_symmetry_Int_Tables_number   1
_chemical_formula_structural   LaSb2Au
_chemical_formula_sum   'La2 Sb4 Au2'
_cell_volume   217.03714856
_cell_formula_units_Z   2
loop_
 _symmetry_equiv_pos_site_id
 _symmetry_equiv_pos_as_xyz
  1  'x, y, z'
loop_
 _atom_site_type_symbol
 _atom_site_label
 _atom_site_symmetry_multiplicity
 _atom_site_fract_x
 _atom_site_fract_y
 _atom_site_fract_z
 _atom_site_occupancy
  La  La0  1  0.00000000  0.50000000  0.27085700  1
  La  La1  1  0.50000000  0.00000000  0.72914300  1
  Sb  Sb2  1  0.00000000  0.50000000  0.77321300  1
  Sb  Sb3  1  0.00000000  0.00000000  0.50000000  1
  Sb  Sb4  1  0.50000000  0.00000000  0.22678700  1
  Sb  Sb5  1  0.50000000  0.50000000  0.50000000  1
  Au  Au6  1  0.00000000  0.00000000  0.00000000  1
  Au  Au7  1  0.50000000  0.50000000  0.00000000  1
