# generated using pymatgen
data_Na3Ce5Cl18
_symmetry_space_group_name_H-M   'P 1'
_cell_length_a   7.60451597
_cell_length_b   7.60451597
_cell_length_c   13.01329600
_cell_angle_alpha   90.00000000
_cell_angle_beta   90.00000000
_cell_angle_gamma   119.99999970
_symmetry_Int_Tables_number   1
_chemical_formula_structural   Na3Ce5Cl18
_chemical_formula_sum   'Na3 Ce5 Cl18'
_cell_volume   651.72006690
_cell_formula_units_Z   1
loop_
 _symmetry_equiv_pos_site_id
 _symmetry_equiv_pos_as_xyz
  1  'x, y, z'
loop_
 _atom_site_type_symbol
 _atom_site_label
 _atom_site_symmetry_multiplicity
 _atom_site_fract_x
 _atom_site_fract_y
 _atom_site_fract_z
 _atom_site_occupancy
  Na  Na0  1  0.00000000  0.00000000  0.50000000  1
  Na  Na1  1  0.66666700  0.33333300  0.36237300  1
  Na  Na2  1  0.66666700  0.33333300  0.63762700  1
  Ce  Ce3  1  0.00000000  0.00000000  0.83455600  1
  Ce  Ce4  1  0.00000000  0.00000000  0.16544400  1
  Ce  Ce5  1  0.33333300  0.66666700  0.33434700  1
  Ce  Ce6  1  0.33333300  0.66666700  0.00000000  1
  Ce  Ce7  1  0.33333300  0.66666700  0.66565300  1
  Cl  Cl8  1  0.97222700  0.24559100  0.00000000  1
  Cl  Cl9  1  0.97855600  0.25468400  0.32591400  1
  Cl  Cl10  1  0.97855600  0.25468400  0.67408600  1
  Cl  Cl11  1  0.75440900  0.72663600  0.00000000  1
  Cl  Cl12  1  0.74531600  0.72387200  0.32591400  1
  Cl  Cl13  1  0.74531600  0.72387200  0.67408600  1
  Cl  Cl14  1  0.05885100  0.63851900  0.83551800  1
  Cl  Cl15  1  0.05885100  0.63851900  0.16448200  1
  Cl  Cl16  1  0.04817000  0.61683700  0.50000000  1
  Cl  Cl17  1  0.27336400  0.02777300  0.00000000  1
  Cl  Cl18  1  0.27612800  0.02144400  0.32591400  1
  Cl  Cl19  1  0.27612800  0.02144400  0.67408600  1
  Cl  Cl20  1  0.57966700  0.94114900  0.83551800  1
  Cl  Cl21  1  0.56866600  0.95183000  0.50000000  1
  Cl  Cl22  1  0.57966700  0.94114900  0.16448200  1
  Cl  Cl23  1  0.36148100  0.42033300  0.83551800  1
  Cl  Cl24  1  0.36148100  0.42033300  0.16448200  1
  Cl  Cl25  1  0.38316300  0.43133400  0.50000000  1
