# generated using pymatgen
data_TlPF6
_symmetry_space_group_name_H-M   'P 1'
_cell_length_a   5.79029977
_cell_length_b   5.79029977
_cell_length_c   5.79029984
_cell_angle_alpha   58.04697770
_cell_angle_beta   58.04697770
_cell_angle_gamma   58.04697888
_symmetry_Int_Tables_number   1
_chemical_formula_structural   TlPF6
_chemical_formula_sum   'Tl1 P1 F6'
_cell_volume   131.12563064
_cell_formula_units_Z   1
loop_
 _symmetry_equiv_pos_site_id
 _symmetry_equiv_pos_as_xyz
  1  'x, y, z'
loop_
 _atom_site_type_symbol
 _atom_site_label
 _atom_site_symmetry_multiplicity
 _atom_site_fract_x
 _atom_site_fract_y
 _atom_site_fract_z
 _atom_site_occupancy
  Tl  Tl0  1  0.50000000  0.50000000  0.50000000  1
  P  P1  1  0.00000000  0.00000000  0.00000000  1
  F  F2  1  0.07176500  0.65876200  0.07176500  1
  F  F3  1  0.07176500  0.07176500  0.65876200  1
  F  F4  1  0.65876200  0.07176500  0.07176500  1
  F  F5  1  0.34123800  0.92823500  0.92823500  1
  F  F6  1  0.92823500  0.92823500  0.34123800  1
  F  F7  1  0.92823500  0.34123800  0.92823500  1
