# generated using pymatgen
data_Mn4P4O13
_symmetry_space_group_name_H-M   'P 1'
_cell_length_a   6.72240900
_cell_length_b   7.47702536
_cell_length_c   20.72279391
_cell_angle_alpha   92.99005774
_cell_angle_beta   97.70181601
_cell_angle_gamma   99.45231330
_symmetry_Int_Tables_number   1
_chemical_formula_structural   Mn4P4O13
_chemical_formula_sum   'Mn16 P16 O52'
_cell_volume   1015.25640920
_cell_formula_units_Z   4
loop_
 _symmetry_equiv_pos_site_id
 _symmetry_equiv_pos_as_xyz
  1  'x, y, z'
loop_
 _atom_site_type_symbol
 _atom_site_label
 _atom_site_symmetry_multiplicity
 _atom_site_fract_x
 _atom_site_fract_y
 _atom_site_fract_z
 _atom_site_occupancy
  Mn  Mn0  1  0.37782200  0.63884000  0.45426000  1
  Mn  Mn1  1  0.23154700  0.75039000  0.70196600  1
  Mn  Mn2  1  0.12025100  0.87571000  0.95568900  1
  Mn  Mn3  1  0.87974900  0.12429000  0.04431100  1
  Mn  Mn4  1  0.00166400  0.01370400  0.20424300  1
  Mn  Mn5  1  0.76845300  0.24961000  0.29803400  1
  Mn  Mn6  1  0.62217800  0.36116000  0.54574000  1
  Mn  Mn7  1  0.85754900  0.12672100  0.45159400  1
  Mn  Mn8  1  0.51721300  0.49834400  0.79803300  1
  Mn  Mn9  1  0.75286200  0.26339000  0.70452100  1
  Mn  Mn10  1  0.61250700  0.38344000  0.95103500  1
  Mn  Mn11  1  0.38749300  0.61656000  0.04896500  1
  Mn  Mn12  1  0.48278700  0.50165600  0.20196700  1
  Mn  Mn13  1  0.24713800  0.73661000  0.29547900  1
  Mn  Mn14  1  0.14245100  0.87327900  0.54840600  1
  Mn  Mn15  1  0.99833600  0.98629600  0.79575700  1
  P  P16  1  0.39478600  0.18832000  0.06707200  1
  P  P17  1  0.28821200  0.28898800  0.33292000  1
  P  P18  1  0.14436100  0.43936400  0.56840700  1
  P  P19  1  0.85563900  0.56063600  0.43159300  1
  P  P20  1  0.03789500  0.53682600  0.83300000  1
  P  P21  1  0.71178800  0.71101200  0.66708000  1
  P  P22  1  0.91053000  0.66313200  0.08460200  1
  P  P23  1  0.60521400  0.81168000  0.93292800  1
  P  P24  1  0.76921900  0.81438100  0.31851900  1
  P  P25  1  0.47943800  0.93495200  0.18101700  1
  P  P26  1  0.66227800  0.91363900  0.58305800  1
  P  P27  1  0.33772200  0.08636100  0.41694200  1
  P  P28  1  0.52056200  0.06504800  0.81898300  1
  P  P29  1  0.23078100  0.18561900  0.68148100  1
  P  P30  1  0.08947000  0.33686800  0.91539800  1
  P  P31  1  0.96210500  0.46317400  0.16700000  1
  O  O32  1  0.57172300  0.19008800  0.02667800  1
  O  O33  1  0.28073500  0.48093800  0.36366000  1
  O  O34  1  0.46336100  0.29884000  0.29068300  1
  O  O35  1  0.56612700  0.94153100  0.87725400  1
  O  O36  1  0.06215800  0.65558900  0.46883900  1
  O  O37  1  0.13819500  0.62446400  0.60334400  1
  O  O38  1  0.32344500  0.43999700  0.52917100  1
  O  O39  1  0.43387300  0.05846900  0.12274600  1
  O  O40  1  0.18855900  0.10092400  0.02743000  1
  O  O41  1  0.96929100  0.27173200  0.13506000  1
  O  O42  1  0.08172800  0.21017600  0.29009700  1
  O  O43  1  0.18714800  0.31185700  0.62480100  1
  O  O44  1  0.67655500  0.56000300  0.47082900  1
  O  O45  1  0.86180500  0.37553600  0.39665600  1
  O  O46  1  0.93784200  0.34441100  0.53116100  1
  O  O47  1  0.91827200  0.78982400  0.70990300  1
  O  O48  1  0.21289500  0.55022000  0.79045000  1
  O  O49  1  0.03070900  0.72826800  0.86494000  1
  O  O50  1  0.81144100  0.89907600  0.97257000  1
  O  O51  1  0.90537400  0.85491100  0.11564100  1
  O  O52  1  0.08691800  0.67134200  0.04311700  1
  O  O53  1  0.68523100  0.03258600  0.21796500  1
  O  O54  1  0.76324900  0.00017700  0.35299900  1
  O  O55  1  0.94765500  0.81437000  0.27901600  1
  O  O56  1  0.54423700  0.16451800  0.45985100  1
  O  O57  1  0.53663900  0.70116000  0.70931700  1
  O  O58  1  0.71926500  0.51906200  0.63634000  1
  O  O59  1  0.65506200  0.10565500  0.61384700  1
  O  O60  1  0.83753000  0.92318900  0.54085000  1
  O  O61  1  0.83084600  0.46204300  0.78975000  1
  O  O62  1  0.42827700  0.80991200  0.97332200  1
  O  O63  1  0.61363700  0.62764400  0.89825500  1
  O  O64  1  0.70461000  0.57836700  0.04362600  1
  O  O65  1  0.81285200  0.68814300  0.37519900  1
  O  O66  1  0.30095400  0.93657000  0.22042500  1
  O  O67  1  0.48586600  0.74915300  0.14740800  1
  O  O68  1  0.56265400  0.71952200  0.28147700  1
  O  O69  1  0.34493800  0.89434500  0.38615300  1
  O  O70  1  0.16247000  0.07681100  0.45915000  1
  O  O71  1  0.45576300  0.83548200  0.54014900  1
  O  O72  1  0.43734600  0.28047800  0.71852300  1
  O  O73  1  0.51413400  0.25084700  0.85259200  1
  O  O74  1  0.69904600  0.06343000  0.77957500  1
  O  O75  1  0.29539000  0.42163300  0.95637400  1
  O  O76  1  0.38636300  0.37235600  0.10174500  1
  O  O77  1  0.16915400  0.53795700  0.21025000  1
  O  O78  1  0.05234500  0.18563000  0.72098400  1
  O  O79  1  0.23675100  0.99982300  0.64700100  1
  O  O80  1  0.31476900  0.96741400  0.78203500  1
  O  O81  1  0.91308200  0.32865800  0.95688300  1
  O  O82  1  0.09462600  0.14508900  0.88435900  1
  O  O83  1  0.78710500  0.44978000  0.20955000  1
