# generated using pymatgen
data_LaAsO4
_symmetry_space_group_name_H-M   'P 1'
_cell_length_a   7.05157164
_cell_length_b   7.05157164
_cell_length_c   7.05157164
_cell_angle_alpha   136.36334633
_cell_angle_beta   136.36334633
_cell_angle_gamma   63.41909358
_symmetry_Int_Tables_number   1
_chemical_formula_structural   LaAsO4
_chemical_formula_sum   'La2 As2 O8'
_cell_volume   164.81968689
_cell_formula_units_Z   2
loop_
 _symmetry_equiv_pos_site_id
 _symmetry_equiv_pos_as_xyz
  1  'x, y, z'
loop_
 _atom_site_type_symbol
 _atom_site_label
 _atom_site_symmetry_multiplicity
 _atom_site_fract_x
 _atom_site_fract_y
 _atom_site_fract_z
 _atom_site_occupancy
  La  La0  1  0.75000000  0.25000000  0.50000000  1
  La  La1  1  0.00000000  0.00000000  0.00000000  1
  As  As2  1  0.25000000  0.75000000  0.50000000  1
  As  As3  1  0.50000000  0.50000000  0.00000000  1
  O  O4  1  0.30311200  0.92143400  0.87758200  1
  O  O5  1  0.04385200  0.42553000  0.12241800  1
  O  O6  1  0.17553000  0.55311200  0.88167800  1
  O  O7  1  0.67143400  0.29385200  0.11832200  1
  O  O8  1  0.44688800  0.32856600  0.62241800  1
  O  O9  1  0.70614800  0.82447000  0.37758200  1
  O  O10  1  0.57447000  0.69688800  0.61832200  1
  O  O11  1  0.07856600  0.95614800  0.38167800  1
