# generated using pymatgen
data_YbV4O8
_symmetry_space_group_name_H-M   'P 1'
_cell_length_a   7.25333226
_cell_length_b   7.23049965
_cell_length_c   6.98032799
_cell_angle_alpha   96.92012024
_cell_angle_beta   113.37911242
_cell_angle_gamma   74.93775009
_symmetry_Int_Tables_number   1
_chemical_formula_structural   YbV4O8
_chemical_formula_sum   'Yb2 V8 O16'
_cell_volume   324.42213033
_cell_formula_units_Z   2
loop_
 _symmetry_equiv_pos_site_id
 _symmetry_equiv_pos_as_xyz
  1  'x, y, z'
loop_
 _atom_site_type_symbol
 _atom_site_label
 _atom_site_symmetry_multiplicity
 _atom_site_fract_x
 _atom_site_fract_y
 _atom_site_fract_z
 _atom_site_occupancy
  Yb  Yb0  1  0.22783400  0.83933100  0.99681800  1
  Yb  Yb1  1  0.77216600  0.16066900  0.00318200  1
  V  V2  1  0.25487600  0.31983600  0.77749400  1
  V  V3  1  0.23676900  0.06746700  0.48951700  1
  V  V4  1  0.22332800  0.61070200  0.47651700  1
  V  V5  1  0.39180900  0.36799700  0.28866300  1
  V  V6  1  0.60819100  0.63200300  0.71133700  1
  V  V7  1  0.77667200  0.38929800  0.52348300  1
  V  V8  1  0.76323100  0.93253300  0.51048300  1
  V  V9  1  0.74512400  0.68016400  0.22250600  1
  O  O10  1  0.89150200  0.95978400  0.77782300  1
  O  O11  1  0.28408200  0.26020800  0.02381200  1
  O  O12  1  0.04195300  0.20237200  0.59725900  1
  O  O13  1  0.26373300  0.56342200  0.77490200  1
  O  O14  1  0.26020200  0.61958700  0.22164400  1
  O  O15  1  0.23457000  0.34168800  0.42860200  1
  O  O16  1  0.53523400  0.86132300  0.25938000  1
  O  O17  1  0.35195400  0.81954100  0.60835600  1
  O  O18  1  0.64804600  0.18045900  0.39164400  1
  O  O19  1  0.46476600  0.13867700  0.74062000  1
  O  O20  1  0.76543000  0.65831200  0.57139800  1
  O  O21  1  0.73979800  0.38041300  0.77835600  1
  O  O22  1  0.73626700  0.43657800  0.22509800  1
  O  O23  1  0.95804700  0.79762800  0.40274100  1
  O  O24  1  0.71591800  0.73979200  0.97618800  1
  O  O25  1  0.10849800  0.04021600  0.22217700  1
