# generated using pymatgen
data_Ba2P2O7
_symmetry_space_group_name_H-M   'P 1'
_cell_length_a   9.48680983
_cell_length_b   9.48680983
_cell_length_c   7.27467400
_cell_angle_alpha   90.00000000
_cell_angle_beta   90.00000000
_cell_angle_gamma   120.08805887
_symmetry_Int_Tables_number   1
_chemical_formula_structural   Ba2P2O7
_chemical_formula_sum   'Ba6 P6 O21'
_cell_volume   566.49816421
_cell_formula_units_Z   3
loop_
 _symmetry_equiv_pos_site_id
 _symmetry_equiv_pos_as_xyz
  1  'x, y, z'
loop_
 _atom_site_type_symbol
 _atom_site_label
 _atom_site_symmetry_multiplicity
 _atom_site_fract_x
 _atom_site_fract_y
 _atom_site_fract_z
 _atom_site_occupancy
  Ba  Ba0  1  0.00417800  0.61693500  0.50000000  1
  Ba  Ba1  1  0.38584400  0.38584400  0.50000000  1
  Ba  Ba2  1  0.61693500  0.00417800  0.50000000  1
  Ba  Ba3  1  0.28720400  0.99483300  0.00000000  1
  Ba  Ba4  1  0.99483300  0.28720400  0.00000000  1
  Ba  Ba5  1  0.71386400  0.71386400  0.00000000  1
  P  P6  1  0.33763600  0.67536400  0.22155100  1
  P  P7  1  0.33763600  0.67536400  0.77844900  1
  P  P8  1  0.67536400  0.33763600  0.22155100  1
  P  P9  1  0.67536400  0.33763600  0.77844900  1
  P  P10  1  0.00833400  0.00833400  0.28332800  1
  P  P11  1  0.00833400  0.00833400  0.71667200  1
  O  O12  1  0.32329900  0.81810900  0.29667000  1
  O  O13  1  0.18539200  0.51043700  0.25767900  1
  O  O14  1  0.49519000  0.67924000  0.27838900  1
  O  O15  1  0.32329900  0.81810900  0.70333000  1
  O  O16  1  0.18539200  0.51043700  0.74232100  1
  O  O17  1  0.49519000  0.67924000  0.72161100  1
  O  O18  1  0.51043700  0.18539200  0.25767900  1
  O  O19  1  0.67924000  0.49519000  0.27838900  1
  O  O20  1  0.81810900  0.32329900  0.29667000  1
  O  O21  1  0.51043700  0.18539200  0.74232100  1
  O  O22  1  0.67924000  0.49519000  0.72161100  1
  O  O23  1  0.81810900  0.32329900  0.70333000  1
  O  O24  1  0.84743800  0.00241400  0.23682500  1
  O  O25  1  0.00241400  0.84743800  0.23682500  1
  O  O26  1  0.15768100  0.15768100  0.20115500  1
  O  O27  1  0.84743800  0.00241400  0.76317500  1
  O  O28  1  0.00241400  0.84743800  0.76317500  1
  O  O29  1  0.15768100  0.15768100  0.79884500  1
  O  O30  1  0.71142900  0.35490600  0.00000000  1
  O  O31  1  0.35490600  0.71142900  0.00000000  1
  O  O32  1  0.04393000  0.04393000  0.50000000  1
