# generated using pymatgen
data_GaGeS4
_symmetry_space_group_name_H-M   'P 1'
_cell_length_a   11.34420625
_cell_length_b   11.34420625
_cell_length_c   12.43064607
_cell_angle_alpha   63.04993180
_cell_angle_beta   63.04993180
_cell_angle_gamma   90.04682052
_symmetry_Int_Tables_number   1
_chemical_formula_structural   GaGeS4
_chemical_formula_sum   'Ga4 Ge4 S16'
_cell_volume   1227.57276339
_cell_formula_units_Z   4
loop_
 _symmetry_equiv_pos_site_id
 _symmetry_equiv_pos_as_xyz
  1  'x, y, z'
loop_
 _atom_site_type_symbol
 _atom_site_label
 _atom_site_symmetry_multiplicity
 _atom_site_fract_x
 _atom_site_fract_y
 _atom_site_fract_z
 _atom_site_occupancy
  Ga  Ga0  1  0.30665500  0.77564000  0.13668500  1
  Ga  Ga1  1  0.69404300  0.47575300  0.36294500  1
  Ga  Ga2  1  0.47575300  0.69404300  0.86294500  1
  Ga  Ga3  1  0.77564000  0.30665500  0.63668500  1
  Ge  Ge4  1  0.56047700  0.59050600  0.13071600  1
  Ge  Ge5  1  0.59050600  0.56047700  0.63071600  1
  Ge  Ge6  1  0.65865900  0.94288300  0.86997500  1
  Ge  Ge7  1  0.94288300  0.65865900  0.36997500  1
  S  S8  1  0.12007500  0.83457400  0.25577300  1
  S  S9  1  0.26672800  0.71419600  0.00161500  1
  S  S10  1  0.36312700  0.60500000  0.28194700  1
  S  S11  1  0.72968100  0.78254500  0.00037200  1
  S  S12  1  0.62844200  0.41721800  0.24262700  1
  S  S13  1  0.51599700  0.52718500  0.50481000  1
  S  S14  1  0.41721800  0.62844200  0.74262700  1
  S  S15  1  0.46637100  0.98448700  0.99437700  1
  S  S16  1  0.71419600  0.26672800  0.50161500  1
  S  S17  1  0.60500000  0.36312700  0.78194700  1
  S  S18  1  0.64236400  0.89739700  0.71815900  1
  S  S19  1  0.52718500  0.51599700  0.00481000  1
  S  S20  1  0.89739700  0.64236400  0.21815900  1
  S  S21  1  0.78254500  0.72968100  0.50037200  1
  S  S22  1  0.83457400  0.12007500  0.75577300  1
  S  S23  1  0.98448700  0.46637100  0.49437700  1
