# generated using pymatgen
data_CsClO4
_symmetry_space_group_name_H-M   'P 1'
_cell_length_a   5.25996500
_cell_length_b   5.25996500
_cell_length_c   7.28571100
_cell_angle_alpha   90.00000000
_cell_angle_beta   90.00000000
_cell_angle_gamma   90.00000000
_symmetry_Int_Tables_number   1
_chemical_formula_structural   CsClO4
_chemical_formula_sum   'Cs2 Cl2 O8'
_cell_volume   201.57545507
_cell_formula_units_Z   2
loop_
 _symmetry_equiv_pos_site_id
 _symmetry_equiv_pos_as_xyz
  1  'x, y, z'
loop_
 _atom_site_type_symbol
 _atom_site_label
 _atom_site_symmetry_multiplicity
 _atom_site_fract_x
 _atom_site_fract_y
 _atom_site_fract_z
 _atom_site_occupancy
  Cs  Cs0  1  0.00000000  0.00000000  0.50000000  1
  Cs  Cs1  1  0.50000000  0.50000000  0.00000000  1
  Cl  Cl2  1  0.00000000  0.00000000  0.00000000  1
  Cl  Cl3  1  0.50000000  0.50000000  0.50000000  1
  O  O4  1  0.22471400  0.00000000  0.11649100  1
  O  O5  1  0.77528600  0.00000000  0.11649100  1
  O  O6  1  0.00000000  0.77528600  0.88350900  1
  O  O7  1  0.00000000  0.22471400  0.88350900  1
  O  O8  1  0.50000000  0.27528600  0.61649100  1
  O  O9  1  0.72471400  0.50000000  0.38350900  1
  O  O10  1  0.27528600  0.50000000  0.38350900  1
  O  O11  1  0.50000000  0.72471400  0.61649100  1
