# generated using pymatgen
data_Pr9Be4O20
_symmetry_space_group_name_H-M   'P 1'
_cell_length_a   6.53723300
_cell_length_b   7.32608572
_cell_length_c   9.53058925
_cell_angle_alpha   89.99267615
_cell_angle_beta   89.45368349
_cell_angle_gamma   89.46137424
_symmetry_Int_Tables_number   1
_chemical_formula_structural   Pr9Be4O20
_chemical_formula_sum   'Pr9 Be4 O20'
_cell_volume   456.40120168
_cell_formula_units_Z   1
loop_
 _symmetry_equiv_pos_site_id
 _symmetry_equiv_pos_as_xyz
  1  'x, y, z'
loop_
 _atom_site_type_symbol
 _atom_site_label
 _atom_site_symmetry_multiplicity
 _atom_site_fract_x
 _atom_site_fract_y
 _atom_site_fract_z
 _atom_site_occupancy
  Pr  Pr0  1  0.93021200  0.80741400  0.82162300  1
  Pr  Pr1  1  0.89713000  0.50896600  0.53085100  1
  Pr  Pr2  1  0.60251600  0.50094800  0.03283500  1
  Pr  Pr3  1  0.57427000  0.81445200  0.34238400  1
  Pr  Pr4  1  0.42273400  0.31586900  0.66687300  1
  Pr  Pr5  1  0.41156600  0.00562800  0.95703900  1
  Pr  Pr6  1  0.09877800  0.01022200  0.47997500  1
  Pr  Pr7  1  0.08528200  0.73699200  0.17287500  1
  Pr  Pr8  1  0.07867800  0.27427300  0.16693500  1
  Be  Be9  1  0.80731800  0.00426800  0.10535700  1
  Be  Be10  1  0.67230700  0.00425800  0.61097000  1
  Be  Be11  1  0.31430800  0.50157700  0.38643500  1
  Be  Be12  1  0.17990400  0.50418900  0.89644800  1
  O  O13  1  0.97740700  0.51236500  0.99866000  1
  O  O14  1  0.87615300  0.99216900  0.27305200  1
  O  O15  1  0.82783500  0.54329000  0.27480900  1
  O  O16  1  0.78212400  0.20100800  0.57707100  1
  O  O17  1  0.81831100  0.83277300  0.56881300  1
  O  O18  1  0.69363100  0.82179400  0.05812900  1
  O  O19  1  0.70833000  0.19622500  0.07522500  1
  O  O20  1  0.69068200  0.53656100  0.77163200  1
  O  O21  1  0.65160400  0.03822800  0.77500400  1
  O  O22  1  0.52596400  0.52536400  0.47506700  1
  O  O23  1  0.45818400  0.01787600  0.53011800  1
  O  O24  1  0.34671000  0.50920100  0.21686800  1
  O  O25  1  0.32089800  0.99409300  0.21676300  1
  O  O26  1  0.28605000  0.70281300  0.94449000  1
  O  O27  1  0.32789200  0.32834500  0.92752700  1
  O  O28  1  0.17639500  0.32680200  0.43573500  1
  O  O29  1  0.19263900  0.70166100  0.41789600  1
  O  O30  1  0.19892500  0.03179100  0.72567500  1
  O  O31  1  0.12204300  0.52837400  0.73030700  1
  O  O32  1  0.02842300  0.01101200  0.01356100  1
