# generated using pymatgen
data_Dy14Ti10O41
_symmetry_space_group_name_H-M   'P 1'
_cell_length_a   7.28367158
_cell_length_b   7.28367158
_cell_length_c   17.67440767
_cell_angle_alpha   89.35757121
_cell_angle_beta   89.35757121
_cell_angle_gamma   60.22132282
_symmetry_Int_Tables_number   1
_chemical_formula_structural   Dy14Ti10O41
_chemical_formula_sum   'Dy14 Ti10 O41'
_cell_volume   813.77431040
_cell_formula_units_Z   1
loop_
 _symmetry_equiv_pos_site_id
 _symmetry_equiv_pos_as_xyz
  1  'x, y, z'
loop_
 _atom_site_type_symbol
 _atom_site_label
 _atom_site_symmetry_multiplicity
 _atom_site_fract_x
 _atom_site_fract_y
 _atom_site_fract_z
 _atom_site_occupancy
  Dy  Dy0  1  0.34428900  0.34428900  0.18650500  1
  Dy  Dy1  1  0.51589800  0.51589800  0.99863400  1
  Dy  Dy2  1  0.82824700  0.82824700  0.15947900  1
  Dy  Dy3  1  0.83449800  0.34487500  0.16731900  1
  Dy  Dy4  1  0.97917600  0.97917600  0.99094300  1
  Dy  Dy5  1  0.34487500  0.83449800  0.16731900  1
  Dy  Dy6  1  0.50085400  0.50085400  0.50486300  1
  Dy  Dy7  1  0.50097800  0.00211300  0.50062500  1
  Dy  Dy8  1  0.66818400  0.66818400  0.33535900  1
  Dy  Dy9  1  0.00211300  0.50097800  0.50062500  1
  Dy  Dy10  1  0.16570500  0.16570500  0.83496200  1
  Dy  Dy11  1  0.18497800  0.66989900  0.82440600  1
  Dy  Dy12  1  0.32650500  0.32650500  0.66538100  1
  Dy  Dy13  1  0.66989900  0.18497800  0.82440600  1
  Ti  Ti14  1  0.01866100  0.48924700  0.00303400  1
  Ti  Ti15  1  0.48924700  0.01866100  0.00303400  1
  Ti  Ti16  1  0.68120000  0.16106300  0.33592200  1
  Ti  Ti17  1  0.16106200  0.68120000  0.33592200  1
  Ti  Ti18  1  0.16453800  0.16453800  0.33386600  1
  Ti  Ti19  1  0.33589700  0.83589600  0.66536300  1
  Ti  Ti20  1  0.66403700  0.66403700  0.83578300  1
  Ti  Ti21  1  0.83589600  0.33589700  0.66536300  1
  Ti  Ti22  1  0.83456600  0.83456600  0.66704900  1
  Ti  Ti23  1  0.00234200  0.00234200  0.50132100  1
  O  O24  1  0.79701100  0.79701100  0.02884100  1
  O  O25  1  0.70084000  0.14498500  0.21723300  1
  O  O26  1  0.86143900  0.30760000  0.04076300  1
  O  O27  1  0.14498500  0.70084000  0.21723300  1
  O  O28  1  0.49614000  0.49614000  0.12389700  1
  O  O29  1  0.29231100  0.85673700  0.32211000  1
  O  O30  1  0.45892700  0.45892700  0.34074000  1
  O  O31  1  0.27037400  0.86511300  0.55594700  1
  O  O32  1  0.16515900  0.16515900  0.21953100  1
  O  O33  1  0.30760000  0.86143900  0.04076300  1
  O  O34  1  0.48356400  0.05818700  0.10980400  1
  O  O35  1  0.66750500  0.66750500  0.46059100  1
  O  O36  1  0.46066000  0.08379400  0.34737100  1
  O  O37  1  0.67531200  0.67531200  0.21059400  1
  O  O38  1  0.85673700  0.29231100  0.32211000  1
  O  O39  1  0.86511300  0.27037400  0.55594700  1
  O  O40  1  0.14243700  0.14243700  0.44569800  1
  O  O41  1  0.93631900  0.53169800  0.63696900  1
  O  O42  1  0.13707500  0.13707500  0.68484800  1
  O  O43  1  0.88503200  0.51562500  0.90340500  1
  O  O44  1  0.05818700  0.48356400  0.10980400  1
  O  O45  1  0.08379400  0.46066000  0.34737100  1
  O  O46  1  0.85683400  0.85683400  0.32990900  1
  O  O47  1  0.86598100  0.86598100  0.55743400  1
  O  O48  1  0.14707700  0.71418600  0.44700800  1
  O  O49  1  0.53169800  0.93631900  0.63696900  1
  O  O50  1  0.13508100  0.72364300  0.69154700  1
  O  O51  1  0.33240600  0.33240600  0.54110000  1
  O  O52  1  0.32763700  0.32763700  0.78978900  1
  O  O53  1  0.51562500  0.88503200  0.90340500  1
  O  O54  1  0.61600800  0.17524100  0.96312800  1
  O  O55  1  0.79639200  0.79639200  0.77652700  1
  O  O56  1  0.51397800  0.51397800  0.86970600  1
  O  O57  1  0.71418600  0.14707700  0.44700800  1
  O  O58  1  0.72364300  0.13508100  0.69154700  1
  O  O59  1  0.53021300  0.53021300  0.63820500  1
  O  O60  1  0.82286300  0.37800100  0.77389200  1
  O  O61  1  0.17524100  0.61600800  0.96312800  1
  O  O62  1  0.99717400  0.99717400  0.87036500  1
  O  O63  1  0.21979200  0.21979200  0.96139200  1
  O  O64  1  0.37800100  0.82286300  0.77389200  1
