# generated using pymatgen
data_DyNbO4
_symmetry_space_group_name_H-M   'P 1'
_cell_length_a   5.69764830
_cell_length_b   5.69764830
_cell_length_c   5.69764830
_cell_angle_alpha   118.66592527
_cell_angle_beta   118.66592527
_cell_angle_gamma   92.32664640
_symmetry_Int_Tables_number   1
_chemical_formula_structural   DyNbO4
_chemical_formula_sum   'Dy2 Nb2 O8'
_cell_volume   133.30760360
_cell_formula_units_Z   2
loop_
 _symmetry_equiv_pos_site_id
 _symmetry_equiv_pos_as_xyz
  1  'x, y, z'
loop_
 _atom_site_type_symbol
 _atom_site_label
 _atom_site_symmetry_multiplicity
 _atom_site_fract_x
 _atom_site_fract_y
 _atom_site_fract_z
 _atom_site_occupancy
  Dy  Dy0  1  0.00000000  0.00000000  0.00000000  1
  Dy  Dy1  1  0.75000000  0.25000000  0.50000000  1
  Nb  Nb2  1  0.50000000  0.50000000  0.00000000  1
  Nb  Nb3  1  0.25000000  0.75000000  0.50000000  1
  O  O4  1  0.34941100  0.13522300  0.52752100  1
  O  O5  1  0.60770200  0.82188900  0.47247900  1
  O  O6  1  0.88522300  0.85770200  0.28581200  1
  O  O7  1  0.57188900  0.59941100  0.71418800  1
  O  O8  1  0.40058900  0.11477700  0.97247900  1
  O  O9  1  0.14229800  0.42811100  0.02752100  1
  O  O10  1  0.86477700  0.39229800  0.21418800  1
  O  O11  1  0.17811100  0.65058900  0.78581200  1
