# generated using pymatgen
data_AlPO4
_symmetry_space_group_name_H-M   'P 1'
_cell_length_a   14.13956099
_cell_length_b   14.13956099
_cell_length_c   8.60353600
_cell_angle_alpha   90.00000000
_cell_angle_beta   90.00000000
_cell_angle_gamma   120.79505199
_symmetry_Int_Tables_number   1
_chemical_formula_structural   AlPO4
_chemical_formula_sum   'Al12 P12 O48'
_cell_volume   1477.55642417
_cell_formula_units_Z   12
loop_
 _symmetry_equiv_pos_site_id
 _symmetry_equiv_pos_as_xyz
  1  'x, y, z'
loop_
 _atom_site_type_symbol
 _atom_site_label
 _atom_site_symmetry_multiplicity
 _atom_site_fract_x
 _atom_site_fract_y
 _atom_site_fract_z
 _atom_site_occupancy
  Al  Al0  1  0.32975600  0.45670500  0.43908600  1
  Al  Al1  1  0.32975600  0.45670500  0.06091400  1
  Al  Al2  1  0.54329500  0.67024400  0.93908600  1
  Al  Al3  1  0.54329500  0.67024400  0.56091400  1
  Al  Al4  1  0.45597900  0.12785500  0.06562000  1
  Al  Al5  1  0.45597900  0.12785500  0.43438000  1
  Al  Al6  1  0.67064000  0.12465800  0.56650700  1
  Al  Al7  1  0.67064000  0.12465800  0.93349300  1
  Al  Al8  1  0.87214500  0.54402100  0.93438000  1
  Al  Al9  1  0.87214500  0.54402100  0.56562000  1
  Al  Al10  1  0.87534200  0.32936000  0.43349300  1
  Al  Al11  1  0.87534200  0.32936000  0.06650700  1
  P  P12  1  0.13033800  0.66196200  0.43028500  1
  P  P13  1  0.13033800  0.66196200  0.06971500  1
  P  P14  1  0.12312600  0.45926400  0.92244700  1
  P  P15  1  0.12312600  0.45926400  0.57755300  1
  P  P16  1  0.33803800  0.86966200  0.56971500  1
  P  P17  1  0.33803800  0.86966200  0.93028500  1
  P  P18  1  0.54073600  0.87687400  0.07755300  1
  P  P19  1  0.54073600  0.87687400  0.42244700  1
  P  P20  1  0.45825900  0.33973500  0.92781100  1
  P  P21  1  0.45825900  0.33973500  0.57218900  1
  P  P22  1  0.66026500  0.54174100  0.42781100  1
  P  P23  1  0.66026500  0.54174100  0.07218900  1
  O  O24  1  0.01946600  0.64110300  0.46584600  1
  O  O25  1  0.16210100  0.68050600  0.25000000  1
  O  O26  1  0.22151500  0.77848500  0.00000000  1
  O  O27  1  0.22151500  0.77848500  0.50000000  1
  O  O28  1  0.00558700  0.38176700  0.55540900  1
  O  O29  1  0.35889700  0.98053400  0.53415400  1
  O  O30  1  0.16505600  0.57905100  0.01543700  1
  O  O31  1  0.16505600  0.57905100  0.48456300  1
  O  O32  1  0.14921700  0.51073100  0.75000000  1
  O  O33  1  0.31949400  0.83789900  0.75000000  1
  O  O34  1  0.42094900  0.83494400  0.98456300  1
  O  O35  1  0.42094900  0.83494400  0.51543700  1
  O  O36  1  0.20152700  0.42271400  0.53503100  1
  O  O37  1  0.20152700  0.42271400  0.96496900  1
  O  O38  1  0.48926900  0.85078300  0.25000000  1
  O  O39  1  0.30949200  0.41822200  0.25000000  1
  O  O40  1  0.41190600  0.58809400  0.00000000  1
  O  O41  1  0.41190600  0.58809400  0.50000000  1
  O  O42  1  0.61823300  0.99441300  0.44459100  1
  O  O43  1  0.37565800  0.37339500  0.95951200  1
  O  O44  1  0.37565800  0.37339500  0.54048800  1
  O  O45  1  0.57728600  0.79847300  0.03503100  1
  O  O46  1  0.57728600  0.79847300  0.46496900  1
  O  O47  1  0.58177800  0.69050800  0.75000000  1
  O  O48  1  0.49255200  0.35991600  0.75000000  1
  O  O49  1  0.42227800  0.22398900  0.97199900  1
  O  O50  1  0.42227800  0.22398900  0.52800100  1
  O  O51  1  0.62660500  0.62434200  0.04048800  1
  O  O52  1  0.62660500  0.62434200  0.45951200  1
  O  O53  1  0.35889700  0.98053400  0.96584600  1
  O  O54  1  0.57693100  0.42306900  0.00000000  1
  O  O55  1  0.57693100  0.42306900  0.50000000  1
  O  O56  1  0.64008400  0.50744800  0.25000000  1
  O  O57  1  0.40386000  0.10252700  0.25000000  1
  O  O58  1  0.77601100  0.57772200  0.02800100  1
  O  O59  1  0.77601100  0.57772200  0.47199900  1
  O  O60  1  0.58192200  0.16452300  0.00720100  1
  O  O61  1  0.58192200  0.16452300  0.49279900  1
  O  O62  1  0.63308100  0.06857400  0.75000000  1
  O  O63  1  0.89747300  0.59614000  0.75000000  1
  O  O64  1  0.83547700  0.41807800  0.50720100  1
  O  O65  1  0.83547700  0.41807800  0.99279900  1
  O  O66  1  0.61823300  0.99441300  0.05540900  1
  O  O67  1  0.01946600  0.64110300  0.03415400  1
  O  O68  1  0.80186200  0.19813800  0.00000000  1
  O  O69  1  0.80186200  0.19813800  0.50000000  1
  O  O70  1  0.93142600  0.36691900  0.25000000  1
  O  O71  1  0.00558700  0.38176700  0.94459100  1
