# generated using pymatgen
data_Sm2Th3O9
_symmetry_space_group_name_H-M   'P 1'
_cell_length_a   14.28631079
_cell_length_b   14.28631079
_cell_length_c   14.28631079
_cell_angle_alpha   164.06615873
_cell_angle_beta   164.06615873
_cell_angle_gamma   22.60768554
_symmetry_Int_Tables_number   1
_chemical_formula_structural   Sm2Th3O9
_chemical_formula_sum   'Sm2 Th3 O9'
_cell_volume   219.70896066
_cell_formula_units_Z   1
loop_
 _symmetry_equiv_pos_site_id
 _symmetry_equiv_pos_as_xyz
  1  'x, y, z'
loop_
 _atom_site_type_symbol
 _atom_site_label
 _atom_site_symmetry_multiplicity
 _atom_site_fract_x
 _atom_site_fract_y
 _atom_site_fract_z
 _atom_site_occupancy
  Sm  Sm0  1  0.80572300  0.80572300  0.00000000  1
  Sm  Sm1  1  0.19427700  0.19427700  0.00000000  1
  Th  Th2  1  0.39969600  0.39969600  0.00000000  1
  Th  Th3  1  0.00000000  0.00000000  0.00000000  1
  Th  Th4  1  0.60030400  0.60030400  0.00000000  1
  O  O5  1  0.05325000  0.55325000  0.50000000  1
  O  O6  1  0.64558800  0.14558800  0.50000000  1
  O  O7  1  0.85441200  0.35441200  0.50000000  1
  O  O8  1  0.34352100  0.84352100  0.50000000  1
  O  O9  1  0.44675000  0.94675000  0.50000000  1
  O  O10  1  0.95301300  0.45301300  0.50000000  1
  O  O11  1  0.54698700  0.04698700  0.50000000  1
  O  O12  1  0.15647900  0.65647900  0.50000000  1
  O  O13  1  0.75000000  0.25000000  0.50000000  1
