# generated using pymatgen
data_Tl2SeO4
_symmetry_space_group_name_H-M   'P 1'
_cell_length_a   6.38916976
_cell_length_b   6.38916976
_cell_length_c   8.14733665
_cell_angle_alpha   89.78929303
_cell_angle_beta   89.78929303
_cell_angle_gamma   116.62199761
_symmetry_Int_Tables_number   1
_chemical_formula_structural   Tl2SeO4
_chemical_formula_sum   'Tl4 Se2 O8'
_cell_volume   297.31907702
_cell_formula_units_Z   2
loop_
 _symmetry_equiv_pos_site_id
 _symmetry_equiv_pos_as_xyz
  1  'x, y, z'
loop_
 _atom_site_type_symbol
 _atom_site_label
 _atom_site_symmetry_multiplicity
 _atom_site_fract_x
 _atom_site_fract_y
 _atom_site_fract_z
 _atom_site_occupancy
  Tl  Tl0  1  0.33158200  0.66346500  0.25917000  1
  Tl  Tl1  1  0.00007700  0.00007900  0.00383300  1
  Tl  Tl2  1  0.66346500  0.33158200  0.75917000  1
  Tl  Tl3  1  0.00007900  0.00007700  0.50383300  1
  Se  Se4  1  0.34451400  0.65631400  0.75732100  1
  Se  Se5  1  0.65631400  0.34451400  0.25732100  1
  O  O6  1  0.63980900  0.76338400  0.76043800  1
  O  O7  1  0.25136200  0.73395600  0.92737800  1
  O  O8  1  0.26427100  0.75795400  0.59177800  1
  O  O9  1  0.23231600  0.36092900  0.74798200  1
  O  O10  1  0.75795400  0.26427100  0.09177800  1
  O  O11  1  0.76338400  0.63980900  0.26043800  1
  O  O12  1  0.73395600  0.25136200  0.42737800  1
  O  O13  1  0.36092900  0.23231600  0.24798200  1
