# generated using pymatgen
data_NaAl11O17
_symmetry_space_group_name_H-M   'P 1'
_cell_length_a   5.64931655
_cell_length_b   5.64931655
_cell_length_c   22.93213256
_cell_angle_alpha   82.99255277
_cell_angle_beta   82.99255277
_cell_angle_gamma   60.00931576
_symmetry_Int_Tables_number   1
_chemical_formula_structural   NaAl11O17
_chemical_formula_sum   'Na2 Al22 O34'
_cell_volume   627.55915365
_cell_formula_units_Z   2
loop_
 _symmetry_equiv_pos_site_id
 _symmetry_equiv_pos_as_xyz
  1  'x, y, z'
loop_
 _atom_site_type_symbol
 _atom_site_label
 _atom_site_symmetry_multiplicity
 _atom_site_fract_x
 _atom_site_fract_y
 _atom_site_fract_z
 _atom_site_occupancy
  Na  Na0  1  0.08620800  0.08620800  0.74141200  1
  Na  Na1  1  0.63994100  0.63994100  0.24227100  1
  Al  Al2  1  0.00046900  0.00046900  0.99975900  1
  Al  Al3  1  0.70435900  0.20003300  0.39188700  1
  Al  Al4  1  0.49981400  0.49981400  0.49978300  1
  Al  Al5  1  0.20410600  0.20410600  0.89237800  1
  Al  Al6  1  0.69958500  0.20399100  0.89240900  1
  Al  Al7  1  0.20399100  0.69958500  0.89240900  1
  Al  Al8  1  0.32507300  0.32507300  0.02469000  1
  Al  Al9  1  0.27616000  0.27616000  0.17551000  1
  Al  Al10  1  0.22564300  0.22564300  0.32486800  1
  Al  Al11  1  0.70396900  0.70396900  0.39330700  1
  Al  Al12  1  0.20003300  0.70435900  0.39188700  1
  Al  Al13  1  0.17539400  0.17539400  0.47412300  1
  Al  Al14  1  0.82509700  0.82509700  0.52461700  1
  Al  Al15  1  0.79912200  0.29699800  0.60687200  1
  Al  Al16  1  0.29693100  0.29693100  0.60689000  1
  Al  Al17  1  0.77480400  0.77480400  0.67575700  1
  Al  Al18  1  0.72494900  0.72494900  0.82495300  1
  Al  Al19  1  0.67543700  0.67543700  0.97403100  1
  Al  Al20  1  0.79735200  0.29927900  0.10746300  1
  Al  Al21  1  0.29927900  0.79735200  0.10746300  1
  Al  Al22  1  0.79770700  0.79770700  0.10551400  1
  Al  Al23  1  0.29699800  0.79912200  0.60687200  1
  O  O24  1  0.64059900  0.16833700  0.55025000  1
  O  O25  1  0.45285100  0.45285100  0.64167200  1
  O  O26  1  0.54684800  0.05091700  0.85511100  1
  O  O27  1  0.35177100  0.35177100  0.94464700  1
  O  O28  1  0.14067800  0.14067800  0.05064900  1
  O  O29  1  0.66882300  0.14009600  0.05005600  1
  O  O30  1  0.14009600  0.66882300  0.05005600  1
  O  O31  1  0.94294900  0.45755700  0.14710200  1
  O  O32  1  0.45496900  0.45496900  0.14609900  1
  O  O33  1  0.95218800  0.95218800  0.14181000  1
  O  O34  1  0.24545500  0.24545500  0.25024900  1
  O  O35  1  0.04765500  0.04765500  0.35530000  1
  O  O36  1  0.55196000  0.04559900  0.35483300  1
  O  O37  1  0.04559900  0.55196000  0.35483300  1
  O  O38  1  0.82888800  0.36091500  0.44994400  1
  O  O39  1  0.36066100  0.36066100  0.44952900  1
  O  O40  1  0.85177400  0.85177400  0.44456100  1
  O  O41  1  0.14826200  0.14826200  0.55525500  1
  O  O42  1  0.64070900  0.64070900  0.55031300  1
  O  O43  1  0.16833700  0.64059900  0.55025000  1
  O  O44  1  0.95530300  0.44262100  0.64703700  1
  O  O45  1  0.95519700  0.95519700  0.64701700  1
  O  O46  1  0.44262100  0.95530300  0.64703700  1
  O  O47  1  0.74988000  0.74988000  0.75038200  1
  O  O48  1  0.04814800  0.04814800  0.85540000  1
  O  O49  1  0.54695900  0.54695900  0.85515000  1
  O  O50  1  0.05091700  0.54684800  0.85511100  1
  O  O51  1  0.86085500  0.32885700  0.94981400  1
  O  O52  1  0.32885700  0.86085500  0.94981400  1
  O  O53  1  0.86078300  0.86078300  0.94971200  1
  O  O54  1  0.64864600  0.64864600  0.05515500  1
  O  O55  1  0.45755700  0.94294900  0.14710200  1
  O  O56  1  0.54915600  0.54915600  0.35554200  1
  O  O57  1  0.36091500  0.82888800  0.44994400  1
