# generated using pymatgen
data_NdZr9O20
_symmetry_space_group_name_H-M   'P 1'
_cell_length_a   6.35939400
_cell_length_b   7.34879196
_cell_length_c   8.22393207
_cell_angle_alpha   102.92304840
_cell_angle_beta   97.52551930
_cell_angle_gamma   106.62847399
_symmetry_Int_Tables_number   1
_chemical_formula_structural   NdZr9O20
_chemical_formula_sum   'Nd1 Zr9 O20'
_cell_volume   351.02702656
_cell_formula_units_Z   1
loop_
 _symmetry_equiv_pos_site_id
 _symmetry_equiv_pos_as_xyz
  1  'x, y, z'
loop_
 _atom_site_type_symbol
 _atom_site_label
 _atom_site_symmetry_multiplicity
 _atom_site_fract_x
 _atom_site_fract_y
 _atom_site_fract_z
 _atom_site_occupancy
  Nd  Nd0  1  0.00000000  0.50000000  0.00000000  1
  Zr  Zr1  1  0.79850300  0.60000400  0.59870200  1
  Zr  Zr2  1  0.60004700  0.19930800  0.20064800  1
  Zr  Zr3  1  0.79898400  0.09858400  0.59829300  1
  Zr  Zr4  1  0.39995300  0.80069200  0.79935200  1
  Zr  Zr5  1  0.60016900  0.70071800  0.20022400  1
  Zr  Zr6  1  0.20149700  0.39999600  0.40129800  1
  Zr  Zr7  1  0.39983100  0.29928200  0.79977600  1
  Zr  Zr8  1  0.00000000  0.00000000  0.00000000  1
  Zr  Zr9  1  0.20101600  0.90141600  0.40170700  1
  O  O10  1  0.64584100  0.92589400  0.04798900  1
  O  O11  1  0.44554700  0.52537900  0.64672700  1
  O  O12  1  0.63017600  0.41912500  0.05491600  1
  O  O13  1  0.73347900  0.36636900  0.73504100  1
  O  O14  1  0.25826000  0.12640400  0.25049500  1
  O  O15  1  0.44648400  0.02172900  0.64887800  1
  O  O16  1  0.55351600  0.97827100  0.35112200  1
  O  O17  1  0.05036900  0.73840900  0.84094200  1
  O  O18  1  0.74174000  0.87359600  0.74950500  1
  O  O19  1  0.36982400  0.58087500  0.94508400  1
  O  O20  1  0.85382100  0.32733000  0.45206100  1
  O  O21  1  0.26652100  0.63363100  0.26495900  1
  O  O22  1  0.55445300  0.47462100  0.35327300  1
  O  O23  1  0.15018200  0.17491500  0.54640000  1
  O  O24  1  0.05253600  0.20753500  0.83972000  1
  O  O25  1  0.94746400  0.79246500  0.16028000  1
  O  O26  1  0.84981800  0.82508500  0.45360000  1
  O  O27  1  0.35415900  0.07410600  0.95201100  1
  O  O28  1  0.14617900  0.67267000  0.54793900  1
  O  O29  1  0.94963100  0.26159100  0.15905800  1
