# generated using pymatgen
data_Li9(RuO3)10
_symmetry_space_group_name_H-M   'P 1'
_cell_length_a   7.98028300
_cell_length_b   9.18929139
_cell_length_c   9.57350383
_cell_angle_alpha   80.99062837
_cell_angle_beta   74.68592503
_cell_angle_gamma   67.41654349
_symmetry_Int_Tables_number   1
_chemical_formula_structural   Li9(RuO3)10
_chemical_formula_sum   'Li9 Ru10 O30'
_cell_volume   624.00472711
_cell_formula_units_Z   1
loop_
 _symmetry_equiv_pos_site_id
 _symmetry_equiv_pos_as_xyz
  1  'x, y, z'
loop_
 _atom_site_type_symbol
 _atom_site_label
 _atom_site_symmetry_multiplicity
 _atom_site_fract_x
 _atom_site_fract_y
 _atom_site_fract_z
 _atom_site_occupancy
  Li  Li0  1  0.59681900  0.70095200  0.60175500  1
  Li  Li1  1  0.19570200  0.90130400  0.20519100  1
  Li  Li2  1  0.80429800  0.09869600  0.79480900  1
  Li  Li3  1  0.40318100  0.29904800  0.39824500  1
  Li  Li4  1  0.70272100  0.89858000  0.20149300  1
  Li  Li5  1  0.00000000  0.50000000  0.00000000  1
  Li  Li6  1  0.29727900  0.10142000  0.79850700  1
  Li  Li7  1  0.89846000  0.30323300  0.40024600  1
  Li  Li8  1  0.10154000  0.69676700  0.59975400  1
  Ru  Ru9  1  0.78362600  0.77084600  0.80984100  1
  Ru  Ru10  1  0.38732600  0.96666300  0.41127200  1
  Ru  Ru11  1  0.01690200  0.83127700  0.98714100  1
  Ru  Ru12  1  0.98309800  0.16872300  0.01285900  1
  Ru  Ru13  1  0.61267400  0.03333700  0.58872800  1
  Ru  Ru14  1  0.58111600  0.37376400  0.61174800  1
  Ru  Ru15  1  0.21637400  0.22915400  0.19015900  1
  Ru  Ru16  1  0.20623300  0.56526600  0.19390800  1
  Ru  Ru17  1  0.79376700  0.43473400  0.80609200  1
  Ru  Ru18  1  0.41888400  0.62623600  0.38825200  1
  O  O19  1  0.79851300  0.81964500  0.59924800  1
  O  O20  1  0.99545100  0.84490100  0.78584100  1
  O  O21  1  0.23165900  0.84151800  0.43152000  1
  O  O22  1  0.57312500  0.75319000  0.37416900  1
  O  O23  1  0.39988100  0.01481900  0.20091800  1
  O  O24  1  0.59788700  0.04348100  0.38669800  1
  O  O25  1  0.80204000  0.76133700  0.01149300  1
  O  O26  1  0.01162900  0.77816200  0.19672700  1
  O  O27  1  0.82731900  0.04341200  0.03756300  1
  O  O28  1  0.17268100  0.95658800  0.96243700  1
  O  O29  1  0.98837100  0.22183800  0.80327300  1
  O  O30  1  0.19796000  0.23866300  0.98850700  1
  O  O31  1  0.40211300  0.95651900  0.61330200  1
  O  O32  1  0.60011900  0.98518100  0.79908200  1
  O  O33  1  0.42687500  0.24681000  0.62583100  1
  O  O34  1  0.76834100  0.15848200  0.56848000  1
  O  O35  1  0.61017500  0.41712000  0.39529100  1
  O  O36  1  0.78393300  0.45030300  0.59815500  1
  O  O37  1  0.00454900  0.15509900  0.21415900  1
  O  O38  1  0.20148700  0.18035500  0.40075200  1
  O  O39  1  0.03733700  0.44556400  0.22545100  1
  O  O40  1  0.37457500  0.34831600  0.16661000  1
  O  O41  1  0.19634900  0.62163100  0.99157000  1
  O  O42  1  0.39899500  0.64651000  0.19018600  1
  O  O43  1  0.60100500  0.35349000  0.80981400  1
  O  O44  1  0.80365100  0.37836900  0.00843000  1
  O  O45  1  0.62542500  0.65168400  0.83339000  1
  O  O46  1  0.96266300  0.55443600  0.77454900  1
  O  O47  1  0.21606700  0.54969700  0.40184500  1
  O  O48  1  0.38982500  0.58288000  0.60470900  1
