# generated using pymatgen
data_Yb2FeS4
_symmetry_space_group_name_H-M   'P 1'
_cell_length_a   7.67269300
_cell_length_b   7.74487237
_cell_length_c   19.12523232
_cell_angle_alpha   89.02619964
_cell_angle_beta   89.52271220
_cell_angle_gamma   60.96438927
_symmetry_Int_Tables_number   1
_chemical_formula_structural   Yb2FeS4
_chemical_formula_sum   'Yb12 Fe6 S24'
_cell_volume   993.51768540
_cell_formula_units_Z   6
loop_
 _symmetry_equiv_pos_site_id
 _symmetry_equiv_pos_as_xyz
  1  'x, y, z'
loop_
 _atom_site_type_symbol
 _atom_site_label
 _atom_site_symmetry_multiplicity
 _atom_site_fract_x
 _atom_site_fract_y
 _atom_site_fract_z
 _atom_site_occupancy
  Yb  Yb0  1  0.00502200  0.50320100  0.99678700  1
  Yb  Yb1  1  0.66315100  0.66784500  0.83577700  1
  Yb  Yb2  1  0.33335600  0.82841400  0.66601900  1
  Yb  Yb3  1  0.50241800  0.49496100  0.50220600  1
  Yb  Yb4  1  0.17130100  0.15718400  0.83063000  1
  Yb  Yb5  1  0.00116500  0.99827200  0.49679700  1
  Yb  Yb6  1  0.66309000  0.17550400  0.81684500  1
  Yb  Yb7  1  0.66628900  0.16737900  0.33343100  1
  Yb  Yb8  1  0.83424100  0.83064900  0.16828200  1
  Yb  Yb9  1  0.50139300  0.99698800  0.49744400  1
  Yb  Yb10  1  0.33056100  0.33427500  0.16831100  1
  Yb  Yb11  1  0.83500700  0.33496500  0.16793600  1
  Fe  Fe12  1  0.66464800  0.16271800  0.96968600  1
  Fe  Fe13  1  0.00889500  0.47808200  0.62410800  1
  Fe  Fe14  1  0.33357000  0.83066700  0.29203600  1
  Fe  Fe15  1  0.81092500  0.89143400  0.67070900  1
  Fe  Fe16  1  0.00034000  0.50138400  0.37495100  1
  Fe  Fe17  1  0.33328100  0.83539900  0.04200600  1
  S  S18  1  0.36318300  0.31403900  0.91814800  1
  S  S19  1  0.81581200  0.86770300  0.92085800  1
  S  S20  1  0.99107500  0.51930400  0.73807000  1
  S  S21  1  0.83301600  0.31969000  0.91677200  1
  S  S22  1  0.68756600  0.66580700  0.58956400  1
  S  S23  1  0.51628200  0.98541200  0.74297500  1
  S  S24  1  0.32938300  0.83444800  0.92944500  1
  S  S25  1  0.48561400  0.51959000  0.75193800  1
  S  S26  1  0.33685300  0.82654600  0.41048400  1
  S  S27  1  0.16224900  0.17530200  0.58396600  1
  S  S28  1  0.14458600  0.66794000  0.58710000  1
  S  S29  1  0.99492600  0.97381700  0.74196800  1
  S  S30  1  0.01762400  0.99146300  0.25235800  1
  S  S31  1  0.83716700  0.34327500  0.41572500  1
  S  S32  1  0.68088200  0.13924000  0.58904700  1
  S  S33  1  0.49096600  0.51879100  0.25226000  1
  S  S34  1  0.84249700  0.81437900  0.41371300  1
  S  S35  1  0.66649100  0.16812400  0.08403000  1
  S  S36  1  0.49188700  0.99172300  0.25234500  1
  S  S37  1  0.31837400  0.34322300  0.41582100  1
  S  S38  1  0.17533900  0.67532100  0.08188300  1
  S  S39  1  0.00029000  0.49913900  0.25653300  1
  S  S40  1  0.17651500  0.14751100  0.07969700  1
  S  S41  1  0.64943600  0.67555900  0.07967700  1
