# generated using pymatgen
data_Ca2SiO4
_symmetry_space_group_name_H-M   'P 1'
_cell_length_a   6.98483347
_cell_length_b   6.98483347
_cell_length_c   5.57657529
_cell_angle_alpha   89.45391950
_cell_angle_beta   89.45391950
_cell_angle_gamma   134.81431954
_symmetry_Int_Tables_number   1
_chemical_formula_structural   Ca2SiO4
_chemical_formula_sum   'Ca4 Si2 O8'
_cell_volume   192.94515805
_cell_formula_units_Z   2
loop_
 _symmetry_equiv_pos_site_id
 _symmetry_equiv_pos_as_xyz
  1  'x, y, z'
loop_
 _atom_site_type_symbol
 _atom_site_label
 _atom_site_symmetry_multiplicity
 _atom_site_fract_x
 _atom_site_fract_y
 _atom_site_fract_z
 _atom_site_occupancy
  Ca  Ca0  1  0.11859400  0.98751500  0.92969800  1
  Ca  Ca1  1  0.25233700  0.78166800  0.42408800  1
  Ca  Ca2  1  0.78166800  0.25233700  0.92408800  1
  Ca  Ca3  1  0.98751500  0.11859400  0.42969800  1
  Si  Si4  1  0.36400400  0.62526600  0.92303600  1
  Si  Si5  1  0.62526600  0.36400400  0.42303600  1
  O  O6  1  0.17250400  0.34605600  0.76989800  1
  O  O7  1  0.68547900  0.86077600  0.84752600  1
  O  O8  1  0.22160800  0.73943700  0.85643800  1
  O  O9  1  0.29758200  0.54716300  0.20931600  1
  O  O10  1  0.73943700  0.22160800  0.35643800  1
  O  O11  1  0.34605600  0.17250400  0.26989800  1
  O  O12  1  0.54716300  0.29758200  0.70931600  1
  O  O13  1  0.86077600  0.68547900  0.34752600  1
