# generated using pymatgen
data_Nd2Pb5F16
_symmetry_space_group_name_H-M   'P 1'
_cell_length_a   4.21885019
_cell_length_b   4.21885019
_cell_length_c   24.80019806
_cell_angle_alpha   85.73351489
_cell_angle_beta   85.73351489
_cell_angle_gamma   58.33613465
_symmetry_Int_Tables_number   1
_chemical_formula_structural   Nd2Pb5F16
_chemical_formula_sum   'Nd2 Pb5 F16'
_cell_volume   374.33768635
_cell_formula_units_Z   1
loop_
 _symmetry_equiv_pos_site_id
 _symmetry_equiv_pos_as_xyz
  1  'x, y, z'
loop_
 _atom_site_type_symbol
 _atom_site_label
 _atom_site_symmetry_multiplicity
 _atom_site_fract_x
 _atom_site_fract_y
 _atom_site_fract_z
 _atom_site_occupancy
  Nd  Nd0  1  0.05325600  0.05325600  0.30800900  1
  Nd  Nd1  1  0.64400700  0.64400700  0.15985500  1
  Pb  Pb2  1  0.03461000  0.03461000  0.01662100  1
  Pb  Pb3  1  0.42968200  0.42968200  0.87193800  1
  Pb  Pb4  1  0.81052400  0.81052400  0.73150100  1
  Pb  Pb5  1  0.67662100  0.67662100  0.45023100  1
  Pb  Pb6  1  0.30636500  0.30636500  0.58742000  1
  F  F7  1  0.77635100  0.77635100  0.83416200  1
  F  F8  1  0.08447500  0.08447500  0.90704900  1
  F  F9  1  0.18250300  0.18250300  0.69881100  1
  F  F10  1  0.48686200  0.48686200  0.76996500  1
  F  F11  1  0.65995500  0.65995500  0.62276600  1
  F  F12  1  0.01565100  0.01565100  0.54994600  1
  F  F13  1  0.02220300  0.02220300  0.40690400  1
  F  F14  1  0.34377000  0.34377000  0.48042400  1
  F  F15  1  0.67820100  0.67820100  0.25385600  1
  F  F16  1  0.37238300  0.37238300  0.30970900  1
  F  F17  1  0.70219000  0.70219000  0.35372600  1
  F  F18  1  0.00075400  0.00075400  0.11521300  1
  F  F19  1  0.01735200  0.01735200  0.21471500  1
  F  F20  1  0.32535500  0.32535500  0.15874700  1
  F  F21  1  0.37576600  0.37576600  0.98292500  1
  F  F22  1  0.68630000  0.68630000  0.05979600  1
