# generated using pymatgen
data_ErSnPd
_symmetry_space_group_name_H-M   'P 1'
_cell_length_a   4.65679200
_cell_length_b   7.05123500
_cell_length_c   8.00551700
_cell_angle_alpha   90.00000000
_cell_angle_beta   90.00000000
_cell_angle_gamma   90.00000000
_symmetry_Int_Tables_number   1
_chemical_formula_structural   ErSnPd
_chemical_formula_sum   'Er4 Sn4 Pd4'
_cell_volume   262.87023486
_cell_formula_units_Z   4
loop_
 _symmetry_equiv_pos_site_id
 _symmetry_equiv_pos_as_xyz
  1  'x, y, z'
loop_
 _atom_site_type_symbol
 _atom_site_label
 _atom_site_symmetry_multiplicity
 _atom_site_fract_x
 _atom_site_fract_y
 _atom_site_fract_z
 _atom_site_occupancy
  Er  Er0  1  0.25000000  0.50593500  0.78180100  1
  Er  Er1  1  0.25000000  0.00593500  0.71819900  1
  Er  Er2  1  0.75000000  0.49406500  0.21819900  1
  Er  Er3  1  0.75000000  0.99406500  0.28180100  1
  Sn  Sn4  1  0.25000000  0.70409700  0.41511800  1
  Sn  Sn5  1  0.25000000  0.20409700  0.08488200  1
  Sn  Sn6  1  0.75000000  0.29590300  0.58488200  1
  Sn  Sn7  1  0.75000000  0.79590300  0.91511800  1
  Pd  Pd8  1  0.25000000  0.77798300  0.08284600  1
  Pd  Pd9  1  0.25000000  0.27798300  0.41715400  1
  Pd  Pd10  1  0.75000000  0.22201700  0.91715400  1
  Pd  Pd11  1  0.75000000  0.72201700  0.58284600  1
