# generated using pymatgen
data_EuVO4
_symmetry_space_group_name_H-M   'P 1'
_cell_length_a   6.86046412
_cell_length_b   6.86046412
_cell_length_c   6.86046412
_cell_angle_alpha   135.57701834
_cell_angle_beta   135.57701834
_cell_angle_gamma   64.63495376
_symmetry_Int_Tables_number   1
_chemical_formula_structural   EuVO4
_chemical_formula_sum   'Eu2 V2 O8'
_cell_volume   155.98124381
_cell_formula_units_Z   2
loop_
 _symmetry_equiv_pos_site_id
 _symmetry_equiv_pos_as_xyz
  1  'x, y, z'
loop_
 _atom_site_type_symbol
 _atom_site_label
 _atom_site_symmetry_multiplicity
 _atom_site_fract_x
 _atom_site_fract_y
 _atom_site_fract_z
 _atom_site_occupancy
  Eu  Eu0  1  0.75000000  0.25000000  0.50000000  1
  Eu  Eu1  1  0.00000000  0.00000000  0.00000000  1
  V  V2  1  0.25000000  0.75000000  0.50000000  1
  V  V3  1  0.50000000  0.50000000  0.00000000  1
  O  O4  1  0.17281000  0.27520400  0.60821900  1
  O  O5  1  0.66698500  0.56459200  0.39178100  1
  O  O6  1  0.31459200  0.42281000  0.39760600  1
  O  O7  1  0.02520400  0.91698500  0.60239400  1
  O  O8  1  0.57719000  0.97479600  0.89178100  1
  O  O9  1  0.08301500  0.68540800  0.10821900  1
  O  O10  1  0.43540800  0.82719000  0.10239400  1
  O  O11  1  0.72479600  0.33301500  0.89760600  1
