# generated using pymatgen
data_Rb4N2O7
_symmetry_space_group_name_H-M   'P 1'
_cell_length_a   4.72446300
_cell_length_b   4.90939464
_cell_length_c   14.41941461
_cell_angle_alpha   97.14706306
_cell_angle_beta   95.09375787
_cell_angle_gamma   108.41451777
_symmetry_Int_Tables_number   1
_chemical_formula_structural   Rb4N2O7
_chemical_formula_sum   'Rb4 N2 O7'
_cell_volume   311.92906432
_cell_formula_units_Z   1
loop_
 _symmetry_equiv_pos_site_id
 _symmetry_equiv_pos_as_xyz
  1  'x, y, z'
loop_
 _atom_site_type_symbol
 _atom_site_label
 _atom_site_symmetry_multiplicity
 _atom_site_fract_x
 _atom_site_fract_y
 _atom_site_fract_z
 _atom_site_occupancy
  Rb  Rb0  1  0.63967200  0.20144200  0.90095800  1
  Rb  Rb1  1  0.84762600  0.75089500  0.62858700  1
  Rb  Rb2  1  0.12300500  0.20617300  0.41762200  1
  Rb  Rb3  1  0.27866000  0.78064100  0.10874800  1
  N  N4  1  0.29583100  0.44933300  0.75315000  1
  N  N5  1  0.71268600  0.44026700  0.23626800  1
  O  O6  1  0.75527300  0.77966400  0.99527600  1
  O  O7  1  0.37988800  0.71893100  0.74735400  1
  O  O8  1  0.01216200  0.32254500  0.74412000  1
  O  O9  1  0.93351500  0.65290100  0.28076800  1
  O  O10  1  0.34098600  0.80759600  0.50995600  1
  O  O11  1  0.65318600  0.41167600  0.14716200  1
  O  O12  1  0.55151000  0.25193700  0.28002900  1
