# generated using pymatgen
data_Yb3Ti3O14
_symmetry_space_group_name_H-M   'P 1'
_cell_length_a   6.87795760
_cell_length_b   6.87795760
_cell_length_c   6.64844311
_cell_angle_alpha   65.06342975
_cell_angle_beta   65.06342975
_cell_angle_gamma   63.71019126
_symmetry_Int_Tables_number   1
_chemical_formula_structural   Yb3Ti3O14
_chemical_formula_sum   'Yb3 Ti3 O14'
_cell_volume   244.79040703
_cell_formula_units_Z   1
loop_
 _symmetry_equiv_pos_site_id
 _symmetry_equiv_pos_as_xyz
  1  'x, y, z'
loop_
 _atom_site_type_symbol
 _atom_site_label
 _atom_site_symmetry_multiplicity
 _atom_site_fract_x
 _atom_site_fract_y
 _atom_site_fract_z
 _atom_site_occupancy
  Yb  Yb0  1  0.00000000  0.50000000  0.50000000  1
  Yb  Yb1  1  0.50000000  0.00000000  0.50000000  1
  Yb  Yb2  1  0.50000000  0.50000000  0.50000000  1
  Ti  Ti3  1  0.00000000  0.50000000  0.00000000  1
  Ti  Ti4  1  0.50000000  0.00000000  0.00000000  1
  Ti  Ti5  1  0.00000000  0.00000000  0.50000000  1
  O  O6  1  0.92168800  0.32193500  0.32301900  1
  O  O7  1  0.32193500  0.92168800  0.32301900  1
  O  O8  1  0.63300100  0.15554700  0.09650400  1
  O  O9  1  0.15554700  0.63300100  0.09650400  1
  O  O10  1  0.10409800  0.10409800  0.66366400  1
  O  O11  1  0.72048000  0.72048000  0.09512000  1
  O  O12  1  0.89590200  0.89590200  0.33633600  1
  O  O13  1  0.37911900  0.37911900  0.32093700  1
  O  O14  1  0.67806500  0.07831200  0.67698100  1
  O  O15  1  0.07831200  0.67806500  0.67698100  1
  O  O16  1  0.27952000  0.27952000  0.90488000  1
  O  O17  1  0.62088100  0.62088100  0.67906300  1
  O  O18  1  0.84445300  0.36699900  0.90349600  1
  O  O19  1  0.36699900  0.84445300  0.90349600  1
