# generated using pymatgen
data_HIO4
_symmetry_space_group_name_H-M   'P 1'
_cell_length_a   6.31567900
_cell_length_b   5.10492500
_cell_length_c   10.32256911
_cell_angle_alpha   66.62844981
_cell_angle_beta   90.00000000
_cell_angle_gamma   90.00000000
_symmetry_Int_Tables_number   1
_chemical_formula_structural   HIO4
_chemical_formula_sum   'H4 I4 O16'
_cell_volume   305.50410515
_cell_formula_units_Z   4
loop_
 _symmetry_equiv_pos_site_id
 _symmetry_equiv_pos_as_xyz
  1  'x, y, z'
loop_
 _atom_site_type_symbol
 _atom_site_label
 _atom_site_symmetry_multiplicity
 _atom_site_fract_x
 _atom_site_fract_y
 _atom_site_fract_z
 _atom_site_occupancy
  H  H0  1  0.73072500  0.75886300  0.21867300  1
  H  H1  1  0.76927500  0.75886300  0.71867300  1
  H  H2  1  0.23072500  0.24113700  0.28132700  1
  H  H3  1  0.26927500  0.24113700  0.78132700  1
  I  I4  1  0.85755900  0.75131400  0.99566100  1
  I  I5  1  0.35755900  0.24868600  0.50433900  1
  I  I6  1  0.64244100  0.75131400  0.49566100  1
  I  I7  1  0.14244100  0.24868600  0.00433900  1
  O  O8  1  0.59831900  0.34317900  0.60914400  1
  O  O9  1  0.08863900  0.83588800  0.10953900  1
  O  O10  1  0.65838500  0.76689700  0.12879100  1
  O  O11  1  0.16418500  0.25357400  0.62918600  1
  O  O12  1  0.66418500  0.74642600  0.87081400  1
  O  O13  1  0.90168100  0.34317900  0.10914400  1
  O  O14  1  0.15838500  0.23310300  0.37120900  1
  O  O15  1  0.41136100  0.83588800  0.60953900  1
  O  O16  1  0.58863900  0.16411200  0.39046100  1
  O  O17  1  0.84161500  0.76689700  0.62879100  1
  O  O18  1  0.09831900  0.65682100  0.89085600  1
  O  O19  1  0.33581500  0.25357400  0.12918600  1
  O  O20  1  0.83581500  0.74642600  0.37081400  1
  O  O21  1  0.34161500  0.23310300  0.87120900  1
  O  O22  1  0.91136100  0.16411200  0.89046100  1
  O  O23  1  0.40168100  0.65682100  0.39085600  1
