# generated using pymatgen
data_Ba4Ta2TiZnO12
_symmetry_space_group_name_H-M   'P 1'
_cell_length_a   10.10342246
_cell_length_b   10.10342246
_cell_length_c   10.10342246
_cell_angle_alpha   132.09728127
_cell_angle_beta   132.09728127
_cell_angle_gamma   70.07542503
_symmetry_Int_Tables_number   1
_chemical_formula_structural   Ba4Ta2TiZnO12
_chemical_formula_sum   'Ba8 Ta4 Ti2 Zn2 O24'
_cell_volume   556.67058678
_cell_formula_units_Z   2
loop_
 _symmetry_equiv_pos_site_id
 _symmetry_equiv_pos_as_xyz
  1  'x, y, z'
loop_
 _atom_site_type_symbol
 _atom_site_label
 _atom_site_symmetry_multiplicity
 _atom_site_fract_x
 _atom_site_fract_y
 _atom_site_fract_z
 _atom_site_occupancy
  Ba  Ba0  1  0.37500000  0.88076000  0.00576000  1
  Ba  Ba1  1  0.87500000  0.88076000  0.50576000  1
  Ba  Ba2  1  0.87500000  0.36924000  0.99424000  1
  Ba  Ba3  1  0.37500000  0.36924000  0.49424000  1
  Ba  Ba4  1  0.11924000  0.62500000  0.99424000  1
  Ba  Ba5  1  0.63076000  0.62500000  0.50576000  1
  Ba  Ba6  1  0.11924000  0.12500000  0.49424000  1
  Ba  Ba7  1  0.63076000  0.12500000  0.00576000  1
  Ta  Ta8  1  0.25105900  0.25105900  0.00000000  1
  Ta  Ta9  1  0.74894100  0.74894100  0.00000000  1
  Ta  Ta10  1  0.49894100  0.99894100  0.50000000  1
  Ta  Ta11  1  0.00105900  0.50105900  0.50000000  1
  Ti  Ti12  1  0.25000000  0.75000000  0.50000000  1
  Ti  Ti13  1  0.50000000  0.50000000  0.00000000  1
  Zn  Zn14  1  0.75000000  0.25000000  0.50000000  1
  Zn  Zn15  1  0.00000000  0.00000000  0.00000000  1
  O  O16  1  0.61594900  0.11594900  0.50000000  1
  O  O17  1  0.13405100  0.13405100  0.00000000  1
  O  O18  1  0.01520900  0.25526700  0.75994200  1
  O  O19  1  0.49532400  0.25526700  0.24005800  1
  O  O20  1  0.74473300  0.50467600  0.75994200  1
  O  O21  1  0.25337400  0.50477700  0.25140300  1
  O  O22  1  0.49662600  0.74522300  0.24859700  1
  O  O23  1  0.00526700  0.74532400  0.74005800  1
  O  O24  1  0.61963600  0.61963600  0.00000000  1
  O  O25  1  0.13036400  0.63036400  0.50000000  1
  O  O26  1  0.36963600  0.86963600  0.50000000  1
  O  O27  1  0.86594900  0.86594900  0.00000000  1
  O  O28  1  0.99802800  0.74662600  0.25140300  1
  O  O29  1  0.25467600  0.99473300  0.25994200  1
  O  O30  1  0.49522300  0.74662600  0.74859700  1
  O  O31  1  0.73479100  0.99473300  0.74005800  1
  O  O32  1  0.74473300  0.98479100  0.24005800  1
  O  O33  1  0.25337400  0.00197200  0.74859700  1
  O  O34  1  0.49662600  0.24802800  0.75140300  1
  O  O35  1  0.00526700  0.26520900  0.25994200  1
  O  O36  1  0.38036400  0.38036400  0.00000000  1
  O  O37  1  0.88405100  0.38405100  0.50000000  1
  O  O38  1  0.25477700  0.50337400  0.75140300  1
  O  O39  1  0.75197200  0.50337400  0.24859700  1
