# generated using pymatgen
data_Ga2(Hg4Te5)3
_symmetry_space_group_name_H-M   'P 1'
_cell_length_a   8.06581463
_cell_length_b   8.06581463
_cell_length_c   18.98692147
_cell_angle_alpha   85.95008795
_cell_angle_beta   85.95008795
_cell_angle_gamma   120.01613056
_symmetry_Int_Tables_number   1
_chemical_formula_structural   Ga2(Hg4Te5)3
_chemical_formula_sum   'Ga2 Hg12 Te15'
_cell_volume   1058.84551750
_cell_formula_units_Z   1
loop_
 _symmetry_equiv_pos_site_id
 _symmetry_equiv_pos_as_xyz
  1  'x, y, z'
loop_
 _atom_site_type_symbol
 _atom_site_label
 _atom_site_symmetry_multiplicity
 _atom_site_fract_x
 _atom_site_fract_y
 _atom_site_fract_z
 _atom_site_occupancy
  Ga  Ga0  1  0.26617200  0.93291600  0.20154900  1
  Ga  Ga1  1  0.93291600  0.26617200  0.20154900  1
  Hg  Hg2  1  0.00539800  0.00539800  0.00852000  1
  Hg  Hg3  1  0.39989900  0.39989900  0.80307000  1
  Hg  Hg4  1  0.66385000  0.32173500  0.00848800  1
  Hg  Hg5  1  0.79750500  0.79750500  0.59637000  1
  Hg  Hg6  1  0.06458000  0.73235300  0.80272400  1
  Hg  Hg7  1  0.22896400  0.22896400  0.39090600  1
  Hg  Hg8  1  0.32173500  0.66385000  0.00848800  1
  Hg  Hg9  1  0.46761600  0.13785800  0.59721900  1
  Hg  Hg10  1  0.73235300  0.06458000  0.80272400  1
  Hg  Hg11  1  0.84410700  0.53641100  0.39083900  1
  Hg  Hg12  1  0.13785800  0.46761600  0.59721900  1
  Hg  Hg13  1  0.53641100  0.84410700  0.39083900  1
  Te  Te14  1  0.35407800  0.35407800  0.95627000  1
  Te  Te15  1  0.74998300  0.74998300  0.74956600  1
  Te  Te16  1  0.00836700  0.68129700  0.95597900  1
  Te  Te17  1  0.15035600  0.15035600  0.54394800  1
  Te  Te18  1  0.41640400  0.08313800  0.75084100  1
  Te  Te19  1  0.55932000  0.55932000  0.32277800  1
  Te  Te20  1  0.68129700  0.00836700  0.95597900  1
  Te  Te21  1  0.82067100  0.48510700  0.54392000  1
  Te  Te22  1  0.96611800  0.96611800  0.16233900  1
  Te  Te23  1  0.08313800  0.41640400  0.75084100  1
  Te  Te24  1  0.21866200  0.88538800  0.34426200  1
  Te  Te25  1  0.48510700  0.82067100  0.54392000  1
  Te  Te26  1  0.61272500  0.25899900  0.16229600  1
  Te  Te27  1  0.88538800  0.21866200  0.34426200  1
  Te  Te28  1  0.25899900  0.61272500  0.16229600  1
