# generated using pymatgen
data_In2AsSe
_symmetry_space_group_name_H-M   'P 1'
_cell_length_a   7.85901607
_cell_length_b   7.85901607
_cell_length_c   7.85901607
_cell_angle_alpha   132.16493091
_cell_angle_beta   131.97182472
_cell_angle_gamma   70.12116891
_symmetry_Int_Tables_number   1
_chemical_formula_structural   In2AsSe
_chemical_formula_sum   'In4 As2 Se2'
_cell_volume   262.22060493
_cell_formula_units_Z   2
loop_
 _symmetry_equiv_pos_site_id
 _symmetry_equiv_pos_as_xyz
  1  'x, y, z'
loop_
 _atom_site_type_symbol
 _atom_site_label
 _atom_site_symmetry_multiplicity
 _atom_site_fract_x
 _atom_site_fract_y
 _atom_site_fract_z
 _atom_site_occupancy
  In  In0  1  0.75000000  0.49292000  0.74292000  1
  In  In1  1  0.25000000  0.00708000  0.75708000  1
  In  In2  1  0.48733700  0.75000000  0.23733700  1
  In  In3  1  0.01266300  0.25000000  0.26266300  1
  As  As4  1  0.12197000  0.37197000  0.75000000  1
  As  As5  1  0.37803000  0.12803000  0.25000000  1
  Se  Se6  1  0.62699600  0.87699600  0.75000000  1
  Se  Se7  1  0.87300400  0.62300400  0.25000000  1
