# generated using pymatgen
data_KBiF4
_symmetry_space_group_name_H-M   'P 1'
_cell_length_a   4.46407383
_cell_length_b   4.46407383
_cell_length_c   14.44960480
_cell_angle_alpha   77.15626775
_cell_angle_beta   77.15626775
_cell_angle_gamma   52.70543873
_symmetry_Int_Tables_number   1
_chemical_formula_structural   KBiF4
_chemical_formula_sum   'K2 Bi2 F8'
_cell_volume   221.91346915
_cell_formula_units_Z   2
loop_
 _symmetry_equiv_pos_site_id
 _symmetry_equiv_pos_as_xyz
  1  'x, y, z'
loop_
 _atom_site_type_symbol
 _atom_site_label
 _atom_site_symmetry_multiplicity
 _atom_site_fract_x
 _atom_site_fract_y
 _atom_site_fract_z
 _atom_site_occupancy
  K  K0  1  0.03356700  0.03356700  0.99779800  1
  K  K1  1  0.76744800  0.76744800  0.74162400  1
  Bi  Bi2  1  0.56430800  0.56430800  0.49519600  1
  Bi  Bi3  1  0.27548300  0.27548300  0.23839800  1
  F  F4  1  0.06798900  0.06798900  0.82054800  1
  F  F5  1  0.09100100  0.09100100  0.40784100  1
  F  F6  1  0.06808200  0.06808200  0.59678900  1
  F  F7  1  0.79258400  0.79258400  0.54529000  1
  F  F8  1  0.90893900  0.90893900  0.17785000  1
  F  F9  1  0.78006500  0.78006500  0.36151800  1
  F  F10  1  0.55115800  0.55115800  0.25326900  1
  F  F11  1  0.31037500  0.31037500  0.07487800  1
