# generated using pymatgen
data_Yb2FeS4
_symmetry_space_group_name_H-M   'P 1'
_cell_length_a   7.73319700
_cell_length_b   7.74841216
_cell_length_c   25.75859851
_cell_angle_alpha   81.69867568
_cell_angle_beta   81.65832303
_cell_angle_gamma   60.22802345
_symmetry_Int_Tables_number   1
_chemical_formula_structural   Yb2FeS4
_chemical_formula_sum   'Yb16 Fe8 S32'
_cell_volume   1320.84745863
_cell_formula_units_Z   8
loop_
 _symmetry_equiv_pos_site_id
 _symmetry_equiv_pos_as_xyz
  1  'x, y, z'
loop_
 _atom_site_type_symbol
 _atom_site_label
 _atom_site_symmetry_multiplicity
 _atom_site_fract_x
 _atom_site_fract_y
 _atom_site_fract_z
 _atom_site_occupancy
  Yb  Yb0  1  0.65785400  0.15218600  0.03278400  1
  Yb  Yb1  1  0.15742000  0.15597100  0.03080100  1
  Yb  Yb2  1  0.65641800  0.65762200  0.03178100  1
  Yb  Yb3  1  0.28546900  0.77802400  0.15488800  1
  Yb  Yb4  1  0.77789300  0.28571900  0.15764200  1
  Yb  Yb5  1  0.90692600  0.90607400  0.28038400  1
  Yb  Yb6  1  0.53161000  0.03129900  0.40610500  1
  Yb  Yb7  1  0.28335700  0.28329700  0.66001800  1
  Yb  Yb8  1  0.03136300  0.53150300  0.40608900  1
  Yb  Yb9  1  0.78001300  0.28439000  0.65768400  1
  Yb  Yb10  1  0.15347600  0.15350000  0.53030600  1
  Yb  Yb11  1  0.28433700  0.78002400  0.65770300  1
  Yb  Yb12  1  0.53238000  0.53815500  0.90480500  1
  Yb  Yb13  1  0.02884200  0.53562100  0.90733600  1
  Yb  Yb14  1  0.40856200  0.40911900  0.78113200  1
  Yb  Yb15  1  0.53466300  0.02883600  0.90518600  1
  Fe  Fe16  1  0.23717400  0.23784300  0.24839600  1
  Fe  Fe17  1  0.57539600  0.57485800  0.31595100  1
  Fe  Fe18  1  0.48659100  0.48696900  0.49668000  1
  Fe  Fe19  1  0.40595500  0.40529500  0.28072200  1
  Fe  Fe20  1  0.82581800  0.82540200  0.56510500  1
  Fe  Fe21  1  0.65742800  0.65733500  0.52845300  1
  Fe  Fe22  1  0.07235400  0.07191200  0.81283600  1
  Fe  Fe23  1  0.87171700  0.87194700  0.77495500  1
  S  S24  1  0.47051600  0.96537800  0.09573300  1
  S  S25  1  0.57330000  0.57484800  0.22968000  1
  S  S26  1  0.96163700  0.47270300  0.09606500  1
  S  S27  1  0.47379100  0.46831400  0.09511700  1
  S  S28  1  0.68531500  0.24549800  0.33686100  1
  S  S29  1  0.09723500  0.09563800  0.22007700  1
  S  S30  1  0.56040200  0.13121000  0.22592700  1
  S  S31  1  0.82727500  0.82708600  0.47684900  1
  S  S32  1  0.96614500  0.97102000  0.09827800  1
  S  S33  1  0.24551200  0.68538700  0.33681800  1
  S  S34  1  0.72086700  0.72107600  0.34352500  1
  S  S35  1  0.13129200  0.56008700  0.22597900  1
  S  S36  1  0.94993000  0.48849300  0.58949600  1
  S  S37  1  0.34144600  0.34132900  0.46863000  1
  S  S38  1  0.81663700  0.37390300  0.47399900  1
  S  S39  1  0.23647300  0.23602800  0.33489300  1
  S  S40  1  0.08938300  0.08942600  0.72386600  1
  S  S41  1  0.48813100  0.95009800  0.58957300  1
  S  S42  1  0.96885800  0.96894700  0.59418100  1
  S  S43  1  0.37409400  0.81630900  0.47407900  1
  S  S44  1  0.19524000  0.74719900  0.83875300  1
  S  S45  1  0.58875000  0.58848800  0.71778900  1
  S  S46  1  0.07853000  0.61505900  0.72314400  1
  S  S47  1  0.47863800  0.47882200  0.58680800  1
  S  S48  1  0.34991000  0.34461300  0.96457900  1
  S  S49  1  0.74726100  0.19531200  0.83878600  1
  S  S50  1  0.21350900  0.21475900  0.84229000  1
  S  S51  1  0.61489600  0.07894600  0.72310400  1
  S  S52  1  0.83976700  0.84395500  0.96815200  1
  S  S53  1  0.35132900  0.84215900  0.96753400  1
  S  S54  1  0.73623300  0.73376100  0.83523100  1
  S  S55  1  0.84092900  0.34749900  0.96771500  1
