# generated using pymatgen
data_Na21In5O15
_symmetry_space_group_name_H-M   'P 1'
_cell_length_a   9.70596982
_cell_length_b   9.70596982
_cell_length_c   9.69549398
_cell_angle_alpha   70.11670768
_cell_angle_beta   70.11670768
_cell_angle_gamma   108.54368888
_symmetry_Int_Tables_number   1
_chemical_formula_structural   Na21In5O15
_chemical_formula_sum   'Na21 In5 O15'
_cell_volume   703.91409886
_cell_formula_units_Z   1
loop_
 _symmetry_equiv_pos_site_id
 _symmetry_equiv_pos_as_xyz
  1  'x, y, z'
loop_
 _atom_site_type_symbol
 _atom_site_label
 _atom_site_symmetry_multiplicity
 _atom_site_fract_x
 _atom_site_fract_y
 _atom_site_fract_z
 _atom_site_occupancy
  Na  Na0  1  0.44092500  0.44092500  0.27215800  1
  Na  Na1  1  0.57088500  0.77635000  0.98795200  1
  Na  Na2  1  0.21330400  0.21330400  0.21863600  1
  Na  Na3  1  0.26847700  0.54563800  0.01598700  1
  Na  Na4  1  0.99990100  0.30229900  0.43809100  1
  Na  Na5  1  0.45717000  0.75426300  0.52168600  1
  Na  Na6  1  0.21586700  0.43313200  0.56767900  1
  Na  Na7  1  0.77496300  0.98058100  0.45567500  1
  Na  Na8  1  0.22355900  0.78543400  0.78805600  1
  Na  Na9  1  0.55390900  0.00728800  0.71952600  1
  Na  Na10  1  0.25987000  0.71928400  0.27947100  1
  Na  Na11  1  0.00728800  0.55390900  0.71952600  1
  Na  Na12  1  0.71928400  0.25987000  0.27947100  1
  Na  Na13  1  0.78543400  0.22355900  0.78805600  1
  Na  Na14  1  0.77635000  0.57088500  0.98795200  1
  Na  Na15  1  0.43313200  0.21586700  0.56767900  1
  Na  Na16  1  0.98058100  0.77496300  0.45567500  1
  Na  Na17  1  0.54563800  0.26847700  0.01598700  1
  Na  Na18  1  0.75426300  0.45717000  0.52168600  1
  Na  Na19  1  0.30229900  0.99990100  0.43809100  1
  Na  Na20  1  0.47328500  0.47328500  0.77473900  1
  In  In21  1  0.99230700  0.99230700  0.69823300  1
  In  In22  1  0.99133300  0.99133300  0.99828200  1
  In  In23  1  0.00764100  0.29526300  0.99254800  1
  In  In24  1  0.29526300  0.00764100  0.99254800  1
  In  In25  1  0.69738600  0.69738600  0.28393600  1
  O  O26  1  0.79321300  0.02505300  0.69382900  1
  O  O27  1  0.47666300  0.47666300  0.01988400  1
  O  O28  1  0.20899100  0.20899100  0.48801800  1
  O  O29  1  0.32986600  0.80498500  0.98752700  1
  O  O30  1  0.46192900  0.66761300  0.31474000  1
  O  O31  1  0.49305100  0.00224200  0.52149400  1
  O  O32  1  0.99298300  0.26433600  0.22219500  1
  O  O33  1  0.22404100  0.52478900  0.78583300  1
  O  O34  1  0.80498500  0.32986600  0.98752700  1
  O  O35  1  0.00224200  0.49305100  0.52149400  1
  O  O36  1  0.66761300  0.46192900  0.31474000  1
  O  O37  1  0.02505300  0.79321300  0.69382900  1
  O  O38  1  0.26433600  0.99298300  0.22219500  1
  O  O39  1  0.52478900  0.22404100  0.78583300  1
  O  O40  1  0.70523100  0.70523100  0.49653200  1
