# generated using pymatgen
data_KUClO3
_symmetry_space_group_name_H-M   'P 1'
_cell_length_a   4.11668700
_cell_length_b   7.25846300
_cell_length_c   8.95767138
_cell_angle_alpha   75.20608084
_cell_angle_beta   90.00000000
_cell_angle_gamma   90.00000000
_symmetry_Int_Tables_number   1
_chemical_formula_structural   KUClO3
_chemical_formula_sum   'K2 U2 Cl2 O6'
_cell_volume   258.78968667
_cell_formula_units_Z   2
loop_
 _symmetry_equiv_pos_site_id
 _symmetry_equiv_pos_as_xyz
  1  'x, y, z'
loop_
 _atom_site_type_symbol
 _atom_site_label
 _atom_site_symmetry_multiplicity
 _atom_site_fract_x
 _atom_site_fract_y
 _atom_site_fract_z
 _atom_site_occupancy
  K  K0  1  0.25000000  0.85941200  0.75528500  1
  K  K1  1  0.75000000  0.14058800  0.24471500  1
  U  U2  1  0.25000000  0.61283700  0.32730800  1
  U  U3  1  0.75000000  0.38716300  0.67269200  1
  Cl  Cl4  1  0.25000000  0.22978900  0.91025600  1
  Cl  Cl5  1  0.75000000  0.77021100  0.08974400  1
  O  O6  1  0.25000000  0.45159400  0.58348200  1
  O  O7  1  0.75000000  0.54840600  0.41651800  1
  O  O8  1  0.25000000  0.84849500  0.37190700  1
  O  O9  1  0.75000000  0.15150500  0.62809300  1
  O  O10  1  0.25000000  0.38933900  0.26420800  1
  O  O11  1  0.75000000  0.61066100  0.73579200  1
