# generated using pymatgen
data_Ag13(PbO3)6
_symmetry_space_group_name_H-M   'P 1'
_cell_length_a   6.00226800
_cell_length_b   10.39779975
_cell_length_c   19.46632734
_cell_angle_alpha   90.26591436
_cell_angle_beta   90.04204250
_cell_angle_gamma   90.37922129
_symmetry_Int_Tables_number   1
_chemical_formula_structural   Ag13(PbO3)6
_chemical_formula_sum   'Ag26 Pb12 O36'
_cell_volume   1214.86085036
_cell_formula_units_Z   2
loop_
 _symmetry_equiv_pos_site_id
 _symmetry_equiv_pos_as_xyz
  1  'x, y, z'
loop_
 _atom_site_type_symbol
 _atom_site_label
 _atom_site_symmetry_multiplicity
 _atom_site_fract_x
 _atom_site_fract_y
 _atom_site_fract_z
 _atom_site_occupancy
  Ag  Ag0  1  0.00134000  0.99841000  0.41118000  1
  Ag  Ag1  1  0.99435100  0.00607600  0.74438000  1
  Ag  Ag2  1  0.25070300  0.74931800  0.00026100  1
  Ag  Ag3  1  0.48603500  0.49979100  0.25497200  1
  Ag  Ag4  1  0.49370700  0.50589300  0.74424300  1
  Ag  Ag5  1  0.75209600  0.75020900  0.00074100  1
  Ag  Ag6  1  0.74912800  0.74734800  0.33471100  1
  Ag  Ag7  1  0.75083400  0.75049300  0.66638100  1
  Ag  Ag8  1  0.00006500  0.49969000  0.99906500  1
  Ag  Ag9  1  0.99999000  0.49995500  0.66673100  1
  Ag  Ag10  1  0.00247200  0.99985900  0.25532300  1
  Ag  Ag11  1  0.00750100  0.99397700  0.58782800  1
  Ag  Ag12  1  0.99759500  0.00162900  0.91990100  1
  Ag  Ag13  1  0.24970600  0.74670900  0.33261400  1
  Ag  Ag14  1  0.25123500  0.25054800  0.99944700  1
  Ag  Ag15  1  0.24875500  0.25017000  0.66594400  1
  Ag  Ag16  1  0.24960400  0.25307000  0.33353200  1
  Ag  Ag17  1  0.49818900  0.50014100  0.07778800  1
  Ag  Ag18  1  0.50842100  0.49373900  0.58806000  1
  Ag  Ag19  1  0.51409100  0.49844700  0.41269500  1
  Ag  Ag20  1  0.49937300  0.50153300  0.92204200  1
  Ag  Ag21  1  0.49668900  0.99962600  0.00010700  1
  Ag  Ag22  1  0.49924800  0.00033400  0.33439400  1
  Ag  Ag23  1  0.49951600  0.00017100  0.66651900  1
  Ag  Ag24  1  0.75000500  0.25303900  0.33386800  1
  Ag  Ag25  1  0.75163700  0.24957400  0.00151200  1
  Pb  Pb26  1  0.49259800  0.83232500  0.50221600  1
  Pb  Pb27  1  0.50468900  0.83483900  0.16499000  1
  Pb  Pb28  1  0.49792300  0.83039400  0.83138700  1
  Pb  Pb29  1  0.99877600  0.66469600  0.16788100  1
  Pb  Pb30  1  0.00522300  0.66661300  0.83103900  1
  Pb  Pb31  1  0.00022600  0.66589800  0.50030600  1
  Pb  Pb32  1  0.00009900  0.33535100  0.16796700  1
  Pb  Pb33  1  0.99283200  0.33780000  0.50041800  1
  Pb  Pb34  1  0.99780700  0.33002800  0.83092200  1
  Pb  Pb35  1  0.50286700  0.16504400  0.16497700  1
  Pb  Pb36  1  0.50064800  0.17101600  0.50242000  1
  Pb  Pb37  1  0.50524900  0.16631800  0.83133000  1
  O  O38  1  0.31114200  0.68757300  0.10309500  1
  O  O39  1  0.31272000  0.68685500  0.77107400  1
  O  O40  1  0.31331800  0.68510200  0.43483600  1
  O  O41  1  0.62583000  0.00142100  0.56421500  1
  O  O42  1  0.62556000  0.00069400  0.23112700  1
  O  O43  1  0.61986700  0.99786700  0.89659400  1
  O  O44  1  0.68502600  0.68735000  0.23157100  1
  O  O45  1  0.68421100  0.68803000  0.56414600  1
  O  O46  1  0.69455500  0.68929700  0.89635900  1
  O  O47  1  0.81271700  0.80502100  0.10430000  1
  O  O48  1  0.80528400  0.81227800  0.43767300  1
  O  O49  1  0.81492400  0.81259700  0.76917000  1
  O  O50  1  0.81217100  0.19395800  0.10443600  1
  O  O51  1  0.81154300  0.18711700  0.43559500  1
  O  O52  1  0.81175000  0.18662300  0.77085900  1
  O  O53  1  0.87367500  0.49930100  0.10179800  1
  O  O54  1  0.87782300  0.50300000  0.43866100  1
  O  O55  1  0.87233800  0.49826500  0.76907800  1
  O  O56  1  0.12286500  0.50078100  0.22796400  1
  O  O57  1  0.13014600  0.50159800  0.56531700  1
  O  O58  1  0.12205600  0.49777600  0.89541500  1
  O  O59  1  0.19237500  0.81254600  0.23007300  1
  O  O60  1  0.18267500  0.81102000  0.56098400  1
  O  O61  1  0.18733700  0.81322000  0.89786400  1
  O  O62  1  0.19210600  0.18844900  0.23014300  1
  O  O63  1  0.18120000  0.18914300  0.56306300  1
  O  O64  1  0.19314000  0.18813300  0.89576900  1
  O  O65  1  0.31135500  0.31140600  0.10305100  1
  O  O66  1  0.30717100  0.31390900  0.43702500  1
  O  O67  1  0.31521600  0.31205400  0.76896600  1
  O  O68  1  0.38295000  0.99919000  0.10304500  1
  O  O69  1  0.37750400  0.00254700  0.43821000  1
  O  O70  1  0.37357300  0.99810400  0.76904900  1
  O  O71  1  0.68502600  0.31368600  0.23151300  1
  O  O72  1  0.68863400  0.31206900  0.56282700  1
  O  O73  1  0.68899200  0.31195200  0.89840800  1
