# generated using pymatgen
data_Be(GaO2)2
_symmetry_space_group_name_H-M   'P 1'
_cell_length_a   5.88376600
_cell_length_b   5.14158700
_cell_length_c   10.66949965
_cell_angle_alpha   88.97189113
_cell_angle_beta   90.00000000
_cell_angle_gamma   90.00000000
_symmetry_Int_Tables_number   1
_chemical_formula_structural   Be(GaO2)2
_chemical_formula_sum   'Be4 Ga8 O16'
_cell_volume   322.72061856
_cell_formula_units_Z   4
loop_
 _symmetry_equiv_pos_site_id
 _symmetry_equiv_pos_as_xyz
  1  'x, y, z'
loop_
 _atom_site_type_symbol
 _atom_site_label
 _atom_site_symmetry_multiplicity
 _atom_site_fract_x
 _atom_site_fract_y
 _atom_site_fract_z
 _atom_site_occupancy
  Be  Be0  1  0.76970400  0.82950300  0.66171600  1
  Be  Be1  1  0.74124000  0.82725600  0.17258600  1
  Be  Be2  1  0.26970400  0.17049700  0.33828400  1
  Be  Be3  1  0.24124000  0.17274400  0.82741400  1
  Ga  Ga4  1  0.27661500  0.68290100  0.68844800  1
  Ga  Ga5  1  0.49438700  0.67560400  0.42152600  1
  Ga  Ga6  1  0.77661500  0.31709900  0.31155200  1
  Ga  Ga7  1  0.96342800  0.83448900  0.92234900  1
  Ga  Ga8  1  0.99438700  0.32439600  0.57847400  1
  Ga  Ga9  1  0.23291900  0.66996600  0.17621700  1
  Ga  Ga10  1  0.46342800  0.16551100  0.07765100  1
  Ga  Ga11  1  0.73291900  0.33003400  0.82378300  1
  O  O12  1  0.24956400  0.31422100  0.69673000  1
  O  O13  1  0.48987100  0.30260000  0.40750600  1
  O  O14  1  0.53043800  0.75143100  0.58891300  1
  O  O15  1  0.74956400  0.68577900  0.30327000  1
  O  O16  1  0.74804900  0.15039500  0.17122700  1
  O  O17  1  0.77516300  0.15212500  0.67013500  1
  O  O18  1  0.98348300  0.20354900  0.90875800  1
  O  O19  1  0.96218100  0.73120100  0.08911100  1
  O  O20  1  0.03043800  0.24856900  0.41108700  1
  O  O21  1  0.98987100  0.69740000  0.59249400  1
  O  O22  1  0.24804900  0.84960500  0.82877300  1
  O  O23  1  0.27516300  0.84787500  0.32986500  1
  O  O24  1  0.26151900  0.30672700  0.19210500  1
  O  O25  1  0.46218100  0.26879900  0.91088900  1
  O  O26  1  0.48348300  0.79645100  0.09124200  1
  O  O27  1  0.76151900  0.69327300  0.80789500  1
