# generated using pymatgen
data_Ca2MgAl2(SiO4)3
_symmetry_space_group_name_H-M   'P 1'
_cell_length_a   6.59389300
_cell_length_b   6.61590634
_cell_length_c   10.65003131
_cell_angle_alpha   78.35291165
_cell_angle_beta   77.58956671
_cell_angle_gamma   84.05136199
_symmetry_Int_Tables_number   1
_chemical_formula_structural   Ca2MgAl2(SiO4)3
_chemical_formula_sum   'Ca4 Mg2 Al4 Si6 O24'
_cell_volume   443.52155814
_cell_formula_units_Z   2
loop_
 _symmetry_equiv_pos_site_id
 _symmetry_equiv_pos_as_xyz
  1  'x, y, z'
loop_
 _atom_site_type_symbol
 _atom_site_label
 _atom_site_symmetry_multiplicity
 _atom_site_fract_x
 _atom_site_fract_y
 _atom_site_fract_z
 _atom_site_occupancy
  Ca  Ca0  1  0.69687200  0.30027400  0.87143500  1
  Ca  Ca1  1  0.30312800  0.69972600  0.12856500  1
  Ca  Ca2  1  0.69057900  0.30925900  0.37683000  1
  Ca  Ca3  1  0.30942100  0.69074100  0.62317000  1
  Mg  Mg4  1  0.09548100  0.90594200  0.87451200  1
  Mg  Mg5  1  0.90451900  0.09405800  0.12548800  1
  Al  Al6  1  0.18684900  0.38745400  0.39088700  1
  Al  Al7  1  0.09053700  0.91219300  0.37873100  1
  Al  Al8  1  0.90946300  0.08780700  0.62126900  1
  Al  Al9  1  0.81315100  0.61254600  0.60911300  1
  Si  Si10  1  0.19208900  0.37627900  0.88641800  1
  Si  Si11  1  0.62046800  0.80335300  0.86138300  1
  Si  Si12  1  0.37953200  0.19664700  0.13861700  1
  Si  Si13  1  0.80791100  0.62372100  0.11358200  1
  Si  Si14  1  0.61523300  0.81045500  0.36291600  1
  Si  Si15  1  0.38476700  0.18954500  0.63708400  1
  O  O16  1  0.37615700  0.31915900  0.75819600  1
  O  O17  1  0.11241000  0.61094600  0.83505400  1
  O  O18  1  0.02323700  0.20169100  0.93059900  1
  O  O19  1  0.80469500  0.96880000  0.80651000  1
  O  O20  1  0.38913500  0.89426500  0.91337500  1
  O  O21  1  0.32630000  0.36705100  0.00435100  1
  O  O22  1  0.67370000  0.63294900  0.99564900  1
  O  O23  1  0.61086500  0.10573500  0.08662500  1
  O  O24  1  0.19530500  0.03120000  0.19349000  1
  O  O25  1  0.97676300  0.79830900  0.06940100  1
  O  O26  1  0.88759000  0.38905400  0.16494600  1
  O  O27  1  0.37511500  0.34389600  0.24680700  1
  O  O28  1  0.62384300  0.68084100  0.24180400  1
  O  O29  1  0.10859300  0.64666900  0.34463900  1
  O  O30  1  0.02052000  0.17962400  0.43664000  1
  O  O31  1  0.79957300  0.97314800  0.32349000  1
  O  O32  1  0.37620600  0.89930700  0.40651800  1
  O  O33  1  0.34210200  0.36962900  0.51144000  1
  O  O34  1  0.65789800  0.63037100  0.48856000  1
  O  O35  1  0.62379400  0.10069300  0.59348200  1
  O  O36  1  0.20042700  0.02685200  0.67651000  1
  O  O37  1  0.97948000  0.82037600  0.56336000  1
  O  O38  1  0.89140700  0.35333100  0.65536100  1
  O  O39  1  0.62488500  0.65610400  0.75319300  1
