# generated using pymatgen
data_Na2UI6
_symmetry_space_group_name_H-M   'P 1'
_cell_length_a   7.96052300
_cell_length_b   8.76058857
_cell_length_c   19.81063131
_cell_angle_alpha   94.58088303
_cell_angle_beta   89.92374494
_cell_angle_gamma   116.96470661
_symmetry_Int_Tables_number   1
_chemical_formula_structural   Na2UI6
_chemical_formula_sum   'Na6 U3 I18'
_cell_volume   1226.49483055
_cell_formula_units_Z   3
loop_
 _symmetry_equiv_pos_site_id
 _symmetry_equiv_pos_as_xyz
  1  'x, y, z'
loop_
 _atom_site_type_symbol
 _atom_site_label
 _atom_site_symmetry_multiplicity
 _atom_site_fract_x
 _atom_site_fract_y
 _atom_site_fract_z
 _atom_site_occupancy
  Na  Na0  1  0.66681900  0.32959600  0.83593300  1
  Na  Na1  1  0.75648200  0.50984000  0.56065200  1
  Na  Na2  1  0.91590600  0.82920600  0.77282700  1
  Na  Na3  1  0.08756200  0.17514200  0.22703700  1
  Na  Na4  1  0.24545800  0.49081000  0.43891300  1
  Na  Na5  1  0.57565000  0.15471900  0.10401700  1
  U  U6  1  0.00268400  0.99734100  0.99968600  1
  U  U7  1  0.32817700  0.66730600  0.66740200  1
  U  U8  1  0.66667100  0.33318800  0.33324800  1
  I  I9  1  0.63521400  0.98846900  0.74609100  1
  I  I10  1  0.79747200  0.20660000  0.96727300  1
  I  I11  1  0.22757400  0.11712200  0.87251100  1
  I  I12  1  0.10528400  0.55798400  0.79457900  1
  I  I13  1  0.54557300  0.46092000  0.70118800  1
  I  I14  1  0.96358500  0.65179100  0.41396300  1
  I  I15  1  0.70246800  0.68412300  0.91719600  1
  I  I16  1  0.12163600  0.87320400  0.63214000  1
  I  I17  1  0.56110400  0.77582200  0.54071200  1
  I  I18  1  0.43868900  0.22144300  0.45933000  1
  I  I19  1  0.87458100  0.12965700  0.36740600  1
  I  I20  1  0.29723500  0.31869800  0.08099600  1
  I  I21  1  0.03419500  0.34590800  0.58492600  1
  I  I22  1  0.45904100  0.53710400  0.29938600  1
  I  I23  1  0.89445000  0.44542800  0.20756300  1
  I  I24  1  0.77074300  0.88972900  0.12606800  1
  I  I25  1  0.20926100  0.80075900  0.03247400  1
  I  I26  1  0.36982000  0.01476000  0.25314800  1
