# generated using pymatgen
data_H24C8Se(NO2)2
_symmetry_space_group_name_H-M   'P 1'
_cell_length_a   7.84111600
_cell_length_b   7.90510474
_cell_length_c   13.70169353
_cell_angle_alpha   90.06927867
_cell_angle_beta   106.49053103
_cell_angle_gamma   119.46142723
_symmetry_Int_Tables_number   1
_chemical_formula_structural   H24C8Se(NO2)2
_chemical_formula_sum   'H48 C16 Se2 N4 O8'
_cell_volume   698.89587550
_cell_formula_units_Z   2
loop_
 _symmetry_equiv_pos_site_id
 _symmetry_equiv_pos_as_xyz
  1  'x, y, z'
loop_
 _atom_site_type_symbol
 _atom_site_label
 _atom_site_symmetry_multiplicity
 _atom_site_fract_x
 _atom_site_fract_y
 _atom_site_fract_z
 _atom_site_occupancy
  H  H0  1  0.03371700  0.62985700  0.13366700  1
  H  H1  1  0.27032400  0.98372200  0.25150700  1
  H  H2  1  0.27019700  0.86925800  0.36568300  1
  H  H3  1  0.03377800  0.51553700  0.24809300  1
  H  H4  1  0.03952600  0.40389500  0.13465000  1
  H  H5  1  0.49866500  0.09528200  0.36513200  1
  H  H6  1  0.50457900  0.10447900  0.13443100  1
  H  H7  1  0.50337400  0.75245500  0.48400100  1
  H  H8  1  0.26547200  0.74658300  0.01558800  1
  H  H9  1  0.26584400  0.39779500  0.36559700  1
  H  H10  1  0.27020800  0.28521200  0.25101800  1
  H  H11  1  0.73167100  0.97965800  0.48330400  1
  H  H12  1  0.73301500  0.21501500  0.24833500  1
  H  H13  1  0.27099500  0.51958700  0.01724400  1
  H  H14  1  0.73460100  0.09955800  0.13475700  1
  H  H15  1  0.73254200  0.75111900  0.48175900  1
  H  H16  1  0.49804300  0.39899800  0.36484600  1
  H  H17  1  0.49853200  0.74719300  0.01708700  1
  H  H18  1  0.03300200  0.12962300  0.63373600  1
  H  H19  1  0.27078500  0.48311500  0.75184100  1
  H  H20  1  0.03299800  0.01532700  0.74796000  1
  H  H21  1  0.27093400  0.36918500  0.86605300  1
  H  H22  1  0.50476400  0.40779700  0.13551500  1
  H  H23  1  0.96435800  0.09772000  0.36610000  1
  H  H24  1  0.04029100  0.90408500  0.63468000  1
  H  H25  1  0.50006100  0.59483500  0.86492300  1
  H  H26  1  0.73469200  0.63427600  0.13456500  1
  H  H27  1  0.96599200  0.98285200  0.25149200  1
  H  H28  1  0.73392500  0.51922200  0.24915500  1
  H  H29  1  0.96534000  0.86828400  0.36579500  1
  H  H30  1  0.50469000  0.25394400  0.98484100  1
  H  H31  1  0.26625400  0.24806000  0.51597300  1
  H  H32  1  0.50347700  0.60205400  0.63435400  1
  H  H33  1  0.26598600  0.89696000  0.86594200  1
  H  H34  1  0.27051000  0.78650600  0.75129900  1
  H  H35  1  0.73406300  0.48010900  0.98280900  1
  H  H36  1  0.26971200  0.01979200  0.51743700  1
  H  H37  1  0.73275000  0.71402200  0.74852200  1
  H  H38  1  0.73235400  0.59777500  0.63464800  1
  H  H39  1  0.49879800  0.89927600  0.86534800  1
  H  H40  1  0.73441600  0.25163000  0.98221700  1
  H  H41  1  0.49824900  0.24721400  0.51696500  1
  H  H42  1  0.50115100  0.90405700  0.63507600  1
  H  H43  1  0.96193600  0.59300600  0.86411800  1
  H  H44  1  0.96669900  0.48062800  0.75031300  1
  H  H45  1  0.73056200  0.13135000  0.63452100  1
  H  H46  1  0.96734500  0.36624300  0.86499100  1
  H  H47  1  0.73134800  0.01728100  0.74910400  1
  C  C48  1  0.67444400  0.49437200  0.16430300  1
  C  C49  1  0.67451500  0.18206400  0.16362000  1
  C  C50  1  0.67469700  0.33655600  0.00884100  1
  C  C51  1  0.98350000  0.48999700  0.16330500  1
  C  C52  1  0.67138500  0.99141800  0.66422000  1
  C  C53  1  0.67367000  0.68122600  0.66374400  1
  C  C54  1  0.67346000  0.83611800  0.50912200  1
  C  C55  1  0.98307700  0.98959400  0.66322100  1
  C  C56  1  0.01660000  0.00870700  0.33640100  1
  C  C57  1  0.32778100  0.16341300  0.49123200  1
  C  C58  1  0.32755800  0.31825400  0.33582800  1
  C  C59  1  0.32869900  0.00918100  0.33625700  1
  C  C60  1  0.01674400  0.50635500  0.83526200  1
  C  C61  1  0.32796000  0.66294000  0.99098500  1
  C  C62  1  0.32822900  0.81828200  0.83623500  1
  C  C63  1  0.33008800  0.50914300  0.83652300  1
  Se  Se64  1  0.99815700  0.00031500  0.00029400  1
  Se  Se65  1  0.98682400  0.51997900  0.50651900  1
  N  N66  1  0.75148900  0.37558500  0.12497500  1
  N  N67  1  0.75030100  0.87455500  0.62508400  1
  N  N68  1  0.24995200  0.12508100  0.37499300  1
  N  N69  1  0.25066600  0.62442900  0.87482700  1
  O  O70  1  0.24182300  0.18180500  0.06085100  1
  O  O71  1  0.07601400  0.39020700  0.46281000  1
  O  O72  1  0.87700900  0.91377900  0.08832900  1
  O  O73  1  0.84112900  0.56563300  0.40689600  1
  O  O74  1  0.18540700  0.73546900  0.57845800  1
  O  O75  1  0.99889100  0.81736300  0.93964800  1
  O  O76  1  0.84107100  0.39239800  0.57875900  1
  O  O77  1  0.87673300  0.08825100  0.91276300  1
