# generated using pymatgen
data_NaLaH2S2O9
_symmetry_space_group_name_H-M   'P 1'
_cell_length_a   7.20262592
_cell_length_b   7.20262592
_cell_length_c   12.81594900
_cell_angle_alpha   90.00000000
_cell_angle_beta   90.00000000
_cell_angle_gamma   119.99999928
_symmetry_Int_Tables_number   1
_chemical_formula_structural   NaLaH2S2O9
_chemical_formula_sum   'Na3 La3 H6 S6 O27'
_cell_volume   575.78868310
_cell_formula_units_Z   3
loop_
 _symmetry_equiv_pos_site_id
 _symmetry_equiv_pos_as_xyz
  1  'x, y, z'
loop_
 _atom_site_type_symbol
 _atom_site_label
 _atom_site_symmetry_multiplicity
 _atom_site_fract_x
 _atom_site_fract_y
 _atom_site_fract_z
 _atom_site_occupancy
  Na  Na0  1  0.47558400  0.99740200  0.83243800  1
  Na  Na1  1  0.52181800  0.52441600  0.49910500  1
  Na  Na2  1  0.00259800  0.47818200  0.16577100  1
  La  La3  1  0.56117300  0.55921400  0.99901000  1
  La  La4  1  0.44078600  0.00195900  0.33234300  1
  La  La5  1  0.99804100  0.43882700  0.66567600  1
  H  H6  1  0.03787000  0.94145500  0.03808600  1
  H  H7  1  0.05854500  0.09641500  0.37142000  1
  H  H8  1  0.09199300  0.05880400  0.62208300  1
  H  H9  1  0.90358500  0.96213000  0.70475300  1
  H  H10  1  0.96681100  0.90800700  0.28875000  1
  H  H11  1  0.94119600  0.03318900  0.95541600  1
  S  S12  1  0.00318300  0.43837600  0.91896200  1
  S  S13  1  0.43519300  0.99681700  0.58562900  1
  S  S14  1  0.56162400  0.56480700  0.25229600  1
  S  S15  1  0.55984400  0.55768100  0.74605000  1
  S  S16  1  0.44231900  0.00216300  0.07938400  1
  S  S17  1  0.99783700  0.44015600  0.41271700  1
  O  O18  1  0.13612300  0.62104000  0.34234900  1
  O  O19  1  0.12035400  0.61891700  0.84365300  1
  O  O20  1  0.24649900  0.87173700  0.14430000  1
  O  O21  1  0.25240500  0.84578600  0.65249700  1
  O  O22  1  0.12826300  0.37476300  0.47763300  1
  O  O23  1  0.15421400  0.40661900  0.98583000  1
  O  O24  1  0.48491700  0.86387700  0.00901500  1
  O  O25  1  0.49856400  0.87964600  0.51032000  1
  O  O26  1  0.09365000  0.00489000  0.32947800  1
  O  O27  1  0.38108300  0.50143600  0.17698600  1
  O  O28  1  0.37896000  0.51508300  0.67568200  1
  O  O29  1  0.59338100  0.74759500  0.31916300  1
  O  O30  1  0.62523700  0.75350100  0.81096700  1
  O  O31  1  0.51856400  0.38375100  0.32268900  1
  O  O32  1  0.49658600  0.37692000  0.82118400  1
  O  O33  1  0.37001100  0.12764500  0.52083300  1
  O  O34  1  0.41011900  0.15290500  0.01248900  1
  O  O35  1  0.75763400  0.62998900  0.18750000  1
  O  O36  1  0.74278700  0.58988100  0.67915500  1
  O  O37  1  0.91124000  0.90635000  0.99614400  1
  O  O38  1  0.61624900  0.13481400  0.65602300  1
  O  O39  1  0.62308000  0.11966600  0.15451700  1
  O  O40  1  0.88033400  0.50341400  0.48785100  1
  O  O41  1  0.86518600  0.48143600  0.98935600  1
  O  O42  1  0.84709500  0.25721300  0.34582200  1
  O  O43  1  0.87235500  0.24236600  0.85416700  1
  O  O44  1  0.99511000  0.08876000  0.66281100  1
