# generated using pymatgen
data_Nd8AlSi3(NO5)3
_symmetry_space_group_name_H-M   'P 1'
_cell_length_a   9.13550800
_cell_length_b   10.23953079
_cell_length_c   11.13280937
_cell_angle_alpha   112.96095276
_cell_angle_beta   89.84490279
_cell_angle_gamma   91.94919320
_symmetry_Int_Tables_number   1
_chemical_formula_structural   Nd8AlSi3(NO5)3
_chemical_formula_sum   'Nd16 Al2 Si6 N6 O30'
_cell_volume   958.27279319
_cell_formula_units_Z   2
loop_
 _symmetry_equiv_pos_site_id
 _symmetry_equiv_pos_as_xyz
  1  'x, y, z'
loop_
 _atom_site_type_symbol
 _atom_site_label
 _atom_site_symmetry_multiplicity
 _atom_site_fract_x
 _atom_site_fract_y
 _atom_site_fract_z
 _atom_site_occupancy
  Nd  Nd0  1  0.69762800  0.93502500  0.11062100  1
  Nd  Nd1  1  0.87408100  0.96484100  0.63483100  1
  Nd  Nd2  1  0.42460000  0.83972200  0.34642100  1
  Nd  Nd3  1  0.89358000  0.58985800  0.02498500  1
  Nd  Nd4  1  0.06552200  0.70884400  0.80304700  1
  Nd  Nd5  1  0.57897500  0.68491600  0.56545200  1
  Nd  Nd6  1  0.05280100  0.59933600  0.41846300  1
  Nd  Nd7  1  0.60234900  0.41835800  0.15672700  1
  Nd  Nd8  1  0.37186200  0.67772500  0.00603800  1
  Nd  Nd9  1  0.93675900  0.32916500  0.59578700  1
  Nd  Nd10  1  0.42892000  0.25764100  0.44880200  1
  Nd  Nd11  1  0.98435500  0.20856500  0.13601100  1
  Nd  Nd12  1  0.21063200  0.33986100  0.90462000  1
  Nd  Nd13  1  0.58134600  0.34913700  0.77767500  1
  Nd  Nd14  1  0.05241700  0.96092600  0.30783800  1
  Nd  Nd15  1  0.44788100  0.05826900  0.86309500  1
  Al  Al16  1  0.24257000  0.99073500  0.08575400  1
  Al  Al17  1  0.74826800  0.74643900  0.35272100  1
  Si  Si18  1  0.21967000  0.87708500  0.59062400  1
  Si  Si19  1  0.30438100  0.31642500  0.18992800  1
  Si  Si20  1  0.72783400  0.64960000  0.80872900  1
  Si  Si21  1  0.22246300  0.17915400  0.63314700  1
  Si  Si22  1  0.69485300  0.06685200  0.45555700  1
  Si  Si23  1  0.77876100  0.18514000  0.93112500  1
  N  N24  1  0.65147400  0.91151100  0.47031200  1
  N  N25  1  0.84321700  0.76210400  0.93727600  1
  N  N26  1  0.24432600  0.16749800  0.05580600  1
  N  N27  1  0.33240000  0.32736100  0.70777100  1
  N  N28  1  0.30208500  0.04027500  0.65778500  1
  N  N29  1  0.68236100  0.10620700  0.77890000  1
  O  O30  1  0.86029400  0.77942700  0.23280100  1
  O  O31  1  0.59979000  0.07264400  0.33134900  1
  O  O32  1  0.66477400  0.94902100  0.75749100  1
  O  O33  1  0.08446400  0.84986200  0.68003400  1
  O  O34  1  0.13370500  0.84924000  0.44826100  1
  O  O35  1  0.33543400  0.74769600  0.54396900  1
  O  O36  1  0.54500400  0.77665100  0.15661400  1
  O  O37  1  0.58609900  0.63356500  0.32813500  1
  O  O38  1  0.41236500  0.90389700  0.98304500  1
  O  O39  1  0.34551200  0.81128200  0.85046700  1
  O  O40  1  0.83767200  0.72284700  0.48868900  1
  O  O41  1  0.33162300  0.50137400  0.12082300  1
  O  O42  1  0.82370200  0.48811900  0.77542900  1
  O  O43  1  0.87221700  0.52737000  0.22832400  1
  O  O44  1  0.26495600  0.63710400  0.20876700  1
  O  O45  1  0.83306800  0.40131000  0.26181900  1
  O  O46  1  0.04455800  0.52746400  0.58759600  1
  O  O47  1  0.52751800  0.46425400  0.52026700  1
  O  O48  1  0.12288500  0.56430100  0.93273700  1
  O  O49  1  0.15561100  0.38295700  0.27529600  1
  O  O50  1  0.57944100  0.59908200  0.88155600  1
  O  O51  1  0.17834200  0.16785200  0.48434800  1
  O  O52  1  0.75621100  0.36267500  0.96642600  1
  O  O53  1  0.66703200  0.14675500  0.03959400  1
  O  O54  1  0.45298400  0.30769200  0.94316000  1
  O  O55  1  0.66022300  0.22872800  0.56565300  1
  O  O56  1  0.87837900  0.07748300  0.47428000  1
  O  O57  1  0.89362500  0.07300600  0.22444500  1
  O  O58  1  0.29862900  0.99115400  0.24207300  1
  O  O59  1  0.05551400  0.20662000  0.71070100  1
