# generated using pymatgen
data_Na10Zr6Si7(PO18)2
_symmetry_space_group_name_H-M   'P 1'
_cell_length_a   9.24408500
_cell_length_b   9.33635699
_cell_length_c   22.75738748
_cell_angle_alpha   90.88742818
_cell_angle_beta   89.95188465
_cell_angle_gamma   119.61100677
_symmetry_Int_Tables_number   1
_chemical_formula_structural   Na10Zr6Si7(PO18)2
_chemical_formula_sum   'Na20 Zr12 Si14 P4 O72'
_cell_volume   1707.33207364
_cell_formula_units_Z   2
loop_
 _symmetry_equiv_pos_site_id
 _symmetry_equiv_pos_as_xyz
  1  'x, y, z'
loop_
 _atom_site_type_symbol
 _atom_site_label
 _atom_site_symmetry_multiplicity
 _atom_site_fract_x
 _atom_site_fract_y
 _atom_site_fract_z
 _atom_site_occupancy
  Na  Na0  1  0.55257100  0.75396400  0.05211400  1
  Na  Na1  1  0.47850500  0.79000300  0.22659400  1
  Na  Na2  1  0.11280300  0.84139400  0.13497100  1
  Na  Na3  1  0.53018700  0.43318400  0.21463800  1
  Na  Na4  1  0.04971400  0.50083100  0.29816400  1
  Na  Na5  1  0.11707100  0.46396200  0.09172100  1
  Na  Na6  1  0.26908300  0.15400800  0.36947300  1
  Na  Na7  1  0.98334800  0.03132500  0.02483200  1
  Na  Na8  1  0.80183100  0.25084000  0.44772900  1
  Na  Na9  1  0.02113100  0.01493400  0.50169400  1
  Na  Na10  1  0.21243200  0.78426400  0.53316900  1
  Na  Na11  1  0.74408600  0.86251500  0.62760200  1
  Na  Na12  1  0.68917500  0.61859000  0.41432600  1
  Na  Na13  1  0.89824400  0.45158100  0.70402400  1
  Na  Na14  1  0.44633100  0.52249800  0.80121200  1
  Na  Na15  1  0.71212200  0.37040700  0.85739400  1
  Na  Na16  1  0.87014400  0.10550700  0.87793800  1
  Na  Na17  1  0.41160100  0.18852000  0.97128200  1
  Na  Na18  1  0.39256000  0.08707300  0.74537500  1
  Na  Na19  1  0.32313700  0.68702400  0.68351300  1
  Zr  Zr20  1  0.80189900  0.61058300  0.04418500  1
  Zr  Zr21  1  0.52670500  0.05494700  0.11587500  1
  Zr  Zr22  1  0.47340900  0.95061200  0.38013200  1
  Zr  Zr23  1  0.19460500  0.39006300  0.45318700  1
  Zr  Zr24  1  0.13468200  0.27034300  0.21592300  1
  Zr  Zr25  1  0.14132100  0.28079600  0.71012400  1
  Zr  Zr26  1  0.86293500  0.73138700  0.28460700  1
  Zr  Zr27  1  0.86579900  0.72025300  0.78639400  1
  Zr  Zr28  1  0.80435500  0.60578000  0.55004700  1
  Zr  Zr29  1  0.52892100  0.06726500  0.61616300  1
  Zr  Zr30  1  0.46286600  0.93443600  0.88202900  1
  Zr  Zr31  1  0.19595700  0.39761200  0.95082200  1
  Si  Si32  1  0.80129000  0.89926500  0.15515400  1
  Si  Si33  1  0.28685000  0.99891800  0.24802100  1
  Si  Si34  1  0.23271800  0.77366500  0.01143600  1
  Si  Si35  1  0.42643400  0.56552600  0.32173200  1
  Si  Si36  1  0.37236400  0.33460200  0.08314700  1
  Si  Si37  1  0.46511200  0.23410300  0.48817300  1
  Si  Si38  1  0.95692700  0.32794700  0.58279800  1
  Si  Si39  1  0.90621600  0.10048500  0.34748100  1
  Si  Si40  1  0.09648700  0.88989900  0.65515200  1
  Si  Si41  1  0.04650500  0.67311900  0.41801000  1
  Si  Si42  1  0.13231500  0.56503800  0.81966400  1
  Si  Si43  1  0.62515400  0.66814000  0.91672800  1
  Si  Si44  1  0.57137900  0.44350400  0.68119600  1
  Si  Si45  1  0.76026500  0.22515600  0.98611700  1
  P  P46  1  0.85871000  0.43622900  0.17728300  1
  P  P47  1  0.53193100  0.77175400  0.51355400  1
  P  P48  1  0.70955800  0.00244700  0.75049200  1
  P  P49  1  0.20276700  0.10786200  0.84527500  1
  O  O50  1  0.70129600  0.27292600  0.16133600  1
  O  O51  1  0.66737800  0.09808400  0.03918400  1
  O  O52  1  0.83936500  0.82070600  0.09562500  1
  O  O53  1  0.39593100  0.17287000  0.08916300  1
  O  O54  1  0.63567300  0.91557500  0.14274200  1
  O  O55  1  0.75687800  0.78203100  0.21263800  1
  O  O56  1  0.38330300  0.02096200  0.31050100  1
  O  O57  1  0.38139100  0.96774000  0.19250600  1
  O  O58  1  0.34275900  0.83914000  0.07226500  1
  O  O59  1  0.43838300  0.74478400  0.33324400  1
  O  O60  1  0.61149500  0.58383000  0.31319800  1
  O  O61  1  0.55459900  0.49780400  0.07178900  1
  O  O62  1  0.09842700  0.83877700  0.24762900  1
  O  O63  1  0.37803100  0.60002700  0.50179600  1
  O  O64  1  0.05380400  0.76029100  0.02398600  1
  O  O65  1  0.22059900  0.59237500  0.99940300  1
  O  O66  1  0.31845700  0.49543200  0.26020600  1
  O  O67  1  0.34268400  0.44821300  0.37882100  1
  O  O68  1  0.28793300  0.37512900  0.13965200  1
  O  O69  1  0.51293500  0.16168000  0.43036000  1
  O  O70  1  0.24848200  0.29484900  0.02499000  1
  O  O71  1  0.05789600  0.50551000  0.43150900  1
  O  O72  1  0.29253000  0.23674700  0.47708800  1
  O  O73  1  0.43811300  0.11659500  0.54543900  1
  O  O74  1  0.90779600  0.55314800  0.12341700  1
  O  O75  1  0.01159400  0.41456400  0.18978000  1
  O  O76  1  0.27795200  0.16914600  0.23977500  1
  O  O77  1  0.07611500  0.37751600  0.64184600  1
  O  O78  1  0.82042400  0.50899500  0.23254200  1
  O  O79  1  0.03159500  0.28238600  0.52572200  1
  O  O80  1  0.99816400  0.22258100  0.29232700  1
  O  O81  1  0.01778500  0.17854300  0.40822500  1
  O  O82  1  0.11864000  0.06994100  0.67548700  1
  O  O83  1  0.28218800  0.90510600  0.65009500  1
  O  O84  1  0.96882700  0.07677700  0.16597900  1
  O  O85  1  0.23392900  0.83132200  0.41904800  1
  O  O86  1  0.77534800  0.16760300  0.59794900  1
  O  O87  1  0.05322800  0.93696100  0.82894500  1
  O  O88  1  0.72385200  0.08109800  0.35914000  1
  O  O89  1  0.90147700  0.92457700  0.33596600  1
  O  O90  1  0.99557200  0.83419700  0.59204100  1
  O  O91  1  0.99439600  0.75894200  0.70747700  1
  O  O92  1  0.94589800  0.70626900  0.47277600  1
  O  O93  1  0.16825100  0.49117300  0.75869400  1
  O  O94  1  0.94043700  0.63856500  0.35663600  1
  O  O95  1  0.73434000  0.85437400  0.76576400  1
  O  O96  1  0.95874200  0.56994900  0.81126800  1
  O  O97  1  0.10846700  0.44543500  0.87463600  1
  O  O98  1  0.56318400  0.88449600  0.46150400  1
  O  O99  1  0.69241200  0.76126900  0.52534000  1
  O  O100  1  0.93291300  0.48921700  0.57175200  1
  O  O101  1  0.73684200  0.71702600  0.97661600  1
  O  O102  1  0.49253700  0.83929500  0.57173400  1
  O  O103  1  0.71081700  0.62824400  0.86031700  1
  O  O104  1  0.66971100  0.56764000  0.62793800  1
  O  O105  1  0.67310400  0.50910000  0.74436900  1
  O  O106  1  0.77389000  0.40410200  0.00118400  1
  O  O107  1  0.94176000  0.23593600  0.97470300  1
  O  O108  1  0.62383600  0.41957000  0.50076600  1
  O  O109  1  0.88062100  0.15538500  0.73796700  1
  O  O110  1  0.44165600  0.50297000  0.92404800  1
  O  O111  1  0.39022500  0.42988900  0.69258300  1
  O  O112  1  0.55794100  0.26178500  0.66918600  1
  O  O113  1  0.65165100  0.16080200  0.92340400  1
  O  O114  1  0.63006500  0.04870100  0.80252700  1
  O  O115  1  0.59179300  0.95170600  0.69581400  1
  O  O116  1  0.23360400  0.22732300  0.79400700  1
  O  O117  1  0.36638400  0.10006000  0.85203500  1
  O  O118  1  0.60033400  0.82676000  0.90082900  1
  O  O119  1  0.16136100  0.16741400  0.90337900  1
  O  O120  1  0.32317600  0.89236400  0.95507000  1
  O  O121  1  0.29384400  0.74910200  0.82922300  1
