# generated using pymatgen
data_CsFe(MoO4)2
_symmetry_space_group_name_H-M   'P 1'
_cell_length_a   5.69987002
_cell_length_b   5.69982313
_cell_length_c   8.33991600
_cell_angle_alpha   90.00029006
_cell_angle_beta   90.00304383
_cell_angle_gamma   119.99990220
_symmetry_Int_Tables_number   1
_chemical_formula_structural   CsFe(MoO4)2
_chemical_formula_sum   'Cs1 Fe1 Mo2 O8'
_cell_volume   234.64919421
_cell_formula_units_Z   1
loop_
 _symmetry_equiv_pos_site_id
 _symmetry_equiv_pos_as_xyz
  1  'x, y, z'
loop_
 _atom_site_type_symbol
 _atom_site_label
 _atom_site_symmetry_multiplicity
 _atom_site_fract_x
 _atom_site_fract_y
 _atom_site_fract_z
 _atom_site_occupancy
  Cs  Cs0  1  0.00000000  0.00000000  0.50000000  1
  Fe  Fe1  1  0.00000000  0.00000000  0.00000000  1
  Mo  Mo2  1  0.33336600  0.66668300  0.20723600  1
  Mo  Mo3  1  0.66663400  0.33331700  0.79276400  1
  O  O4  1  0.33339400  0.66669800  0.41726400  1
  O  O5  1  0.66660600  0.33330200  0.58273600  1
  O  O6  1  0.10152800  0.32366800  0.14270800  1
  O  O7  1  0.67633800  0.77785500  0.14270400  1
  O  O8  1  0.22215600  0.89848600  0.14270700  1
  O  O9  1  0.89847200  0.67633200  0.85729200  1
  O  O10  1  0.32366200  0.22214500  0.85729600  1
  O  O11  1  0.77784400  0.10151400  0.85729300  1
