# generated using pymatgen
data_LaAl2Si5N9O
_symmetry_space_group_name_H-M   'P 1'
_cell_length_a   9.41431700
_cell_length_b   9.16313800
_cell_length_c   9.83465775
_cell_angle_alpha   89.87407879
_cell_angle_beta   90.00000000
_cell_angle_gamma   90.00000000
_symmetry_Int_Tables_number   1
_chemical_formula_structural   LaAl2Si5N9O
_chemical_formula_sum   'La4 Al8 Si20 N36 O4'
_cell_volume   848.38161243
_cell_formula_units_Z   4
loop_
 _symmetry_equiv_pos_site_id
 _symmetry_equiv_pos_as_xyz
  1  'x, y, z'
loop_
 _atom_site_type_symbol
 _atom_site_label
 _atom_site_symmetry_multiplicity
 _atom_site_fract_x
 _atom_site_fract_y
 _atom_site_fract_z
 _atom_site_occupancy
  La  La0  1  0.62285300  0.15580800  0.38554700  1
  La  La1  1  0.37714700  0.15580800  0.88554700  1
  La  La2  1  0.86934700  0.35378600  0.39380100  1
  La  La3  1  0.13065300  0.35378600  0.89380100  1
  Al  Al4  1  0.16753500  0.93652800  0.68067700  1
  Al  Al5  1  0.83246500  0.93652800  0.18067700  1
  Al  Al6  1  0.75176600  0.75058900  0.90989100  1
  Al  Al7  1  0.24823400  0.75058900  0.40989100  1
  Al  Al8  1  0.25206100  0.24844700  0.56576300  1
  Al  Al9  1  0.74793900  0.24844700  0.06576300  1
  Al  Al10  1  0.51822700  0.99570300  0.09629900  1
  Al  Al11  1  0.48177300  0.99570300  0.59629900  1
  Si  Si12  1  0.01587300  0.98035900  0.42122000  1
  Si  Si13  1  0.98412700  0.98035900  0.92122000  1
  Si  Si14  1  0.45843600  0.81772800  0.83846200  1
  Si  Si15  1  0.54156400  0.81772800  0.33846200  1
  Si  Si16  1  0.04480200  0.67626000  0.84347100  1
  Si  Si17  1  0.95519800  0.67626000  0.34347100  1
  Si  Si18  1  0.32663800  0.56054000  0.67722500  1
  Si  Si19  1  0.67336200  0.56054000  0.17722500  1
  Si  Si20  1  0.48335600  0.51574800  0.41832100  1
  Si  Si21  1  0.51664400  0.51574800  0.91832100  1
  Si  Si22  1  0.02943600  0.49815100  0.59307600  1
  Si  Si23  1  0.97056400  0.49815100  0.09307600  1
  Si  Si24  1  0.18276600  0.45274500  0.31839700  1
  Si  Si25  1  0.81723400  0.45274500  0.81839700  1
  Si  Si26  1  0.55354800  0.33626100  0.66523100  1
  Si  Si27  1  0.44645200  0.33626100  0.16523100  1
  Si  Si28  1  0.04318800  0.16745100  0.16703900  1
  Si  Si29  1  0.95681200  0.16745100  0.66703900  1
  Si  Si30  1  0.68952400  0.05169800  0.82024600  1
  Si  Si31  1  0.31047600  0.05169800  0.32024600  1
  N  N32  1  0.13746600  0.87713800  0.50986300  1
  N  N33  1  0.86253400  0.87713800  0.00986300  1
  N  N34  1  0.37120900  0.87093700  0.30355500  1
  N  N35  1  0.62879100  0.87093700  0.80355500  1
  N  N36  1  0.08617200  0.85682800  0.83039400  1
  N  N37  1  0.91382800  0.85682800  0.33039400  1
  N  N38  1  0.58322300  0.63793000  0.31697400  1
  N  N39  1  0.41677700  0.63793000  0.81697400  1
  N  N40  1  0.13186000  0.63190000  0.30613300  1
  N  N41  1  0.86814000  0.63190000  0.80613300  1
  N  N42  1  0.62684800  0.62599400  0.01767900  1
  N  N43  1  0.37315200  0.62599400  0.51767900  1
  N  N44  1  0.08705800  0.58210300  0.98844400  1
  N  N45  1  0.91294200  0.58210300  0.48844400  1
  N  N46  1  0.14369900  0.57925300  0.71042100  1
  N  N47  1  0.85630100  0.57925300  0.21042100  1
  N  N48  1  0.63433600  0.42462400  0.80161800  1
  N  N49  1  0.36566400  0.42462400  0.30161800  1
  N  N50  1  0.59389300  0.38954700  0.50117800  1
  N  N51  1  0.40610700  0.38954700  0.00117800  1
  N  N52  1  0.13168100  0.38404700  0.48113300  1
  N  N53  1  0.86831900  0.38404700  0.98113300  1
  N  N54  1  0.63203400  0.36927500  0.18974100  1
  N  N55  1  0.36796600  0.36927500  0.68974100  1
  N  N56  1  0.07468500  0.36229000  0.18978700  1
  N  N57  1  0.92531500  0.36229000  0.68978700  1
  N  N58  1  0.58365900  0.14415900  0.68995500  1
  N  N59  1  0.41634100  0.14415900  0.18995500  1
  N  N60  1  0.14200100  0.14261000  0.69536100  1
  N  N61  1  0.85799900  0.14261000  0.19536100  1
  N  N62  1  0.62489900  0.11720100  0.97712900  1
  N  N63  1  0.37510100  0.11720100  0.47712900  1
  N  N64  1  0.09039800  0.11126700  0.00600700  1
  N  N65  1  0.90960200  0.11126700  0.50600700  1
  N  N66  1  0.12931500  0.07949000  0.30162200  1
  N  N67  1  0.87068500  0.07949000  0.80162200  1
  O  O68  1  0.63687900  0.91320000  0.21685800  1
  O  O69  1  0.36312100  0.91320000  0.71685800  1
  O  O70  1  0.59319700  0.90240400  0.47928100  1
  O  O71  1  0.40680300  0.90240400  0.97928100  1
