# generated using pymatgen
data_Yb2Ce8O19
_symmetry_space_group_name_H-M   'P 1'
_cell_length_a   3.86298600
_cell_length_b   3.86298600
_cell_length_c   27.04122400
_cell_angle_alpha   90.00000000
_cell_angle_beta   90.00000000
_cell_angle_gamma   90.00000000
_symmetry_Int_Tables_number   1
_chemical_formula_structural   Yb2Ce8O19
_chemical_formula_sum   'Yb2 Ce8 O19'
_cell_volume   403.52701435
_cell_formula_units_Z   1
loop_
 _symmetry_equiv_pos_site_id
 _symmetry_equiv_pos_as_xyz
  1  'x, y, z'
loop_
 _atom_site_type_symbol
 _atom_site_label
 _atom_site_symmetry_multiplicity
 _atom_site_fract_x
 _atom_site_fract_y
 _atom_site_fract_z
 _atom_site_occupancy
  Yb  Yb0  1  0.00000000  0.50000000  0.44572800  1
  Yb  Yb1  1  0.50000000  0.00000000  0.55427200  1
  Ce  Ce2  1  0.50000000  0.00000000  0.74831400  1
  Ce  Ce3  1  0.00000000  0.50000000  0.64670800  1
  Ce  Ce4  1  0.50000000  0.00000000  0.94966200  1
  Ce  Ce5  1  0.00000000  0.50000000  0.84927400  1
  Ce  Ce6  1  0.00000000  0.50000000  0.05033800  1
  Ce  Ce7  1  0.50000000  0.00000000  0.15072600  1
  Ce  Ce8  1  0.50000000  0.00000000  0.35329200  1
  Ce  Ce9  1  0.00000000  0.50000000  0.25168600  1
  O  O10  1  0.00000000  0.00000000  0.69868900  1
  O  O11  1  0.50000000  0.50000000  0.79932100  1
  O  O12  1  0.00000000  0.00000000  0.89980300  1
  O  O13  1  0.50000000  0.50000000  0.00000000  1
  O  O14  1  0.00000000  0.00000000  0.10019700  1
  O  O15  1  0.50000000  0.50000000  0.20067900  1
  O  O16  1  0.00000000  0.00000000  0.20031900  1
  O  O17  1  0.00000000  0.00000000  0.30131100  1
  O  O18  1  0.50000000  0.50000000  0.30063100  1
  O  O19  1  0.50000000  0.50000000  0.40008600  1
  O  O20  1  0.00000000  0.00000000  0.40296300  1
  O  O21  1  0.50000000  0.50000000  0.50000000  1
  O  O22  1  0.50000000  0.50000000  0.59991400  1
  O  O23  1  0.00000000  0.00000000  0.59703700  1
  O  O24  1  0.50000000  0.50000000  0.69936900  1
  O  O25  1  0.00000000  0.00000000  0.79968100  1
  O  O26  1  0.50000000  0.50000000  0.89957900  1
  O  O27  1  0.00000000  0.00000000  0.00000000  1
  O  O28  1  0.50000000  0.50000000  0.10042100  1
