# generated using pymatgen
data_KMgP2H5O9
_symmetry_space_group_name_H-M   'P 1'
_cell_length_a   8.73999700
_cell_length_b   9.07057200
_cell_length_c   9.66211600
_cell_angle_alpha   90.00000000
_cell_angle_beta   90.00000000
_cell_angle_gamma   90.00000000
_symmetry_Int_Tables_number   1
_chemical_formula_structural   KMgP2H5O9
_chemical_formula_sum   'K4 Mg4 P8 H20 O36'
_cell_volume   765.98136783
_cell_formula_units_Z   4
loop_
 _symmetry_equiv_pos_site_id
 _symmetry_equiv_pos_as_xyz
  1  'x, y, z'
loop_
 _atom_site_type_symbol
 _atom_site_label
 _atom_site_symmetry_multiplicity
 _atom_site_fract_x
 _atom_site_fract_y
 _atom_site_fract_z
 _atom_site_occupancy
  K  K0  1  0.28835600  0.75539500  0.91238300  1
  K  K1  1  0.28835600  0.74460500  0.41238300  1
  K  K2  1  0.78835600  0.25539500  0.58761700  1
  K  K3  1  0.78835600  0.24460500  0.08761700  1
  Mg  Mg4  1  0.32609200  0.07018000  0.65076700  1
  Mg  Mg5  1  0.32609200  0.42982000  0.15076700  1
  Mg  Mg6  1  0.82609200  0.57018000  0.84923300  1
  Mg  Mg7  1  0.82609200  0.92982000  0.34923300  1
  P  P8  1  0.81739600  0.92396300  0.82150500  1
  P  P9  1  0.52501600  0.14920700  0.85132800  1
  P  P10  1  0.81739600  0.57603700  0.32150500  1
  P  P11  1  0.52501600  0.35079300  0.35132800  1
  P  P12  1  0.31739600  0.42396300  0.67849500  1
  P  P13  1  0.02501600  0.64920700  0.64867200  1
  P  P14  1  0.31739600  0.07603700  0.17849500  1
  P  P15  1  0.02501600  0.85079300  0.14867200  1
  H  H16  1  0.57863300  0.41361100  0.91280600  1
  H  H17  1  0.00824300  0.09935400  0.29964800  1
  H  H18  1  0.07180700  0.44608400  0.98593200  1
  H  H19  1  0.80530600  0.80320800  0.62259300  1
  H  H20  1  0.48223100  0.70316100  0.64956900  1
  H  H21  1  0.80530600  0.69679200  0.12259300  1
  H  H22  1  0.48223100  0.79683900  0.14956900  1
  H  H23  1  0.07180700  0.05391600  0.48593200  1
  H  H24  1  0.00824300  0.40064600  0.79964800  1
  H  H25  1  0.57863300  0.08638900  0.41280600  1
  H  H26  1  0.07863300  0.91361100  0.58719400  1
  H  H27  1  0.57180700  0.94608400  0.51406800  1
  H  H28  1  0.50824300  0.59935400  0.20035200  1
  H  H29  1  0.30530600  0.30320800  0.87740700  1
  H  H30  1  0.98223100  0.20316100  0.85043100  1
  H  H31  1  0.30530600  0.19679200  0.37740700  1
  H  H32  1  0.98223100  0.29683900  0.35043100  1
  H  H33  1  0.50824300  0.90064600  0.70035200  1
  H  H34  1  0.57180700  0.55391600  0.01406800  1
  H  H35  1  0.07863300  0.58638900  0.08719400  1
  O  O36  1  0.02791200  0.81539000  0.30616200  1
  O  O37  1  0.82142000  0.90495300  0.65588900  1
  O  O38  1  0.89208400  0.53332100  0.64018400  1
  O  O39  1  0.49170300  0.47873700  0.64181900  1
  O  O40  1  0.22017500  0.56051600  0.64667500  1
  O  O41  1  0.45393300  0.87788600  0.61436800  1
  O  O42  1  0.14350900  0.99254400  0.55016600  1
  O  O43  1  0.51655000  0.87949000  0.21555100  1
  O  O44  1  0.76363400  0.71415500  0.39180100  1
  O  O45  1  0.76363400  0.78584500  0.89180100  1
  O  O46  1  0.51655000  0.62051000  0.71555100  1
  O  O47  1  0.14350900  0.50745600  0.05016600  1
  O  O48  1  0.45393300  0.62211400  0.11436800  1
  O  O49  1  0.22017500  0.93948400  0.14667500  1
  O  O50  1  0.89208400  0.96667900  0.14018400  1
  O  O51  1  0.49170300  0.02126300  0.14181900  1
  O  O52  1  0.02791200  0.68461000  0.80616200  1
  O  O53  1  0.82142000  0.59504700  0.15588900  1
  O  O54  1  0.52791200  0.31539000  0.19383800  1
  O  O55  1  0.32142000  0.40495300  0.84411100  1
  O  O56  1  0.39208400  0.03332100  0.85981600  1
  O  O57  1  0.99170300  0.97873700  0.85818100  1
  O  O58  1  0.72017500  0.06051600  0.85332500  1
  O  O59  1  0.64350900  0.49254400  0.94983400  1
  O  O60  1  0.95393300  0.37788600  0.88563200  1
  O  O61  1  0.01655000  0.37949000  0.28444900  1
  O  O62  1  0.26363400  0.21415500  0.10819900  1
  O  O63  1  0.26363400  0.28584500  0.60819900  1
  O  O64  1  0.01655000  0.12051000  0.78444900  1
  O  O65  1  0.95393300  0.12211400  0.38563200  1
  O  O66  1  0.64350900  0.00745600  0.44983400  1
  O  O67  1  0.72017500  0.43948400  0.35332500  1
  O  O68  1  0.39208400  0.46667900  0.35981600  1
  O  O69  1  0.99170300  0.52126300  0.35818100  1
  O  O70  1  0.52791200  0.18461000  0.69383800  1
  O  O71  1  0.32142000  0.09504700  0.34411100  1
