# generated using pymatgen
data_Ca2MgSi2O7
_symmetry_space_group_name_H-M   'P 1'
_cell_length_a   7.82995400
_cell_length_b   7.82995400
_cell_length_c   4.87087200
_cell_angle_alpha   90.00000000
_cell_angle_beta   90.00000000
_cell_angle_gamma   90.00000000
_symmetry_Int_Tables_number   1
_chemical_formula_structural   Ca2MgSi2O7
_chemical_formula_sum   'Ca4 Mg2 Si4 O14'
_cell_volume   298.62429559
_cell_formula_units_Z   2
loop_
 _symmetry_equiv_pos_site_id
 _symmetry_equiv_pos_as_xyz
  1  'x, y, z'
loop_
 _atom_site_type_symbol
 _atom_site_label
 _atom_site_symmetry_multiplicity
 _atom_site_fract_x
 _atom_site_fract_y
 _atom_site_fract_z
 _atom_site_occupancy
  Ca  Ca0  1  0.65310900  0.84689100  0.48406900  1
  Ca  Ca1  1  0.34689100  0.15310900  0.48406900  1
  Ca  Ca2  1  0.15310900  0.65310900  0.51593100  1
  Ca  Ca3  1  0.84689100  0.34689100  0.51593100  1
  Mg  Mg4  1  0.00000000  0.00000000  0.50000000  1
  Mg  Mg5  1  0.50000000  0.50000000  0.50000000  1
  Si  Si6  1  0.85296700  0.64703300  0.09358300  1
  Si  Si7  1  0.14703300  0.35296700  0.09358300  1
  Si  Si8  1  0.64703300  0.14703300  0.90641700  1
  Si  Si9  1  0.35296700  0.85296700  0.90641700  1
  O  O10  1  0.08038200  0.18302600  0.25809600  1
  O  O11  1  0.91961800  0.81697400  0.25809600  1
  O  O12  1  0.68302600  0.58038200  0.25809600  1
  O  O13  1  0.31697400  0.41961800  0.25809600  1
  O  O14  1  0.85185300  0.64814700  0.76305000  1
  O  O15  1  0.14814700  0.35185300  0.76305000  1
  O  O16  1  0.50000000  0.00000000  0.81042300  1
  O  O17  1  0.00000000  0.50000000  0.18957700  1
  O  O18  1  0.35185300  0.85185300  0.23695000  1
  O  O19  1  0.64814700  0.14814700  0.23695000  1
  O  O20  1  0.81697400  0.08038200  0.74190400  1
  O  O21  1  0.18302600  0.91961800  0.74190400  1
  O  O22  1  0.41961800  0.68302600  0.74190400  1
  O  O23  1  0.58038200  0.31697400  0.74190400  1
