# generated using pymatgen
data_Na2Al2Si3(HO3)4
_symmetry_space_group_name_H-M   'P 1'
_cell_length_a   8.72228100
_cell_length_b   8.79937460
_cell_length_c   16.05827210
_cell_angle_alpha   86.70780122
_cell_angle_beta   101.25987532
_cell_angle_gamma   115.90926866
_symmetry_Int_Tables_number   1
_chemical_formula_structural   Na2Al2Si3(HO3)4
_chemical_formula_sum   'Na8 Al8 Si12 H16 O48'
_cell_volume   1086.71967302
_cell_formula_units_Z   4
loop_
 _symmetry_equiv_pos_site_id
 _symmetry_equiv_pos_as_xyz
  1  'x, y, z'
loop_
 _atom_site_type_symbol
 _atom_site_label
 _atom_site_symmetry_multiplicity
 _atom_site_fract_x
 _atom_site_fract_y
 _atom_site_fract_z
 _atom_site_occupancy
  Na  Na0  1  0.39152200  0.47133000  0.84610100  1
  Na  Na1  1  0.33803500  0.97975400  0.82553200  1
  Na  Na2  1  0.62246100  0.96501900  0.73430400  1
  Na  Na3  1  0.42760300  0.36152800  0.46447500  1
  Na  Na4  1  0.07785700  0.82032900  0.30126200  1
  Na  Na5  1  0.54715400  0.95511300  0.29852000  1
  Na  Na6  1  0.80368400  0.47949600  0.49472000  1
  Na  Na7  1  0.96718600  0.48446700  0.05035000  1
  Al  Al8  1  0.72219600  0.38616400  0.82832800  1
  Al  Al9  1  0.04674100  0.30136000  0.56000500  1
  Al  Al10  1  0.32406200  0.65233200  0.64804400  1
  Al  Al11  1  0.53243900  0.31646200  0.08173800  1
  Al  Al12  1  0.13819100  0.17569800  0.03465000  1
  Al  Al13  1  0.31026900  0.47562200  0.16401500  1
  Al  Al14  1  0.56776700  0.78512300  0.50040200  1
  Al  Al15  1  0.52711300  0.67751900  0.04987500  1
  Si  Si16  1  0.95121600  0.05418100  0.86290700  1
  Si  Si17  1  0.09350500  0.05412900  0.45073400  1
  Si  Si18  1  0.75546400  0.95759300  0.95816000  1
  Si  Si19  1  0.42414200  0.18697000  0.67079400  1
  Si  Si20  1  0.35210500  0.13223300  0.19022200  1
  Si  Si21  1  0.72891000  0.37531300  0.28360300  1
  Si  Si22  1  0.80964600  0.84937400  0.42368500  1
  Si  Si23  1  0.04815400  0.90868400  0.63851500  1
  Si  Si24  1  0.91709900  0.74236400  0.74692900  1
  Si  Si25  1  0.09378800  0.63202300  0.88828400  1
  Si  Si26  1  0.68757000  0.69330600  0.23415500  1
  Si  Si27  1  0.16036700  0.61466200  0.45424100  1
  H  H28  1  0.07708000  0.75584300  0.94107800  1
  H  H29  1  0.25458200  0.03740400  0.44683800  1
  H  H30  1  0.89434700  0.36440700  0.28843900  1
  H  H31  1  0.61470600  0.20943100  0.58170700  1
  H  H32  1  0.92993900  0.96749400  0.58501400  1
  H  H33  1  0.08442000  0.36583400  0.72468200  1
  H  H34  1  0.44736400  0.61068200  0.33427100  1
  H  H35  1  0.62415800  0.14762900  0.94193900  1
  H  H36  1  0.40274300  0.34647800  0.67246200  1
  H  H37  1  0.08702800  0.82033300  0.57503500  1
  H  H38  1  0.12701800  0.53487200  0.23017300  1
  H  H39  1  0.86614200  0.95646900  0.10017200  1
  H  H40  1  0.21210900  0.26675100  0.28755800  1
  H  H41  1  0.56940200  0.60651100  0.72863100  1
  H  H42  1  0.14383400  0.35280100  0.05525300  1
  H  H43  1  0.25956900  0.84706900  0.07277700  1
  O  O44  1  0.48678100  0.59756200  0.25040100  1
  O  O45  1  0.05118500  0.72082400  0.43297100  1
  O  O46  1  0.29651100  0.65501400  0.89765300  1
  O  O47  1  0.13538000  0.13417800  0.92884200  1
  O  O48  1  0.14365200  0.45337400  0.64427300  1
  O  O49  1  0.56175300  0.20546100  0.76748500  1
  O  O50  1  0.09071900  0.33571300  0.78887400  1
  O  O51  1  0.48927800  0.65538100  0.73236600  1
  O  O52  1  0.40732600  0.99342300  0.63148300  1
  O  O53  1  0.33169000  0.54984300  0.96771600  1
  O  O54  1  0.03011300  0.42379300  0.47168900  1
  O  O55  1  0.66140800  0.75909700  0.97278800  1
  O  O56  1  0.23618800  0.73180300  0.05737000  1
  O  O57  1  0.25311200  0.64294300  0.36717000  1
  O  O58  1  0.32398300  0.84432800  0.68491100  1
  O  O59  1  0.15991900  0.19778000  0.52765700  1
  O  O60  1  0.60887600  0.02972700  0.95425700  1
  O  O61  1  0.65339400  0.88884200  0.60474300  1
  O  O62  1  0.38347500  0.71499200  0.11222000  1
  O  O63  1  0.26315200  0.25571500  0.19997500  1
  O  O64  1  0.91664800  0.03112400  0.05195000  1
  O  O65  1  0.19847800  0.28863000  0.34597900  1
  O  O66  1  0.34717700  0.67695300  0.53261700  1
  O  O67  1  0.32303300  0.12643300  0.07983100  1
  O  O68  1  0.41350600  0.61636900  0.39369900  1
  O  O69  1  0.58745000  0.31887800  0.91598500  1
  O  O70  1  0.93019800  0.45102500  0.89624700  1
  O  O71  1  0.11214200  0.47054400  0.17888300  1
  O  O72  1  0.71021400  0.68452200  0.48335100  1
  O  O73  1  0.29669600  0.95731800  0.23283000  1
  O  O74  1  0.75189300  0.56437400  0.76255900  1
  O  O75  1  0.67523300  0.93657900  0.42723600  1
  O  O76  1  0.70970400  0.79480700  0.14488100  1
  O  O77  1  0.78465400  0.06431100  0.63210400  1
  O  O78  1  0.21298800  0.06954300  0.69721400  1
  O  O79  1  0.55238300  0.27421100  0.59292300  1
  O  O80  1  0.08934700  0.71320000  0.79390000  1
  O  O81  1  0.47305800  0.47402300  0.09720900  1
  O  O82  1  0.65204600  0.23357000  0.36348300  1
  O  O83  1  0.81544100  0.18246400  0.56442900  1
  O  O84  1  0.91232200  0.89022700  0.80689000  1
  O  O85  1  0.60614500  0.38703400  0.35252800  1
  O  O86  1  0.57556400  0.24804300  0.19309400  1
  O  O87  1  0.67343300  0.37120300  0.00795200  1
  O  O88  1  0.91934300  0.19846700  0.79778500  1
  O  O89  1  0.78079000  0.56409800  0.23595600  1
  O  O90  1  0.79256400  0.81547900  0.31923000  1
  O  O91  1  0.04376600  0.12861900  0.35383300  1
