# generated using pymatgen
data_CdI2
_symmetry_space_group_name_H-M   'P 1'
_cell_length_a   4.34169237
_cell_length_b   4.34169237
_cell_length_c   103.15835900
_cell_angle_alpha   90.00000000
_cell_angle_beta   90.00000000
_cell_angle_gamma   120.00000571
_symmetry_Int_Tables_number   1
_chemical_formula_structural   CdI2
_chemical_formula_sum   'Cd14 I28'
_cell_volume   1684.04281684
_cell_formula_units_Z   14
loop_
 _symmetry_equiv_pos_site_id
 _symmetry_equiv_pos_as_xyz
  1  'x, y, z'
loop_
 _atom_site_type_symbol
 _atom_site_label
 _atom_site_symmetry_multiplicity
 _atom_site_fract_x
 _atom_site_fract_y
 _atom_site_fract_z
 _atom_site_occupancy
  Cd  Cd0  1  0.00000000  0.00000000  0.51784700  1
  Cd  Cd1  1  0.66666700  0.33333300  0.30357600  1
  Cd  Cd2  1  0.66666700  0.33333300  0.94644400  1
  Cd  Cd3  1  0.66666700  0.33333300  0.16071300  1
  Cd  Cd4  1  0.00000000  0.00000000  0.23214800  1
  Cd  Cd5  1  0.00000000  0.00000000  0.66071000  1
  Cd  Cd6  1  0.66666700  0.33333300  0.73214600  1
  Cd  Cd7  1  0.66666700  0.33333300  0.01785100  1
  Cd  Cd8  1  0.66666700  0.33333300  0.80357500  1
  Cd  Cd9  1  0.66666700  0.33333300  0.58928400  1
  Cd  Cd10  1  0.66666700  0.33333300  0.44644100  1
  Cd  Cd11  1  0.00000000  0.00000000  0.08928600  1
  Cd  Cd12  1  0.00000000  0.00000000  0.37499700  1
  Cd  Cd13  1  0.00000000  0.00000000  0.87499600  1
  I  I14  1  0.66666700  0.33333300  0.07253800  1
  I  I15  1  0.00000000  0.00000000  0.92968500  1
  I  I16  1  0.33333300  0.66666700  0.53459300  1
  I  I17  1  0.33333300  0.66666700  0.17746100  1
  I  I18  1  0.33333300  0.66666700  0.10604500  1
  I  I19  1  0.33333300  0.66666700  0.46317800  1
  I  I20  1  0.00000000  0.00000000  0.71538600  1
  I  I21  1  0.00000000  0.00000000  0.28680800  1
  I  I22  1  0.66666700  0.33333300  0.64395200  1
  I  I23  1  0.00000000  0.00000000  0.78680800  1
  I  I24  1  0.33333300  0.66666700  0.32032500  1
  I  I25  1  0.33333300  0.66666700  0.60604400  1
  I  I26  1  0.00000000  0.00000000  0.14395600  1
  I  I27  1  0.33333300  0.66666700  0.82032200  1
  I  I28  1  0.33333300  0.66666700  0.96318000  1
  I  I29  1  0.00000000  0.00000000  0.00112500  1
  I  I30  1  0.66666700  0.33333300  0.85825800  1
  I  I31  1  0.33333300  0.66666700  0.67745700  1
  I  I32  1  0.66666700  0.33333300  0.21540200  1
  I  I33  1  0.33333300  0.66666700  0.03460400  1
  I  I34  1  0.33333300  0.66666700  0.89173800  1
  I  I35  1  0.33333300  0.66666700  0.24890400  1
  I  I36  1  0.66666700  0.33333300  0.35825800  1
  I  I37  1  0.33333300  0.66666700  0.39173800  1
  I  I38  1  0.66666700  0.33333300  0.50109400  1
  I  I39  1  0.00000000  0.00000000  0.57254600  1
  I  I40  1  0.00000000  0.00000000  0.42968200  1
  I  I41  1  0.33333300  0.66666700  0.74889800  1
