# generated using pymatgen
data_Bi24Ru3Br20
_symmetry_space_group_name_H-M   'P 1'
_cell_length_a   14.18413685
_cell_length_b   14.18239397
_cell_length_c   33.16762697
_cell_angle_alpha   90.00000000
_cell_angle_beta   90.00000000
_cell_angle_gamma   90.00000000
_symmetry_Int_Tables_number   1
_chemical_formula_structural   Bi24Ru3Br20
_chemical_formula_sum   'Bi96 Ru12 Br80'
_cell_volume   6672.16624098
_cell_formula_units_Z   4
loop_
 _symmetry_equiv_pos_site_id
 _symmetry_equiv_pos_as_xyz
  1  'x, y, z'
loop_
 _atom_site_type_symbol
 _atom_site_label
 _atom_site_symmetry_multiplicity
 _atom_site_fract_x
 _atom_site_fract_y
 _atom_site_fract_z
 _atom_site_occupancy
  Bi  Bi0  1  0.09029999  0.84592959  0.74958989  1
  Bi  Bi1  1  0.29999774  0.39817900  0.63987092  1
  Bi  Bi2  1  0.84640316  0.09018017  0.24946332  1
  Bi  Bi3  1  0.59054026  0.15375544  0.25046472  1
  Bi  Bi4  1  0.18217411  0.39748880  0.55712898  1
  Bi  Bi5  1  0.69389056  0.91131540  0.54122508  1
  Bi  Bi6  1  0.74979837  0.24932784  0.83090830  1
  Bi  Bi7  1  0.90945974  0.15375544  0.75046472  1
  Bi  Bi8  1  0.24995559  0.24993742  0.78815315  1
  Bi  Bi9  1  0.21009569  0.78998984  0.99993375  1
  Bi  Bi10  1  0.19389056  0.41131540  0.95877492  1
  Bi  Bi11  1  0.25020163  0.74932784  0.16909170  1
  Bi  Bi12  1  0.78990431  0.28998984  0.00006625  1
  Bi  Bi13  1  0.38961191  0.31598903  0.35826719  1
  Bi  Bi14  1  0.31590243  0.10224680  0.55741163  1
  Bi  Bi15  1  0.10484849  0.19993852  0.14003107  1
  Bi  Bi16  1  0.60484849  0.69993852  0.35996893  1
  Bi  Bi17  1  0.19687079  0.10490875  0.63997305  1
  Bi  Bi18  1  0.60185959  0.80319439  0.86013887  1
  Bi  Bi19  1  0.58710087  0.80633061  0.04176179  1
  Bi  Bi20  1  0.68217411  0.89748880  0.94287102  1
  Bi  Bi21  1  0.89016248  0.68513111  0.64161045  1
  Bi  Bi22  1  0.10276608  0.18245406  0.55717622  1
  Bi  Bi23  1  0.24956380  0.75002210  0.83095798  1
  Bi  Bi24  1  0.39515151  0.19993852  0.64003107  1
  Bi  Bi25  1  0.30790061  0.08810985  0.95846719  1
  Bi  Bi26  1  0.10983752  0.18513111  0.35838955  1
  Bi  Bi27  1  0.75004441  0.74993742  0.21184685  1
  Bi  Bi28  1  0.69687079  0.60490875  0.86002695  1
  Bi  Bi29  1  0.89515151  0.69993852  0.85996893  1
  Bi  Bi30  1  0.20000226  0.39817900  0.13987092  1
  Bi  Bi31  1  0.18409757  0.10224680  0.05741163  1
  Bi  Bi32  1  0.80790061  0.58810985  0.54153281  1
  Bi  Bi33  1  0.65426365  0.40939544  0.24959465  1
  Bi  Bi34  1  0.25043620  0.75002210  0.33095798  1
  Bi  Bi35  1  0.80610944  0.91131540  0.04122508  1
  Bi  Bi36  1  0.68451153  0.89031975  0.14188749  1
  Bi  Bi37  1  0.84573635  0.40939544  0.74959465  1
  Bi  Bi38  1  0.39016248  0.18513111  0.85838955  1
  Bi  Bi39  1  0.15426365  0.90939544  0.25040535  1
  Bi  Bi40  1  0.08994942  0.19221140  0.95896287  1
  Bi  Bi41  1  0.75020163  0.24932784  0.33090830  1
  Bi  Bi42  1  0.81782589  0.89748880  0.44287102  1
  Bi  Bi43  1  0.60213978  0.81596946  0.44261623  1
  Bi  Bi44  1  0.61038809  0.81598903  0.64173281  1
  Bi  Bi45  1  0.11038809  0.31598903  0.85826719  1
  Bi  Bi46  1  0.30610944  0.41131540  0.45877492  1
  Bi  Bi47  1  0.41005058  0.19221140  0.45896287  1
  Bi  Bi48  1  0.31548847  0.39031975  0.85811251  1
  Bi  Bi49  1  0.10185959  0.30319439  0.63986113  1
  Bi  Bi50  1  0.31532054  0.11048250  0.35843429  1
  Bi  Bi51  1  0.15359684  0.59018017  0.75053668  1
  Bi  Bi52  1  0.34573635  0.90939544  0.75040535  1
  Bi  Bi53  1  0.79999774  0.89817900  0.86012908  1
  Bi  Bi54  1  0.30312921  0.10490875  0.13997305  1
  Bi  Bi55  1  0.69209939  0.58810985  0.04153281  1
  Bi  Bi56  1  0.28990431  0.78998984  0.49993375  1
  Bi  Bi57  1  0.68467946  0.61048250  0.64156571  1
  Bi  Bi58  1  0.39723392  0.18245406  0.05717622  1
  Bi  Bi59  1  0.65359684  0.09018017  0.74946332  1
  Bi  Bi60  1  0.70000226  0.89817900  0.36012908  1
  Bi  Bi61  1  0.40945974  0.65375544  0.74953528  1
  Bi  Bi62  1  0.74995559  0.74993742  0.71184685  1
  Bi  Bi63  1  0.88961191  0.81598903  0.14173281  1
  Bi  Bi64  1  0.91289913  0.80633061  0.54176179  1
  Bi  Bi65  1  0.08710087  0.30633061  0.45823821  1
  Bi  Bi66  1  0.80312921  0.60490875  0.36002695  1
  Bi  Bi67  1  0.40970001  0.84592959  0.24958989  1
  Bi  Bi68  1  0.75043620  0.25002210  0.16904202  1
  Bi  Bi69  1  0.25004441  0.24993742  0.28815315  1
  Bi  Bi70  1  0.10213978  0.31596946  0.05738377  1
  Bi  Bi71  1  0.39786022  0.31596946  0.55738377  1
  Bi  Bi72  1  0.90970001  0.34592959  0.25041011  1
  Bi  Bi73  1  0.68409757  0.60224680  0.44258837  1
  Bi  Bi74  1  0.81548847  0.89031975  0.64188749  1
  Bi  Bi75  1  0.39814041  0.30319439  0.13986113  1
  Bi  Bi76  1  0.24979837  0.74932784  0.66909170  1
  Bi  Bi77  1  0.89814041  0.80319439  0.36013887  1
  Bi  Bi78  1  0.58994942  0.69221140  0.54103713  1
  Bi  Bi79  1  0.34640316  0.59018017  0.25053668  1
  Bi  Bi80  1  0.91005058  0.69221140  0.04103713  1
  Bi  Bi81  1  0.09054026  0.65375544  0.24953528  1
  Bi  Bi82  1  0.81590243  0.60224680  0.94258837  1
  Bi  Bi83  1  0.31782589  0.39748880  0.05712898  1
  Bi  Bi84  1  0.81532054  0.61048250  0.14156571  1
  Bi  Bi85  1  0.60276608  0.68245406  0.94282378  1
  Bi  Bi86  1  0.74956380  0.25002210  0.66904202  1
  Bi  Bi87  1  0.59029999  0.34592959  0.75041011  1
  Bi  Bi88  1  0.89723392  0.68245406  0.44282378  1
  Bi  Bi89  1  0.60983752  0.68513111  0.14161045  1
  Bi  Bi90  1  0.89786022  0.81596946  0.94261623  1
  Bi  Bi91  1  0.41289913  0.30633061  0.95823821  1
  Bi  Bi92  1  0.18451153  0.39031975  0.35811251  1
  Bi  Bi93  1  0.19209939  0.08810985  0.45846719  1
  Bi  Bi94  1  0.71009569  0.28998984  0.50006625  1
  Bi  Bi95  1  0.18467946  0.11048250  0.85843429  1
  Ru  Ru96  1  0.25022865  0.25010593  0.41704968  1
  Ru  Ru97  1  0.75022865  0.75010593  0.08295032  1
  Ru  Ru98  1  0.25019130  0.24986836  0.00466039  1
  Ru  Ru99  1  0.24980870  0.24986836  0.50466039  1
  Ru  Ru100  1  0.74997125  0.24973895  0.24997912  1
  Ru  Ru101  1  0.24977135  0.25010593  0.91704968  1
  Ru  Ru102  1  0.74980870  0.74986836  0.99533961  1
  Ru  Ru103  1  0.24997125  0.74973895  0.25002088  1
  Ru  Ru104  1  0.74977135  0.75010593  0.58295032  1
  Ru  Ru105  1  0.25002875  0.74973895  0.75002088  1
  Ru  Ru106  1  0.75019130  0.74986836  0.49533961  1
  Ru  Ru107  1  0.75002875  0.24973895  0.74997912  1
  Br  Br108  1  0.82333230  0.55036770  0.25754392  1
  Br  Br109  1  0.97969991  0.37087815  0.95233650  1
  Br  Br110  1  0.37471870  0.50978629  0.95151720  1
  Br  Br111  1  0.99008983  0.12140869  0.45112347  1
  Br  Br112  1  0.57126168  0.36848508  0.66005590  1
  Br  Br113  1  0.94974269  0.67682688  0.75717923  1
  Br  Br114  1  0.56899726  0.13699996  0.34292625  1
  Br  Br115  1  0.12479653  0.97964877  0.95223299  1
  Br  Br116  1  0.55025731  0.67682688  0.25717923  1
  Br  Br117  1  0.36340926  0.56837450  0.34168951  1
  Br  Br118  1  0.47969991  0.87087815  0.54766350  1
  Br  Br119  1  0.94985168  0.82331692  0.25753684  1
  Br  Br120  1  0.52030009  0.37087815  0.45233650  1
  Br  Br121  1  0.44974269  0.17682688  0.74282077  1
  Br  Br122  1  0.06775113  0.86169563  0.65861424  1
  Br  Br123  1  0.13061271  0.57100818  0.66003247  1
  Br  Br124  1  0.50991017  0.12140869  0.95112347  1
  Br  Br125  1  0.55014832  0.82331692  0.75753684  1
  Br  Br126  1  0.67752213  0.41129173  0.95005177  1
  Br  Br127  1  0.42936734  0.63120603  0.83973062  1
  Br  Br128  1  0.67666770  0.55036770  0.75754392  1
  Br  Br129  1  0.07126168  0.86848508  0.83994410  1
  Br  Br130  1  0.63061271  0.07100818  0.83996753  1
  Br  Br131  1  0.93224887  0.36169563  0.34138576  1
  Br  Br132  1  0.06899726  0.63699996  0.15707375  1
  Br  Br133  1  0.32333909  0.44998994  0.74284272  1
  Br  Br134  1  0.36130388  0.93161287  0.84279541  1
  Br  Br135  1  0.78017878  0.13783039  0.95034332  1
  Br  Br136  1  0.67666091  0.94998994  0.25715728  1
  Br  Br137  1  0.57063266  0.13120603  0.16026938  1
  Br  Br138  1  0.17752213  0.91129173  0.54994823  1
  Br  Br139  1  0.42873832  0.86848508  0.33994410  1
  Br  Br140  1  0.56775113  0.36169563  0.84138576  1
  Br  Br141  1  0.00991017  0.62140869  0.54887653  1
  Br  Br142  1  0.07063266  0.63120603  0.33973062  1
  Br  Br143  1  0.44985168  0.32331692  0.24246316  1
  Br  Br144  1  0.49008983  0.62140869  0.04887653  1
  Br  Br145  1  0.86130388  0.43161287  0.65720459  1
  Br  Br146  1  0.32247787  0.91129173  0.04994823  1
  Br  Br147  1  0.13659074  0.56837450  0.84168951  1
  Br  Br148  1  0.63217156  0.42919235  0.33977155  1
  Br  Br149  1  0.13792712  0.78029452  0.45014352  1
  Br  Br150  1  0.86340926  0.06837450  0.15831049  1
  Br  Br151  1  0.86938729  0.07100818  0.33996753  1
  Br  Br152  1  0.58816027  0.17862491  0.54992799  1
  Br  Br153  1  0.62528130  0.00978629  0.04848280  1
  Br  Br154  1  0.86207288  0.28029452  0.54985648  1
  Br  Br155  1  0.05025731  0.17682688  0.24282077  1
  Br  Br156  1  0.08816027  0.67862491  0.95007201  1
  Br  Br157  1  0.62479653  0.47964877  0.54776701  1
  Br  Br158  1  0.43100274  0.63699996  0.65707375  1
  Br  Br159  1  0.17666770  0.05036770  0.74245608  1
  Br  Br160  1  0.43224887  0.86169563  0.15861424  1
  Br  Br161  1  0.91183973  0.17862491  0.04992799  1
  Br  Br162  1  0.37520347  0.97964877  0.45223299  1
  Br  Br163  1  0.28017878  0.63783039  0.54965668  1
  Br  Br164  1  0.82247787  0.41129173  0.45005177  1
  Br  Br165  1  0.12528130  0.50978629  0.45151720  1
  Br  Br166  1  0.36938729  0.57100818  0.16003247  1
  Br  Br167  1  0.63792712  0.28029452  0.04985648  1
  Br  Br168  1  0.87520347  0.47964877  0.04776701  1
  Br  Br169  1  0.93100274  0.13699996  0.84292625  1
  Br  Br170  1  0.41183973  0.67862491  0.45007201  1
  Br  Br171  1  0.63659074  0.06837450  0.65831049  1
  Br  Br172  1  0.92873832  0.36848508  0.16005590  1
  Br  Br173  1  0.17666091  0.44998994  0.24284272  1
  Br  Br174  1  0.13217156  0.92919235  0.16022845  1
  Br  Br175  1  0.13869612  0.93161287  0.34279541  1
  Br  Br176  1  0.36782844  0.92919235  0.66022845  1
  Br  Br177  1  0.71982122  0.13783039  0.45034332  1
  Br  Br178  1  0.87471870  0.00978629  0.54848280  1
  Br  Br179  1  0.05014832  0.32331692  0.74246316  1
  Br  Br180  1  0.36207288  0.78029452  0.95014352  1
  Br  Br181  1  0.82333909  0.94998994  0.75715728  1
  Br  Br182  1  0.21982122  0.63783039  0.04965668  1
  Br  Br183  1  0.02030009  0.87087815  0.04766350  1
  Br  Br184  1  0.86782844  0.42919235  0.83977155  1
  Br  Br185  1  0.32333230  0.05036770  0.24245608  1
  Br  Br186  1  0.63869612  0.43161287  0.15720459  1
  Br  Br187  1  0.92936734  0.13120603  0.66026938  1
