# generated using pymatgen
data_CdI2
_symmetry_space_group_name_H-M   'P 1'
_cell_length_a   4.34388855
_cell_length_b   4.34388855
_cell_length_c   81.03743400
_cell_angle_alpha   90.00000000
_cell_angle_beta   90.00000000
_cell_angle_gamma   120.00000845
_symmetry_Int_Tables_number   1
_chemical_formula_structural   CdI2
_chemical_formula_sum   'Cd11 I22'
_cell_volume   1324.26110914
_cell_formula_units_Z   11
loop_
 _symmetry_equiv_pos_site_id
 _symmetry_equiv_pos_as_xyz
  1  'x, y, z'
loop_
 _atom_site_type_symbol
 _atom_site_label
 _atom_site_symmetry_multiplicity
 _atom_site_fract_x
 _atom_site_fract_y
 _atom_site_fract_z
 _atom_site_occupancy
  Cd  Cd0  1  0.00000000  0.00000000  0.20453800  1
  Cd  Cd1  1  0.33333300  0.66666700  0.29544600  1
  Cd  Cd2  1  0.66666700  0.33333300  0.84092800  1
  Cd  Cd3  1  0.00000000  0.00000000  0.02272600  1
  Cd  Cd4  1  0.33333300  0.66666700  0.93181100  1
  Cd  Cd5  1  0.33333300  0.66666700  0.47727100  1
  Cd  Cd6  1  0.00000000  0.00000000  0.38638300  1
  Cd  Cd7  1  0.33333300  0.66666700  0.56818400  1
  Cd  Cd8  1  0.33333300  0.66666700  0.11363100  1
  Cd  Cd9  1  0.33333300  0.66666700  0.65906600  1
  Cd  Cd10  1  0.33333300  0.66666700  0.74999400  1
  I  I11  1  0.66666700  0.33333300  0.58953600  1
  I  I12  1  0.66666700  0.33333300  0.40775900  1
  I  I13  1  0.33333300  0.66666700  0.18317200  1
  I  I14  1  0.66666700  0.33333300  0.95315500  1
  I  I15  1  0.00000000  0.00000000  0.45590300  1
  I  I16  1  0.00000000  0.00000000  0.27408600  1
  I  I17  1  0.66666700  0.33333300  0.77135300  1
  I  I18  1  0.66666700  0.33333300  0.04409500  1
  I  I19  1  0.66666700  0.33333300  0.22590100  1
  I  I20  1  0.00000000  0.00000000  0.09226100  1
  I  I21  1  0.33333300  0.66666700  0.00139800  1
  I  I22  1  0.33333300  0.66666700  0.86228700  1
  I  I23  1  0.66666700  0.33333300  0.31683500  1
  I  I24  1  0.00000000  0.00000000  0.54683200  1
  I  I25  1  0.00000000  0.00000000  0.72863400  1
  I  I26  1  0.33333300  0.66666700  0.36502200  1
  I  I27  1  0.66666700  0.33333300  0.68043900  1
  I  I28  1  0.00000000  0.00000000  0.91046100  1
  I  I29  1  0.00000000  0.00000000  0.81955900  1
  I  I30  1  0.66666700  0.33333300  0.13499900  1
  I  I31  1  0.00000000  0.00000000  0.63769400  1
  I  I32  1  0.66666700  0.33333300  0.49864000  1
