# generated using pymatgen
data_CdI2
_symmetry_space_group_name_H-M   'P 1'
_cell_length_a   4.34230214
_cell_length_b   4.34230214
_cell_length_c   103.17152200
_cell_angle_alpha   90.00000000
_cell_angle_beta   90.00000000
_cell_angle_gamma   120.00000207
_symmetry_Int_Tables_number   1
_chemical_formula_structural   CdI2
_chemical_formula_sum   'Cd14 I28'
_cell_volume   1684.73088081
_cell_formula_units_Z   14
loop_
 _symmetry_equiv_pos_site_id
 _symmetry_equiv_pos_as_xyz
  1  'x, y, z'
loop_
 _atom_site_type_symbol
 _atom_site_label
 _atom_site_symmetry_multiplicity
 _atom_site_fract_x
 _atom_site_fract_y
 _atom_site_fract_z
 _atom_site_occupancy
  Cd  Cd0  1  0.00000000  0.00000000  0.80356900  1
  Cd  Cd1  1  0.00000000  0.00000000  0.51784800  1
  Cd  Cd2  1  0.66666700  0.33333300  0.30358000  1
  Cd  Cd3  1  0.66666700  0.33333300  0.16071200  1
  Cd  Cd4  1  0.66666700  0.33333300  0.58928200  1
  Cd  Cd5  1  0.66666700  0.33333300  0.37499100  1
  Cd  Cd6  1  0.00000000  0.00000000  0.23214600  1
  Cd  Cd7  1  0.00000000  0.00000000  0.94643100  1
  Cd  Cd8  1  0.00000000  0.00000000  0.66071300  1
  Cd  Cd9  1  0.00000000  0.00000000  0.73214900  1
  Cd  Cd10  1  0.66666700  0.33333300  0.01785700  1
  Cd  Cd11  1  0.66666700  0.33333300  0.44644000  1
  Cd  Cd12  1  0.00000000  0.00000000  0.08928400  1
  Cd  Cd13  1  0.00000000  0.00000000  0.87499900  1
  I  I14  1  0.66666700  0.33333300  0.07253300  1
  I  I15  1  0.33333300  0.66666700  0.53460100  1
  I  I16  1  0.33333300  0.66666700  0.17746700  1
  I  I17  1  0.33333300  0.66666700  0.10604800  1
  I  I18  1  0.33333300  0.66666700  0.46318000  1
  I  I19  1  0.66666700  0.33333300  0.78682200  1
  I  I20  1  0.33333300  0.66666700  0.82033100  1
  I  I21  1  0.00000000  0.00000000  0.28681100  1
  I  I22  1  0.66666700  0.33333300  0.64394600  1
  I  I23  1  0.33333300  0.66666700  0.32033800  1
  I  I24  1  0.33333300  0.66666700  0.60604800  1
  I  I25  1  0.00000000  0.00000000  0.14395100  1
  I  I26  1  0.33333300  0.66666700  0.96317400  1
  I  I27  1  0.00000000  0.00000000  0.35823300  1
  I  I28  1  0.00000000  0.00000000  0.00112000  1
  I  I29  1  0.66666700  0.33333300  0.85825500  1
  I  I30  1  0.66666700  0.33333300  0.92967200  1
  I  I31  1  0.33333300  0.66666700  0.67746400  1
  I  I32  1  0.66666700  0.33333300  0.71539600  1
  I  I33  1  0.66666700  0.33333300  0.21539400  1
  I  I34  1  0.33333300  0.66666700  0.03461300  1
  I  I35  1  0.33333300  0.66666700  0.89174300  1
  I  I36  1  0.33333300  0.66666700  0.24890700  1
  I  I37  1  0.33333300  0.66666700  0.39173600  1
  I  I38  1  0.66666700  0.33333300  0.50108800  1
  I  I39  1  0.00000000  0.00000000  0.57254000  1
  I  I40  1  0.00000000  0.00000000  0.42967700  1
  I  I41  1  0.33333300  0.66666700  0.74890900  1
