# generated using pymatgen
data_Cu3Bi7(PbS5)3
_symmetry_space_group_name_H-M   'P 1'
_cell_length_a   4.04292321
_cell_length_b   11.83624573
_cell_length_c   55.85664066
_cell_angle_alpha   90.00000000
_cell_angle_beta   90.00000000
_cell_angle_gamma   90.00000000
_symmetry_Int_Tables_number   1
_chemical_formula_structural   Cu3Bi7(PbS5)3
_chemical_formula_sum   'Cu12 Bi28 Pb12 S60'
_cell_volume   2672.90964537
_cell_formula_units_Z   4
loop_
 _symmetry_equiv_pos_site_id
 _symmetry_equiv_pos_as_xyz
  1  'x, y, z'
loop_
 _atom_site_type_symbol
 _atom_site_label
 _atom_site_symmetry_multiplicity
 _atom_site_fract_x
 _atom_site_fract_y
 _atom_site_fract_z
 _atom_site_occupancy
  Cu  Cu0  1  0.25000000  0.22843382  0.94146393  1
  Cu  Cu1  1  0.75000000  0.27156618  0.44146393  1
  Cu  Cu2  1  0.75000000  0.26937033  0.24231273  1
  Cu  Cu3  1  0.25000000  0.73062967  0.75768727  1
  Cu  Cu4  1  0.25000000  0.73298287  0.95814886  1
  Cu  Cu5  1  0.75000000  0.76701713  0.45814886  1
  Cu  Cu6  1  0.25000000  0.23062967  0.74231273  1
  Cu  Cu7  1  0.25000000  0.23298287  0.54185114  1
  Cu  Cu8  1  0.75000000  0.26701713  0.04185114  1
  Cu  Cu9  1  0.75000000  0.77156618  0.05853607  1
  Cu  Cu10  1  0.75000000  0.76937033  0.25768727  1
  Cu  Cu11  1  0.25000000  0.72843382  0.55853607  1
  Bi  Bi12  1  0.75000000  0.15210938  0.89220949  1
  Bi  Bi13  1  0.75000000  0.98428848  0.36548224  1
  Bi  Bi14  1  0.75000000  0.47872211  0.93579518  1
  Bi  Bi15  1  0.25000000  0.01571152  0.63451776  1
  Bi  Bi16  1  0.25000000  0.51862093  0.66598430  1
  Bi  Bi17  1  0.75000000  0.65210938  0.60779051  1
  Bi  Bi18  1  0.25000000  0.34815192  0.19276323  1
  Bi  Bi19  1  0.75000000  0.97872211  0.56420482  1
  Bi  Bi20  1  0.25000000  0.01862093  0.83401570  1
  Bi  Bi21  1  0.25000000  0.51733811  0.26320773  1
  Bi  Bi22  1  0.75000000  0.98137907  0.16598430  1
  Bi  Bi23  1  0.25000000  0.01329668  0.03755369  1
  Bi  Bi24  1  0.75000000  0.48137907  0.33401570  1
  Bi  Bi25  1  0.25000000  0.01733811  0.23679227  1
  Bi  Bi26  1  0.75000000  0.48428848  0.13451776  1
  Bi  Bi27  1  0.75000000  0.65184808  0.80723677  1
  Bi  Bi28  1  0.75000000  0.98266189  0.76320773  1
  Bi  Bi29  1  0.25000000  0.84815192  0.30723677  1
  Bi  Bi30  1  0.75000000  0.48670332  0.53755369  1
  Bi  Bi31  1  0.25000000  0.51329668  0.46244631  1
  Bi  Bi32  1  0.25000000  0.84789062  0.10779051  1
  Bi  Bi33  1  0.25000000  0.51571152  0.86548224  1
  Bi  Bi34  1  0.75000000  0.15184808  0.69276323  1
  Bi  Bi35  1  0.25000000  0.02127789  0.43579518  1
  Bi  Bi36  1  0.75000000  0.98670332  0.96244631  1
  Bi  Bi37  1  0.25000000  0.52127789  0.06420482  1
  Bi  Bi38  1  0.25000000  0.34789062  0.39220949  1
  Bi  Bi39  1  0.75000000  0.48266189  0.73679227  1
  Pb  Pb40  1  0.75000000  0.17410796  0.29918282  1
  Pb  Pb41  1  0.25000000  0.32635925  0.59974702  1
  Pb  Pb42  1  0.75000000  0.67410796  0.20081718  1
  Pb  Pb43  1  0.75000000  0.66861663  0.00190841  1
  Pb  Pb44  1  0.75000000  0.16861663  0.49809159  1
  Pb  Pb45  1  0.25000000  0.82635925  0.90025298  1
  Pb  Pb46  1  0.25000000  0.32589204  0.79918282  1
  Pb  Pb47  1  0.25000000  0.82589204  0.70081718  1
  Pb  Pb48  1  0.25000000  0.83138337  0.50190841  1
  Pb  Pb49  1  0.25000000  0.33138337  0.99809159  1
  Pb  Pb50  1  0.75000000  0.17364075  0.09974702  1
  Pb  Pb51  1  0.75000000  0.67364075  0.40025298  1
  S  S52  1  0.75000000  0.45058899  0.22631315  1
  S  S53  1  0.25000000  0.21601673  0.26030250  1
  S  S54  1  0.25000000  0.70863345  0.83864325  1
  S  S55  1  0.75000000  0.61987935  0.69047443  1
  S  S56  1  0.75000000  0.45369359  0.02898936  1
  S  S57  1  0.25000000  0.04941101  0.72631315  1
  S  S58  1  0.25000000  0.04745866  0.92529009  1
  S  S59  1  0.25000000  0.88012065  0.19047443  1
  S  S60  1  0.75000000  0.12746814  0.41097491  1
  S  S61  1  0.75000000  0.95254134  0.07470991  1
  S  S62  1  0.25000000  0.71272662  0.43971538  1
  S  S63  1  0.75000000  0.12255987  0.21189774  1
  S  S64  1  0.75000000  0.11805317  0.61003554  1
  S  S65  1  0.75000000  0.28727338  0.56028462  1
  S  S66  1  0.75000000  0.78727338  0.93971538  1
  S  S67  1  0.25000000  0.21046089  0.86086010  1
  S  S68  1  0.75000000  0.29136655  0.16135675  1
  S  S69  1  0.25000000  0.54623366  0.17167718  1
  S  S70  1  0.25000000  0.20863345  0.66135675  1
  S  S71  1  0.25000000  0.72163737  0.04013617  1
  S  S72  1  0.75000000  0.45254134  0.42529009  1
  S  S73  1  0.25000000  0.04623366  0.32832282  1
  S  S74  1  0.25000000  0.38012065  0.30952557  1
  S  S75  1  0.75000000  0.45376634  0.82832282  1
  S  S76  1  0.75000000  0.62255987  0.28810226  1
  S  S77  1  0.75000000  0.28953911  0.36086010  1
  S  S78  1  0.75000000  0.95058899  0.27368685  1
  S  S79  1  0.25000000  0.87253186  0.58902509  1
  S  S80  1  0.75000000  0.95376634  0.67167718  1
  S  S81  1  0.25000000  0.87744013  0.78810226  1
  S  S82  1  0.25000000  0.88311745  0.98770648  1
  S  S83  1  0.75000000  0.11688255  0.01229352  1
  S  S84  1  0.25000000  0.04687806  0.12881663  1
  S  S85  1  0.25000000  0.54941101  0.77368685  1
  S  S86  1  0.75000000  0.79136655  0.33864325  1
  S  S87  1  0.75000000  0.27836263  0.95986383  1
  S  S88  1  0.25000000  0.22163737  0.45986383  1
  S  S89  1  0.75000000  0.61805317  0.88996446  1
  S  S90  1  0.25000000  0.21272662  0.06028462  1
  S  S91  1  0.25000000  0.38311745  0.51229352  1
  S  S92  1  0.25000000  0.38194683  0.11003554  1
  S  S93  1  0.25000000  0.37744013  0.71189774  1
  S  S94  1  0.75000000  0.95369359  0.47101064  1
  S  S95  1  0.75000000  0.77836263  0.54013617  1
  S  S96  1  0.25000000  0.37253186  0.91097491  1
  S  S97  1  0.75000000  0.78953911  0.13913990  1
  S  S98  1  0.25000000  0.54630641  0.97101064  1
  S  S99  1  0.25000000  0.54687806  0.37118337  1
  S  S100  1  0.25000000  0.88194683  0.38996446  1
  S  S101  1  0.75000000  0.11987935  0.80952557  1
  S  S102  1  0.75000000  0.78398327  0.73969750  1
  S  S103  1  0.25000000  0.71601673  0.23969750  1
  S  S104  1  0.25000000  0.71046089  0.63913990  1
  S  S105  1  0.25000000  0.54745866  0.57470991  1
  S  S106  1  0.75000000  0.95312194  0.87118337  1
  S  S107  1  0.75000000  0.45312194  0.62881663  1
  S  S108  1  0.75000000  0.28398327  0.76030250  1
  S  S109  1  0.75000000  0.61688255  0.48770648  1
  S  S110  1  0.75000000  0.62746814  0.08902509  1
  S  S111  1  0.25000000  0.04630641  0.52898936  1
