# generated using pymatgen
data_CdI2
_symmetry_space_group_name_H-M   'P 1'
_cell_length_a   4.34432851
_cell_length_b   4.34432851
_cell_length_c   80.95696300
_cell_angle_alpha   90.00000000
_cell_angle_beta   90.00000000
_cell_angle_gamma   120.00000778
_symmetry_Int_Tables_number   1
_chemical_formula_structural   CdI2
_chemical_formula_sum   'Cd11 I22'
_cell_volume   1323.21410693
_cell_formula_units_Z   11
loop_
 _symmetry_equiv_pos_site_id
 _symmetry_equiv_pos_as_xyz
  1  'x, y, z'
loop_
 _atom_site_type_symbol
 _atom_site_label
 _atom_site_symmetry_multiplicity
 _atom_site_fract_x
 _atom_site_fract_y
 _atom_site_fract_z
 _atom_site_occupancy
  Cd  Cd0  1  0.00000000  0.00000000  0.20453600  1
  Cd  Cd1  1  0.33333300  0.66666700  0.38636000  1
  Cd  Cd2  1  0.00000000  0.00000000  0.02273100  1
  Cd  Cd3  1  0.00000000  0.00000000  0.65906600  1
  Cd  Cd4  1  0.33333300  0.66666700  0.29544800  1
  Cd  Cd5  1  0.33333300  0.66666700  0.84092500  1
  Cd  Cd6  1  0.33333300  0.66666700  0.93181100  1
  Cd  Cd7  1  0.33333300  0.66666700  0.56818700  1
  Cd  Cd8  1  0.33333300  0.66666700  0.11363500  1
  Cd  Cd9  1  0.00000000  0.00000000  0.47728000  1
  Cd  Cd10  1  0.33333300  0.66666700  0.75000300  1
  I  I11  1  0.66666700  0.33333300  0.58955000  1
  I  I12  1  0.33333300  0.66666700  0.45588600  1
  I  I13  1  0.66666700  0.33333300  0.40774700  1
  I  I14  1  0.33333300  0.66666700  0.63768300  1
  I  I15  1  0.66666700  0.33333300  0.86231000  1
  I  I16  1  0.66666700  0.33333300  0.95317900  1
  I  I17  1  0.00000000  0.00000000  0.27407900  1
  I  I18  1  0.66666700  0.33333300  0.77137600  1
  I  I19  1  0.66666700  0.33333300  0.04411700  1
  I  I20  1  0.00000000  0.00000000  0.09224900  1
  I  I21  1  0.66666700  0.33333300  0.22592100  1
  I  I22  1  0.00000000  0.00000000  0.36497700  1
  I  I23  1  0.33333300  0.66666700  0.00138200  1
  I  I24  1  0.66666700  0.33333300  0.31685400  1
  I  I25  1  0.00000000  0.00000000  0.54681600  1
  I  I26  1  0.00000000  0.00000000  0.72862800  1
  I  I27  1  0.33333300  0.66666700  0.18315800  1
  I  I28  1  0.66666700  0.33333300  0.68045000  1
  I  I29  1  0.00000000  0.00000000  0.91044700  1
  I  I30  1  0.00000000  0.00000000  0.81953800  1
  I  I31  1  0.66666700  0.33333300  0.13501800  1
  I  I32  1  0.66666700  0.33333300  0.49865500  1
