# generated using pymatgen
data_Na21S7Cl(O14F3)2
_symmetry_space_group_name_H-M   'P 1'
_cell_length_a   12.33823033
_cell_length_b   12.33823033
_cell_length_c   19.57228000
_cell_angle_alpha   90.00000000
_cell_angle_beta   90.00000000
_cell_angle_gamma   120.00000178
_symmetry_Int_Tables_number   1
_chemical_formula_structural   Na21S7Cl(O14F3)2
_chemical_formula_sum   'Na63 S21 Cl3 O84 F18'
_cell_volume   2580.34508654
_cell_formula_units_Z   3
loop_
 _symmetry_equiv_pos_site_id
 _symmetry_equiv_pos_as_xyz
  1  'x, y, z'
loop_
 _atom_site_type_symbol
 _atom_site_label
 _atom_site_symmetry_multiplicity
 _atom_site_fract_x
 _atom_site_fract_y
 _atom_site_fract_z
 _atom_site_occupancy
  Na  Na0  1  0.66432100  0.51076800  0.93403000  1
  Na  Na1  1  0.00000000  0.82340600  0.09597200  1
  Na  Na2  1  0.00000000  0.18912800  0.92885400  1
  Na  Na3  1  0.52134500  0.85247900  0.10308100  1
  Na  Na4  1  0.00000000  0.17771100  0.64759100  1
  Na  Na5  1  0.84090900  0.17444400  0.51537400  1
  Na  Na6  1  0.82555600  0.66646600  0.51537400  1
  Na  Na7  1  0.82228900  0.82228900  0.64759100  1
  Na  Na8  1  0.00000000  0.48762400  0.79227800  1
  Na  Na9  1  0.33353400  0.15909100  0.51537400  1
  Na  Na10  1  0.66886600  0.14752100  0.10308100  1
  Na  Na11  1  0.48661500  0.15285100  0.65339500  1
  Na  Na12  1  0.51843200  0.85029600  0.38488900  1
  Na  Na13  1  0.84948200  0.18323300  0.79404600  1
  Na  Na14  1  0.51338500  0.66623600  0.65339500  1
  Na  Na15  1  0.17659400  0.17659400  0.09597200  1
  Na  Na16  1  0.82340600  0.00000000  0.09597200  1
  Na  Na17  1  0.14752100  0.66886600  0.10308100  1
  Na  Na18  1  0.33268300  0.18034500  0.23867300  1
  Na  Na19  1  0.66813500  0.14970400  0.38488900  1
  Na  Na20  1  0.15909100  0.33353400  0.51537400  1
  Na  Na21  1  0.18034500  0.33268300  0.23867300  1
  Na  Na22  1  0.15355300  0.48923200  0.93403000  1
  Na  Na23  1  0.18912800  0.00000000  0.92885400  1
  Na  Na24  1  0.51733400  0.00000000  0.23574500  1
  Na  Na25  1  0.85029600  0.51843200  0.38488900  1
  Na  Na26  1  0.00000000  0.81584000  0.37905200  1
  Na  Na27  1  0.18323300  0.84948200  0.79404600  1
  Na  Na28  1  0.51076800  0.66432100  0.93403000  1
  Na  Na29  1  0.66624900  0.81676700  0.79404600  1
  Na  Na30  1  0.51568900  0.00000000  0.51732900  1
  Na  Na31  1  0.17771100  0.00000000  0.64759100  1
  Na  Na32  1  0.81676700  0.66624900  0.79404600  1
  Na  Na33  1  0.15051800  0.33375100  0.79404600  1
  Na  Na34  1  0.84714900  0.33376400  0.65339500  1
  Na  Na35  1  0.85247900  0.52134500  0.10308100  1
  Na  Na36  1  0.00000000  0.51568900  0.51732900  1
  Na  Na37  1  0.33376400  0.84714900  0.65339500  1
  Na  Na38  1  0.48431100  0.48431100  0.51732900  1
  Na  Na39  1  0.51237600  0.51237600  0.79227800  1
  Na  Na40  1  0.14970400  0.66813500  0.38488900  1
  Na  Na41  1  0.47865500  0.33113400  0.10308100  1
  Na  Na42  1  0.18416000  0.18416000  0.37905200  1
  Na  Na43  1  0.66646600  0.82555600  0.51537400  1
  Na  Na44  1  0.15233800  0.81965500  0.23867300  1
  Na  Na45  1  0.84644700  0.33567900  0.93403000  1
  Na  Na46  1  0.33186500  0.48156800  0.38488900  1
  Na  Na47  1  0.81965500  0.15233800  0.23867300  1
  Na  Na48  1  0.66731700  0.84766200  0.23867300  1
  Na  Na49  1  0.81584000  0.00000000  0.37905200  1
  Na  Na50  1  0.33375100  0.15051800  0.79404600  1
  Na  Na51  1  0.33567900  0.84644700  0.93403000  1
  Na  Na52  1  0.33113400  0.47865500  0.10308100  1
  Na  Na53  1  0.66623600  0.51338500  0.65339500  1
  Na  Na54  1  0.81087200  0.81087200  0.92885400  1
  Na  Na55  1  0.84766200  0.66731700  0.23867300  1
  Na  Na56  1  0.17444400  0.84090900  0.51537400  1
  Na  Na57  1  0.48923200  0.15355300  0.93403000  1
  Na  Na58  1  0.48266600  0.48266600  0.23574500  1
  Na  Na59  1  0.00000000  0.51733400  0.23574500  1
  Na  Na60  1  0.48156800  0.33186500  0.38488900  1
  Na  Na61  1  0.15285100  0.48661500  0.65339500  1
  Na  Na62  1  0.48762400  0.00000000  0.79227800  1
  S  S63  1  0.00000000  0.66696600  0.93893000  1
  S  S64  1  0.00000000  0.33452300  0.09390100  1
  S  S65  1  0.66666700  0.33333300  0.52677900  1
  S  S66  1  0.33333300  0.66666700  0.25550400  1
  S  S67  1  0.66350600  0.66350600  0.36834800  1
  S  S68  1  0.66666700  0.33333300  0.25550400  1
  S  S69  1  0.00000000  0.00000000  0.78056700  1
  S  S70  1  0.00000000  0.00000000  0.50684400  1
  S  S71  1  0.33025700  0.33025700  0.66648000  1
  S  S72  1  0.66974300  0.00000000  0.66648000  1
  S  S73  1  0.33649400  0.00000000  0.36834800  1
  S  S74  1  0.33333300  0.66666700  0.52677900  1
  S  S75  1  0.00000000  0.66974300  0.66648000  1
  S  S76  1  0.66696600  0.00000000  0.93893000  1
  S  S77  1  0.33303400  0.33303400  0.93893000  1
  S  S78  1  0.00000000  0.33649400  0.36834800  1
  S  S79  1  0.33452300  0.00000000  0.09390100  1
  S  S80  1  0.33333300  0.66666700  0.79541300  1
  S  S81  1  0.66666700  0.33333300  0.79541300  1
  S  S82  1  0.00000000  0.00000000  0.23831700  1
  S  S83  1  0.66547700  0.66547700  0.09390100  1
  Cl  Cl84  1  0.33333300  0.66666700  0.03008500  1
  Cl  Cl85  1  0.66666700  0.33333300  0.03008500  1
  Cl  Cl86  1  0.00000000  0.00000000  0.00043400  1
  O  O87  1  0.00000000  0.88567900  0.26371600  1
  O  O88  1  0.88624500  0.21988400  0.11957600  1
  O  O89  1  0.55256900  0.00000000  0.91362500  1
  O  O90  1  0.33333300  0.66666700  0.87197400  1
  O  O91  1  0.77843400  0.45015900  0.50195100  1
  O  O92  1  0.55059100  0.55059100  0.39575000  1
  O  O93  1  0.44940900  0.00000000  0.39575000  1
  O  O94  1  0.22107900  0.88582200  0.39239700  1
  O  O95  1  0.00000000  0.00000000  0.16180900  1
  O  O96  1  0.67606900  0.00000000  0.74312300  1
  O  O97  1  0.66583900  0.88545600  0.91302900  1
  O  O98  1  0.11435200  0.00000000  0.80546600  1
  O  O99  1  0.55176300  0.33174400  0.23019100  1
  O  O100  1  0.32827500  0.54984100  0.50195100  1
  O  O101  1  0.33187500  0.33187500  0.01549100  1
  O  O102  1  0.54984100  0.32827500  0.50195100  1
  O  O103  1  0.44823700  0.77998000  0.23019100  1
  O  O104  1  0.88567900  0.00000000  0.26371600  1
  O  O105  1  0.78152300  0.11423000  0.63902700  1
  O  O106  1  0.21961700  0.33416100  0.91302900  1
  O  O107  1  0.00000000  0.11423500  0.53215300  1
  O  O108  1  0.66058000  0.66058000  0.29158700  1
  O  O109  1  0.88582200  0.22107900  0.39239700  1
  O  O110  1  0.00000000  0.67606900  0.74312300  1
  O  O111  1  0.00000000  0.44875800  0.11992300  1
  O  O112  1  0.00000000  0.66812500  0.01549100  1
  O  O113  1  0.33333300  0.66666700  0.60359600  1
  O  O114  1  0.33416100  0.21961700  0.91302900  1
  O  O115  1  0.66666700  0.33333300  0.33263200  1
  O  O116  1  0.44875800  0.00000000  0.11992300  1
  O  O117  1  0.11432100  0.11432100  0.26371600  1
  O  O118  1  0.55362300  0.00000000  0.64502300  1
  O  O119  1  0.67172500  0.22156600  0.50195100  1
  O  O120  1  0.88577000  0.66729200  0.63902700  1
  O  O121  1  0.11423000  0.78152300  0.63902700  1
  O  O122  1  0.11417800  0.33525800  0.39239700  1
  O  O123  1  0.44743100  0.44743100  0.91362500  1
  O  O124  1  0.33522200  0.00000000  0.01770200  1
  O  O125  1  0.00000000  0.44940900  0.39575000  1
  O  O126  1  0.55304400  0.21853300  0.76994500  1
  O  O127  1  0.22156600  0.67172500  0.50195100  1
  O  O128  1  0.00000000  0.55256900  0.91362500  1
  O  O129  1  0.78011600  0.66636200  0.11957600  1
  O  O130  1  0.33270800  0.21847700  0.63902700  1
  O  O131  1  0.33525800  0.11417800  0.39239700  1
  O  O132  1  0.11375500  0.33363800  0.11957600  1
  O  O133  1  0.00000000  0.11435200  0.80546600  1
  O  O134  1  0.00000000  0.33942000  0.29158700  1
  O  O135  1  0.66666700  0.33333300  0.87197400  1
  O  O136  1  0.33942000  0.00000000  0.29158700  1
  O  O137  1  0.33451100  0.78146700  0.76994500  1
  O  O138  1  0.77892100  0.66474200  0.39239700  1
  O  O139  1  0.00000000  0.55362300  0.64502300  1
  O  O140  1  0.78146700  0.33451100  0.76994500  1
  O  O141  1  0.66666700  0.33333300  0.60359600  1
  O  O142  1  0.00000000  0.00000000  0.70353900  1
  O  O143  1  0.88564800  0.88564800  0.80546600  1
  O  O144  1  0.11423500  0.00000000  0.53215300  1
  O  O145  1  0.66636200  0.78011600  0.11957600  1
  O  O146  1  0.11454400  0.78038300  0.91302900  1
  O  O147  1  0.88576500  0.88576500  0.53215300  1
  O  O148  1  0.44637700  0.44637700  0.64502300  1
  O  O149  1  0.66477800  0.66477800  0.01770200  1
  O  O150  1  0.66812500  0.00000000  0.01549100  1
  O  O151  1  0.55124200  0.55124200  0.11992300  1
  O  O152  1  0.33333300  0.66666700  0.33263200  1
  O  O153  1  0.66825600  0.22002000  0.23019100  1
  O  O154  1  0.77998000  0.44823700  0.23019100  1
  O  O155  1  0.66729200  0.88577000  0.63902700  1
  O  O156  1  0.45015900  0.77843400  0.50195100  1
  O  O157  1  0.22002000  0.66825600  0.23019100  1
  O  O158  1  0.66474200  0.77892100  0.39239700  1
  O  O159  1  0.33174400  0.55176300  0.23019100  1
  O  O160  1  0.21853300  0.55304400  0.76994500  1
  O  O161  1  0.88545600  0.66583900  0.91302900  1
  O  O162  1  0.66548900  0.44695600  0.76994500  1
  O  O163  1  0.32393100  0.32393100  0.74312300  1
  O  O164  1  0.00000000  0.00000000  0.43022200  1
  O  O165  1  0.21847700  0.33270800  0.63902700  1
  O  O166  1  0.21988400  0.88624500  0.11957600  1
  O  O167  1  0.44695600  0.66548900  0.76994500  1
  O  O168  1  0.78038300  0.11454400  0.91302900  1
  O  O169  1  0.00000000  0.33522200  0.01770200  1
  O  O170  1  0.33363800  0.11375500  0.11957600  1
  F  F171  1  0.00000000  0.66146800  0.31311500  1
  F  F172  1  0.65981300  0.65981300  0.86396100  1
  F  F173  1  0.00000000  0.34943600  0.56649600  1
  F  F174  1  0.32604200  0.00000000  0.71755100  1
  F  F175  1  0.00000000  0.67537000  0.16739200  1
  F  F176  1  0.65056400  0.65056400  0.56649600  1
  F  F177  1  0.67537000  0.00000000  0.16739200  1
  F  F178  1  0.67395800  0.67395800  0.71755100  1
  F  F179  1  0.33853200  0.33853200  0.31311500  1
  F  F180  1  0.31483000  0.31483000  0.46530300  1
  F  F181  1  0.66146800  0.00000000  0.31311500  1
  F  F182  1  0.32463000  0.32463000  0.16739200  1
  F  F183  1  0.68517000  0.00000000  0.46530300  1
  F  F184  1  0.00000000  0.32604200  0.71755100  1
  F  F185  1  0.00000000  0.68517000  0.46530300  1
  F  F186  1  0.34018700  0.00000000  0.86396100  1
  F  F187  1  0.34943600  0.00000000  0.56649600  1
  F  F188  1  0.00000000  0.34018700  0.86396100  1
