# generated using pymatgen
data_K2Ti(GeO3)3
_symmetry_space_group_name_H-M   'P 1'
_cell_length_a   12.04832120
_cell_length_b   12.04832120
_cell_length_c   10.61710000
_cell_angle_alpha   90.00000000
_cell_angle_beta   90.00000000
_cell_angle_gamma   119.99999560
_symmetry_Int_Tables_number   1
_chemical_formula_structural   K2Ti(GeO3)3
_chemical_formula_sum   'K12 Ti6 Ge18 O54'
_cell_volume   1334.71835458
_cell_formula_units_Z   6
loop_
 _symmetry_equiv_pos_site_id
 _symmetry_equiv_pos_as_xyz
  1  'x, y, z'
loop_
 _atom_site_type_symbol
 _atom_site_label
 _atom_site_symmetry_multiplicity
 _atom_site_fract_x
 _atom_site_fract_y
 _atom_site_fract_z
 _atom_site_occupancy
  K  K0  1  0.64805000  0.99663200  0.50996300  1
  K  K1  1  0.34858100  0.35195000  0.50996300  1
  K  K2  1  0.99663200  0.64805000  0.99003700  1
  K  K3  1  0.00336800  0.35195000  0.00996300  1
  K  K4  1  0.99663200  0.34858100  0.49003700  1
  K  K5  1  0.00336800  0.65141900  0.50996300  1
  K  K6  1  0.35195000  0.00336800  0.49003700  1
  K  K7  1  0.35195000  0.34858100  0.99003700  1
  K  K8  1  0.64805000  0.65141900  0.00996300  1
  K  K9  1  0.34858100  0.99663200  0.00996300  1
  K  K10  1  0.65141900  0.64805000  0.49003700  1
  K  K11  1  0.65141900  0.00336800  0.99003700  1
  Ti  Ti12  1  0.66666700  0.33333300  0.50841400  1
  Ti  Ti13  1  0.00000000  0.00000000  0.00000000  1
  Ti  Ti14  1  0.33333300  0.66666700  0.49158600  1
  Ti  Ti15  1  0.33333300  0.66666700  0.99158600  1
  Ti  Ti16  1  0.00000000  0.00000000  0.50000000  1
  Ti  Ti17  1  0.66666700  0.33333300  0.00841400  1
  Ge  Ge18  1  0.17746400  0.00000000  0.25000000  1
  Ge  Ge19  1  0.28356900  0.45315800  0.23628600  1
  Ge  Ge20  1  0.54684200  0.83041100  0.23628600  1
  Ge  Ge21  1  0.28356900  0.83041100  0.73628600  1
  Ge  Ge22  1  0.45315800  0.16958900  0.76371400  1
  Ge  Ge23  1  0.71643100  0.16958900  0.26371400  1
  Ge  Ge24  1  0.83041100  0.54684200  0.26371400  1
  Ge  Ge25  1  0.54684200  0.71643100  0.73628600  1
  Ge  Ge26  1  0.82253600  0.00000000  0.75000000  1
  Ge  Ge27  1  0.16958900  0.45315800  0.73628600  1
  Ge  Ge28  1  0.17746400  0.17746400  0.75000000  1
  Ge  Ge29  1  0.00000000  0.82253600  0.75000000  1
  Ge  Ge30  1  0.00000000  0.17746400  0.25000000  1
  Ge  Ge31  1  0.16958900  0.71643100  0.23628600  1
  Ge  Ge32  1  0.45315800  0.28356900  0.26371400  1
  Ge  Ge33  1  0.83041100  0.28356900  0.76371400  1
  Ge  Ge34  1  0.82253600  0.82253600  0.25000000  1
  Ge  Ge35  1  0.71643100  0.54684200  0.76371400  1
  O  O36  1  0.84845400  0.93464300  0.88683600  1
  O  O37  1  0.48775200  0.76557300  0.38473700  1
  O  O38  1  0.35692300  0.80692200  0.60446400  1
  O  O39  1  0.19307800  0.64307700  0.10446400  1
  O  O40  1  0.64307700  0.44999900  0.89553600  1
  O  O41  1  0.91381200  0.84845400  0.11316400  1
  O  O42  1  0.35692300  0.55000100  0.10446400  1
  O  O43  1  0.44999900  0.64307700  0.60446400  1
  O  O44  1  0.84845400  0.91381200  0.38683600  1
  O  O45  1  0.79337600  0.12512500  0.80665600  1
  O  O46  1  0.19307800  0.55000100  0.60446400  1
  O  O47  1  0.76557300  0.27782000  0.61526300  1
  O  O48  1  0.87487500  0.66825100  0.80665600  1
  O  O49  1  0.23442700  0.51224800  0.88473700  1
  O  O50  1  0.62026100  0.00000000  0.25000000  1
  O  O51  1  0.00000000  0.62026100  0.25000000  1
  O  O52  1  0.55000100  0.19307800  0.89553600  1
  O  O53  1  0.66825100  0.79337600  0.19334400  1
  O  O54  1  0.87487500  0.20662400  0.30665600  1
  O  O55  1  0.91381200  0.06535700  0.61316400  1
  O  O56  1  0.15154600  0.06535700  0.11316400  1
  O  O57  1  0.20662400  0.33174900  0.69334400  1
  O  O58  1  0.37973900  0.00000000  0.75000000  1
  O  O59  1  0.06535700  0.15154600  0.38683600  1
  O  O60  1  0.48775200  0.72218000  0.88473700  1
  O  O61  1  0.80692200  0.44999900  0.39553600  1
  O  O62  1  0.79337600  0.66825100  0.30665600  1
  O  O63  1  0.93464300  0.84845400  0.61316400  1
  O  O64  1  0.20662400  0.87487500  0.19334400  1
  O  O65  1  0.06535700  0.91381200  0.88683600  1
  O  O66  1  0.64307700  0.19307800  0.39553600  1
  O  O67  1  0.00000000  0.37973900  0.75000000  1
  O  O68  1  0.66825100  0.87487500  0.69334400  1
  O  O69  1  0.23442700  0.72218000  0.38473700  1
  O  O70  1  0.51224800  0.23442700  0.61526300  1
  O  O71  1  0.51224800  0.27782000  0.11526300  1
  O  O72  1  0.55000100  0.35692300  0.39553600  1
  O  O73  1  0.80692200  0.35692300  0.89553600  1
  O  O74  1  0.76557300  0.48775200  0.11526300  1
  O  O75  1  0.33174900  0.20662400  0.80665600  1
  O  O76  1  0.37973900  0.37973900  0.25000000  1
  O  O77  1  0.72218000  0.48775200  0.61526300  1
  O  O78  1  0.12512500  0.79337600  0.69334400  1
  O  O79  1  0.27782000  0.76557300  0.88473700  1
  O  O80  1  0.12512500  0.33174900  0.19334400  1
  O  O81  1  0.08618800  0.93464300  0.38683600  1
  O  O82  1  0.33174900  0.12512500  0.30665600  1
  O  O83  1  0.15154600  0.08618800  0.61316400  1
  O  O84  1  0.44999900  0.80692200  0.10446400  1
  O  O85  1  0.93464300  0.08618800  0.11316400  1
  O  O86  1  0.27782000  0.51224800  0.38473700  1
  O  O87  1  0.08618800  0.15154600  0.88683600  1
  O  O88  1  0.62026100  0.62026100  0.75000000  1
  O  O89  1  0.72218000  0.23442700  0.11526300  1
