# generated using pymatgen
data_Sm5Br11
_symmetry_space_group_name_H-M   'P 1'
_cell_length_a   36.12403800
_cell_length_b   7.03953300
_cell_length_c   7.52125759
_cell_angle_alpha   89.91340030
_cell_angle_beta   90.00000000
_cell_angle_gamma   90.00000000
_symmetry_Int_Tables_number   1
_chemical_formula_structural   Sm5Br11
_chemical_formula_sum   'Sm20 Br44'
_cell_volume   1912.62622526
_cell_formula_units_Z   4
loop_
 _symmetry_equiv_pos_site_id
 _symmetry_equiv_pos_as_xyz
  1  'x, y, z'
loop_
 _atom_site_type_symbol
 _atom_site_label
 _atom_site_symmetry_multiplicity
 _atom_site_fract_x
 _atom_site_fract_y
 _atom_site_fract_z
 _atom_site_occupancy
  Sm  Sm0  1  0.55572000  0.53235800  0.15165600  1
  Sm  Sm1  1  0.84636100  0.97871800  0.27909300  1
  Sm  Sm2  1  0.34636100  0.02128200  0.72090700  1
  Sm  Sm3  1  0.44428000  0.46764200  0.84834400  1
  Sm  Sm4  1  0.75000000  0.98387600  0.66870000  1
  Sm  Sm5  1  0.25000000  0.01612400  0.33130000  1
  Sm  Sm6  1  0.34576200  0.46622300  0.22729800  1
  Sm  Sm7  1  0.94428000  0.53235800  0.15165600  1
  Sm  Sm8  1  0.15423800  0.46622300  0.22729800  1
  Sm  Sm9  1  0.25000000  0.47968500  0.84018500  1
  Sm  Sm10  1  0.94351600  0.97092700  0.65367100  1
  Sm  Sm11  1  0.75000000  0.52031500  0.15981500  1
  Sm  Sm12  1  0.84576200  0.53377700  0.77270200  1
  Sm  Sm13  1  0.05572000  0.46764200  0.84834400  1
  Sm  Sm14  1  0.55648400  0.97092700  0.65367100  1
  Sm  Sm15  1  0.65423800  0.53377700  0.77270200  1
  Sm  Sm16  1  0.05648400  0.02907300  0.34632900  1
  Sm  Sm17  1  0.44351600  0.02907300  0.34632900  1
  Sm  Sm18  1  0.65363900  0.97871800  0.27909300  1
  Sm  Sm19  1  0.15363900  0.02128200  0.72090700  1
  Br  Br20  1  0.41640500  0.67260600  0.16552000  1
  Br  Br21  1  0.41670800  0.81697000  0.66211400  1
  Br  Br22  1  0.20175600  0.18361300  0.02677300  1
  Br  Br23  1  0.39588900  0.31695100  0.53651100  1
  Br  Br24  1  0.79824400  0.81638700  0.97322700  1
  Br  Br25  1  0.91670800  0.18303000  0.33788600  1
  Br  Br26  1  0.10411100  0.31695100  0.53651100  1
  Br  Br27  1  0.50792000  0.73715700  0.89061000  1
  Br  Br28  1  0.82912900  0.14646800  0.62857300  1
  Br  Br29  1  0.17087100  0.85353200  0.37142700  1
  Br  Br30  1  0.58329200  0.18303000  0.33788600  1
  Br  Br31  1  0.70175600  0.81638700  0.97322700  1
  Br  Br32  1  0.39583100  0.17559500  0.03343700  1
  Br  Br33  1  0.75000000  0.13084600  0.30874800  1
  Br  Br34  1  0.25000000  0.86915400  0.69125200  1
  Br  Br35  1  0.50807600  0.76550200  0.39206800  1
  Br  Br36  1  0.17145700  0.64416200  0.88108800  1
  Br  Br37  1  0.00792000  0.26284300  0.10939000  1
  Br  Br38  1  0.29805400  0.30737500  0.53217800  1
  Br  Br39  1  0.00807600  0.23449800  0.60793200  1
  Br  Br40  1  0.67087100  0.14646800  0.62857300  1
  Br  Br41  1  0.58359500  0.32739400  0.83448000  1
  Br  Br42  1  0.32854300  0.64416200  0.88108800  1
  Br  Br43  1  0.79805400  0.69262500  0.46782200  1
  Br  Br44  1  0.49192400  0.23449800  0.60793200  1
  Br  Br45  1  0.20194600  0.30737500  0.53217800  1
  Br  Br46  1  0.49208000  0.26284300  0.10939000  1
  Br  Br47  1  0.25000000  0.61387400  0.20525400  1
  Br  Br48  1  0.75000000  0.38612600  0.79474600  1
  Br  Br49  1  0.99208000  0.73715700  0.89061000  1
  Br  Br50  1  0.91640500  0.32739400  0.83448000  1
  Br  Br51  1  0.99192400  0.76550200  0.39206800  1
  Br  Br52  1  0.67145700  0.35583800  0.11891200  1
  Br  Br53  1  0.82854300  0.35583800  0.11891200  1
  Br  Br54  1  0.60416900  0.82440500  0.96656300  1
  Br  Br55  1  0.32912900  0.85353200  0.37142700  1
  Br  Br56  1  0.70194600  0.69262500  0.46782200  1
  Br  Br57  1  0.29824400  0.18361300  0.02677300  1
  Br  Br58  1  0.89583100  0.82440500  0.96656300  1
  Br  Br59  1  0.60411100  0.68304900  0.46348900  1
  Br  Br60  1  0.08329200  0.81697000  0.66211400  1
  Br  Br61  1  0.10416900  0.17559500  0.03343700  1
  Br  Br62  1  0.89588900  0.68304900  0.46348900  1
  Br  Br63  1  0.08359500  0.67260600  0.16552000  1
