# generated using pymatgen
data_Mo3N2Cl11
_symmetry_space_group_name_H-M   'P 1'
_cell_length_a   10.35873800
_cell_length_b   13.07743800
_cell_length_c   13.82504400
_cell_angle_alpha   90.00000000
_cell_angle_beta   90.00000000
_cell_angle_gamma   90.00000000
_symmetry_Int_Tables_number   1
_chemical_formula_structural   Mo3N2Cl11
_chemical_formula_sum   'Mo12 N8 Cl44'
_cell_volume   1872.82000890
_cell_formula_units_Z   4
loop_
 _symmetry_equiv_pos_site_id
 _symmetry_equiv_pos_as_xyz
  1  'x, y, z'
loop_
 _atom_site_type_symbol
 _atom_site_label
 _atom_site_symmetry_multiplicity
 _atom_site_fract_x
 _atom_site_fract_y
 _atom_site_fract_z
 _atom_site_occupancy
  Mo  Mo0  1  0.37956600  0.68113600  0.25212100  1
  Mo  Mo1  1  0.71109300  0.77050700  0.18215100  1
  Mo  Mo2  1  0.28890700  0.22949300  0.68215100  1
  Mo  Mo3  1  0.17408600  0.97429800  0.57946400  1
  Mo  Mo4  1  0.17408600  0.52570200  0.07946400  1
  Mo  Mo5  1  0.82591400  0.47429800  0.57946400  1
  Mo  Mo6  1  0.37956600  0.81886400  0.75212100  1
  Mo  Mo7  1  0.71109300  0.72949300  0.68215100  1
  Mo  Mo8  1  0.82591400  0.02570200  0.07946400  1
  Mo  Mo9  1  0.62043400  0.31886400  0.75212100  1
  Mo  Mo10  1  0.28890700  0.27050700  0.18215100  1
  Mo  Mo11  1  0.62043400  0.18113600  0.25212100  1
  N  N12  1  0.75914900  0.88466200  0.13447200  1
  N  N13  1  0.71497000  0.39410000  0.67972400  1
  N  N14  1  0.75914900  0.61533800  0.63447200  1
  N  N15  1  0.24085100  0.11533800  0.63447200  1
  N  N16  1  0.28503000  0.89410000  0.67972400  1
  N  N17  1  0.28503000  0.60590000  0.17972400  1
  N  N18  1  0.24085100  0.38466200  0.13447200  1
  N  N19  1  0.71497000  0.10590000  0.17972400  1
  Cl  Cl20  1  0.76788200  0.66100400  0.06073000  1
  Cl  Cl21  1  0.57233300  0.91676700  0.74551600  1
  Cl  Cl22  1  0.88943800  0.18280400  0.02119500  1
  Cl  Cl23  1  0.87806200  0.76255800  0.78366500  1
  Cl  Cl24  1  0.32862400  0.87804000  0.90145000  1
  Cl  Cl25  1  0.25577100  0.82568200  0.25843900  1
  Cl  Cl26  1  0.64000000  0.48285400  0.49022800  1
  Cl  Cl27  1  0.03140900  0.51204300  0.20600200  1
  Cl  Cl28  1  0.74422900  0.32568200  0.25843900  1
  Cl  Cl29  1  0.42766700  0.08323300  0.24551600  1
  Cl  Cl30  1  0.48886000  0.76845100  0.10713000  1
  Cl  Cl31  1  0.32862400  0.62196000  0.40145000  1
  Cl  Cl32  1  0.12193800  0.23744200  0.28366500  1
  Cl  Cl33  1  0.04132000  0.44328700  0.97121800  1
  Cl  Cl34  1  0.25577100  0.67431800  0.75843900  1
  Cl  Cl35  1  0.87806200  0.73744200  0.28366500  1
  Cl  Cl36  1  0.64000000  0.01714600  0.99022800  1
  Cl  Cl37  1  0.04132000  0.05671300  0.47121800  1
  Cl  Cl38  1  0.57233300  0.58323300  0.24551600  1
  Cl  Cl39  1  0.96859100  0.48795700  0.70600200  1
  Cl  Cl40  1  0.41756800  0.17534800  0.81726400  1
  Cl  Cl41  1  0.67137600  0.37804000  0.90145000  1
  Cl  Cl42  1  0.36000000  0.98285400  0.49022800  1
  Cl  Cl43  1  0.58243200  0.67534800  0.81726400  1
  Cl  Cl44  1  0.76788200  0.83899600  0.56073000  1
  Cl  Cl45  1  0.23211800  0.33899600  0.56073000  1
  Cl  Cl46  1  0.95868000  0.55671300  0.47121800  1
  Cl  Cl47  1  0.88943800  0.31719600  0.52119500  1
  Cl  Cl48  1  0.96859100  0.01204300  0.20600200  1
  Cl  Cl49  1  0.51114000  0.26845100  0.10713000  1
  Cl  Cl50  1  0.23211800  0.16100400  0.06073000  1
  Cl  Cl51  1  0.41756800  0.32465200  0.31726400  1
  Cl  Cl52  1  0.36000000  0.51714600  0.99022800  1
  Cl  Cl53  1  0.67137600  0.12196000  0.40145000  1
  Cl  Cl54  1  0.11056200  0.81719600  0.52119500  1
  Cl  Cl55  1  0.95868000  0.94328700  0.97121800  1
  Cl  Cl56  1  0.12193800  0.26255800  0.78366500  1
  Cl  Cl57  1  0.74422900  0.17431800  0.75843900  1
  Cl  Cl58  1  0.03140900  0.98795700  0.70600200  1
  Cl  Cl59  1  0.42766700  0.41676700  0.74551600  1
  Cl  Cl60  1  0.58243200  0.82465200  0.31726400  1
  Cl  Cl61  1  0.48886000  0.73154900  0.60713000  1
  Cl  Cl62  1  0.51114000  0.23154900  0.60713000  1
  Cl  Cl63  1  0.11056200  0.68280400  0.02119500  1
