# generated using pymatgen
data_Ce9B3C6Br5
_symmetry_space_group_name_H-M   'P 1'
_cell_length_a   3.70506800
_cell_length_b   7.99463900
_cell_length_c   31.50217100
_cell_angle_alpha   90.00000000
_cell_angle_beta   90.00000000
_cell_angle_gamma   90.00000000
_symmetry_Int_Tables_number   1
_chemical_formula_structural   Ce9B3C6Br5
_chemical_formula_sum   'Ce18 B6 C12 Br10'
_cell_volume   933.11576211
_cell_formula_units_Z   2
loop_
 _symmetry_equiv_pos_site_id
 _symmetry_equiv_pos_as_xyz
  1  'x, y, z'
loop_
 _atom_site_type_symbol
 _atom_site_label
 _atom_site_symmetry_multiplicity
 _atom_site_fract_x
 _atom_site_fract_y
 _atom_site_fract_z
 _atom_site_occupancy
  Ce  Ce0  1  0.00000000  0.58156200  0.34645700  1
  Ce  Ce1  1  0.50000000  0.05053800  0.50000000  1
  Ce  Ce2  1  0.50000000  0.44509200  0.55237000  1
  Ce  Ce3  1  0.50000000  0.69507400  0.76055800  1
  Ce  Ce4  1  0.00000000  0.15574300  0.61973600  1
  Ce  Ce5  1  0.00000000  0.30492600  0.73944200  1
  Ce  Ce6  1  0.50000000  0.41843800  0.15354300  1
  Ce  Ce7  1  0.00000000  0.55490800  0.94763000  1
  Ce  Ce8  1  0.00000000  0.55490800  0.05237000  1
  Ce  Ce9  1  0.00000000  0.30492600  0.26055800  1
  Ce  Ce10  1  0.00000000  0.94946200  0.00000000  1
  Ce  Ce11  1  0.00000000  0.15574300  0.38026400  1
  Ce  Ce12  1  0.50000000  0.44509200  0.44763000  1
  Ce  Ce13  1  0.50000000  0.84425700  0.11973600  1
  Ce  Ce14  1  0.50000000  0.69507400  0.23944200  1
  Ce  Ce15  1  0.00000000  0.58156200  0.65354300  1
  Ce  Ce16  1  0.50000000  0.84425700  0.88026400  1
  Ce  Ce17  1  0.50000000  0.41843800  0.84645700  1
  B  B18  1  0.50000000  0.71303300  0.00000000  1
  B  B19  1  0.00000000  0.65282700  0.82833400  1
  B  B20  1  0.00000000  0.65282700  0.17166600  1
  B  B21  1  0.50000000  0.34717300  0.32833400  1
  B  B22  1  0.50000000  0.34717300  0.67166600  1
  B  B23  1  0.00000000  0.28696700  0.50000000  1
  C  C24  1  0.00000000  0.21901100  0.54536000  1
  C  C25  1  0.50000000  0.48459500  0.29350500  1
  C  C26  1  0.00000000  0.51540500  0.20649500  1
  C  C27  1  0.00000000  0.62677100  0.87652700  1
  C  C28  1  0.50000000  0.78098900  0.95464000  1
  C  C29  1  0.00000000  0.62677100  0.12347300  1
  C  C30  1  0.50000000  0.48459500  0.70649500  1
  C  C31  1  0.50000000  0.37322900  0.62347300  1
  C  C32  1  0.00000000  0.51540500  0.79350500  1
  C  C33  1  0.50000000  0.78098900  0.04536000  1
  C  C34  1  0.50000000  0.37322900  0.37652700  1
  C  C35  1  0.00000000  0.21901100  0.45464000  1
  Br  Br36  1  0.00000000  0.91582900  0.29718300  1
  Br  Br37  1  0.50000000  0.82925200  0.40170900  1
  Br  Br38  1  0.00000000  0.17074800  0.90170900  1
  Br  Br39  1  0.00000000  0.17074800  0.09829100  1
  Br  Br40  1  0.50000000  0.27702800  0.00000000  1
  Br  Br41  1  0.50000000  0.82925200  0.59829100  1
  Br  Br42  1  0.00000000  0.91582900  0.70281700  1
  Br  Br43  1  0.50000000  0.08417100  0.79718300  1
  Br  Br44  1  0.50000000  0.08417100  0.20281700  1
  Br  Br45  1  0.00000000  0.72297200  0.50000000  1
