# generated using pymatgen
data_Ru3C10(NO6)2
_symmetry_space_group_name_H-M   'P 1'
_cell_length_a   26.54119800
_cell_length_b   7.70549100
_cell_length_c   10.04333822
_cell_angle_alpha   61.83621892
_cell_angle_beta   90.00000000
_cell_angle_gamma   90.00000000
_symmetry_Int_Tables_number   1
_chemical_formula_structural   Ru3C10(NO6)2
_chemical_formula_sum   'Ru12 C40 N8 O48'
_cell_volume   1810.80419281
_cell_formula_units_Z   4
loop_
 _symmetry_equiv_pos_site_id
 _symmetry_equiv_pos_as_xyz
  1  'x, y, z'
loop_
 _atom_site_type_symbol
 _atom_site_label
 _atom_site_symmetry_multiplicity
 _atom_site_fract_x
 _atom_site_fract_y
 _atom_site_fract_z
 _atom_site_occupancy
  Ru  Ru0  1  0.84160000  0.39149400  0.89502400  1
  Ru  Ru1  1  0.15840000  0.60850600  0.10497600  1
  Ru  Ru2  1  0.34160000  0.60850600  0.60497600  1
  Ru  Ru3  1  0.11932800  0.99735100  0.89288800  1
  Ru  Ru4  1  0.40821500  0.77504600  0.74840800  1
  Ru  Ru5  1  0.59178500  0.22495400  0.25159200  1
  Ru  Ru6  1  0.65840000  0.39149400  0.39502400  1
  Ru  Ru7  1  0.38067200  0.99735100  0.39288800  1
  Ru  Ru8  1  0.88067200  0.00264900  0.10711200  1
  Ru  Ru9  1  0.90821500  0.22495400  0.75159200  1
  Ru  Ru10  1  0.09178500  0.77504600  0.24840800  1
  Ru  Ru11  1  0.61932800  0.00264900  0.60711200  1
  C  C12  1  0.44324600  0.52466500  0.85680700  1
  C  C13  1  0.95238500  0.07538500  0.69197600  1
  C  C14  1  0.18513900  0.09905600  0.80151100  1
  C  C15  1  0.08627400  0.24689800  0.78715500  1
  C  C16  1  0.80440900  0.44698800  0.03378900  1
  C  C17  1  0.19559100  0.55301200  0.96621100  1
  C  C18  1  0.78617700  0.23626000  0.87713600  1
  C  C19  1  0.54761500  0.07538500  0.19197600  1
  C  C20  1  0.60450300  0.09236700  0.75423400  1
  C  C21  1  0.90219000  0.50379500  0.93315200  1
  C  C22  1  0.05675400  0.52466500  0.35680700  1
  C  C23  1  0.41372600  0.24689800  0.28715500  1
  C  C24  1  0.59781000  0.50379500  0.43315200  1
  C  C25  1  0.30440900  0.55301200  0.46621100  1
  C  C26  1  0.83117700  0.61839200  0.70133900  1
  C  C27  1  0.09781000  0.49620500  0.06684800  1
  C  C28  1  0.36010700  0.70457200  0.91152600  1
  C  C29  1  0.21382300  0.76374000  0.12286400  1
  C  C30  1  0.69559100  0.44698800  0.53378900  1
  C  C31  1  0.58627400  0.75310200  0.71284500  1
  C  C32  1  0.45238500  0.92461500  0.80802400  1
  C  C33  1  0.40219000  0.49620500  0.56684800  1
  C  C34  1  0.13989300  0.70457200  0.41152600  1
  C  C35  1  0.91372600  0.75310200  0.21284500  1
  C  C36  1  0.89549700  0.09236700  0.25423400  1
  C  C37  1  0.55675400  0.47533500  0.14319300  1
  C  C38  1  0.31486100  0.09905600  0.30151100  1
  C  C39  1  0.63989300  0.29542800  0.08847400  1
  C  C40  1  0.81486100  0.90094400  0.19848900  1
  C  C41  1  0.16882300  0.38160800  0.29866100  1
  C  C42  1  0.68513900  0.90094400  0.69848900  1
  C  C43  1  0.39549700  0.90763300  0.24576600  1
  C  C44  1  0.86010700  0.29542800  0.58847400  1
  C  C45  1  0.71382300  0.23626000  0.37713600  1
  C  C46  1  0.10450300  0.90763300  0.74576600  1
  C  C47  1  0.33117700  0.38160800  0.79866100  1
  C  C48  1  0.04761500  0.92461500  0.30802400  1
  C  C49  1  0.94324600  0.47533500  0.64319300  1
  C  C50  1  0.28617700  0.76374000  0.62286400  1
  C  C51  1  0.66882300  0.61839200  0.20133900  1
  N  N52  1  0.94006000  0.14846200  0.96196000  1
  N  N53  1  0.86691300  0.98868300  0.90837500  1
  N  N54  1  0.55994000  0.14846200  0.46196000  1
  N  N55  1  0.63308700  0.98868300  0.40837500  1
  N  N56  1  0.44006000  0.85153800  0.53804000  1
  N  N57  1  0.05994000  0.85153800  0.03804000  1
  N  N58  1  0.36691300  0.01131700  0.59162500  1
  N  N59  1  0.13308700  0.01131700  0.09162500  1
  O  O60  1  0.01865300  0.81204800  0.00782700  1
  O  O61  1  0.82491800  0.75908200  0.58712400  1
  O  O62  1  0.52147700  0.98461800  0.15608200  1
  O  O63  1  0.22395200  0.16368500  0.75019900  1
  O  O64  1  0.27604800  0.16368500  0.25019900  1
  O  O65  1  0.90515500  0.14694100  0.34042900  1
  O  O66  1  0.48134700  0.81204800  0.50782700  1
  O  O67  1  0.78188100  0.49501400  0.10983500  1
  O  O68  1  0.47852300  0.01538200  0.84391800  1
  O  O69  1  0.67010500  0.33728300  0.99510000  1
  O  O70  1  0.83916400  0.87862200  0.88722400  1
  O  O71  1  0.51865300  0.18795200  0.49217300  1
  O  O72  1  0.66083600  0.87862200  0.38722400  1
  O  O73  1  0.98134700  0.18795200  0.99217300  1
  O  O74  1  0.03613700  0.37506600  0.42017800  1
  O  O75  1  0.93199400  0.59892400  0.27950600  1
  O  O76  1  0.53613700  0.62493400  0.07982200  1
  O  O77  1  0.32491800  0.24091800  0.91287600  1
  O  O78  1  0.32989500  0.66271700  0.00490000  1
  O  O79  1  0.96386300  0.62493400  0.57982200  1
  O  O80  1  0.56800600  0.59892400  0.77950600  1
  O  O81  1  0.72395200  0.83631500  0.74980100  1
  O  O82  1  0.82989500  0.33728300  0.49510000  1
  O  O83  1  0.02147700  0.01538200  0.34391800  1
  O  O84  1  0.43199400  0.40107600  0.22049400  1
  O  O85  1  0.17508200  0.24091800  0.41287600  1
  O  O86  1  0.40515500  0.85305900  0.15957100  1
  O  O87  1  0.09484500  0.85305900  0.65957100  1
  O  O88  1  0.59484500  0.14694100  0.84042900  1
  O  O89  1  0.97852300  0.98461800  0.65608200  1
  O  O90  1  0.16083600  0.12137800  0.11277600  1
  O  O91  1  0.93774100  0.57323800  0.95550500  1
  O  O92  1  0.06225900  0.42676200  0.04449500  1
  O  O93  1  0.46386300  0.37506600  0.92017800  1
  O  O94  1  0.24704300  0.85601300  0.13020100  1
  O  O95  1  0.67508200  0.75908200  0.08712400  1
  O  O96  1  0.74704300  0.14398700  0.36979900  1
  O  O97  1  0.25295700  0.85601300  0.63020100  1
  O  O98  1  0.71811900  0.49501400  0.60983500  1
  O  O99  1  0.77604800  0.83631500  0.24980100  1
  O  O100  1  0.28188100  0.50498600  0.39016500  1
  O  O101  1  0.75295700  0.14398700  0.86979900  1
  O  O102  1  0.56225900  0.57323800  0.45550500  1
  O  O103  1  0.43774100  0.42676200  0.54449500  1
  O  O104  1  0.33916400  0.12137800  0.61277600  1
  O  O105  1  0.06800600  0.40107600  0.72049400  1
  O  O106  1  0.17010500  0.66271700  0.50490000  1
  O  O107  1  0.21811900  0.50498600  0.89016500  1
