# generated using pymatgen
data_Ba15Fe7S25
_symmetry_space_group_name_H-M   'P 1'
_cell_length_a   9.61660911
_cell_length_b   12.75711116
_cell_length_c   42.30323892
_cell_angle_alpha   90.00000000
_cell_angle_beta   90.00000000
_cell_angle_gamma   90.00000000
_symmetry_Int_Tables_number   1
_chemical_formula_structural   Ba15Fe7S25
_chemical_formula_sum   'Ba60 Fe28 S100'
_cell_volume   5189.76775535
_cell_formula_units_Z   4
loop_
 _symmetry_equiv_pos_site_id
 _symmetry_equiv_pos_as_xyz
  1  'x, y, z'
loop_
 _atom_site_type_symbol
 _atom_site_label
 _atom_site_symmetry_multiplicity
 _atom_site_fract_x
 _atom_site_fract_y
 _atom_site_fract_z
 _atom_site_occupancy
  Ba  Ba0  1  0.25000000  0.51478449  0.58662130  1
  Ba  Ba1  1  0.75000000  0.08033847  0.31422545  1
  Ba  Ba2  1  0.01538131  0.77803653  0.78482541  1
  Ba  Ba3  1  0.25000000  0.95619902  0.47616138  1
  Ba  Ba4  1  0.97447158  0.15855835  0.01484216  1
  Ba  Ba5  1  0.51538131  0.27803653  0.71517459  1
  Ba  Ba6  1  0.53014339  0.39407942  0.31540336  1
  Ba  Ba7  1  0.53014339  0.10592058  0.81540336  1
  Ba  Ba8  1  0.98712684  0.65651827  0.89128632  1
  Ba  Ba9  1  0.01538131  0.72196347  0.28482541  1
  Ba  Ba10  1  0.49646994  0.29662885  0.90631536  1
  Ba  Ba11  1  0.46985661  0.89407942  0.18459664  1
  Ba  Ba12  1  0.03014339  0.60592058  0.68459664  1
  Ba  Ba13  1  0.48461869  0.72196347  0.28482541  1
  Ba  Ba14  1  0.75000000  0.49883198  0.22531607  1
  Ba  Ba15  1  0.51287316  0.84348173  0.39128632  1
  Ba  Ba16  1  0.98712684  0.84348173  0.39128632  1
  Ba  Ba17  1  0.52552842  0.34144165  0.51484216  1
  Ba  Ba18  1  0.50353006  0.70337115  0.09368464  1
  Ba  Ba19  1  0.75000000  0.04380098  0.52383862  1
  Ba  Ba20  1  0.00353006  0.29662885  0.90631536  1
  Ba  Ba21  1  0.01287316  0.34348173  0.10871368  1
  Ba  Ba22  1  0.25000000  0.91966153  0.68577455  1
  Ba  Ba23  1  0.99646994  0.70337115  0.09368464  1
  Ba  Ba24  1  0.75000000  0.48521551  0.41337870  1
  Ba  Ba25  1  0.75000000  0.00116802  0.72531607  1
  Ba  Ba26  1  0.48712684  0.15651827  0.60871368  1
  Ba  Ba27  1  0.25000000  0.50116802  0.77468393  1
  Ba  Ba28  1  0.52552842  0.15855835  0.01484216  1
  Ba  Ba29  1  0.51538131  0.22196347  0.21517459  1
  Ba  Ba30  1  0.02552842  0.84144165  0.98515784  1
  Ba  Ba31  1  0.02552842  0.65855835  0.48515784  1
  Ba  Ba32  1  0.96985661  0.39407942  0.31540336  1
  Ba  Ba33  1  0.47447158  0.84144165  0.98515784  1
  Ba  Ba34  1  0.51287316  0.65651827  0.89128632  1
  Ba  Ba35  1  0.75000000  0.45619902  0.02383862  1
  Ba  Ba36  1  0.03014339  0.89407942  0.18459664  1
  Ba  Ba37  1  0.25000000  0.99883198  0.27468393  1
  Ba  Ba38  1  0.25000000  0.55810862  0.38778763  1
  Ba  Ba39  1  0.75000000  0.01478449  0.91337870  1
  Ba  Ba40  1  0.48461869  0.77803653  0.78482541  1
  Ba  Ba41  1  0.75000000  0.05810862  0.11221237  1
  Ba  Ba42  1  0.46985661  0.60592058  0.68459664  1
  Ba  Ba43  1  0.48712684  0.34348173  0.10871368  1
  Ba  Ba44  1  0.25000000  0.54380098  0.97616138  1
  Ba  Ba45  1  0.98461869  0.27803653  0.71517459  1
  Ba  Ba46  1  0.97447158  0.34144165  0.51484216  1
  Ba  Ba47  1  0.50353006  0.79662885  0.59368464  1
  Ba  Ba48  1  0.99646994  0.79662885  0.59368464  1
  Ba  Ba49  1  0.98461869  0.22196347  0.21517459  1
  Ba  Ba50  1  0.25000000  0.58033847  0.18577455  1
  Ba  Ba51  1  0.00353006  0.20337115  0.40631536  1
  Ba  Ba52  1  0.25000000  0.98521551  0.08662130  1
  Ba  Ba53  1  0.75000000  0.44189138  0.61221237  1
  Ba  Ba54  1  0.47447158  0.65855835  0.48515784  1
  Ba  Ba55  1  0.25000000  0.94189138  0.88778763  1
  Ba  Ba56  1  0.75000000  0.41966153  0.81422545  1
  Ba  Ba57  1  0.01287316  0.15651827  0.60871368  1
  Ba  Ba58  1  0.96985661  0.10592058  0.81540336  1
  Ba  Ba59  1  0.49646994  0.20337115  0.40631536  1
  Fe  Fe60  1  0.25000000  0.53832607  0.05668902  1
  Fe  Fe61  1  0.75000000  0.84094176  0.46971041  1
  Fe  Fe62  1  0.75000000  0.65430205  0.34122561  1
  Fe  Fe63  1  0.75000000  0.46167393  0.94331098  1
  Fe  Fe64  1  0.75000000  0.03832607  0.44331098  1
  Fe  Fe65  1  0.25000000  0.34094176  0.03028959  1
  Fe  Fe66  1  0.75000000  0.94548129  0.23399435  1
  Fe  Fe67  1  0.25000000  0.48929248  0.85478970  1
  Fe  Fe68  1  0.25000000  0.44548129  0.26600565  1
  Fe  Fe69  1  0.75000000  0.79560270  0.67037042  1
  Fe  Fe70  1  0.25000000  0.34569795  0.65877439  1
  Fe  Fe71  1  0.75000000  0.89852499  0.03634616  1
  Fe  Fe72  1  0.25000000  0.01070752  0.35478970  1
  Fe  Fe73  1  0.75000000  0.98929248  0.64521030  1
  Fe  Fe74  1  0.75000000  0.84569795  0.84122561  1
  Fe  Fe75  1  0.25000000  0.20439730  0.32962958  1
  Fe  Fe76  1  0.25000000  0.29560270  0.82962958  1
  Fe  Fe77  1  0.75000000  0.60147501  0.53634616  1
  Fe  Fe78  1  0.75000000  0.70439730  0.17037042  1
  Fe  Fe79  1  0.25000000  0.05451871  0.76600565  1
  Fe  Fe80  1  0.75000000  0.65905824  0.96971041  1
  Fe  Fe81  1  0.75000000  0.55451871  0.73399435  1
  Fe  Fe82  1  0.25000000  0.39852499  0.46365384  1
  Fe  Fe83  1  0.25000000  0.15430205  0.15877439  1
  Fe  Fe84  1  0.25000000  0.10147501  0.96365384  1
  Fe  Fe85  1  0.25000000  0.15905824  0.53028959  1
  Fe  Fe86  1  0.25000000  0.96167393  0.55668902  1
  Fe  Fe87  1  0.75000000  0.51070752  0.14521030  1
  S  S88  1  0.25000000  0.06896178  0.20571678  1
  S  S89  1  0.75000000  0.15702622  0.66349378  1
  S  S90  1  0.06345045  0.44626008  0.03769730  1
  S  S91  1  0.44872390  0.43555928  0.43914219  1
  S  S92  1  0.25000000  0.02659536  0.40657304  1
  S  S93  1  0.75000000  0.82537310  0.33187366  1
  S  S94  1  0.75000000  0.45105375  0.69214480  1
  S  S95  1  0.44428196  0.02461837  0.74008655  1
  S  S96  1  0.05127610  0.43555928  0.43914219  1
  S  S97  1  0.93654955  0.55373992  0.96230270  1
  S  S98  1  0.25000000  0.84297378  0.33650622  1
  S  S99  1  0.04962900  0.39415910  0.63607149  1
  S  S100  1  0.75000000  0.82446322  0.13370780  1
  S  S101  1  0.25000000  0.17553678  0.86629220  1
  S  S102  1  0.75000000  0.99374189  0.99182016  1
  S  S103  1  0.56345045  0.94626008  0.46230270  1
  S  S104  1  0.75000000  0.67462690  0.83187366  1
  S  S105  1  0.25000000  0.69723085  0.63611091  1
  S  S106  1  0.25000000  0.54894625  0.30785520  1
  S  S107  1  0.25000000  0.79462685  0.53698117  1
  S  S108  1  0.25000000  0.77979878  0.23400329  1
  S  S109  1  0.75000000  0.19723085  0.86388909  1
  S  S110  1  0.75000000  0.52659536  0.09342696  1
  S  S111  1  0.75000000  0.97340464  0.59342696  1
  S  S112  1  0.75000000  0.29462685  0.96301883  1
  S  S113  1  0.75000000  0.77992119  0.93353698  1
  S  S114  1  0.05127610  0.06444072  0.93914219  1
  S  S115  1  0.55127610  0.56444072  0.56085781  1
  S  S116  1  0.25000000  0.52927977  0.10842175  1
  S  S117  1  0.25000000  0.75631639  0.93645767  1
  S  S118  1  0.93775647  0.90007549  0.66424719  1
  S  S119  1  0.06224353  0.09992451  0.33575281  1
  S  S120  1  0.75000000  0.56896178  0.29428322  1
  S  S121  1  0.75000000  0.02927977  0.39157825  1
  S  S122  1  0.25000000  0.70537315  0.03698117  1
  S  S123  1  0.44872390  0.06444072  0.93914219  1
  S  S124  1  0.43654955  0.44626008  0.03769730  1
  S  S125  1  0.44428196  0.47538163  0.24008655  1
  S  S126  1  0.75000000  0.67553678  0.63370780  1
  S  S127  1  0.43775647  0.09992451  0.33575281  1
  S  S128  1  0.45037100  0.10584090  0.13607149  1
  S  S129  1  0.94428196  0.97538163  0.25991345  1
  S  S130  1  0.25000000  0.32446322  0.36629220  1
  S  S131  1  0.75000000  0.04894625  0.19214480  1
  S  S132  1  0.25000000  0.47340464  0.90657304  1
  S  S133  1  0.25000000  0.27972595  0.97778751  1
  S  S134  1  0.25000000  0.65702622  0.83650622  1
  S  S135  1  0.56224353  0.90007549  0.66424719  1
  S  S136  1  0.25000000  0.95105375  0.80785520  1
  S  S137  1  0.94872390  0.56444072  0.56085781  1
  S  S138  1  0.56224353  0.59992451  0.16424719  1
  S  S139  1  0.25000000  0.72020122  0.73400329  1
  S  S140  1  0.75000000  0.22020122  0.76599671  1
  S  S141  1  0.75000000  0.93103822  0.79428322  1
  S  S142  1  0.75000000  0.73547629  0.72205561  1
  S  S143  1  0.75000000  0.30276915  0.36388909  1
  S  S144  1  0.25000000  0.00625811  0.00817984  1
  S  S145  1  0.75000000  0.25631639  0.56354233  1
  S  S146  1  0.06345045  0.05373992  0.53769730  1
  S  S147  1  0.55571804  0.97538163  0.25991345  1
  S  S148  1  0.04962900  0.10584090  0.13607149  1
  S  S149  1  0.45037100  0.39415910  0.63607149  1
  S  S150  1  0.75000000  0.72007881  0.43353698  1
  S  S151  1  0.25000000  0.32537310  0.16812634  1
  S  S152  1  0.25000000  0.43103822  0.70571678  1
  S  S153  1  0.75000000  0.50625811  0.49182016  1
  S  S154  1  0.93654955  0.94626008  0.46230270  1
  S  S155  1  0.05571804  0.47538163  0.24008655  1
  S  S156  1  0.95037100  0.60584090  0.36392851  1
  S  S157  1  0.56345045  0.55373992  0.96230270  1
  S  S158  1  0.06224353  0.40007549  0.83575281  1
  S  S159  1  0.54962900  0.60584090  0.36392851  1
  S  S160  1  0.75000000  0.77972595  0.52221249  1
  S  S161  1  0.25000000  0.22007881  0.06646302  1
  S  S162  1  0.75000000  0.76452371  0.22205561  1
  S  S163  1  0.25000000  0.17462690  0.66812634  1
  S  S164  1  0.25000000  0.49374189  0.50817984  1
  S  S165  1  0.55127610  0.93555928  0.06085781  1
  S  S166  1  0.43654955  0.05373992  0.53769730  1
  S  S167  1  0.93775647  0.59992451  0.16424719  1
  S  S168  1  0.54962900  0.89415910  0.86392851  1
  S  S169  1  0.05571804  0.02461837  0.74008655  1
  S  S170  1  0.43775647  0.40007549  0.83575281  1
  S  S171  1  0.75000000  0.27979878  0.26599671  1
  S  S172  1  0.25000000  0.23547629  0.77794439  1
  S  S173  1  0.25000000  0.97072023  0.60842175  1
  S  S174  1  0.25000000  0.74368361  0.43645767  1
  S  S175  1  0.75000000  0.20537315  0.46301883  1
  S  S176  1  0.94428196  0.52461837  0.75991345  1
  S  S177  1  0.95037100  0.89415910  0.86392851  1
  S  S178  1  0.25000000  0.22027405  0.47778751  1
  S  S179  1  0.25000000  0.80276915  0.13611091  1
  S  S180  1  0.25000000  0.26452371  0.27794439  1
  S  S181  1  0.55571804  0.52461837  0.75991345  1
  S  S182  1  0.75000000  0.72027405  0.02221249  1
  S  S183  1  0.94872390  0.93555928  0.06085781  1
  S  S184  1  0.25000000  0.27992119  0.56646302  1
  S  S185  1  0.75000000  0.34297378  0.16349378  1
  S  S186  1  0.75000000  0.24368361  0.06354233  1
  S  S187  1  0.75000000  0.47072023  0.89157825  1
