# generated using pymatgen
data_Tl2Br3
_symmetry_space_group_name_H-M   'P 1'
_cell_length_a   15.83663483
_cell_length_b   15.83663483
_cell_length_c   27.78991178
_cell_angle_alpha   73.57833479
_cell_angle_beta   73.57833479
_cell_angle_gamma   59.56944060
_symmetry_Int_Tables_number   1
_chemical_formula_structural   Tl2Br3
_chemical_formula_sum   'Tl64 Br96'
_cell_volume   5681.81053977
_cell_formula_units_Z   32
loop_
 _symmetry_equiv_pos_site_id
 _symmetry_equiv_pos_as_xyz
  1  'x, y, z'
loop_
 _atom_site_type_symbol
 _atom_site_label
 _atom_site_symmetry_multiplicity
 _atom_site_fract_x
 _atom_site_fract_y
 _atom_site_fract_z
 _atom_site_occupancy
  Tl  Tl0  1  0.63853800  0.11172500  0.59087800  1
  Tl  Tl1  1  0.21399500  0.19278400  0.91489500  1
  Tl  Tl2  1  0.79327600  0.34854200  0.09197700  1
  Tl  Tl3  1  0.95166100  0.45253600  0.69756100  1
  Tl  Tl4  1  0.36146200  0.88827500  0.40912200  1
  Tl  Tl5  1  0.81045500  0.23995300  0.59208000  1
  Tl  Tl6  1  0.38612200  0.46415400  0.22000000  1
  Tl  Tl7  1  0.63978200  0.71082700  0.90983800  1
  Tl  Tl8  1  0.41894000  0.33978300  0.91636500  1
  Tl  Tl9  1  0.15115400  0.15506700  0.09228100  1
  Tl  Tl10  1  0.91311400  0.92321100  0.22537800  1
  Tl  Tl11  1  0.08688600  0.07678900  0.77462200  1
  Tl  Tl12  1  0.33978300  0.41894000  0.41636500  1
  Tl  Tl13  1  0.78600500  0.80721600  0.08510500  1
  Tl  Tl14  1  0.19278400  0.21399500  0.41489500  1
  Tl  Tl15  1  0.45253600  0.95166100  0.19756100  1
  Tl  Tl16  1  0.58106000  0.66021700  0.08363500  1
  Tl  Tl17  1  0.29948100  0.88730800  0.91185600  1
  Tl  Tl18  1  0.70051900  0.11269200  0.08814400  1
  Tl  Tl19  1  0.50000000  0.50000000  0.50000000  1
  Tl  Tl20  1  0.23995300  0.81045500  0.09208000  1
  Tl  Tl21  1  0.80721600  0.78600500  0.58510500  1
  Tl  Tl22  1  0.73936800  0.74096100  0.74852000  1
  Tl  Tl23  1  0.06591800  0.56581300  0.80992400  1
  Tl  Tl24  1  0.18954500  0.76004700  0.40792000  1
  Tl  Tl25  1  0.84884600  0.84493300  0.90771900  1
  Tl  Tl26  1  0.00000000  0.00000000  0.00000000  1
  Tl  Tl27  1  0.74096100  0.73936800  0.24852000  1
  Tl  Tl28  1  0.88827500  0.36146200  0.90912200  1
  Tl  Tl29  1  0.50000000  0.00000000  0.00000000  1
  Tl  Tl30  1  0.22401000  0.77599000  0.25000000  1
  Tl  Tl31  1  0.61387800  0.53584600  0.78000000  1
  Tl  Tl32  1  0.93408200  0.43418700  0.19007600  1
  Tl  Tl33  1  0.28917300  0.36021800  0.59016200  1
  Tl  Tl34  1  0.92321100  0.91311400  0.72537800  1
  Tl  Tl35  1  0.04833900  0.54746400  0.30243900  1
  Tl  Tl36  1  0.07678900  0.08688600  0.27462200  1
  Tl  Tl37  1  0.25903900  0.26063200  0.75148000  1
  Tl  Tl38  1  0.15506700  0.15115400  0.59228100  1
  Tl  Tl39  1  0.66021700  0.58106000  0.58363500  1
  Tl  Tl40  1  0.76004700  0.18954500  0.90792000  1
  Tl  Tl41  1  0.00000000  0.50000000  0.00000000  1
  Tl  Tl42  1  0.54746400  0.04833900  0.80243900  1
  Tl  Tl43  1  0.11172500  0.63853800  0.09087800  1
  Tl  Tl44  1  0.26453900  0.73546100  0.75000000  1
  Tl  Tl45  1  0.77599000  0.22401000  0.75000000  1
  Tl  Tl46  1  0.00000000  0.00000000  0.50000000  1
  Tl  Tl47  1  0.00000000  0.50000000  0.50000000  1
  Tl  Tl48  1  0.56581300  0.06591800  0.30992400  1
  Tl  Tl49  1  0.73546100  0.26453900  0.25000000  1
  Tl  Tl50  1  0.20672400  0.65145800  0.90802300  1
  Tl  Tl51  1  0.50000000  0.50000000  0.00000000  1
  Tl  Tl52  1  0.65145800  0.20672400  0.40802300  1
  Tl  Tl53  1  0.11269200  0.70051900  0.58814400  1
  Tl  Tl54  1  0.84493300  0.84884600  0.40771900  1
  Tl  Tl55  1  0.36021800  0.28917300  0.09016200  1
  Tl  Tl56  1  0.88730800  0.29948100  0.41185600  1
  Tl  Tl57  1  0.26063200  0.25903900  0.25148000  1
  Tl  Tl58  1  0.50000000  0.00000000  0.50000000  1
  Tl  Tl59  1  0.34854200  0.79327600  0.59197700  1
  Tl  Tl60  1  0.46415400  0.38612200  0.72000000  1
  Tl  Tl61  1  0.43418700  0.93408200  0.69007600  1
  Tl  Tl62  1  0.53584600  0.61387800  0.28000000  1
  Tl  Tl63  1  0.71082700  0.63978200  0.40983800  1
  Br  Br64  1  0.66931000  0.80842600  0.99919900  1
  Br  Br65  1  0.71342700  0.18198200  0.18512000  1
  Br  Br66  1  0.70826900  0.43188500  0.50037900  1
  Br  Br67  1  0.55883600  0.80352600  0.31322100  1
  Br  Br68  1  0.35364900  0.27582400  0.82077100  1
  Br  Br69  1  0.03176800  0.55608100  0.57924100  1
  Br  Br70  1  0.30802000  0.51260700  0.01513900  1
  Br  Br71  1  0.54312600  0.32648500  0.30501000  1
  Br  Br72  1  0.16662400  0.45182200  0.92223600  1
  Br  Br73  1  0.29173100  0.56811500  0.49962100  1
  Br  Br74  1  0.68260800  0.99348300  0.49830300  1
  Br  Br75  1  0.48739300  0.69198000  0.48486100  1
  Br  Br76  1  0.66613700  0.92300600  0.68365400  1
  Br  Br77  1  0.30727700  0.06641200  0.79946000  1
  Br  Br78  1  0.02238500  0.15901100  0.51410500  1
  Br  Br79  1  0.23550700  0.16796000  0.18457200  1
  Br  Br80  1  0.08045300  0.03779600  0.39975800  1
  Br  Br81  1  0.83204000  0.76449300  0.31542800  1
  Br  Br82  1  0.76449300  0.83204000  0.81542800  1
  Br  Br83  1  0.85581400  0.04783500  0.81873900  1
  Br  Br84  1  0.96823200  0.44391900  0.42075900  1
  Br  Br85  1  0.69272300  0.93358800  0.20054000  1
  Br  Br86  1  0.16796000  0.23550700  0.68457200  1
  Br  Br87  1  0.67351500  0.45687400  0.19499000  1
  Br  Br88  1  0.08191200  0.60341900  0.42281900  1
  Br  Br89  1  0.11115600  0.41137600  0.07845200  1
  Br  Br90  1  0.20981400  0.45335100  0.70244300  1
  Br  Br91  1  0.88884400  0.58862400  0.92154800  1
  Br  Br92  1  0.22170100  0.93763000  0.68167500  1
  Br  Br93  1  0.33386300  0.07699400  0.31634600  1
  Br  Br94  1  0.07699400  0.33386300  0.81634600  1
  Br  Br95  1  0.18198200  0.71342700  0.68512000  1
  Br  Br96  1  0.04783500  0.85581400  0.31873900  1
  Br  Br97  1  0.80352600  0.55883600  0.81322100  1
  Br  Br98  1  0.14389700  0.69434000  0.20924700  1
  Br  Br99  1  0.45182200  0.16662400  0.42223600  1
  Br  Br100  1  0.39658100  0.91808800  0.07718100  1
  Br  Br101  1  0.99348300  0.68260800  0.99830300  1
  Br  Br102  1  0.03779600  0.08045300  0.89975800  1
  Br  Br103  1  0.84098900  0.97761500  0.98589500  1
  Br  Br104  1  0.45383000  0.50520200  0.60040400  1
  Br  Br105  1  0.69314300  0.40171700  0.68211700  1
  Br  Br106  1  0.93358800  0.69272300  0.70054000  1
  Br  Br107  1  0.79018600  0.54664900  0.29755700  1
  Br  Br108  1  0.15901100  0.02238500  0.01410500  1
  Br  Br109  1  0.80686000  0.14759400  0.48578800  1
  Br  Br110  1  0.80842600  0.66931000  0.49919900  1
  Br  Br111  1  0.69198000  0.48739300  0.98486100  1
  Br  Br112  1  0.59828300  0.30685700  0.81788300  1
  Br  Br113  1  0.45687400  0.67351500  0.69499000  1
  Br  Br114  1  0.14759400  0.80686000  0.98578800  1
  Br  Br115  1  0.97761500  0.84098900  0.48589500  1
  Br  Br116  1  0.85610300  0.30566000  0.79075300  1
  Br  Br117  1  0.77829900  0.06237000  0.31832500  1
  Br  Br118  1  0.69434000  0.14389700  0.70924700  1
  Br  Br119  1  0.40171700  0.69314300  0.18211700  1
  Br  Br120  1  0.64635100  0.72417600  0.17922900  1
  Br  Br121  1  0.30566000  0.85610300  0.29075300  1
  Br  Br122  1  0.91954700  0.96220400  0.60024200  1
  Br  Br123  1  0.19647400  0.44116400  0.18677900  1
  Br  Br124  1  0.55608100  0.03176800  0.07924100  1
  Br  Br125  1  0.54817800  0.83337600  0.57776400  1
  Br  Br126  1  0.60341900  0.08191200  0.92281900  1
  Br  Br127  1  0.28657300  0.81801800  0.81488000  1
  Br  Br128  1  0.92300600  0.66613700  0.18365400  1
  Br  Br129  1  0.41137600  0.11115600  0.57845200  1
  Br  Br130  1  0.72417600  0.64635100  0.67922900  1
  Br  Br131  1  0.91808800  0.39658100  0.57718100  1
  Br  Br132  1  0.43188500  0.70826900  0.00037900  1
  Br  Br133  1  0.00651700  0.31739200  0.00169700  1
  Br  Br134  1  0.44391900  0.96823200  0.92075900  1
  Br  Br135  1  0.44116400  0.19647400  0.68677900  1
  Br  Br136  1  0.30685700  0.59828300  0.31788300  1
  Br  Br137  1  0.83337600  0.54817800  0.07776400  1
  Br  Br138  1  0.27582400  0.35364900  0.32077100  1
  Br  Br139  1  0.50520200  0.45383000  0.10040400  1
  Br  Br140  1  0.19157400  0.33069000  0.50080100  1
  Br  Br141  1  0.45335100  0.20981400  0.20244300  1
  Br  Br142  1  0.06641200  0.30727700  0.29946000  1
  Br  Br143  1  0.19314000  0.85240600  0.51421200  1
  Br  Br144  1  0.33069000  0.19157400  0.00080100  1
  Br  Br145  1  0.31739200  0.00651700  0.50169700  1
  Br  Br146  1  0.54664900  0.79018600  0.79755700  1
  Br  Br147  1  0.93763000  0.22170100  0.18167500  1
  Br  Br148  1  0.06237000  0.77829900  0.81832500  1
  Br  Br149  1  0.96220400  0.91954700  0.10024200  1
  Br  Br150  1  0.85240600  0.19314000  0.01421200  1
  Br  Br151  1  0.58862400  0.88884400  0.42154800  1
  Br  Br152  1  0.95216500  0.14418600  0.68126100  1
  Br  Br153  1  0.32648500  0.54312600  0.80501000  1
  Br  Br154  1  0.56811500  0.29173100  0.99962100  1
  Br  Br155  1  0.49479800  0.54617000  0.89959600  1
  Br  Br156  1  0.51260700  0.30802000  0.51513900  1
  Br  Br157  1  0.14418600  0.95216500  0.18126100  1
  Br  Br158  1  0.54617000  0.49479800  0.39959600  1
  Br  Br159  1  0.81801800  0.28657300  0.31488000  1
