# generated using pymatgen
data_C
_symmetry_space_group_name_H-M   'P 1'
_cell_length_a   9.79863424
_cell_length_b   9.79863424
_cell_length_c   9.79863447
_cell_angle_alpha   56.02849842
_cell_angle_beta   56.02849842
_cell_angle_gamma   56.02850343
_symmetry_Int_Tables_number   1
_chemical_formula_structural   C
_chemical_formula_sum   C60
_cell_volume   604.04507725
_cell_formula_units_Z   60
loop_
 _symmetry_equiv_pos_site_id
 _symmetry_equiv_pos_as_xyz
  1  'x, y, z'
loop_
 _atom_site_type_symbol
 _atom_site_label
 _atom_site_symmetry_multiplicity
 _atom_site_fract_x
 _atom_site_fract_y
 _atom_site_fract_z
 _atom_site_occupancy
  C  C0  1  0.02741200  0.87475400  0.71689100  1
  C  C1  1  0.24924500  0.24924500  0.57203200  1
  C  C2  1  0.71689100  0.02741200  0.87475400  1
  C  C3  1  0.91696500  0.47182900  0.64511800  1
  C  C4  1  0.02741200  0.71689100  0.87475400  1
  C  C5  1  0.08303500  0.52817100  0.35488200  1
  C  C6  1  0.57203200  0.24924500  0.24924500  1
  C  C7  1  0.64511800  0.91696500  0.47182900  1
  C  C8  1  0.63125900  0.88894200  0.19632400  1
  C  C9  1  0.24924500  0.57203200  0.24924500  1
  C  C10  1  0.88894200  0.19632400  0.63125900  1
  C  C11  1  0.94518500  0.79119600  0.45504400  1
  C  C12  1  0.73698300  0.73698300  0.30595800  1
  C  C13  1  0.73698300  0.30595800  0.73698300  1
  C  C14  1  0.47182900  0.64511800  0.91696500  1
  C  C15  1  0.52817100  0.08303500  0.35488200  1
  C  C16  1  0.28310900  0.97258800  0.12524600  1
  C  C17  1  0.05481500  0.54495600  0.20880400  1
  C  C18  1  0.05481500  0.20880400  0.54495600  1
  C  C19  1  0.12524600  0.97258800  0.28310900  1
  C  C20  1  0.08303500  0.35488200  0.52817100  1
  C  C21  1  0.45504400  0.94518500  0.79119600  1
  C  C22  1  0.94518500  0.45504400  0.79119600  1
  C  C23  1  0.30595800  0.73698300  0.73698300  1
  C  C24  1  0.91696500  0.64511800  0.47182900  1
  C  C25  1  0.97258800  0.12524600  0.28310900  1
  C  C26  1  0.19632400  0.63125900  0.88894200  1
  C  C27  1  0.12524600  0.28310900  0.97258800  1
  C  C28  1  0.63125900  0.19632400  0.88894200  1
  C  C29  1  0.26301700  0.69404200  0.26301700  1
  C  C30  1  0.42796800  0.75075500  0.75075500  1
  C  C31  1  0.87475400  0.02741200  0.71689100  1
  C  C32  1  0.47182900  0.91696500  0.64511800  1
  C  C33  1  0.35488200  0.52817100  0.08303500  1
  C  C34  1  0.20880400  0.05481500  0.54495600  1
  C  C35  1  0.75075500  0.42796800  0.75075500  1
  C  C36  1  0.75075500  0.75075500  0.42796800  1
  C  C37  1  0.79119600  0.45504400  0.94518500  1
  C  C38  1  0.71689100  0.87475400  0.02741200  1
  C  C39  1  0.69404200  0.26301700  0.26301700  1
  C  C40  1  0.54495600  0.05481500  0.20880400  1
  C  C41  1  0.79119600  0.94518500  0.45504400  1
  C  C42  1  0.52817100  0.35488200  0.08303500  1
  C  C43  1  0.26301700  0.26301700  0.69404200  1
  C  C44  1  0.64511800  0.47182900  0.91696500  1
  C  C45  1  0.11105800  0.80367600  0.36874100  1
  C  C46  1  0.35488200  0.08303500  0.52817100  1
  C  C47  1  0.19632400  0.88894200  0.63125900  1
  C  C48  1  0.97258800  0.28310900  0.12524600  1
  C  C49  1  0.54495600  0.20880400  0.05481500  1
  C  C50  1  0.80367600  0.11105800  0.36874100  1
  C  C51  1  0.88894200  0.63125900  0.19632400  1
  C  C52  1  0.11105800  0.36874100  0.80367600  1
  C  C53  1  0.28310900  0.12524600  0.97258800  1
  C  C54  1  0.36874100  0.80367600  0.11105800  1
  C  C55  1  0.45504400  0.79119600  0.94518500  1
  C  C56  1  0.87475400  0.71689100  0.02741200  1
  C  C57  1  0.20880400  0.54495600  0.05481500  1
  C  C58  1  0.36874100  0.11105800  0.80367600  1
  C  C59  1  0.80367600  0.36874100  0.11105800  1
