# generated using pymatgen
data_Cu2Bi8Pb2S15
_symmetry_space_group_name_H-M   'P 1'
_cell_length_a   4.02940500
_cell_length_b   11.69517600
_cell_length_c   55.84350100
_cell_angle_alpha   90.00000000
_cell_angle_beta   90.00000000
_cell_angle_gamma   90.00000000
_symmetry_Int_Tables_number   1
_chemical_formula_structural   Cu2Bi8Pb2S15
_chemical_formula_sum   'Cu8 Bi32 Pb8 S60'
_cell_volume   2631.60268354
_cell_formula_units_Z   4
loop_
 _symmetry_equiv_pos_site_id
 _symmetry_equiv_pos_as_xyz
  1  'x, y, z'
loop_
 _atom_site_type_symbol
 _atom_site_label
 _atom_site_symmetry_multiplicity
 _atom_site_fract_x
 _atom_site_fract_y
 _atom_site_fract_z
 _atom_site_occupancy
  Cu  Cu0  1  0.25000000  0.22055600  0.64183700  1
  Cu  Cu1  1  0.75000000  0.28043800  0.34299000  1
  Cu  Cu2  1  0.75000000  0.78043800  0.15701000  1
  Cu  Cu3  1  0.75000000  0.77944400  0.35816300  1
  Cu  Cu4  1  0.25000000  0.71956200  0.65701000  1
  Cu  Cu5  1  0.75000000  0.27944400  0.14183700  1
  Cu  Cu6  1  0.25000000  0.21956200  0.84299000  1
  Cu  Cu7  1  0.25000000  0.72055600  0.85816300  1
  Bi  Bi8  1  0.25000000  0.00584100  0.93529500  1
  Bi  Bi9  1  0.75000000  0.99262700  0.26568300  1
  Bi  Bi10  1  0.75000000  0.97638200  0.86278400  1
  Bi  Bi11  1  0.25000000  0.02728900  0.33743800  1
  Bi  Bi12  1  0.75000000  0.49415900  0.43529500  1
  Bi  Bi13  1  0.25000000  0.02058800  0.53375400  1
  Bi  Bi14  1  0.25000000  0.52058800  0.96624600  1
  Bi  Bi15  1  0.75000000  0.47941200  0.03375400  1
  Bi  Bi16  1  0.75000000  0.64541800  0.70761000  1
  Bi  Bi17  1  0.75000000  0.97941200  0.46624600  1
  Bi  Bi18  1  0.75000000  0.14541800  0.79239000  1
  Bi  Bi19  1  0.25000000  0.02361800  0.13721600  1
  Bi  Bi20  1  0.75000000  0.97271100  0.66256200  1
  Bi  Bi21  1  0.25000000  0.84302700  0.00769700  1
  Bi  Bi22  1  0.75000000  0.15697300  0.99230300  1
  Bi  Bi23  1  0.25000000  0.35222800  0.09278700  1
  Bi  Bi24  1  0.25000000  0.35458200  0.29239000  1
  Bi  Bi25  1  0.75000000  0.47271100  0.83743800  1
  Bi  Bi26  1  0.25000000  0.50737300  0.76568300  1
  Bi  Bi27  1  0.75000000  0.64777200  0.90721300  1
  Bi  Bi28  1  0.25000000  0.34302700  0.49230300  1
  Bi  Bi29  1  0.25000000  0.00737300  0.73431700  1
  Bi  Bi30  1  0.75000000  0.65697300  0.50769700  1
  Bi  Bi31  1  0.75000000  0.14777200  0.59278700  1
  Bi  Bi32  1  0.25000000  0.52361800  0.36278400  1
  Bi  Bi33  1  0.75000000  0.99415900  0.06470500  1
  Bi  Bi34  1  0.75000000  0.49262700  0.23431700  1
  Bi  Bi35  1  0.25000000  0.85222800  0.40721300  1
  Bi  Bi36  1  0.25000000  0.85458200  0.20761000  1
  Bi  Bi37  1  0.25000000  0.50584100  0.56470500  1
  Bi  Bi38  1  0.25000000  0.52728900  0.16256200  1
  Bi  Bi39  1  0.75000000  0.47638200  0.63721600  1
  Pb  Pb40  1  0.25000000  0.31672100  0.90100000  1
  Pb  Pb41  1  0.75000000  0.68478300  0.30040900  1
  Pb  Pb42  1  0.75000000  0.18327900  0.40100000  1
  Pb  Pb43  1  0.75000000  0.18478300  0.19959100  1
  Pb  Pb44  1  0.25000000  0.81521700  0.80040900  1
  Pb  Pb45  1  0.25000000  0.31521700  0.69959100  1
  Pb  Pb46  1  0.25000000  0.81672100  0.59900000  1
  Pb  Pb47  1  0.75000000  0.68327900  0.09900000  1
  S  S48  1  0.75000000  0.27389900  0.66020500  1
  S  S49  1  0.75000000  0.96006100  0.17472600  1
  S  S50  1  0.25000000  0.70436200  0.73914800  1
  S  S51  1  0.75000000  0.94436200  0.77148000  1
  S  S52  1  0.25000000  0.72778000  0.13865500  1
  S  S53  1  0.75000000  0.77222000  0.63865500  1
  S  S54  1  0.25000000  0.21191000  0.56184000  1
  S  S55  1  0.25000000  0.20674900  0.96026100  1
  S  S56  1  0.25000000  0.53993900  0.67472600  1
  S  S57  1  0.25000000  0.87282200  0.48991900  1
  S  S58  1  0.75000000  0.62717800  0.98991900  1
  S  S59  1  0.25000000  0.89074200  0.29023200  1
  S  S60  1  0.75000000  0.62833500  0.38794200  1
  S  S61  1  0.75000000  0.12833500  0.11205800  1
  S  S62  1  0.75000000  0.10669400  0.91087100  1
  S  S63  1  0.75000000  0.63287700  0.18772700  1
  S  S64  1  0.75000000  0.44887600  0.92924500  1
  S  S65  1  0.75000000  0.29325100  0.46026100  1
  S  S66  1  0.25000000  0.20436200  0.76085200  1
  S  S67  1  0.75000000  0.79325100  0.03973900  1
  S  S68  1  0.25000000  0.70674900  0.53973900  1
  S  S69  1  0.25000000  0.55563800  0.27148000  1
  S  S70  1  0.25000000  0.05112400  0.42924500  1
  S  S71  1  0.75000000  0.10925800  0.70976800  1
  S  S72  1  0.25000000  0.86712300  0.68772700  1
  S  S73  1  0.75000000  0.44436200  0.72852000  1
  S  S74  1  0.75000000  0.77389900  0.83979500  1
  S  S75  1  0.25000000  0.55112400  0.07075500  1
  S  S76  1  0.75000000  0.13287700  0.31227300  1
  S  S77  1  0.25000000  0.89330600  0.08912900  1
  S  S78  1  0.75000000  0.46006100  0.32527400  1
  S  S79  1  0.25000000  0.37282200  0.01008100  1
  S  S80  1  0.25000000  0.39074200  0.20976800  1
  S  S81  1  0.25000000  0.22610100  0.16020500  1
  S  S82  1  0.75000000  0.94887600  0.57075500  1
  S  S83  1  0.75000000  0.28809000  0.06184000  1
  S  S84  1  0.25000000  0.05563800  0.22852000  1
  S  S85  1  0.75000000  0.78809000  0.43816000  1
  S  S86  1  0.75000000  0.12717800  0.51008100  1
  S  S87  1  0.25000000  0.36712300  0.81227300  1
  S  S88  1  0.25000000  0.72610100  0.33979500  1
  S  S89  1  0.75000000  0.44828700  0.52534600  1
  S  S90  1  0.75000000  0.27222000  0.86134500  1
  S  S91  1  0.75000000  0.94828700  0.97465400  1
  S  S92  1  0.25000000  0.39330600  0.41087100  1
  S  S93  1  0.75000000  0.60925800  0.79023200  1
  S  S94  1  0.25000000  0.22778000  0.36134500  1
  S  S95  1  0.75000000  0.46181300  0.12544200  1
  S  S96  1  0.25000000  0.71191000  0.93816000  1
  S  S97  1  0.75000000  0.29563800  0.26085200  1
  S  S98  1  0.75000000  0.79563800  0.23914800  1
  S  S99  1  0.25000000  0.03993900  0.82527400  1
  S  S100  1  0.25000000  0.55171300  0.47465400  1
  S  S101  1  0.25000000  0.03818700  0.62544200  1
  S  S102  1  0.25000000  0.37166500  0.61205800  1
  S  S103  1  0.25000000  0.05171300  0.02534600  1
  S  S104  1  0.25000000  0.53818700  0.87455800  1
  S  S105  1  0.25000000  0.87166500  0.88794200  1
  S  S106  1  0.75000000  0.60669400  0.58912900  1
  S  S107  1  0.75000000  0.96181300  0.37455800  1
