# generated using pymatgen
data_Sm25Ni49P33
_symmetry_space_group_name_H-M   'P 1'
_cell_length_a   22.05919366
_cell_length_b   22.05919366
_cell_length_c   3.89262600
_cell_angle_alpha   90.00000000
_cell_angle_beta   90.00000000
_cell_angle_gamma   119.99999898
_symmetry_Int_Tables_number   1
_chemical_formula_structural   Sm25Ni49P33
_chemical_formula_sum   'Sm25 Ni49 P33'
_cell_volume   1640.41065741
_cell_formula_units_Z   1
loop_
 _symmetry_equiv_pos_site_id
 _symmetry_equiv_pos_as_xyz
  1  'x, y, z'
loop_
 _atom_site_type_symbol
 _atom_site_label
 _atom_site_symmetry_multiplicity
 _atom_site_fract_x
 _atom_site_fract_y
 _atom_site_fract_z
 _atom_site_occupancy
  Sm  Sm0  1  0.57388000  0.42612000  0.00000000  1
  Sm  Sm1  1  0.03656400  0.42825800  0.00000000  1
  Sm  Sm2  1  0.82288900  0.64577900  0.50000000  1
  Sm  Sm3  1  0.82046300  0.82139700  0.50000000  1
  Sm  Sm4  1  0.00093400  0.17953700  0.50000000  1
  Sm  Sm5  1  0.85224000  0.42612000  0.00000000  1
  Sm  Sm6  1  0.00000000  0.00000000  0.50000000  1
  Sm  Sm7  1  0.57174200  0.60830700  0.00000000  1
  Sm  Sm8  1  0.21391800  0.78608200  0.00000000  1
  Sm  Sm9  1  0.57216400  0.78608200  0.00000000  1
  Sm  Sm10  1  0.82046300  0.99906600  0.50000000  1
  Sm  Sm11  1  0.17860300  0.99906600  0.50000000  1
  Sm  Sm12  1  0.35422100  0.17711100  0.50000000  1
  Sm  Sm13  1  0.57174200  0.96343600  0.00000000  1
  Sm  Sm14  1  0.21391800  0.42783600  0.00000000  1
  Sm  Sm15  1  0.57388000  0.14776000  0.00000000  1
  Sm  Sm16  1  0.39270900  0.60729100  0.00000000  1
  Sm  Sm17  1  0.82288900  0.17711100  0.50000000  1
  Sm  Sm18  1  0.39169300  0.96343600  0.00000000  1
  Sm  Sm19  1  0.17860300  0.17953700  0.50000000  1
  Sm  Sm20  1  0.00093400  0.82139700  0.50000000  1
  Sm  Sm21  1  0.39270900  0.78541800  0.00000000  1
  Sm  Sm22  1  0.21458200  0.60729100  0.00000000  1
  Sm  Sm23  1  0.39169300  0.42825800  0.00000000  1
  Sm  Sm24  1  0.03656400  0.60830700  0.00000000  1
  Ni  Ni25  1  0.15155300  0.84844700  0.50000000  1
  Ni  Ni26  1  0.58395100  0.29197600  0.00000000  1
  Ni  Ni27  1  0.15485800  0.48764000  0.50000000  1
  Ni  Ni28  1  0.32925600  0.02602700  0.50000000  1
  Ni  Ni29  1  0.69550500  0.19509700  0.50000000  1
  Ni  Ni30  1  0.15155300  0.30310700  0.50000000  1
  Ni  Ni31  1  0.69677500  0.58280200  0.00000000  1
  Ni  Ni32  1  0.69550500  0.50040800  0.50000000  1
  Ni  Ni33  1  0.97397300  0.30322900  0.50000000  1
  Ni  Ni34  1  0.73883900  0.36941900  0.50000000  1
  Ni  Ni35  1  0.33278200  0.48764000  0.50000000  1
  Ni  Ni36  1  0.41719800  0.30322500  0.00000000  1
  Ni  Ni37  1  0.88008900  0.94004400  0.00000000  1
  Ni  Ni38  1  0.69677100  0.67074400  0.50000000  1
  Ni  Ni39  1  0.69560700  0.75966300  0.00000000  1
  Ni  Ni40  1  0.41719800  0.11397300  0.00000000  1
  Ni  Ni41  1  0.05995600  0.94004400  0.00000000  1
  Ni  Ni42  1  0.63058100  0.26116100  0.50000000  1
  Ni  Ni43  1  0.49959200  0.30449500  0.50000000  1
  Ni  Ni44  1  0.88602700  0.30322500  0.00000000  1
  Ni  Ni45  1  0.80490300  0.30449500  0.50000000  1
  Ni  Ni46  1  0.32925600  0.30322900  0.50000000  1
  Ni  Ni47  1  0.49959200  0.19509700  0.50000000  1
  Ni  Ni48  1  0.24033700  0.93594400  0.00000000  1
  Ni  Ni49  1  0.69689300  0.84844700  0.50000000  1
  Ni  Ni50  1  0.69677500  0.11397300  0.00000000  1
  Ni  Ni51  1  0.24033700  0.30439300  0.00000000  1
  Ni  Ni52  1  0.06405600  0.75966300  0.00000000  1
  Ni  Ni53  1  0.69677100  0.02602700  0.50000000  1
  Ni  Ni54  1  0.70802400  0.29197600  0.00000000  1
  Ni  Ni55  1  0.97647100  0.48823500  0.50000000  1
  Ni  Ni56  1  0.80490300  0.50040800  0.50000000  1
  Ni  Ni57  1  0.63058100  0.36941900  0.50000000  1
  Ni  Ni58  1  0.06405600  0.30439300  0.00000000  1
  Ni  Ni59  1  0.23790100  0.11895100  0.00000000  1
  Ni  Ni60  1  0.88104900  0.76209900  0.00000000  1
  Ni  Ni61  1  0.33333300  0.66666700  0.50000000  1
  Ni  Ni62  1  0.33278200  0.84514200  0.50000000  1
  Ni  Ni63  1  0.97397300  0.67074400  0.50000000  1
  Ni  Ni64  1  0.88104900  0.11895100  0.00000000  1
  Ni  Ni65  1  0.51176500  0.02352900  0.50000000  1
  Ni  Ni66  1  0.05995600  0.11991100  0.00000000  1
  Ni  Ni67  1  0.51236000  0.66721800  0.50000000  1
  Ni  Ni68  1  0.15485800  0.66721800  0.50000000  1
  Ni  Ni69  1  0.88602700  0.58280200  0.00000000  1
  Ni  Ni70  1  0.70802400  0.41604900  0.00000000  1
  Ni  Ni71  1  0.69560700  0.93594400  0.00000000  1
  Ni  Ni72  1  0.51236000  0.84514200  0.50000000  1
  Ni  Ni73  1  0.51176500  0.48823500  0.50000000  1
  P  P74  1  0.29552500  0.05821100  0.00000000  1
  P  P75  1  0.76268600  0.70447500  0.00000000  1
  P  P76  1  0.27378700  0.72621300  0.50000000  1
  P  P77  1  0.45242600  0.72621300  0.50000000  1
  P  P78  1  0.11883800  0.23767600  0.00000000  1
  P  P79  1  0.62847400  0.07941500  0.50000000  1
  P  P80  1  0.92058500  0.37152600  0.50000000  1
  P  P81  1  0.94066900  0.88133800  0.00000000  1
  P  P82  1  0.09611400  0.72647400  0.50000000  1
  P  P83  1  0.92058500  0.54905900  0.50000000  1
  P  P84  1  0.27378700  0.54757400  0.50000000  1
  P  P85  1  0.27352600  0.90388600  0.50000000  1
  P  P86  1  0.11883800  0.88116200  0.00000000  1
  P  P87  1  0.29552500  0.23731400  0.00000000  1
  P  P88  1  0.47046500  0.23523300  0.00000000  1
  P  P89  1  0.45094100  0.07941500  0.50000000  1
  P  P90  1  0.45094100  0.37152600  0.50000000  1
  P  P91  1  0.76476700  0.52953500  0.00000000  1
  P  P92  1  0.09611400  0.36964000  0.50000000  1
  P  P93  1  0.45197200  0.54802800  0.50000000  1
  P  P94  1  0.94178900  0.70447500  0.00000000  1
  P  P95  1  0.11866200  0.05933100  0.00000000  1
  P  P96  1  0.45197200  0.90394500  0.50000000  1
  P  P97  1  0.27352600  0.36964000  0.50000000  1
  P  P98  1  0.63036000  0.72647400  0.50000000  1
  P  P99  1  0.09605500  0.54802800  0.50000000  1
  P  P100  1  0.62847400  0.54905900  0.50000000  1
  P  P101  1  0.94066900  0.05933100  0.00000000  1
  P  P102  1  0.76232400  0.88116200  0.00000000  1
  P  P103  1  0.63036000  0.90388600  0.50000000  1
  P  P104  1  0.76476700  0.23523300  0.00000000  1
  P  P105  1  0.94178900  0.23731400  0.00000000  1
  P  P106  1  0.76268600  0.05821100  0.00000000  1
