# generated using pymatgen
data_Ce25Ni49P33
_symmetry_space_group_name_H-M   'P 1'
_cell_length_a   22.20964141
_cell_length_b   22.20964131
_cell_length_c   3.90894202
_cell_angle_alpha   90.00000000
_cell_angle_beta   90.00000000
_cell_angle_gamma   120.00000017
_symmetry_Int_Tables_number   1
_chemical_formula_structural   Ce25Ni49P33
_chemical_formula_sum   'Ce25 Ni49 P33'
_cell_volume   1669.83265949
_cell_formula_units_Z   1
loop_
 _symmetry_equiv_pos_site_id
 _symmetry_equiv_pos_as_xyz
  1  'x, y, z'
loop_
 _atom_site_type_symbol
 _atom_site_label
 _atom_site_symmetry_multiplicity
 _atom_site_fract_x
 _atom_site_fract_y
 _atom_site_fract_z
 _atom_site_occupancy
  Ce  Ce0  1  0.45441281  0.72720641  0.50000000  1
  Ce  Ce1  1  0.09341422  0.36723303  0.50000000  1
  Ce  Ce2  1  0.66402429  0.51397485  0.00000000  1
  Ce  Ce3  1  0.63276697  0.90658578  0.50000000  1
  Ce  Ce4  1  0.27279359  0.72720641  0.50000000  1
  Ce  Ce5  1  0.48602515  0.15004945  0.00000000  1
  Ce  Ce6  1  0.27279359  0.54558719  0.50000000  1
  Ce  Ce7  1  0.84995055  0.51397485  0.00000000  1
  Ce  Ce8  1  0.27381880  0.90658578  0.50000000  1
  Ce  Ce9  1  0.45313624  0.54686376  0.50000000  1
  Ce  Ce10  1  0.84995055  0.33597571  0.00000000  1
  Ce  Ce11  1  0.48602515  0.33597571  0.00000000  1
  Ce  Ce12  1  0.27381880  0.36723303  0.50000000  1
  Ce  Ce13  1  0.81763090  0.90881545  0.50000000  1
  Ce  Ce14  1  0.84595692  0.15404308  0.00000000  1
  Ce  Ce15  1  0.66402429  0.15004945  0.00000000  1
  Ce  Ce16  1  0.09118455  0.18236910  0.50000000  1
  Ce  Ce17  1  0.45313624  0.90627248  0.50000000  1
  Ce  Ce18  1  0.66666700  0.33333300  0.50000000  1
  Ce  Ce19  1  0.09341422  0.72618120  0.50000000  1
  Ce  Ce20  1  0.09372752  0.54686376  0.50000000  1
  Ce  Ce21  1  0.84595692  0.69191383  0.00000000  1
  Ce  Ce22  1  0.09118455  0.90881545  0.50000000  1
  Ce  Ce23  1  0.30808617  0.15404308  0.00000000  1
  Ce  Ce24  1  0.63276697  0.72618120  0.50000000  1
  Ni  Ni25  1  0.15342777  0.84657223  0.00000000  1
  Ni  Ni26  1  0.97127353  0.57644167  0.50000000  1
  Ni  Ni27  1  0.60516814  0.57644167  0.50000000  1
  Ni  Ni28  1  0.51342997  0.48657003  0.00000000  1
  Ni  Ni29  1  0.97037164  0.66408117  0.00000000  1
  Ni  Ni30  1  0.97127353  0.39483186  0.50000000  1
  Ni  Ni31  1  0.33591883  0.02962836  0.00000000  1
  Ni  Ni32  1  0.97045117  0.21628886  0.50000000  1
  Ni  Ni33  1  0.60516814  0.02872647  0.50000000  1
  Ni  Ni34  1  0.15399387  0.66726574  0.00000000  1
  Ni  Ni35  1  0.03602804  0.96397196  0.00000000  1
  Ni  Ni36  1  0.97037164  0.30629048  0.00000000  1
  Ni  Ni37  1  0.24583769  0.02954883  0.50000000  1
  Ni  Ni38  1  0.03602804  0.07205608  0.00000000  1
  Ni  Ni39  1  0.69370952  0.66408117  0.00000000  1
  Ni  Ni40  1  0.97179508  0.13586981  0.00000000  1
  Ni  Ni41  1  0.16407473  0.13586981  0.00000000  1
  Ni  Ni42  1  0.16407473  0.02820492  0.00000000  1
  Ni  Ni43  1  0.33333300  0.66666700  0.00000000  1
  Ni  Ni44  1  0.33273426  0.84600613  0.00000000  1
  Ni  Ni45  1  0.69370952  0.02962836  0.00000000  1
  Ni  Ni46  1  0.86413019  0.83592527  0.00000000  1
  Ni  Ni47  1  0.51327187  0.84600613  0.00000000  1
  Ni  Ni48  1  0.79111531  0.58223062  0.50000000  1
  Ni  Ni49  1  0.42355833  0.02872647  0.50000000  1
  Ni  Ni50  1  0.33591883  0.30629048  0.00000000  1
  Ni  Ni51  1  0.41776938  0.20888469  0.50000000  1
  Ni  Ni52  1  0.97179508  0.83592527  0.00000000  1
  Ni  Ni53  1  0.51327187  0.66726574  0.00000000  1
  Ni  Ni54  1  0.79111531  0.20888469  0.50000000  1
  Ni  Ni55  1  0.95955771  0.91911541  0.50000000  1
  Ni  Ni56  1  0.92794392  0.96397196  0.00000000  1
  Ni  Ni57  1  0.95955771  0.04044229  0.50000000  1
  Ni  Ni58  1  0.51342997  0.02685994  0.00000000  1
  Ni  Ni59  1  0.78371114  0.75416231  0.50000000  1
  Ni  Ni60  1  0.78371114  0.02954883  0.50000000  1
  Ni  Ni61  1  0.60264649  0.39735351  0.50000000  1
  Ni  Ni62  1  0.97314006  0.48657003  0.00000000  1
  Ni  Ni63  1  0.60264649  0.20529297  0.50000000  1
  Ni  Ni64  1  0.15399387  0.48672813  0.00000000  1
  Ni  Ni65  1  0.42355833  0.39483186  0.50000000  1
  Ni  Ni66  1  0.79470703  0.39735351  0.50000000  1
  Ni  Ni67  1  0.33273426  0.48672813  0.00000000  1
  Ni  Ni68  1  0.97045117  0.75416231  0.50000000  1
  Ni  Ni69  1  0.69314447  0.84657223  0.00000000  1
  Ni  Ni70  1  0.15342777  0.30685553  0.00000000  1
  Ni  Ni71  1  0.08088459  0.04044229  0.50000000  1
  Ni  Ni72  1  0.24583769  0.21628886  0.50000000  1
  Ni  Ni73  1  0.86413019  0.02820492  0.00000000  1
  P  P74  1  0.72588541  0.63337240  0.50000000  1
  P  P75  1  0.54439385  0.45560615  0.50000000  1
  P  P76  1  0.21449950  0.25124295  0.00000000  1
  P  P77  1  0.03597734  0.60820783  0.00000000  1
  P  P78  1  0.39179217  0.42776952  0.00000000  1
  P  P79  1  0.36662760  0.27411459  0.50000000  1
  P  P80  1  0.39273657  0.60726343  0.00000000  1
  P  P81  1  0.52926753  0.26463376  0.50000000  1
  P  P82  1  0.39179217  0.96402266  0.00000000  1
  P  P83  1  0.03674345  0.25124295  0.00000000  1
  P  P84  1  0.21318227  0.78681773  0.00000000  1
  P  P85  1  0.90296397  0.09703603  0.50000000  1
  P  P86  1  0.91121229  0.45560615  0.50000000  1
  P  P87  1  0.21452686  0.60726343  0.00000000  1
  P  P88  1  0.73536624  0.47073247  0.50000000  1
  P  P89  1  0.19407207  0.09703603  0.50000000  1
  P  P90  1  0.73536624  0.26463376  0.50000000  1
  P  P91  1  0.36662760  0.09251301  0.50000000  1
  P  P92  1  0.72588541  0.09251301  0.50000000  1
  P  P93  1  0.21318227  0.42636454  0.00000000  1
  P  P94  1  0.90748699  0.63337240  0.50000000  1
  P  P95  1  0.03597734  0.42776952  0.00000000  1
  P  P96  1  0.57223048  0.60820783  0.00000000  1
  P  P97  1  0.90296397  0.80592793  0.50000000  1
  P  P98  1  0.57223048  0.96402266  0.00000000  1
  P  P99  1  0.90748699  0.27411459  0.50000000  1
  P  P100  1  0.54439385  0.08878771  0.50000000  1
  P  P101  1  0.39273657  0.78547314  0.00000000  1
  P  P102  1  0.74875705  0.78550050  0.00000000  1
  P  P103  1  0.74875705  0.96325655  0.00000000  1
  P  P104  1  0.21449950  0.96325655  0.00000000  1
  P  P105  1  0.03674345  0.78550050  0.00000000  1
  P  P106  1  0.57363546  0.78681773  0.00000000  1
