# generated using pymatgen
data_Tc(CO)5
_symmetry_space_group_name_H-M   'P 1'
_cell_length_a   9.72581096
_cell_length_b   9.72581096
_cell_length_c   14.76355767
_cell_angle_alpha   56.41452802
_cell_angle_beta   56.41452802
_cell_angle_gamma   43.72928190
_symmetry_Int_Tables_number   1
_chemical_formula_structural   Tc(CO)5
_chemical_formula_sum   'Tc4 C20 O20'
_cell_volume   775.10978034
_cell_formula_units_Z   4
loop_
 _symmetry_equiv_pos_site_id
 _symmetry_equiv_pos_as_xyz
  1  'x, y, z'
loop_
 _atom_site_type_symbol
 _atom_site_label
 _atom_site_symmetry_multiplicity
 _atom_site_fract_x
 _atom_site_fract_y
 _atom_site_fract_z
 _atom_site_occupancy
  Tc  Tc0  1  0.69983100  0.15972400  0.22297100  1
  Tc  Tc1  1  0.15972400  0.69983100  0.72297100  1
  Tc  Tc2  1  0.84027600  0.30016900  0.27702900  1
  Tc  Tc3  1  0.30016900  0.84027600  0.77702900  1
  C  C4  1  0.26478200  0.04307800  0.62556700  1
  C  C5  1  0.69033300  0.37197700  0.07487200  1
  C  C6  1  0.41378700  0.37793400  0.29332500  1
  C  C7  1  0.40088800  0.92496700  0.80419800  1
  C  C8  1  0.62802300  0.30966700  0.42512800  1
  C  C9  1  0.99378400  0.95855000  0.15119100  1
  C  C10  1  0.95692200  0.73521800  0.87443300  1
  C  C11  1  0.59911200  0.07503300  0.19580200  1
  C  C12  1  0.04307800  0.26478200  0.12556700  1
  C  C13  1  0.92496700  0.40088800  0.30419800  1
  C  C14  1  0.95855000  0.99378400  0.65119100  1
  C  C15  1  0.30966700  0.62802300  0.92512800  1
  C  C16  1  0.62206600  0.58621300  0.20667500  1
  C  C17  1  0.58621300  0.62206600  0.70667500  1
  C  C18  1  0.73521800  0.95692200  0.37443300  1
  C  C19  1  0.00621600  0.04145000  0.84880900  1
  C  C20  1  0.37793400  0.41378700  0.79332500  1
  C  C21  1  0.04145000  0.00621600  0.34880900  1
  C  C22  1  0.37197700  0.69033300  0.57487200  1
  C  C23  1  0.07503300  0.59911200  0.69580200  1
  O  O24  1  0.75617500  0.83845000  0.46204300  1
  O  O25  1  0.30895400  0.50962700  0.01241400  1
  O  O26  1  0.16155000  0.24382500  0.03795700  1
  O  O27  1  0.83845000  0.75617500  0.96204300  1
  O  O28  1  0.84425500  0.16179600  0.60539600  1
  O  O29  1  0.69104600  0.49037300  0.98758600  1
  O  O30  1  0.97729300  0.46443700  0.31633000  1
  O  O31  1  0.02270700  0.53556300  0.68367000  1
  O  O32  1  0.46443700  0.97729300  0.81633000  1
  O  O33  1  0.75161900  0.49329800  0.66846700  1
  O  O34  1  0.16179600  0.84425500  0.10539600  1
  O  O35  1  0.24382500  0.16155000  0.53795700  1
  O  O36  1  0.50962700  0.30895400  0.51241400  1
  O  O37  1  0.53556300  0.02270700  0.18367000  1
  O  O38  1  0.83820400  0.15574500  0.89460400  1
  O  O39  1  0.49329800  0.75161900  0.16846700  1
  O  O40  1  0.50670200  0.24838100  0.83153300  1
  O  O41  1  0.24838100  0.50670200  0.33153300  1
  O  O42  1  0.49037300  0.69104600  0.48758600  1
  O  O43  1  0.15574500  0.83820400  0.39460400  1
