# generated using pymatgen
data_U4Ga20Ni11
_symmetry_space_group_name_H-M   'P 1'
_cell_length_a   4.12243183
_cell_length_b   10.57140764
_cell_length_c   12.88068784
_cell_angle_alpha   80.93566634
_cell_angle_beta   80.83423912
_cell_angle_gamma   78.80059812
_symmetry_Int_Tables_number   1
_chemical_formula_structural   U4Ga20Ni11
_chemical_formula_sum   'U4 Ga20 Ni11'
_cell_volume   538.95331954
_cell_formula_units_Z   1
loop_
 _symmetry_equiv_pos_site_id
 _symmetry_equiv_pos_as_xyz
  1  'x, y, z'
loop_
 _atom_site_type_symbol
 _atom_site_label
 _atom_site_symmetry_multiplicity
 _atom_site_fract_x
 _atom_site_fract_y
 _atom_site_fract_z
 _atom_site_occupancy
  U  U0  1  0.12013106  0.09346536  0.66945048  1
  U  U1  1  0.22943623  0.36696669  0.17727892  1
  U  U2  1  0.77778818  0.63198883  0.82228826  1
  U  U3  1  0.88832873  0.90365348  0.33088990  1
  Ga  Ga4  1  0.06982467  0.66611729  0.20318518  1
  Ga  Ga5  1  0.30134457  0.90268868  0.50029064  1
  Ga  Ga6  1  0.60270639  0.79570702  0.00377623  1
  Ga  Ga7  1  0.25756603  0.79344203  0.70215969  1
  Ga  Ga8  1  0.89004467  0.67075775  0.54851769  1
  Ga  Ga9  1  0.74656765  0.20590405  0.29792291  1
  Ga  Ga10  1  0.63248327  0.93953030  0.80671476  1
  Ga  Ga11  1  0.70098222  0.09777672  0.49884143  1
  Ga  Ga12  1  0.40286654  0.20597730  0.99511761  1
  Ga  Ga13  1  0.93424531  0.33534340  0.79408667  1
  Ga  Ga14  1  0.46401272  0.70294107  0.37750324  1
  Ga  Ga15  1  0.99842900  0.92241152  0.08838163  1
  Ga  Ga16  1  0.80417575  0.39218729  0.00258579  1
  Ga  Ga17  1  0.54300391  0.29553981  0.62153656  1
  Ga  Ga18  1  0.00611094  0.08047885  0.91021085  1
  Ga  Ga19  1  0.19953862  0.60731078  0.99767448  1
  Ga  Ga20  1  0.10555811  0.32923193  0.45082220  1
  Ga  Ga21  1  0.37861932  0.06004988  0.19487485  1
  Ga  Ga22  1  0.61349086  0.47131693  0.30801516  1
  Ga  Ga23  1  0.39555422  0.52846956  0.69002702  1
  Ni  Ni24  1  0.13974766  0.83871780  0.89338719  1
  Ni  Ni25  1  0.50063279  0.18034629  0.80826465  1
  Ni  Ni26  1  0.87167061  0.16039292  0.10620202  1
  Ni  Ni27  1  0.97891444  0.43641582  0.61079958  1
  Ni  Ni28  1  0.50315819  0.49886993  0.49898170  1
  Ni  Ni29  1  0.65914904  0.57605592  0.11281598  1
  Ni  Ni30  1  0.02739082  0.56380529  0.38733452  1
  Ni  Ni31  1  0.34334226  0.42595829  0.88636324  1
  Ni  Ni32  1  0.24471118  0.11958737  0.38612070  1
  Ni  Ni33  1  0.50128998  0.82067924  0.19028516  1
  Ni  Ni34  1  0.75598905  0.88183959  0.61293108  1
