# generated using pymatgen
data_SrTi2O5
_symmetry_space_group_name_H-M   'P 1'
_cell_length_a   9.11899663
_cell_length_b   9.11899663
_cell_length_c   11.55570500
_cell_angle_alpha   90.00000000
_cell_angle_beta   90.00000000
_cell_angle_gamma   128.08500466
_symmetry_Int_Tables_number   1
_chemical_formula_structural   SrTi2O5
_chemical_formula_sum   'Sr4 Ti8 O20'
_cell_volume   756.34254384
_cell_formula_units_Z   4
loop_
 _symmetry_equiv_pos_site_id
 _symmetry_equiv_pos_as_xyz
  1  'x, y, z'
loop_
 _atom_site_type_symbol
 _atom_site_label
 _atom_site_symmetry_multiplicity
 _atom_site_fract_x
 _atom_site_fract_y
 _atom_site_fract_z
 _atom_site_occupancy
  Sr  Sr0  1  0.50000000  0.50000000  0.38761500  1
  Sr  Sr1  1  0.23061900  0.76938100  0.39582500  1
  Sr  Sr2  1  0.76938100  0.23061900  0.39582500  1
  Sr  Sr3  1  0.00000000  0.00000000  0.36326400  1
  Ti  Ti4  1  0.39727300  0.12689900  0.24683000  1
  Ti  Ti5  1  0.60272700  0.87310100  0.24683000  1
  Ti  Ti6  1  0.87310100  0.60272700  0.24683000  1
  Ti  Ti7  1  0.12689900  0.39727300  0.24683000  1
  Ti  Ti8  1  0.71439500  0.71439500  0.06865400  1
  Ti  Ti9  1  0.28560500  0.28560500  0.06865400  1
  Ti  Ti10  1  0.12324600  0.87675400  0.04240100  1
  Ti  Ti11  1  0.87675400  0.12324600  0.04240100  1
  O  O12  1  0.81189300  0.18810700  0.93300600  1
  O  O13  1  0.71502800  0.71502800  0.22843700  1
  O  O14  1  0.32803900  0.10581000  0.39982500  1
  O  O15  1  0.36519500  0.63480500  0.26835100  1
  O  O16  1  0.86354100  0.13645900  0.22188000  1
  O  O17  1  0.35789500  0.13072300  0.07638100  1
  O  O18  1  0.50000000  0.00000000  0.26725400  1
  O  O19  1  0.13072300  0.35789500  0.07638100  1
  O  O20  1  0.64210500  0.86927700  0.07638100  1
  O  O21  1  0.89419000  0.67196100  0.39982500  1
  O  O22  1  0.63480500  0.36519500  0.26835100  1
  O  O23  1  0.00000000  0.50000000  0.26725400  1
  O  O24  1  0.13645900  0.86354100  0.22188000  1
  O  O25  1  0.18810700  0.81189300  0.93300600  1
  O  O26  1  0.10581000  0.32803900  0.39982500  1
  O  O27  1  0.28497200  0.28497200  0.22843700  1
  O  O28  1  0.67196100  0.89419000  0.39982500  1
  O  O29  1  0.50000000  0.50000000  0.01405400  1
  O  O30  1  0.00000000  0.00000000  0.01557400  1
  O  O31  1  0.86927700  0.64210500  0.07638100  1
