# generated using pymatgen
data_AgCNO
_symmetry_space_group_name_H-M   'P 1'
_cell_length_a   9.58151984
_cell_length_b   9.58151984
_cell_length_c   9.58152002
_cell_angle_alpha   116.03567311
_cell_angle_beta   116.03567311
_cell_angle_gamma   116.03567523
_symmetry_Int_Tables_number   1
_chemical_formula_structural   AgCNO
_chemical_formula_sum   'Ag6 C6 N6 O6'
_cell_volume   442.35368584
_cell_formula_units_Z   6
loop_
 _symmetry_equiv_pos_site_id
 _symmetry_equiv_pos_as_xyz
  1  'x, y, z'
loop_
 _atom_site_type_symbol
 _atom_site_label
 _atom_site_symmetry_multiplicity
 _atom_site_fract_x
 _atom_site_fract_y
 _atom_site_fract_z
 _atom_site_occupancy
  Ag  Ag0  1  0.93701400  0.19225900  0.85066600  1
  Ag  Ag1  1  0.85066600  0.93701400  0.19225900  1
  Ag  Ag2  1  0.19225900  0.85066600  0.93701400  1
  Ag  Ag3  1  0.06298600  0.80774100  0.14933400  1
  Ag  Ag4  1  0.14933400  0.06298600  0.80774100  1
  Ag  Ag5  1  0.80774100  0.14933400  0.06298600  1
  C  C6  1  0.58759800  0.96251400  0.69857500  1
  C  C7  1  0.69857500  0.58759800  0.96251400  1
  C  C8  1  0.96251400  0.69857500  0.58759800  1
  C  C9  1  0.41240200  0.03748600  0.30142500  1
  C  C10  1  0.30142500  0.41240200  0.03748600  1
  C  C11  1  0.03748600  0.30142500  0.41240200  1
  N  N12  1  0.37429400  0.80688700  0.50442800  1
  N  N13  1  0.50442800  0.37429400  0.80688700  1
  N  N14  1  0.19311300  0.49557200  0.62570600  1
  N  N15  1  0.62570600  0.19311300  0.49557200  1
  N  N16  1  0.49557200  0.62570600  0.19311300  1
  N  N17  1  0.80688700  0.50442800  0.37429400  1
  O  O18  1  0.35482000  0.69709000  0.84728500  1
  O  O19  1  0.30291000  0.15271500  0.64518000  1
  O  O20  1  0.64518000  0.30291000  0.15271500  1
  O  O21  1  0.84728500  0.35482000  0.69709000  1
  O  O22  1  0.69709000  0.84728500  0.35482000  1
  O  O23  1  0.15271500  0.64518000  0.30291000  1
