# generated using pymatgen
data_Cr(CO)6
_symmetry_space_group_name_H-M   'P 1'
_cell_length_a   6.54875400
_cell_length_b   11.43347400
_cell_length_c   12.21296400
_cell_angle_alpha   90.00000000
_cell_angle_beta   90.00000000
_cell_angle_gamma   90.00000000
_symmetry_Int_Tables_number   1
_chemical_formula_structural   Cr(CO)6
_chemical_formula_sum   'Cr4 C24 O24'
_cell_volume   914.44578443
_cell_formula_units_Z   4
loop_
 _symmetry_equiv_pos_site_id
 _symmetry_equiv_pos_as_xyz
  1  'x, y, z'
loop_
 _atom_site_type_symbol
 _atom_site_label
 _atom_site_symmetry_multiplicity
 _atom_site_fract_x
 _atom_site_fract_y
 _atom_site_fract_z
 _atom_site_occupancy
  Cr  Cr0  1  0.06491900  0.25000000  0.87197500  1
  Cr  Cr1  1  0.93508100  0.75000000  0.12802500  1
  Cr  Cr2  1  0.56491900  0.75000000  0.62802500  1
  Cr  Cr3  1  0.43508100  0.25000000  0.37197500  1
  C  C4  1  0.62878800  0.44777800  0.22124000  1
  C  C5  1  0.62878800  0.05222200  0.22124000  1
  C  C6  1  0.37121200  0.55222200  0.77876000  1
  C  C7  1  0.24726100  0.05466400  0.52771200  1
  C  C8  1  0.25273900  0.44533600  0.02771200  1
  C  C9  1  0.75273900  0.55466400  0.47228800  1
  C  C10  1  0.15698700  0.75000000  0.48670000  1
  C  C11  1  0.12878800  0.94777800  0.27876000  1
  C  C12  1  0.75273900  0.94533600  0.47228800  1
  C  C13  1  0.87121200  0.05222200  0.72124000  1
  C  C14  1  0.34301300  0.75000000  0.98670000  1
  C  C15  1  0.53532700  0.75000000  0.27293200  1
  C  C16  1  0.25273900  0.05466400  0.02771200  1
  C  C17  1  0.37121200  0.94777800  0.77876000  1
  C  C18  1  0.96467300  0.75000000  0.77293200  1
  C  C19  1  0.24726100  0.44533600  0.52771200  1
  C  C20  1  0.74726100  0.94533600  0.97228800  1
  C  C21  1  0.87121200  0.44777800  0.72124000  1
  C  C22  1  0.46467300  0.25000000  0.72706800  1
  C  C23  1  0.65698700  0.25000000  0.01330000  1
  C  C24  1  0.03532700  0.25000000  0.22706800  1
  C  C25  1  0.74726100  0.55466400  0.97228800  1
  C  C26  1  0.84301300  0.25000000  0.51330000  1
  C  C27  1  0.12878800  0.55222200  0.27876000  1
  O  O28  1  0.94463600  0.12491100  0.77471900  1
  O  O29  1  0.55536400  0.12491100  0.27471900  1
  O  O30  1  0.44463600  0.62491100  0.72528100  1
  O  O31  1  0.68376700  0.62621900  0.52901100  1
  O  O32  1  0.81623300  0.62621900  0.02901100  1
  O  O33  1  0.81623300  0.87378100  0.02901100  1
  O  O34  1  0.80487100  0.25000000  0.96073100  1
  O  O35  1  0.18376700  0.37378100  0.97098900  1
  O  O36  1  0.94463600  0.37508900  0.77471900  1
  O  O37  1  0.31623300  0.12621900  0.47098900  1
  O  O38  1  0.31898400  0.25000000  0.78158300  1
  O  O39  1  0.68101600  0.75000000  0.21841700  1
  O  O40  1  0.31623300  0.37378100  0.47098900  1
  O  O41  1  0.68376700  0.87378100  0.52901100  1
  O  O42  1  0.30487100  0.75000000  0.53926900  1
  O  O43  1  0.05536400  0.87508900  0.22528100  1
  O  O44  1  0.18376700  0.12621900  0.97098900  1
  O  O45  1  0.69512900  0.25000000  0.46073100  1
  O  O46  1  0.18101600  0.25000000  0.28158300  1
  O  O47  1  0.81898400  0.75000000  0.71841700  1
  O  O48  1  0.05536400  0.62491100  0.22528100  1
  O  O49  1  0.19512900  0.75000000  0.03926900  1
  O  O50  1  0.44463600  0.87508900  0.72528100  1
  O  O51  1  0.55536400  0.37508900  0.27471900  1
