# generated using pymatgen
data_KCaNb2O6F
_symmetry_space_group_name_H-M   'P 1'
_cell_length_a   7.59240212
_cell_length_b   7.59240212
_cell_length_c   7.59240212
_cell_angle_alpha   120.91047724
_cell_angle_beta   119.49440206
_cell_angle_gamma   89.65412201
_symmetry_Int_Tables_number   1
_chemical_formula_structural   KCaNb2O6F
_chemical_formula_sum   'K2 Ca2 Nb4 O12 F2'
_cell_volume   308.46051124
_cell_formula_units_Z   2
loop_
 _symmetry_equiv_pos_site_id
 _symmetry_equiv_pos_as_xyz
  1  'x, y, z'
loop_
 _atom_site_type_symbol
 _atom_site_label
 _atom_site_symmetry_multiplicity
 _atom_site_fract_x
 _atom_site_fract_y
 _atom_site_fract_z
 _atom_site_occupancy
  K  K0  1  0.00000000  0.50000000  0.00000000  1
  K  K1  1  0.00000000  0.00000000  0.50000000  1
  Ca  Ca2  1  0.00000000  0.50000000  0.50000000  1
  Ca  Ca3  1  0.50000000  0.50000000  0.00000000  1
  Nb  Nb4  1  0.50000000  0.00000000  0.50000000  1
  Nb  Nb5  1  0.50000000  0.50000000  0.50000000  1
  Nb  Nb6  1  0.00000000  0.00000000  0.00000000  1
  Nb  Nb7  1  0.50000000  0.00000000  0.00000000  1
  O  O8  1  0.18673100  0.92793000  0.86977700  1
  O  O9  1  0.19124500  0.94124500  0.25000000  1
  O  O10  1  0.18673100  0.31695400  0.25880100  1
  O  O11  1  0.55815300  0.92793000  0.24119900  1
  O  O12  1  0.44184700  0.68304600  0.36977700  1
  O  O13  1  0.43119300  0.68119300  0.75000000  1
  O  O14  1  0.56880600  0.31880600  0.25000000  1
  O  O15  1  0.55815300  0.31695400  0.63022300  1
  O  O16  1  0.44184700  0.07207000  0.75880100  1
  O  O17  1  0.81326900  0.68304600  0.74119900  1
  O  O18  1  0.80875500  0.05875500  0.75000000  1
  O  O19  1  0.81326900  0.07207000  0.13022300  1
  F  F20  1  0.84680200  0.59680200  0.25000000  1
  F  F21  1  0.15319800  0.40319800  0.75000000  1
