# generated using pymatgen
data_Ba5Na2Ru3O14
_symmetry_space_group_name_H-M   'P 1'
_cell_length_a   5.95439808
_cell_length_b   5.95439808
_cell_length_c   24.51998000
_cell_angle_alpha   90.00000000
_cell_angle_beta   90.00000000
_cell_angle_gamma   119.70743169
_symmetry_Int_Tables_number   1
_chemical_formula_structural   Ba5Na2Ru3O14
_chemical_formula_sum   'Ba10 Na4 Ru6 O28'
_cell_volume   755.09099365
_cell_formula_units_Z   2
loop_
 _symmetry_equiv_pos_site_id
 _symmetry_equiv_pos_as_xyz
  1  'x, y, z'
loop_
 _atom_site_type_symbol
 _atom_site_label
 _atom_site_symmetry_multiplicity
 _atom_site_fract_x
 _atom_site_fract_y
 _atom_site_fract_z
 _atom_site_occupancy
  Ba  Ba0  1  0.00557200  0.99442800  0.15109500  1
  Ba  Ba1  1  0.67018900  0.32981100  0.93572000  1
  Ba  Ba2  1  0.32981100  0.67018900  0.43572000  1
  Ba  Ba3  1  0.99442800  0.00557200  0.65109500  1
  Ba  Ba4  1  0.99409800  0.00590200  0.32892600  1
  Ba  Ba5  1  0.66134000  0.33866000  0.54448500  1
  Ba  Ba6  1  0.66384900  0.33615100  0.24277000  1
  Ba  Ba7  1  0.33615100  0.66384900  0.74277000  1
  Ba  Ba8  1  0.33866000  0.66134000  0.04448500  1
  Ba  Ba9  1  0.00590200  0.99409800  0.82892600  1
  Na  Na10  1  0.33837600  0.66162400  0.89565400  1
  Na  Na11  1  0.65560500  0.34439500  0.09441100  1
  Na  Na12  1  0.66162400  0.33837600  0.39565400  1
  Na  Na13  1  0.34439500  0.65560500  0.59441100  1
  Ru  Ru14  1  0.00662700  0.99337300  0.99158700  1
  Ru  Ru15  1  0.33211500  0.66788500  0.18610300  1
  Ru  Ru16  1  0.32701700  0.67298300  0.29906300  1
  Ru  Ru17  1  0.66788500  0.33211500  0.68610300  1
  Ru  Ru18  1  0.67298300  0.32701700  0.79906300  1
  Ru  Ru19  1  0.99337200  0.00662800  0.49158700  1
  O  O20  1  0.88690300  0.67266300  0.46091300  1
  O  O21  1  0.62916900  0.82320300  0.24393300  1
  O  O22  1  0.48027000  0.98472100  0.33970600  1
  O  O23  1  0.02428900  0.50212600  0.14383200  1
  O  O24  1  0.27831200  0.16584200  0.04410200  1
  O  O25  1  0.49311800  0.50688200  0.15058400  1
  O  O26  1  0.37083100  0.17679700  0.74393300  1
  O  O27  1  0.17681300  0.82318700  0.24122300  1
  O  O28  1  0.50688200  0.49311800  0.65058400  1
  O  O29  1  0.14574900  0.85425100  0.94542900  1
  O  O30  1  0.67266300  0.88690300  0.96091300  1
  O  O31  1  0.16584200  0.27831200  0.54410200  1
  O  O32  1  0.49787400  0.97571100  0.14383200  1
  O  O33  1  0.83415800  0.72168800  0.04410200  1
  O  O34  1  0.98472100  0.48027000  0.83970600  1
  O  O35  1  0.32733700  0.11309700  0.46091300  1
  O  O36  1  0.97571100  0.49787400  0.64383200  1
  O  O37  1  0.72168800  0.83415800  0.54410200  1
  O  O38  1  0.01527900  0.51973000  0.33970600  1
  O  O39  1  0.50212600  0.02428900  0.64383200  1
  O  O40  1  0.51864500  0.48135500  0.84148900  1
  O  O41  1  0.11309700  0.32733700  0.96091300  1
  O  O42  1  0.85425100  0.14574900  0.44542900  1
  O  O43  1  0.17679700  0.37083100  0.24393300  1
  O  O44  1  0.82320300  0.62916900  0.74393300  1
  O  O45  1  0.48135500  0.51864500  0.34148900  1
  O  O46  1  0.82318700  0.17681300  0.74122300  1
  O  O47  1  0.51973000  0.01527900  0.83970600  1
