# generated using pymatgen
data_AlPO4
_symmetry_space_group_name_H-M   'P 1'
_cell_length_a   14.18972400
_cell_length_b   15.36385100
_cell_length_c   17.65133700
_cell_angle_alpha   90.00000000
_cell_angle_beta   90.00000000
_cell_angle_gamma   90.00000000
_symmetry_Int_Tables_number   1
_chemical_formula_structural   AlPO4
_chemical_formula_sum   'Al32 P32 O128'
_cell_volume   3848.14689074
_cell_formula_units_Z   32
loop_
 _symmetry_equiv_pos_site_id
 _symmetry_equiv_pos_as_xyz
  1  'x, y, z'
loop_
 _atom_site_type_symbol
 _atom_site_label
 _atom_site_symmetry_multiplicity
 _atom_site_fract_x
 _atom_site_fract_y
 _atom_site_fract_z
 _atom_site_occupancy
  Al  Al0  1  0.07795500  0.59944100  0.42653500  1
  Al  Al1  1  0.42204500  0.09944100  0.42653500  1
  Al  Al2  1  0.07795500  0.90055900  0.92653500  1
  Al  Al3  1  0.21428500  0.33963600  0.53947500  1
  Al  Al4  1  0.92204500  0.40055900  0.57346500  1
  Al  Al5  1  0.55461300  0.09752800  0.93407800  1
  Al  Al6  1  0.78571500  0.83963600  0.96052500  1
  Al  Al7  1  0.57795500  0.90055900  0.57346500  1
  Al  Al8  1  0.78571500  0.66036400  0.46052500  1
  Al  Al9  1  0.44538700  0.90247200  0.06592200  1
  Al  Al10  1  0.92204500  0.09944100  0.07346500  1
  Al  Al11  1  0.28571500  0.66036400  0.03947500  1
  Al  Al12  1  0.05461300  0.40247200  0.06592200  1
  Al  Al13  1  0.55536500  0.22673200  0.15990400  1
  Al  Al14  1  0.94463500  0.77326800  0.65990400  1
  Al  Al15  1  0.94463500  0.72673200  0.15990400  1
  Al  Al16  1  0.21428500  0.16036400  0.03947500  1
  Al  Al17  1  0.44463500  0.77326800  0.84009600  1
  Al  Al18  1  0.44538700  0.59752800  0.56592200  1
  Al  Al19  1  0.44463500  0.72673200  0.34009600  1
  Al  Al20  1  0.71428500  0.16036400  0.46052500  1
  Al  Al21  1  0.57795500  0.59944100  0.07346500  1
  Al  Al22  1  0.55461300  0.40247200  0.43407800  1
  Al  Al23  1  0.94538700  0.90247200  0.43407800  1
  Al  Al24  1  0.05536500  0.27326800  0.84009600  1
  Al  Al25  1  0.55536500  0.27326800  0.65990400  1
  Al  Al26  1  0.94538700  0.59752800  0.93407800  1
  Al  Al27  1  0.05536500  0.22673200  0.34009600  1
  Al  Al28  1  0.42204500  0.40055900  0.92653500  1
  Al  Al29  1  0.71428500  0.33963600  0.96052500  1
  Al  Al30  1  0.05461300  0.09752800  0.56592200  1
  Al  Al31  1  0.28571500  0.83963600  0.53947500  1
  P  P32  1  0.05990700  0.22671400  0.15780200  1
  P  P33  1  0.05990700  0.27328600  0.65780200  1
  P  P34  1  0.08044500  0.90039600  0.57580200  1
  P  P35  1  0.91955500  0.09960400  0.42419800  1
  P  P36  1  0.91955500  0.40039600  0.92419800  1
  P  P37  1  0.94740500  0.59633700  0.57127200  1
  P  P38  1  0.05259500  0.40366300  0.42872800  1
  P  P39  1  0.44009300  0.72671400  0.15780200  1
  P  P40  1  0.55259500  0.09633700  0.57127200  1
  P  P41  1  0.55990700  0.22671400  0.34219800  1
  P  P42  1  0.05259500  0.09633700  0.92872800  1
  P  P43  1  0.21526300  0.33870700  0.95582600  1
  P  P44  1  0.58044500  0.59960400  0.42419800  1
  P  P45  1  0.71526300  0.33870700  0.54417400  1
  P  P46  1  0.71526300  0.16129300  0.04417400  1
  P  P47  1  0.78473700  0.66129300  0.04417400  1
  P  P48  1  0.28473700  0.83870700  0.95582600  1
  P  P49  1  0.44740500  0.59633700  0.92872800  1
  P  P50  1  0.08044500  0.59960400  0.07580200  1
  P  P51  1  0.44740500  0.90366300  0.42872800  1
  P  P52  1  0.28473700  0.66129300  0.45582600  1
  P  P53  1  0.94740500  0.90366300  0.07127200  1
  P  P54  1  0.21526300  0.16129300  0.45582600  1
  P  P55  1  0.94009300  0.77328600  0.84219800  1
  P  P56  1  0.55259500  0.40366300  0.07127200  1
  P  P57  1  0.58044500  0.90039600  0.92419800  1
  P  P58  1  0.78473700  0.83870700  0.54417400  1
  P  P59  1  0.41955500  0.09960400  0.07580200  1
  P  P60  1  0.44009300  0.77328600  0.65780200  1
  P  P61  1  0.55990700  0.27328600  0.84219800  1
  P  P62  1  0.41955500  0.40039600  0.57580200  1
  P  P63  1  0.94009300  0.72671400  0.34219800  1
  O  O64  1  0.95083900  0.00851300  0.39662600  1
  O  O65  1  0.47019900  0.17771100  0.36625800  1
  O  O66  1  0.14624300  0.10229300  0.97348900  1
  O  O67  1  0.64624300  0.39770700  0.02651100  1
  O  O68  1  0.34673200  0.68442000  0.38762300  1
  O  O69  1  0.45441900  0.99532800  0.39390400  1
  O  O70  1  0.54916100  0.99148700  0.89662600  1
  O  O71  1  0.04558100  0.00467200  0.89390400  1
  O  O72  1  0.64662500  0.31310000  0.88121800  1
  O  O73  1  0.03168800  0.61354100  0.51805300  1
  O  O74  1  0.03168800  0.88645900  0.01805300  1
  O  O75  1  0.84104400  0.89393000  0.48717000  1
  O  O76  1  0.47019900  0.32228900  0.86625800  1
  O  O77  1  0.29958100  0.39138300  0.92706300  1
  O  O78  1  0.07361800  0.21861200  0.24317400  1
  O  O79  1  0.34673200  0.81558000  0.88762300  1
  O  O80  1  0.54907000  0.33711800  0.13555000  1
  O  O81  1  0.04932800  0.17628300  0.63709400  1
  O  O82  1  0.54932800  0.17628300  0.86290600  1
  O  O83  1  0.95067200  0.67628300  0.86290600  1
  O  O84  1  0.15326800  0.31558000  0.88762300  1
  O  O85  1  0.35375700  0.60229300  0.97348900  1
  O  O86  1  0.45093000  0.83711800  0.36445000  1
  O  O87  1  0.95093000  0.66288200  0.63555000  1
  O  O88  1  0.53898500  0.61824100  0.50331500  1
  O  O89  1  0.65326800  0.18442000  0.11237700  1
  O  O90  1  0.54916100  0.50851300  0.39662600  1
  O  O91  1  0.96101500  0.38175900  0.00331500  1
  O  O92  1  0.74729400  0.75617000  0.50463700  1
  O  O93  1  0.53898500  0.88175900  0.00331500  1
  O  O94  1  0.96831200  0.38645900  0.48194700  1
  O  O95  1  0.45067200  0.67628300  0.63709400  1
  O  O96  1  0.70041900  0.60861700  0.07293700  1
  O  O97  1  0.15895600  0.39393000  0.01283000  1
  O  O98  1  0.42638200  0.78138800  0.74317400  1
  O  O99  1  0.04907000  0.33711800  0.36445000  1
  O  O100  1  0.34104400  0.60607000  0.51283000  1
  O  O101  1  0.46101500  0.11824100  0.99668500  1
  O  O102  1  0.79958100  0.10861700  0.07293700  1
  O  O103  1  0.45300800  0.33108100  0.63285600  1
  O  O104  1  0.07361800  0.28138800  0.74317400  1
  O  O105  1  0.95441900  0.50467200  0.60609600  1
  O  O106  1  0.20041900  0.89138300  0.92706300  1
  O  O107  1  0.97019900  0.17771100  0.13374200  1
  O  O108  1  0.95300800  0.33108100  0.86714400  1
  O  O109  1  0.24729400  0.75617000  0.99536300  1
  O  O110  1  0.65326800  0.31558000  0.61237700  1
  O  O111  1  0.95441900  0.99532800  0.10609600  1
  O  O112  1  0.95067200  0.82371700  0.36290600  1
  O  O113  1  0.45083900  0.49148700  0.60337400  1
  O  O114  1  0.75270600  0.25617000  0.50463700  1
  O  O115  1  0.20041900  0.60861700  0.42706300  1
  O  O116  1  0.45067200  0.82371700  0.13709400  1
  O  O117  1  0.18843000  0.60110100  0.06994100  1
  O  O118  1  0.75270600  0.24383000  0.00463700  1
  O  O119  1  0.04558100  0.49532800  0.39390400  1
  O  O120  1  0.84104400  0.60607000  0.98717000  1
  O  O121  1  0.95300800  0.16891900  0.36714400  1
  O  O122  1  0.70041900  0.89138300  0.57293700  1
  O  O123  1  0.25270600  0.24383000  0.49536300  1
  O  O124  1  0.57361800  0.28138800  0.75682600  1
  O  O125  1  0.04699200  0.66891900  0.13285600  1
  O  O126  1  0.15326800  0.18442000  0.38762300  1
  O  O127  1  0.04932800  0.32371700  0.13709400  1
  O  O128  1  0.02980100  0.67771100  0.36625800  1
  O  O129  1  0.57361800  0.21861200  0.25682600  1
  O  O130  1  0.14624300  0.39770700  0.47348900  1
  O  O131  1  0.64624300  0.10229300  0.52651100  1
  O  O132  1  0.45441900  0.50467200  0.89390400  1
  O  O133  1  0.45300800  0.16891900  0.13285600  1
  O  O134  1  0.04916100  0.99148700  0.60337400  1
  O  O135  1  0.25270600  0.25617000  0.99536300  1
  O  O136  1  0.42638200  0.71861200  0.24317400  1
  O  O137  1  0.68843000  0.89889900  0.93005900  1
  O  O138  1  0.81157000  0.10110100  0.43005900  1
  O  O139  1  0.52980100  0.67771100  0.13374200  1
  O  O140  1  0.45083900  0.00851300  0.10337400  1
  O  O141  1  0.15895600  0.10607000  0.51283000  1
  O  O142  1  0.54699200  0.83108100  0.86714400  1
  O  O143  1  0.85337500  0.81310000  0.88121800  1
  O  O144  1  0.64662500  0.18690000  0.38121800  1
  O  O145  1  0.14662500  0.31310000  0.61878200  1
  O  O146  1  0.65895600  0.10607000  0.98717000  1
  O  O147  1  0.95093000  0.83711800  0.13555000  1
  O  O148  1  0.04916100  0.50851300  0.10337400  1
  O  O149  1  0.46831200  0.38645900  0.01805300  1
  O  O150  1  0.96101500  0.11824100  0.50331500  1
  O  O151  1  0.92638200  0.78138800  0.75682600  1
  O  O152  1  0.31157000  0.39889900  0.56994100  1
  O  O153  1  0.46831200  0.11354100  0.51805300  1
  O  O154  1  0.53168800  0.61354100  0.98194700  1
  O  O155  1  0.54558100  0.00467200  0.60609600  1
  O  O156  1  0.54932800  0.32371700  0.36290600  1
  O  O157  1  0.85375700  0.89770700  0.02651100  1
  O  O158  1  0.31157000  0.10110100  0.06994100  1
  O  O159  1  0.74729400  0.74383000  0.00463700  1
  O  O160  1  0.54907000  0.16288200  0.63555000  1
  O  O161  1  0.03898500  0.88175900  0.49668500  1
  O  O162  1  0.03898500  0.61824100  0.99668500  1
  O  O163  1  0.65895600  0.39393000  0.48717000  1
  O  O164  1  0.14662500  0.18690000  0.11878200  1
  O  O165  1  0.29958100  0.10861700  0.42706300  1
  O  O166  1  0.52980100  0.82228900  0.63374200  1
  O  O167  1  0.85337500  0.68690000  0.38121800  1
  O  O168  1  0.18843000  0.89889900  0.56994100  1
  O  O169  1  0.79958100  0.39138300  0.57293700  1
  O  O170  1  0.34104400  0.89393000  0.01283000  1
  O  O171  1  0.35337500  0.68690000  0.11878200  1
  O  O172  1  0.53168800  0.88645900  0.48194700  1
  O  O173  1  0.84673200  0.81558000  0.61237700  1
  O  O174  1  0.54558100  0.49532800  0.10609600  1
  O  O175  1  0.68843000  0.60110100  0.43005900  1
  O  O176  1  0.81157000  0.39889900  0.93005900  1
  O  O177  1  0.45093000  0.66288200  0.86445000  1
  O  O178  1  0.04699200  0.83108100  0.63285600  1
  O  O179  1  0.46101500  0.38175900  0.49668500  1
  O  O180  1  0.95083900  0.49148700  0.89662600  1
  O  O181  1  0.85375700  0.60229300  0.52651100  1
  O  O182  1  0.35337500  0.81310000  0.61878200  1
  O  O183  1  0.92638200  0.71861200  0.25682600  1
  O  O184  1  0.35375700  0.89770700  0.47348900  1
  O  O185  1  0.02980100  0.82228900  0.86625800  1
  O  O186  1  0.54699200  0.66891900  0.36714400  1
  O  O187  1  0.24729400  0.74383000  0.49536300  1
  O  O188  1  0.84673200  0.68442000  0.11237700  1
  O  O189  1  0.97019900  0.32228900  0.63374200  1
  O  O190  1  0.04907000  0.16288200  0.86445000  1
  O  O191  1  0.96831200  0.11354100  0.98194700  1
