# generated using pymatgen
data_Mn2InC10ClO10
_symmetry_space_group_name_H-M   'P 1'
_cell_length_a   8.83493000
_cell_length_b   9.96468625
_cell_length_c   10.48312144
_cell_angle_alpha   116.73603364
_cell_angle_beta   91.70655694
_cell_angle_gamma   93.31623904
_symmetry_Int_Tables_number   1
_chemical_formula_structural   Mn2InC10ClO10
_chemical_formula_sum   'Mn4 In2 C20 Cl2 O20'
_cell_volume   821.24307273
_cell_formula_units_Z   2
loop_
 _symmetry_equiv_pos_site_id
 _symmetry_equiv_pos_as_xyz
  1  'x, y, z'
loop_
 _atom_site_type_symbol
 _atom_site_label
 _atom_site_symmetry_multiplicity
 _atom_site_fract_x
 _atom_site_fract_y
 _atom_site_fract_z
 _atom_site_occupancy
  Mn  Mn0  1  0.76005000  0.75867300  0.59468900  1
  Mn  Mn1  1  0.24495500  0.72266500  0.07532700  1
  Mn  Mn2  1  0.23995000  0.24132700  0.40531100  1
  Mn  Mn3  1  0.75504500  0.27733500  0.92467300  1
  In  In4  1  0.15294000  0.00446200  0.14833100  1
  In  In5  1  0.84706000  0.99553800  0.85166900  1
  C  C6  1  0.56552100  0.82176800  0.63798900  1
  C  C7  1  0.30658000  0.39642100  0.57686200  1
  C  C8  1  0.96447600  0.72064600  0.57477800  1
  C  C9  1  0.69342000  0.60357900  0.42313800  1
  C  C10  1  0.60654200  0.21326100  0.01051600  1
  C  C11  1  0.11457700  0.67278600  0.91692000  1
  C  C12  1  0.43447900  0.17823200  0.36201100  1
  C  C13  1  0.37815800  0.78658300  0.23604500  1
  C  C14  1  0.73230200  0.64082800  0.68955800  1
  C  C15  1  0.39345800  0.78673900  0.98948400  1
  C  C16  1  0.26769800  0.35917200  0.31044200  1
  C  C17  1  0.62184200  0.21341700  0.76395500  1
  C  C18  1  0.91339600  0.27998100  0.81332600  1
  C  C19  1  0.03552400  0.27935400  0.42522200  1
  C  C20  1  0.88542300  0.32721400  0.08308000  1
  C  C21  1  0.08660400  0.72001900  0.18667400  1
  C  C22  1  0.70501600  0.47175600  0.99554000  1
  C  C23  1  0.29498400  0.52824400  0.00446000  1
  C  C24  1  0.20578500  0.10143700  0.47567200  1
  C  C25  1  0.79421500  0.89856300  0.52432800  1
  Cl  Cl26  1  0.85410800  0.95555100  0.08249100  1
  Cl  Cl27  1  0.14589200  0.04444900  0.91750900  1
  O  O28  1  0.64677500  0.50358900  0.31588400  1
  O  O29  1  0.32875100  0.40497600  0.95288700  1
  O  O30  1  0.29043800  0.43896800  0.25909500  1
  O  O31  1  0.03939600  0.63622200  0.81254000  1
  O  O32  1  0.96060400  0.36377800  0.18746000  1
  O  O33  1  0.35322500  0.49641100  0.68411600  1
  O  O34  1  0.44331900  0.85820500  0.66007300  1
  O  O35  1  0.70956200  0.56103200  0.74090500  1
  O  O36  1  0.08991600  0.69401500  0.55623900  1
  O  O37  1  0.67124900  0.59502400  0.04711300  1
  O  O38  1  0.91008400  0.30598500  0.44376100  1
  O  O39  1  0.55668100  0.14179500  0.33992700  1
  O  O40  1  0.81437800  0.98534700  0.48032000  1
  O  O41  1  0.46056100  0.82192900  0.33563800  1
  O  O42  1  0.48909400  0.82472000  0.93657300  1
  O  O43  1  0.01191900  0.28307100  0.74348900  1
  O  O44  1  0.51090600  0.17528000  0.06342700  1
  O  O45  1  0.18562200  0.01465300  0.51968000  1
  O  O46  1  0.53943900  0.17807100  0.66436200  1
  O  O47  1  0.98808100  0.71692900  0.25651100  1
