# generated using pymatgen
data_SiO2
_symmetry_space_group_name_H-M   'P 1'
_cell_length_a   14.41836688
_cell_length_b   14.41836688
_cell_length_c   14.41836688
_cell_angle_alpha   109.47122063
_cell_angle_beta   109.47122063
_cell_angle_gamma   109.47122063
_symmetry_Int_Tables_number   1
_chemical_formula_structural   SiO2
_chemical_formula_sum   'Si48 O96'
_cell_volume   2307.41826248
_cell_formula_units_Z   48
loop_
 _symmetry_equiv_pos_site_id
 _symmetry_equiv_pos_as_xyz
  1  'x, y, z'
loop_
 _atom_site_type_symbol
 _atom_site_label
 _atom_site_symmetry_multiplicity
 _atom_site_fract_x
 _atom_site_fract_y
 _atom_site_fract_z
 _atom_site_occupancy
  Si  Si0  1  0.62853400  0.39120200  0.54032700  1
  Si  Si1  1  0.14912500  0.54032700  0.41179400  1
  Si  Si2  1  0.76266900  0.87146600  0.41179400  1
  Si  Si3  1  0.89120200  0.12853400  0.04032700  1
  Si  Si4  1  0.41179400  0.76266900  0.87146600  1
  Si  Si5  1  0.91179400  0.37146600  0.26266900  1
  Si  Si6  1  0.45967300  0.58820600  0.85087500  1
  Si  Si7  1  0.08820600  0.95967300  0.35087500  1
  Si  Si8  1  0.10879800  0.73733100  0.14912500  1
  Si  Si9  1  0.58820600  0.85087500  0.45967300  1
  Si  Si10  1  0.08820600  0.62853400  0.73733100  1
  Si  Si11  1  0.95967300  0.10879800  0.87146600  1
  Si  Si12  1  0.35087500  0.76266900  0.39120200  1
  Si  Si13  1  0.37146600  0.60879800  0.45967300  1
  Si  Si14  1  0.23733100  0.12853400  0.58820600  1
  Si  Si15  1  0.87146600  0.95967300  0.10879800  1
  Si  Si16  1  0.60879800  0.45967300  0.37146600  1
  Si  Si17  1  0.10879800  0.87146600  0.95967300  1
  Si  Si18  1  0.76266900  0.39120200  0.35087500  1
  Si  Si19  1  0.14912500  0.10879800  0.73733100  1
  Si  Si20  1  0.85087500  0.89120200  0.26266900  1
  Si  Si21  1  0.85087500  0.45967300  0.58820600  1
  Si  Si22  1  0.12853400  0.58820600  0.23733100  1
  Si  Si23  1  0.26266900  0.85087500  0.89120200  1
  Si  Si24  1  0.23733100  0.60879800  0.64912500  1
  Si  Si25  1  0.62853400  0.73733100  0.08820600  1
  Si  Si26  1  0.54032700  0.41179400  0.14912500  1
  Si  Si27  1  0.04032700  0.64912500  0.91179400  1
  Si  Si28  1  0.73733100  0.08820600  0.62853400  1
  Si  Si29  1  0.37146600  0.26266900  0.91179400  1
  Si  Si30  1  0.41179400  0.14912500  0.54032700  1
  Si  Si31  1  0.73733100  0.14912500  0.10879800  1
  Si  Si32  1  0.89120200  0.26266900  0.85087500  1
  Si  Si33  1  0.12853400  0.04032700  0.89120200  1
  Si  Si34  1  0.35087500  0.08820600  0.95967300  1
  Si  Si35  1  0.39120200  0.54032700  0.62853400  1
  Si  Si36  1  0.64912500  0.23733100  0.60879800  1
  Si  Si37  1  0.87146600  0.41179400  0.76266900  1
  Si  Si38  1  0.39120200  0.35087500  0.76266900  1
  Si  Si39  1  0.91179400  0.04032700  0.64912500  1
  Si  Si40  1  0.58820600  0.23733100  0.12853400  1
  Si  Si41  1  0.04032700  0.89120200  0.12853400  1
  Si  Si42  1  0.54032700  0.62853400  0.39120200  1
  Si  Si43  1  0.95967300  0.35087500  0.08820600  1
  Si  Si44  1  0.45967300  0.37146600  0.60879800  1
  Si  Si45  1  0.64912500  0.91179400  0.04032700  1
  Si  Si46  1  0.60879800  0.64912500  0.23733100  1
  Si  Si47  1  0.26266900  0.91179400  0.37146600  1
  O  O48  1  0.51222100  0.15446700  0.50095300  1
  O  O49  1  0.71606700  0.86655400  0.20949200  1
  O  O50  1  0.15048600  0.86655400  0.15706200  1
  O  O51  1  0.48777900  0.84553300  0.49904700  1
  O  O52  1  0.13344600  0.79050800  0.28393200  1
  O  O53  1  0.86655400  0.20949200  0.71606700  1
  O  O54  1  0.84293800  0.49342500  0.70949200  1
  O  O55  1  0.99904700  0.34553300  0.98777900  1
  O  O56  1  0.01222100  0.51126800  0.35775400  1
  O  O57  1  0.70949200  0.84293800  0.49342500  1
  O  O58  1  0.34648600  0.50095300  0.48873200  1
  O  O59  1  0.63344600  0.78393300  0.29050800  1
  O  O60  1  0.65446700  0.14224600  0.65351400  1
  O  O61  1  0.36655400  0.21606700  0.70949200  1
  O  O62  1  0.63344600  0.34951400  0.34293800  1
  O  O63  1  0.00095300  0.84648600  0.98873200  1
  O  O64  1  0.13344600  0.84293800  0.84951400  1
  O  O65  1  0.15446700  0.15351400  0.64224600  1
  O  O66  1  0.84951400  0.13344600  0.84293800  1
  O  O67  1  0.34553300  0.98777900  0.99904700  1
  O  O68  1  0.51126800  0.65351400  0.49904700  1
  O  O69  1  0.65351400  0.49904700  0.51126800  1
  O  O70  1  0.64224600  0.15446700  0.15351400  1
  O  O71  1  0.98873200  0.48777900  0.14224600  1
  O  O72  1  0.34293800  0.63344600  0.34951400  1
  O  O73  1  0.84648600  0.98873200  0.00095300  1
  O  O74  1  0.51126800  0.35775400  0.01222100  1
  O  O75  1  0.65446700  0.01222100  0.00095300  1
  O  O76  1  0.50095300  0.48873200  0.34648600  1
  O  O77  1  0.78393200  0.99342500  0.15048600  1
  O  O78  1  0.65048600  0.65706200  0.36655400  1
  O  O79  1  0.79050800  0.00657500  0.65706200  1
  O  O80  1  0.14224600  0.98873200  0.48777900  1
  O  O81  1  0.15351400  0.01126800  0.99904700  1
  O  O82  1  0.99904700  0.15351400  0.01126800  1
  O  O83  1  0.00657500  0.84951400  0.21606700  1
  O  O84  1  0.28393200  0.65048600  0.49342500  1
  O  O85  1  0.99342500  0.15048600  0.78393300  1
  O  O86  1  0.35775400  0.01222100  0.51126800  1
  O  O87  1  0.34293800  0.20949200  0.99342500  1
  O  O88  1  0.34951400  0.34293800  0.63344600  1
  O  O89  1  0.64224600  0.98777900  0.48873200  1
  O  O90  1  0.84553300  0.84648600  0.35775400  1
  O  O91  1  0.20949200  0.99342500  0.34293800  1
  O  O92  1  0.34951400  0.50657500  0.71606700  1
  O  O93  1  0.50657500  0.29050800  0.15706200  1
  O  O94  1  0.29050800  0.15706200  0.50657500  1
  O  O95  1  0.15351400  0.64224600  0.15446700  1
  O  O96  1  0.14224600  0.65351400  0.65446700  1
  O  O97  1  0.21606700  0.70949200  0.36655400  1
  O  O98  1  0.00095300  0.65446700  0.01222100  1
  O  O99  1  0.78393200  0.29050800  0.63344600  1
  O  O100  1  0.35775400  0.84553300  0.84648600  1
  O  O101  1  0.00657500  0.65706200  0.79050800  1
  O  O102  1  0.65706200  0.79050800  0.00657500  1
  O  O103  1  0.98777900  0.48873200  0.64224600  1
  O  O104  1  0.65048600  0.49342500  0.28393200  1
  O  O105  1  0.65706200  0.36655400  0.65048600  1
  O  O106  1  0.49904700  0.48777900  0.84553300  1
  O  O107  1  0.28393200  0.13344600  0.79050800  1
  O  O108  1  0.01126800  0.51222100  0.85775400  1
  O  O109  1  0.51222100  0.85775400  0.01126800  1
  O  O110  1  0.84951400  0.21606700  0.00657500  1
  O  O111  1  0.15706200  0.50657500  0.29050800  1
  O  O112  1  0.84293800  0.84951400  0.13344600  1
  O  O113  1  0.49342500  0.28393200  0.65048600  1
  O  O114  1  0.98777900  0.99904700  0.34553300  1
  O  O115  1  0.29050800  0.63344600  0.78393200  1
  O  O116  1  0.49904700  0.51126800  0.65351400  1
  O  O117  1  0.48873200  0.64224600  0.98777900  1
  O  O118  1  0.15706200  0.15048600  0.86655400  1
  O  O119  1  0.34553300  0.85775400  0.34648600  1
  O  O120  1  0.85775400  0.34648600  0.34553300  1
  O  O121  1  0.34648600  0.34553300  0.85775400  1
  O  O122  1  0.01126800  0.99904700  0.15351400  1
  O  O123  1  0.79050800  0.28393200  0.13344600  1
  O  O124  1  0.21606700  0.00657500  0.84951400  1
  O  O125  1  0.86655400  0.15706200  0.15048600  1
  O  O126  1  0.48873200  0.34648600  0.50095300  1
  O  O127  1  0.01222100  0.00095300  0.65446700  1
  O  O128  1  0.84648600  0.35775400  0.84553300  1
  O  O129  1  0.36655400  0.65048600  0.65706200  1
  O  O130  1  0.70949200  0.36655400  0.21606700  1
  O  O131  1  0.50657500  0.71606700  0.34951400  1
  O  O132  1  0.85775400  0.01126800  0.51222100  1
  O  O133  1  0.65351400  0.65446700  0.14224600  1
  O  O134  1  0.49342500  0.70949200  0.84293800  1
  O  O135  1  0.98873200  0.00095300  0.84648600  1
  O  O136  1  0.48777900  0.14224600  0.98873200  1
  O  O137  1  0.71606700  0.34951400  0.50657500  1
  O  O138  1  0.15048600  0.78393200  0.99342500  1
  O  O139  1  0.99342500  0.34293800  0.20949200  1
  O  O140  1  0.20949200  0.71606700  0.86655400  1
  O  O141  1  0.15446700  0.50095300  0.51222100  1
  O  O142  1  0.50095300  0.51222100  0.15446700  1
  O  O143  1  0.84553300  0.49904700  0.48777900  1
