# generated using pymatgen
data_Rh8C20O19
_symmetry_space_group_name_H-M   'P 1'
_cell_length_a   9.26001434
_cell_length_b   10.56599262
_cell_length_c   17.92532057
_cell_angle_alpha   104.09902960
_cell_angle_beta   92.39895366
_cell_angle_gamma   110.85919116
_symmetry_Int_Tables_number   1
_chemical_formula_structural   Rh8C20O19
_chemical_formula_sum   'Rh16 C40 O38'
_cell_volume   1573.43469185
_cell_formula_units_Z   2
loop_
 _symmetry_equiv_pos_site_id
 _symmetry_equiv_pos_as_xyz
  1  'x, y, z'
loop_
 _atom_site_type_symbol
 _atom_site_label
 _atom_site_symmetry_multiplicity
 _atom_site_fract_x
 _atom_site_fract_y
 _atom_site_fract_z
 _atom_site_occupancy
  Rh  Rh0  1  0.21136068  0.65279224  0.39373034  1
  Rh  Rh1  1  0.74524618  0.27928991  0.75199181  1
  Rh  Rh2  1  0.49621440  0.29935913  0.66130022  1
  Rh  Rh3  1  0.44661092  0.86911783  0.15718287  1
  Rh  Rh4  1  0.50378560  0.70064087  0.33869978  1
  Rh  Rh5  1  0.25475382  0.72071009  0.24800819  1
  Rh  Rh6  1  0.72850165  0.65553757  0.83374374  1
  Rh  Rh7  1  0.27149835  0.34446243  0.16625626  1
  Rh  Rh8  1  0.06521044  0.45357844  0.24565247  1
  Rh  Rh9  1  0.48353116  0.61409865  0.17409781  1
  Rh  Rh10  1  0.30845391  0.42454973  0.33411457  1
  Rh  Rh11  1  0.51646884  0.38590135  0.82590219  1
  Rh  Rh12  1  0.93478956  0.54642156  0.75434753  1
  Rh  Rh13  1  0.78863932  0.34720776  0.60626966  1
  Rh  Rh14  1  0.69154609  0.57545027  0.66588543  1
  Rh  Rh15  1  0.55338908  0.13088217  0.84281713  1
  C  C16  1  0.31788706  0.54553475  0.24950924  1
  C  C17  1  0.05503211  0.58596441  0.17514173  1
  C  C18  1  0.59761171  0.98618319  0.24842068  1
  C  C19  1  0.52451198  0.57568728  0.88759766  1
  C  C20  1  0.14932196  0.59020874  0.74725366  1
  C  C21  1  0.53495217  0.54974339  0.38461350  1
  C  C22  1  0.64289506  0.15425349  0.63307734  1
  C  C23  1  0.35846389  0.28145701  0.25143092  1
  C  C24  1  0.62684765  0.70185164  0.11038444  1
  C  C25  1  0.64153611  0.71854299  0.74856908  1
  C  C26  1  0.46504783  0.45025661  0.61538650  1
  C  C27  1  0.53601427  0.00897902  0.10616677  1
  C  C28  1  0.94496789  0.41403559  0.82485827  1
  C  C29  1  0.66206892  0.85877183  0.41103435  1
  C  C30  1  0.31411064  0.70596797  0.49824100  1
  C  C31  1  0.77548282  0.83201806  0.91063130  1
  C  C32  1  0.46398573  0.99102098  0.89383323  1
  C  C33  1  0.19294825  0.87139197  0.23837543  1
  C  C34  1  0.35710494  0.84574651  0.36692266  1
  C  C35  1  0.33704274  0.30237443  0.73825706  1
  C  C36  1  0.37315235  0.29814836  0.88961556  1
  C  C37  1  0.40238829  0.01381681  0.75157932  1
  C  C38  1  0.71500118  0.24809593  0.93048962  1
  C  C39  1  0.02395009  0.25710126  0.18163994  1
  C  C40  1  0.97604991  0.74289874  0.81836006  1
  C  C41  1  0.27274234  0.29437550  0.39528013  1
  C  C42  1  0.85067804  0.40979126  0.25274634  1
  C  C43  1  0.07698949  0.44619962  0.38268946  1
  C  C44  1  0.22451718  0.16798194  0.08936870  1
  C  C45  1  0.94945982  0.27361139  0.58468577  1
  C  C46  1  0.47548802  0.42431272  0.11240234  1
  C  C47  1  0.68588936  0.29403203  0.50175900  1
  C  C48  1  0.28499882  0.75190407  0.06951038  1
  C  C49  1  0.72725766  0.70562450  0.60471987  1
  C  C50  1  0.92301051  0.55380038  0.61731054  1
  C  C51  1  0.66295726  0.69762557  0.26174294  1
  C  C52  1  0.05054018  0.72638861  0.41531423  1
  C  C53  1  0.80705175  0.12860803  0.76162457  1
  C  C54  1  0.68211294  0.45446525  0.75049076  1
  C  C55  1  0.33793108  0.14122817  0.58896565  1
  O  O56  1  0.27984997  0.61294715  0.74306057  1
  O  O57  1  0.24872276  0.20904228  0.42797997  1
  O  O58  1  0.13465930  0.95080082  0.23497380  1
  O  O59  1  0.62587415  0.26281415  0.43889184  1
  O  O60  1  0.27552967  0.25690071  0.92612643  1
  O  O61  1  0.75127724  0.79095772  0.57202003  1
  O  O62  1  0.79846257  0.72267913  0.26570907  1
  O  O63  1  0.41666252  0.19819967  0.24927150  1
  O  O64  1  0.75654864  0.95969572  0.45128034  1
  O  O65  1  0.72015003  0.38705285  0.25693943  1
  O  O66  1  0.39826371  0.96694891  0.39966225  1
  O  O67  1  0.18999789  0.68803611  0.01670813  1
  O  O68  1  0.04118147  0.22579066  0.56747878  1
  O  O69  1  0.37412585  0.73718585  0.56110816  1
  O  O70  1  0.07251199  0.85724231  0.84035428  1
  O  O71  1  0.80375499  0.93997374  0.95498671  1
  O  O72  1  0.98407754  0.36948405  0.41062132  1
  O  O73  1  0.20153743  0.27732087  0.73429093  1
  O  O74  1  0.92748801  0.14275769  0.15964572  1
  O  O75  1  0.58333748  0.80180033  0.75072850  1
  O  O76  1  0.54594650  0.37336692  0.06984690  1
  O  O77  1  0.24345136  0.04030428  0.54871966  1
  O  O78  1  0.59330216  0.09858936  0.07769317  1
  O  O79  1  0.01592246  0.63051595  0.58937868  1
  O  O80  1  0.30782434  0.93797865  0.70033626  1
  O  O81  1  0.19624501  0.06002626  0.04501329  1
  O  O82  1  0.03678820  0.42345271  0.87520361  1
  O  O83  1  0.69217566  0.06202135  0.29966374  1
  O  O84  1  0.60173629  0.03305109  0.60033775  1
  O  O85  1  0.45405350  0.62663308  0.93015310  1
  O  O86  1  0.96321180  0.57654729  0.12479639  1
  O  O87  1  0.36584690  0.45991609  0.57649481  1
  O  O88  1  0.81000211  0.31196389  0.98329187  1
  O  O89  1  0.95881853  0.77420934  0.43252122  1
  O  O90  1  0.72447033  0.74309929  0.07387357  1
  O  O91  1  0.40669784  0.90141064  0.92230683  1
  O  O92  1  0.63415310  0.54008391  0.42350519  1
  O  O93  1  0.86534070  0.04919918  0.76502620  1
