# generated using pymatgen
data_K5CeCu2(NO2)12
_symmetry_space_group_name_H-M   'P 1'
_cell_length_a   10.67200900
_cell_length_b   10.67200900
_cell_length_c   10.67200900
_cell_angle_alpha   90.00000000
_cell_angle_beta   90.00000000
_cell_angle_gamma   90.00000000
_symmetry_Int_Tables_number   1
_chemical_formula_structural   K5CeCu2(NO2)12
_chemical_formula_sum   'K10 Ce2 Cu4 N24 O48'
_cell_volume   1215.45405952
_cell_formula_units_Z   2
loop_
 _symmetry_equiv_pos_site_id
 _symmetry_equiv_pos_as_xyz
  1  'x, y, z'
loop_
 _atom_site_type_symbol
 _atom_site_label
 _atom_site_symmetry_multiplicity
 _atom_site_fract_x
 _atom_site_fract_y
 _atom_site_fract_z
 _atom_site_occupancy
  K  K0  1  0.25000000  0.25000000  0.75000000  1
  K  K1  1  0.25000000  0.75000000  0.25000000  1
  K  K2  1  0.00000000  0.50000000  0.50000000  1
  K  K3  1  0.50000000  0.00000000  0.00000000  1
  K  K4  1  0.50000000  0.00000000  0.50000000  1
  K  K5  1  0.75000000  0.75000000  0.75000000  1
  K  K6  1  0.50000000  0.50000000  0.00000000  1
  K  K7  1  0.00000000  0.50000000  0.00000000  1
  K  K8  1  0.75000000  0.25000000  0.25000000  1
  K  K9  1  0.00000000  0.00000000  0.50000000  1
  Ce  Ce10  1  0.00000000  0.00000000  0.00000000  1
  Ce  Ce11  1  0.50000000  0.50000000  0.50000000  1
  Cu  Cu12  1  0.75000000  0.75000000  0.25000000  1
  Cu  Cu13  1  0.25000000  0.75000000  0.75000000  1
  Cu  Cu14  1  0.75000000  0.25000000  0.75000000  1
  Cu  Cu15  1  0.25000000  0.25000000  0.25000000  1
  N  N16  1  0.25414600  0.25323400  0.44689100  1
  N  N17  1  0.55310900  0.74585400  0.25323400  1
  N  N18  1  0.44689100  0.74585400  0.74676600  1
  N  N19  1  0.25323400  0.55310900  0.74585400  1
  N  N20  1  0.74585400  0.74676600  0.44689100  1
  N  N21  1  0.75323400  0.05310900  0.75414600  1
  N  N22  1  0.05310900  0.75414600  0.75323400  1
  N  N23  1  0.55310900  0.25414600  0.74676600  1
  N  N24  1  0.25323400  0.44689100  0.25414600  1
  N  N25  1  0.75414600  0.24676600  0.94689100  1
  N  N26  1  0.74676600  0.55310900  0.25414600  1
  N  N27  1  0.24585400  0.24676600  0.05310900  1
  N  N28  1  0.25414600  0.74676600  0.55310900  1
  N  N29  1  0.75323400  0.94689100  0.24585400  1
  N  N30  1  0.44689100  0.25414600  0.25323400  1
  N  N31  1  0.24676600  0.94689100  0.75414600  1
  N  N32  1  0.24676600  0.05310900  0.24585400  1
  N  N33  1  0.94689100  0.75414600  0.24676600  1
  N  N34  1  0.74676600  0.44689100  0.74585400  1
  N  N35  1  0.74585400  0.25323400  0.55310900  1
  N  N36  1  0.24585400  0.75323400  0.94689100  1
  N  N37  1  0.75414600  0.75323400  0.05310900  1
  N  N38  1  0.94689100  0.24585400  0.75323400  1
  N  N39  1  0.05310900  0.24585400  0.24676600  1
  O  O40  1  0.25352300  0.00801600  0.65448000  1
  O  O41  1  0.75352300  0.50801600  0.84552000  1
  O  O42  1  0.15448000  0.75352300  0.49198400  1
  O  O43  1  0.99198400  0.34552000  0.25352300  1
  O  O44  1  0.65448000  0.25352300  0.00801600  1
  O  O45  1  0.00591800  0.85557700  0.22604400  1
  O  O46  1  0.14442300  0.22604400  0.99408200  1
  O  O47  1  0.72604400  0.49408200  0.35557700  1
  O  O48  1  0.34552000  0.74647700  0.00801600  1
  O  O49  1  0.77395600  0.00591800  0.14442300  1
  O  O50  1  0.84552000  0.75352300  0.50801600  1
  O  O51  1  0.14442300  0.77395600  0.00591800  1
  O  O52  1  0.49198400  0.15448000  0.75352300  1
  O  O53  1  0.64442300  0.72604400  0.50591800  1
  O  O54  1  0.77395600  0.99408200  0.85557700  1
  O  O55  1  0.65448000  0.74647700  0.99198400  1
  O  O56  1  0.64442300  0.27395600  0.49408200  1
  O  O57  1  0.00801600  0.65448000  0.25352300  1
  O  O58  1  0.84552000  0.24647700  0.49198400  1
  O  O59  1  0.85557700  0.77395600  0.99408200  1
  O  O60  1  0.27395600  0.49408200  0.64442300  1
  O  O61  1  0.00801600  0.34552000  0.74647700  1
  O  O62  1  0.00591800  0.14442300  0.77395600  1
  O  O63  1  0.49198400  0.84552000  0.24647700  1
  O  O64  1  0.75352300  0.49198400  0.15448000  1
  O  O65  1  0.99408200  0.14442300  0.22604400  1
  O  O66  1  0.15448000  0.24647700  0.50801600  1
  O  O67  1  0.74647700  0.00801600  0.34552000  1
  O  O68  1  0.34552000  0.25352300  0.99198400  1
  O  O69  1  0.27395600  0.50591800  0.35557700  1
  O  O70  1  0.49408200  0.35557700  0.72604400  1
  O  O71  1  0.35557700  0.72604400  0.49408200  1
  O  O72  1  0.99198400  0.65448000  0.74647700  1
  O  O73  1  0.50591800  0.64442300  0.72604400  1
  O  O74  1  0.50801600  0.84552000  0.75352300  1
  O  O75  1  0.25352300  0.99198400  0.34552000  1
  O  O76  1  0.49408200  0.64442300  0.27395600  1
  O  O77  1  0.50801600  0.15448000  0.24647700  1
  O  O78  1  0.74647700  0.99198400  0.65448000  1
  O  O79  1  0.24647700  0.49198400  0.84552000  1
  O  O80  1  0.85557700  0.22604400  0.00591800  1
  O  O81  1  0.99408200  0.85557700  0.77395600  1
  O  O82  1  0.22604400  0.99408200  0.14442300  1
  O  O83  1  0.35557700  0.27395600  0.50591800  1
  O  O84  1  0.24647700  0.50801600  0.15448000  1
  O  O85  1  0.72604400  0.50591800  0.64442300  1
  O  O86  1  0.50591800  0.35557700  0.27395600  1
  O  O87  1  0.22604400  0.00591800  0.85557700  1
