# generated using pymatgen
data_Sn6P7O24
_symmetry_space_group_name_H-M   'P 1'
_cell_length_a   27.60157100
_cell_length_b   6.09606900
_cell_length_c   7.22140697
_cell_angle_alpha   69.43952525
_cell_angle_beta   90.00000000
_cell_angle_gamma   90.00000000
_symmetry_Int_Tables_number   1
_chemical_formula_structural   Sn6P7O24
_chemical_formula_sum   'Sn12 P14 O48'
_cell_volume   1137.68350397
_cell_formula_units_Z   2
loop_
 _symmetry_equiv_pos_site_id
 _symmetry_equiv_pos_as_xyz
  1  'x, y, z'
loop_
 _atom_site_type_symbol
 _atom_site_label
 _atom_site_symmetry_multiplicity
 _atom_site_fract_x
 _atom_site_fract_y
 _atom_site_fract_z
 _atom_site_occupancy
  Sn  Sn0  1  0.68523100  0.14388900  0.69614000  1
  Sn  Sn1  1  0.39778000  0.22261000  0.91340700  1
  Sn  Sn2  1  0.60222000  0.77739000  0.08659300  1
  Sn  Sn3  1  0.45437000  0.82361900  0.69037700  1
  Sn  Sn4  1  0.04563000  0.82361900  0.69037700  1
  Sn  Sn5  1  0.89778000  0.77739000  0.08659300  1
  Sn  Sn6  1  0.31476900  0.85611100  0.30386000  1
  Sn  Sn7  1  0.95437000  0.17638100  0.30962300  1
  Sn  Sn8  1  0.18523100  0.85611100  0.30386000  1
  Sn  Sn9  1  0.10222000  0.22261000  0.91340700  1
  Sn  Sn10  1  0.54563000  0.17638100  0.30962300  1
  Sn  Sn11  1  0.81476900  0.14388900  0.69614000  1
  P  P12  1  0.10517800  0.33201900  0.38273400  1
  P  P13  1  0.47345200  0.70564100  0.19310600  1
  P  P14  1  0.66972400  0.23778600  0.18376600  1
  P  P15  1  0.52654800  0.29435900  0.80689400  1
  P  P16  1  0.75000000  0.52589600  0.91830200  1
  P  P17  1  0.02654800  0.70564100  0.19310600  1
  P  P18  1  0.39482200  0.33201900  0.38273400  1
  P  P19  1  0.25000000  0.47410400  0.08169800  1
  P  P20  1  0.16972400  0.76221400  0.81623400  1
  P  P21  1  0.97345200  0.29435900  0.80689400  1
  P  P22  1  0.60517800  0.66798100  0.61726600  1
  P  P23  1  0.33027600  0.76221400  0.81623400  1
  P  P24  1  0.83027600  0.23778600  0.18376600  1
  P  P25  1  0.89482200  0.66798100  0.61726600  1
  O  O26  1  0.16381500  0.90767000  0.95083400  1
  O  O27  1  0.75000000  0.36645100  0.79631600  1
  O  O28  1  0.52666100  0.17075100  0.65783800  1
  O  O29  1  0.20324300  0.53346400  0.93809700  1
  O  O30  1  0.47333900  0.82924900  0.34216200  1
  O  O31  1  0.61936500  0.81766700  0.74200700  1
  O  O32  1  0.88063500  0.81766700  0.74200700  1
  O  O33  1  0.09022300  0.16932900  0.59568300  1
  O  O34  1  0.69343900  0.11290100  0.38157000  1
  O  O35  1  0.35912200  0.51551000  0.39136300  1
  O  O36  1  0.55476200  0.54365100  0.71963500  1
  O  O37  1  0.12067900  0.64463700  0.79240200  1
  O  O38  1  0.40977700  0.16932900  0.59568300  1
  O  O39  1  0.25000000  0.21342200  0.18799700  1
  O  O40  1  0.11936500  0.18233300  0.25799300  1
  O  O41  1  0.59022300  0.83067100  0.40431700  1
  O  O42  1  0.85912200  0.48449000  0.60863700  1
  O  O43  1  0.94523800  0.54365100  0.71963500  1
  O  O44  1  0.25000000  0.63354900  0.20368400  1
  O  O45  1  0.52367500  0.62294400  0.14788400  1
  O  O46  1  0.80656100  0.11290100  0.38157000  1
  O  O47  1  0.87932100  0.35536300  0.20759800  1
  O  O48  1  0.02666100  0.82924900  0.34216200  1
  O  O49  1  0.66381500  0.09233000  0.04916600  1
  O  O50  1  0.94741100  0.14332900  0.00118800  1
  O  O51  1  0.02367500  0.37705600  0.85211600  1
  O  O52  1  0.90977700  0.83067100  0.40431700  1
  O  O53  1  0.38063500  0.18233300  0.25799300  1
  O  O54  1  0.29675700  0.53346400  0.93809700  1
  O  O55  1  0.83618500  0.09233000  0.04916600  1
  O  O56  1  0.37932100  0.64463700  0.79240200  1
  O  O57  1  0.05258900  0.85667100  0.99881200  1
  O  O58  1  0.33618500  0.90767000  0.95083400  1
  O  O59  1  0.14087800  0.51551000  0.39136300  1
  O  O60  1  0.64087800  0.48449000  0.60863700  1
  O  O61  1  0.55258900  0.14332900  0.00118800  1
  O  O62  1  0.05476200  0.45634900  0.28036500  1
  O  O63  1  0.30656100  0.88709900  0.61843000  1
  O  O64  1  0.44523800  0.45634900  0.28036500  1
  O  O65  1  0.19343900  0.88709900  0.61843000  1
  O  O66  1  0.97632500  0.62294400  0.14788400  1
  O  O67  1  0.97333900  0.17075100  0.65783800  1
  O  O68  1  0.70324300  0.46653600  0.06190300  1
  O  O69  1  0.62067900  0.35536300  0.20759800  1
  O  O70  1  0.44741100  0.85667100  0.99881200  1
  O  O71  1  0.79675700  0.46653600  0.06190300  1
  O  O72  1  0.75000000  0.78657800  0.81200300  1
  O  O73  1  0.47632500  0.37705600  0.85211600  1
