# generated using pymatgen
data_Rb2EuGa(SiO3)4
_symmetry_space_group_name_H-M   'P 1'
_cell_length_a   7.45135700
_cell_length_b   14.23219167
_cell_length_c   14.24116383
_cell_angle_alpha   64.33002361
_cell_angle_beta   74.94480605
_cell_angle_gamma   74.89171076
_symmetry_Int_Tables_number   1
_chemical_formula_structural   Rb2EuGa(SiO3)4
_chemical_formula_sum   'Rb8 Eu4 Ga4 Si16 O48'
_cell_volume   1295.30880172
_cell_formula_units_Z   4
loop_
 _symmetry_equiv_pos_site_id
 _symmetry_equiv_pos_as_xyz
  1  'x, y, z'
loop_
 _atom_site_type_symbol
 _atom_site_label
 _atom_site_symmetry_multiplicity
 _atom_site_fract_x
 _atom_site_fract_y
 _atom_site_fract_z
 _atom_site_occupancy
  Rb  Rb0  1  0.19138100  0.53315600  0.58391000  1
  Rb  Rb1  1  0.19377700  0.03264900  0.08207200  1
  Rb  Rb2  1  0.27439200  0.54802800  0.88473600  1
  Rb  Rb3  1  0.80622300  0.96735100  0.91792800  1
  Rb  Rb4  1  0.80861900  0.46684400  0.41609000  1
  Rb  Rb5  1  0.80162100  0.04447800  0.38254600  1
  Rb  Rb6  1  0.72560800  0.45197200  0.11526400  1
  Rb  Rb7  1  0.19837900  0.95552200  0.61745400  1
  Eu  Eu8  1  0.44869700  0.24990200  0.78582100  1
  Eu  Eu9  1  0.01411100  0.75064100  0.28758300  1
  Eu  Eu10  1  0.55130300  0.75009800  0.21417900  1
  Eu  Eu11  1  0.98588900  0.24935900  0.71241700  1
  Ga  Ga12  1  0.12615900  0.22746600  0.41236800  1
  Ga  Ga13  1  0.26726500  0.27226800  0.08724100  1
  Ga  Ga14  1  0.73273500  0.72773200  0.91275900  1
  Ga  Ga15  1  0.87384100  0.77253400  0.58763200  1
  Si  Si16  1  0.32960400  0.07757300  0.29972700  1
  Si  Si17  1  0.79239800  0.57760200  0.79945700  1
  Si  Si18  1  0.35962700  0.50762000  0.32564700  1
  Si  Si19  1  0.30631000  0.00627200  0.82744700  1
  Si  Si20  1  0.63994000  0.70560200  0.47169700  1
  Si  Si21  1  0.68266600  0.20551900  0.97104300  1
  Si  Si22  1  0.31733400  0.79448100  0.02895700  1
  Si  Si23  1  0.64037300  0.49238000  0.67435300  1
  Si  Si24  1  0.67039600  0.92242700  0.70027300  1
  Si  Si25  1  0.20760200  0.42239800  0.20054300  1
  Si  Si26  1  0.73959200  0.16126500  0.57453900  1
  Si  Si27  1  0.36006000  0.29439800  0.52830300  1
  Si  Si28  1  0.97559600  0.33876000  0.92403600  1
  Si  Si29  1  0.26040800  0.83873500  0.42546100  1
  Si  Si30  1  0.02440400  0.66124000  0.07596400  1
  Si  Si31  1  0.69369000  0.99372800  0.17255300  1
  O  O32  1  0.47110700  0.42599900  0.72838400  1
  O  O33  1  0.05906000  0.32996500  0.02305500  1
  O  O34  1  0.26424200  0.77493800  0.35544600  1
  O  O35  1  0.75794200  0.03244300  0.64518700  1
  O  O36  1  0.35914900  0.44560900  0.24979000  1
  O  O37  1  0.70172000  0.70162500  0.35542900  1
  O  O38  1  0.32845600  0.37608800  0.11237800  1
  O  O39  1  0.06314100  0.53237100  0.14586400  1
  O  O40  1  0.94094000  0.67003500  0.97694500  1
  O  O41  1  0.58315200  0.59078300  0.55954900  1
  O  O42  1  0.54333400  0.20180700  0.52312100  1
  O  O43  1  0.93114800  0.65554400  0.70730700  1
  O  O44  1  0.54965100  0.77102200  0.00938500  1
  O  O45  1  0.42149300  0.07290600  0.85237400  1
  O  O46  1  0.74048600  0.20027200  0.85541200  1
  O  O47  1  0.67154400  0.62391200  0.88762200  1
  O  O48  1  0.76499000  0.09083000  0.05956000  1
  O  O49  1  0.10701000  0.27606000  0.85226300  1
  O  O50  1  0.64085100  0.55439100  0.75021000  1
  O  O51  1  0.31842700  0.12368700  0.38858800  1
  O  O52  1  0.23559600  0.69885000  0.02578000  1
  O  O53  1  0.20552000  0.15672200  0.20746000  1
  O  O54  1  0.24205800  0.96755700  0.35481300  1
  O  O55  1  0.93685900  0.46762900  0.85413600  1
  O  O56  1  0.91184300  0.16868100  0.47500000  1
  O  O57  1  0.79448000  0.84327800  0.79254000  1
  O  O58  1  0.41684800  0.40921700  0.44045100  1
  O  O59  1  0.12223100  0.07334400  0.77324900  1
  O  O60  1  0.17254700  0.26894900  0.50976600  1
  O  O61  1  0.68157300  0.87631300  0.61141200  1
  O  O62  1  0.06885200  0.34445600  0.29269300  1
  O  O63  1  0.76440400  0.30115000  0.97422000  1
  O  O64  1  0.89299000  0.72394000  0.14773700  1
  O  O65  1  0.29828000  0.29837500  0.64457100  1
  O  O66  1  0.23501000  0.90917000  0.94044000  1
  O  O67  1  0.82745300  0.73105100  0.49023400  1
  O  O68  1  0.52889300  0.57400100  0.27161600  1
  O  O69  1  0.45034900  0.22897800  0.99061500  1
  O  O70  1  0.57850700  0.92709400  0.14762600  1
  O  O71  1  0.08815700  0.83131900  0.52500000  1
  O  O72  1  0.84847300  0.42871800  0.64876200  1
  O  O73  1  0.45666600  0.79819300  0.47687900  1
  O  O74  1  0.55301800  0.05717900  0.24863900  1
  O  O75  1  0.87776900  0.92665600  0.22675100  1
  O  O76  1  0.15152700  0.57128200  0.35123800  1
  O  O77  1  0.44698200  0.94282100  0.75136100  1
  O  O78  1  0.73575800  0.22506200  0.64455400  1
  O  O79  1  0.25951400  0.79972800  0.14458800  1
