# generated using pymatgen
data_SbP2O7
_symmetry_space_group_name_H-M   'P 1'
_cell_length_a   8.98999900
_cell_length_b   5.08265300
_cell_length_c   12.71113367
_cell_angle_alpha   68.43601300
_cell_angle_beta   90.00000000
_cell_angle_gamma   90.00000000
_symmetry_Int_Tables_number   1
_chemical_formula_structural   SbP2O7
_chemical_formula_sum   'Sb4 P8 O28'
_cell_volume   540.15814278
_cell_formula_units_Z   4
loop_
 _symmetry_equiv_pos_site_id
 _symmetry_equiv_pos_as_xyz
  1  'x, y, z'
loop_
 _atom_site_type_symbol
 _atom_site_label
 _atom_site_symmetry_multiplicity
 _atom_site_fract_x
 _atom_site_fract_y
 _atom_site_fract_z
 _atom_site_occupancy
  Sb  Sb0  1  0.72647900  0.60091600  0.22168800  1
  Sb  Sb1  1  0.27352100  0.39908400  0.77831200  1
  Sb  Sb2  1  0.22647900  0.39908400  0.27831200  1
  Sb  Sb3  1  0.77352100  0.60091600  0.72168800  1
  P  P4  1  0.96014200  0.12013300  0.16438900  1
  P  P5  1  0.21870200  0.70148400  0.47749500  1
  P  P6  1  0.53985800  0.12013300  0.66438900  1
  P  P7  1  0.71870200  0.29851600  0.02250500  1
  P  P8  1  0.78129800  0.29851600  0.52250500  1
  P  P9  1  0.46014200  0.87986700  0.33561100  1
  P  P10  1  0.03985800  0.87986700  0.83561100  1
  P  P11  1  0.28129800  0.70148400  0.97749500  1
  O  O12  1  0.07025300  0.20608800  0.79491000  1
  O  O13  1  0.85454700  0.02513800  0.60191300  1
  O  O14  1  0.87249200  0.83029800  0.83485700  1
  O  O15  1  0.62874400  0.25664600  0.73187700  1
  O  O16  1  0.18776700  0.62858700  0.60238800  1
  O  O17  1  0.31223300  0.62858700  0.10238800  1
  O  O18  1  0.37125600  0.74335400  0.26812300  1
  O  O19  1  0.10021200  0.75381400  0.96401300  1
  O  O20  1  0.42974700  0.20608800  0.29491000  1
  O  O21  1  0.12874400  0.74335400  0.76812300  1
  O  O22  1  0.14545300  0.97486200  0.39808700  1
  O  O23  1  0.92974700  0.79391200  0.20509000  1
  O  O24  1  0.68776700  0.37141300  0.89761200  1
  O  O25  1  0.62750800  0.83029800  0.33485700  1
  O  O26  1  0.12750800  0.16970200  0.16514300  1
  O  O27  1  0.67990800  0.55222300  0.05824200  1
  O  O28  1  0.60021200  0.24618600  0.53598700  1
  O  O29  1  0.81223300  0.37141300  0.39761200  1
  O  O30  1  0.35454700  0.97486200  0.89808700  1
  O  O31  1  0.32009200  0.44777700  0.94175800  1
  O  O32  1  0.89978800  0.24618600  0.03598700  1
  O  O33  1  0.64545300  0.02513800  0.10191300  1
  O  O34  1  0.57025300  0.79391200  0.70509000  1
  O  O35  1  0.17990800  0.44777700  0.44175800  1
  O  O36  1  0.37249200  0.16970200  0.66514300  1
  O  O37  1  0.87125600  0.25664600  0.23187700  1
  O  O38  1  0.39978800  0.75381400  0.46401300  1
  O  O39  1  0.82009200  0.55222300  0.55824200  1
