# generated using pymatgen
data_Tb4In20Ni11
_symmetry_space_group_name_H-M   'P 1'
_cell_length_a   4.32190054
_cell_length_b   11.47368808
_cell_length_c   13.96327103
_cell_angle_alpha   80.75108598
_cell_angle_beta   81.08270291
_cell_angle_gamma   79.11507483
_symmetry_Int_Tables_number   1
_chemical_formula_structural   Tb4In20Ni11
_chemical_formula_sum   'Tb4 In20 Ni11'
_cell_volume   665.54142847
_cell_formula_units_Z   1
loop_
 _symmetry_equiv_pos_site_id
 _symmetry_equiv_pos_as_xyz
  1  'x, y, z'
loop_
 _atom_site_type_symbol
 _atom_site_label
 _atom_site_symmetry_multiplicity
 _atom_site_fract_x
 _atom_site_fract_y
 _atom_site_fract_z
 _atom_site_occupancy
  Tb  Tb0  1  0.11765700  0.09252700  0.66728100  1
  Tb  Tb1  1  0.76710900  0.63264500  0.82512000  1
  Tb  Tb2  1  0.87417500  0.90716400  0.33107300  1
  Tb  Tb3  1  0.22749500  0.36917500  0.17431000  1
  In  In4  1  0.11761900  0.31845400  0.44997400  1
  In  In5  1  0.75070300  0.20231500  0.29027200  1
  In  In6  1  0.61320200  0.46639900  0.31006700  1
  In  In7  1  0.93467800  0.33649800  0.79079700  1
  In  In8  1  0.06091400  0.66337900  0.21123800  1
  In  In9  1  0.99010600  0.92463400  0.09488400  1
  In  In10  1  0.60219600  0.78990800  0.00812700  1
  In  In11  1  0.53905900  0.29576200  0.62299300  1
  In  In12  1  0.01337700  0.07536400  0.90369300  1
  In  In13  1  0.45504400  0.70341200  0.37723300  1
  In  In14  1  0.88687400  0.67834200  0.55161800  1
  In  In15  1  0.24328900  0.79690200  0.70856600  1
  In  In16  1  0.19971200  0.60084300  0.99687300  1
  In  In17  1  0.69984300  0.09613900  0.49781700  1
  In  In18  1  0.62783600  0.94106100  0.80332600  1
  In  In19  1  0.39919700  0.21223600  0.99147200  1
  In  In20  1  0.36900400  0.05945700  0.19535000  1
  In  In21  1  0.38470700  0.53130500  0.69203000  1
  In  In22  1  0.79648500  0.40164800  0.00361200  1
  In  In23  1  0.29292000  0.90265800  0.50107300  1
  Ni  Ni24  1  0.13786200  0.83165100  0.89674300  1
  Ni  Ni25  1  0.97492600  0.44394500  0.60105200  1
  Ni  Ni26  1  0.25120900  0.10861600  0.38271000  1
  Ni  Ni27  1  0.34378400  0.42772800  0.88018700  1
  Ni  Ni28  1  0.50940800  0.18231500  0.80539400  1
  Ni  Ni29  1  0.74105800  0.89059000  0.61665000  1
  Ni  Ni30  1  0.49233000  0.81813700  0.19517700  1
  Ni  Ni31  1  0.65137200  0.57536100  0.12145200  1
  Ni  Ni32  1  0.86325000  0.16874000  0.10325000  1
  Ni  Ni33  1  0.49763400  0.50188500  0.50129900  1
  Ni  Ni34  1  0.02242700  0.55242200  0.40050900  1
