# generated using pymatgen
data_Al2S3
_symmetry_space_group_name_H-M   'P 1'
_cell_length_a   15.85691096
_cell_length_b   15.85691096
_cell_length_c   15.85691096
_cell_angle_alpha   154.13733693
_cell_angle_beta   154.13733693
_cell_angle_gamma   36.90001878
_symmetry_Int_Tables_number   1
_chemical_formula_structural   Al2S3
_chemical_formula_sum   'Al16 S24'
_cell_volume   757.62376076
_cell_formula_units_Z   8
loop_
 _symmetry_equiv_pos_site_id
 _symmetry_equiv_pos_as_xyz
  1  'x, y, z'
loop_
 _atom_site_type_symbol
 _atom_site_label
 _atom_site_symmetry_multiplicity
 _atom_site_fract_x
 _atom_site_fract_y
 _atom_site_fract_z
 _atom_site_occupancy
  Al  Al0  1  0.17037100  0.17037100  0.00000000  1
  Al  Al1  1  0.82962900  0.82962900  0.00000000  1
  Al  Al2  1  0.52145800  0.29303000  0.22842800  1
  Al  Al3  1  0.92037100  0.42037100  0.50000000  1
  Al  Al4  1  0.04303000  0.77145800  0.72842800  1
  Al  Al5  1  0.22854200  0.95697000  0.27157200  1
  Al  Al6  1  0.57962900  0.07962900  0.50000000  1
  Al  Al7  1  0.70697000  0.47854200  0.77157200  1
  Al  Al8  1  0.04303000  0.31460200  0.27157200  1
  Al  Al9  1  0.37500000  0.62500000  0.75000000  1
  Al  Al10  1  0.87500000  0.62500000  0.25000000  1
  Al  Al11  1  0.37500000  0.12500000  0.75000000  1
  Al  Al12  1  0.70697000  0.93539800  0.22842800  1
  Al  Al13  1  0.06460200  0.29303000  0.77157200  1
  Al  Al14  1  0.37500000  0.62500000  0.25000000  1
  Al  Al15  1  0.68539800  0.95697000  0.72842800  1
  S  S16  1  0.61688400  0.37451000  0.24237400  1
  S  S17  1  0.96197800  0.73242900  0.77045100  1
  S  S18  1  0.61786500  0.87549000  0.74237400  1
  S  S19  1  0.26757100  0.03802200  0.22954900  1
  S  S20  1  0.96197800  0.19152700  0.22954900  1
  S  S21  1  0.62549000  0.38311600  0.75762600  1
  S  S22  1  0.12451000  0.38213500  0.25762600  1
  S  S23  1  0.46596200  0.70328000  0.76268200  1
  S  S24  1  0.28403800  0.54672000  0.73731800  1
  S  S25  1  0.94059700  0.70328000  0.23731800  1
  S  S26  1  0.12451000  0.86688400  0.74237400  1
  S  S27  1  0.62549000  0.86786500  0.24237400  1
  S  S28  1  0.29672000  0.05940300  0.76268200  1
  S  S29  1  0.78802200  0.05847300  0.27045100  1
  S  S30  1  0.13213500  0.37451000  0.75762600  1
  S  S31  1  0.48242900  0.21197800  0.27045100  1
  S  S32  1  0.94152700  0.21197800  0.72954900  1
  S  S33  1  0.78802200  0.51757100  0.72954900  1
  S  S34  1  0.29672000  0.53403800  0.23731800  1
  S  S35  1  0.45328000  0.71596200  0.26268200  1
  S  S36  1  0.13311600  0.87549000  0.25762600  1
  S  S37  1  0.80847300  0.03802200  0.77045100  1
  S  S38  1  0.45328000  0.19059700  0.73731800  1
  S  S39  1  0.80940300  0.54672000  0.26268200  1
