# generated using pymatgen
data_BeF2
_symmetry_space_group_name_H-M   'P 1'
_cell_length_a   4.91615863
_cell_length_b   4.91615863
_cell_length_c   9.03220030
_cell_angle_alpha   87.79442124
_cell_angle_beta   87.79442124
_cell_angle_gamma   59.44483418
_symmetry_Int_Tables_number   1
_chemical_formula_structural   BeF2
_chemical_formula_sum   'Be3 F6'
_cell_volume   187.79857005
_cell_formula_units_Z   3
loop_
 _symmetry_equiv_pos_site_id
 _symmetry_equiv_pos_as_xyz
  1  'x, y, z'
loop_
 _atom_site_type_symbol
 _atom_site_label
 _atom_site_symmetry_multiplicity
 _atom_site_fract_x
 _atom_site_fract_y
 _atom_site_fract_z
 _atom_site_occupancy
  Be  Be0  1  0.94304700  0.58680600  0.66656600  1
  Be  Be1  1  0.54884800  0.45115200  0.50000000  1
  Be  Be2  1  0.41319400  0.05695300  0.33343400  1
  F  F3  1  0.16319100  0.26293100  0.24004400  1
  F  F4  1  0.25794300  0.53322800  0.60480000  1
  F  F5  1  0.62423100  0.15429500  0.40920000  1
  F  F6  1  0.46677200  0.74205700  0.39520000  1
  F  F7  1  0.84570500  0.37576900  0.59080000  1
  F  F8  1  0.73706900  0.83680900  0.75995600  1
