# generated using pymatgen
data_Al2S3
_symmetry_space_group_name_H-M   'P 1'
_cell_length_a   7.09063968
_cell_length_b   7.09063968
_cell_length_c   52.04790100
_cell_angle_alpha   90.00000000
_cell_angle_beta   90.00000000
_cell_angle_gamma   119.99999702
_symmetry_Int_Tables_number   1
_chemical_formula_structural   Al2S3
_chemical_formula_sum   'Al48 S72'
_cell_volume   2266.23372418
_cell_formula_units_Z   24
loop_
 _symmetry_equiv_pos_site_id
 _symmetry_equiv_pos_as_xyz
  1  'x, y, z'
loop_
 _atom_site_type_symbol
 _atom_site_label
 _atom_site_symmetry_multiplicity
 _atom_site_fract_x
 _atom_site_fract_y
 _atom_site_fract_z
 _atom_site_occupancy
  Al  Al0  1  0.49596000  0.99192000  0.98450300  1
  Al  Al1  1  0.33333300  0.66666700  0.93048600  1
  Al  Al2  1  0.00808000  0.50404000  0.98450300  1
  Al  Al3  1  0.49596000  0.50404000  0.98450300  1
  Al  Al4  1  0.16172300  0.32344500  0.87549400  1
  Al  Al5  1  0.00000000  0.00000000  0.82258400  1
  Al  Al6  1  0.67655500  0.83827700  0.87549400  1
  Al  Al7  1  0.81817300  0.63634500  0.76325800  1
  Al  Al8  1  0.16172300  0.83827700  0.87549400  1
  Al  Al9  1  0.66666700  0.33333300  0.71602200  1
  Al  Al10  1  0.36365500  0.18182700  0.76325800  1
  Al  Al11  1  0.81817300  0.18182700  0.76325800  1
  Al  Al12  1  0.49620400  0.99240800  0.65488500  1
  Al  Al13  1  0.33333300  0.66666700  0.59762500  1
  Al  Al14  1  0.00759200  0.50379600  0.65488500  1
  Al  Al15  1  0.33333300  0.66666700  0.80487400  1
  Al  Al16  1  0.49620400  0.50379600  0.65488500  1
  Al  Al17  1  0.16671100  0.33342200  0.54173000  1
  Al  Al18  1  0.00000000  0.00000000  0.61105700  1
  Al  Al19  1  0.00000000  0.00000000  0.48606500  1
  Al  Al20  1  0.00000000  0.00000000  0.69622800  1
  Al  Al21  1  0.66657800  0.83328900  0.54173000  1
  Al  Al22  1  0.83333200  0.66666400  0.43055500  1
  Al  Al23  1  0.16671100  0.83328900  0.54173000  1
  Al  Al24  1  0.66666700  0.33333300  0.58421000  1
  Al  Al25  1  0.66666700  0.33333300  0.50001300  1
  Al  Al26  1  0.66666700  0.33333300  0.37503200  1
  Al  Al27  1  0.33333600  0.16666800  0.43055500  1
  Al  Al28  1  0.50022400  0.00044900  0.31922700  1
  Al  Al29  1  0.83333200  0.16666800  0.43055500  1
  Al  Al30  1  0.33333300  0.66666700  0.26244800  1
  Al  Al31  1  0.33333300  0.66666700  0.47219900  1
  Al  Al32  1  0.33333300  0.66666700  0.38887400  1
  Al  Al33  1  0.99955100  0.49977600  0.31922700  1
  Al  Al34  1  0.50022400  0.49977600  0.31922700  1
  Al  Al35  1  0.15764800  0.31529600  0.20468500  1
  Al  Al36  1  0.00000000  0.00000000  0.36109300  1
  Al  Al37  1  0.00000000  0.00000000  0.27769100  1
  Al  Al38  1  0.00000000  0.00000000  0.15497800  1
  Al  Al39  1  0.68470400  0.84235200  0.20468500  1
  Al  Al40  1  0.81834400  0.63668800  0.09560800  1
  Al  Al41  1  0.15764800  0.84235200  0.20468500  1
  Al  Al42  1  0.66666700  0.33333300  0.24858200  1
  Al  Al43  1  0.36331200  0.18165600  0.09560800  1
  Al  Al44  1  0.66666700  0.33333300  0.04462800  1
  Al  Al45  1  0.81834400  0.18165600  0.09560800  1
  Al  Al46  1  0.33333300  0.66666700  0.13716800  1
  Al  Al47  1  0.00000000  0.00000000  0.02840300  1
  S  S48  1  0.17599500  0.35199000  0.95872300  1
  S  S49  1  0.00000000  0.00000000  0.90115700  1
  S  S50  1  0.64801000  0.82400500  0.95872300  1
  S  S51  1  0.17599500  0.82400500  0.95872300  1
  S  S52  1  0.84291200  0.68582400  0.84865000  1
  S  S53  1  0.48627500  0.51372500  0.90128400  1
  S  S54  1  0.66666700  0.33333300  0.79018500  1
  S  S55  1  0.66666700  0.33333300  0.96263000  1
  S  S56  1  0.31417600  0.15708800  0.84865000  1
  S  S57  1  0.02745000  0.51372500  0.90128400  1
  S  S58  1  0.50428000  0.00856000  0.73607600  1
  S  S59  1  0.15454500  0.84545500  0.79008300  1
  S  S60  1  0.84291200  0.15708800  0.84865000  1
  S  S61  1  0.48627500  0.97255000  0.90128400  1
  S  S62  1  0.33333300  0.66666700  0.67724100  1
  S  S63  1  0.99144000  0.49572000  0.73607600  1
  S  S64  1  0.69091100  0.84545500  0.79008300  1
  S  S65  1  0.33333300  0.66666700  0.84864100  1
  S  S66  1  0.50428000  0.49572000  0.73607600  1
  S  S67  1  0.82411100  0.17588900  0.67883300  1
  S  S68  1  0.17626600  0.35253100  0.62477000  1
  S  S69  1  0.15454500  0.30908900  0.79008300  1
  S  S70  1  0.00000000  0.00000000  0.56685800  1
  S  S71  1  0.35177700  0.17588900  0.67883300  1
  S  S72  1  0.00000000  0.00000000  0.73859100  1
  S  S73  1  0.64746900  0.82373400  0.62477000  1
  S  S74  1  0.17626600  0.82373400  0.62477000  1
  S  S75  1  0.84312000  0.68624000  0.51468200  1
  S  S76  1  0.82411100  0.64822300  0.67883300  1
  S  S77  1  0.49068300  0.50931700  0.56843500  1
  S  S78  1  0.66666700  0.33333300  0.45593800  1
  S  S79  1  0.01863300  0.50931700  0.56843500  1
  S  S80  1  0.66666700  0.33333300  0.62760700  1
  S  S81  1  0.31376000  0.15688000  0.51468200  1
  S  S82  1  0.84312000  0.15688000  0.51468200  1
  S  S83  1  0.50948000  0.01895900  0.40357100  1
  S  S84  1  0.49068300  0.98136700  0.56843500  1
  S  S85  1  0.15726300  0.84273700  0.45748700  1
  S  S86  1  0.33333300  0.66666700  0.51639800  1
  S  S87  1  0.33333300  0.66666700  0.34480700  1
  S  S88  1  0.68547500  0.84273700  0.45748700  1
  S  S89  1  0.98104100  0.49052000  0.40357100  1
  S  S90  1  0.82326000  0.17674000  0.34650700  1
  S  S91  1  0.50948000  0.49052000  0.40357100  1
  S  S92  1  0.17678600  0.35357200  0.29305100  1
  S  S93  1  0.15726300  0.31452500  0.45748700  1
  S  S94  1  0.00000000  0.00000000  0.23535000  1
  S  S95  1  0.35348000  0.17674000  0.34650700  1
  S  S96  1  0.00000000  0.00000000  0.40510600  1
  S  S97  1  0.64642800  0.82321400  0.29305100  1
  S  S98  1  0.83845900  0.67691800  0.18230200  1
  S  S99  1  0.17678600  0.82321400  0.29305100  1
  S  S100  1  0.48913100  0.51086900  0.23572500  1
  S  S101  1  0.82326000  0.64652000  0.34650700  1
  S  S102  1  0.32308200  0.16154100  0.18230200  1
  S  S103  1  0.02173900  0.51086900  0.23572500  1
  S  S104  1  0.66666700  0.33333300  0.12332600  1
  S  S105  1  0.66666700  0.33333300  0.29405300  1
  S  S106  1  0.83845900  0.16154100  0.18230200  1
  S  S107  1  0.50582300  0.01164500  0.06987900  1
  S  S108  1  0.15495100  0.84504900  0.12491300  1
  S  S109  1  0.48913100  0.97826100  0.23572500  1
  S  S110  1  0.33333300  0.66666700  0.18384000  1
  S  S111  1  0.33333300  0.66666700  0.01042500  1
  S  S112  1  0.98835500  0.49417700  0.06987900  1
  S  S113  1  0.69009800  0.84504900  0.12491300  1
  S  S114  1  0.50582300  0.49417700  0.06987900  1
  S  S115  1  0.82341100  0.17658900  0.01353900  1
  S  S116  1  0.15495100  0.30990200  0.12491300  1
  S  S117  1  0.00000000  0.00000000  0.07332700  1
  S  S118  1  0.35317700  0.17658900  0.01353900  1
  S  S119  1  0.82341100  0.64682300  0.01353900  1
