# generated using pymatgen
data_KMgH5(SO5)2
_symmetry_space_group_name_H-M   'P 1'
_cell_length_a   5.82207200
_cell_length_b   6.24873195
_cell_length_c   6.65014184
_cell_angle_alpha   103.58609943
_cell_angle_beta   98.49839233
_cell_angle_gamma   100.64290715
_symmetry_Int_Tables_number   1
_chemical_formula_structural   KMgH5(SO5)2
_chemical_formula_sum   'K1 Mg1 H5 S2 O10'
_cell_volume   226.44575095
_cell_formula_units_Z   1
loop_
 _symmetry_equiv_pos_site_id
 _symmetry_equiv_pos_as_xyz
  1  'x, y, z'
loop_
 _atom_site_type_symbol
 _atom_site_label
 _atom_site_symmetry_multiplicity
 _atom_site_fract_x
 _atom_site_fract_y
 _atom_site_fract_z
 _atom_site_occupancy
  K  K0  1  0.31292600  0.28315300  0.51719200  1
  Mg  Mg1  1  0.03416000  0.87451700  0.94785500  1
  H  H2  1  0.60080800  0.66999100  0.19738000  1
  H  H3  1  0.46858700  0.96735700  0.23291000  1
  H  H4  1  0.30097600  0.77843600  0.29918900  1
  H  H5  1  0.45204100  0.09528500  0.88848900  1
  H  H6  1  0.39776000  0.45158900  0.95730500  1
  S  S7  1  0.88125100  0.68752900  0.47415400  1
  S  S8  1  0.90240300  0.36704200  0.22471900  1
  O  O9  1  0.05128000  0.66996600  0.66557200  1
  O  O10  1  0.25140700  0.32286300  0.89254200  1
  O  O11  1  0.29987400  0.89167400  0.21927800  1
  O  O12  1  0.31669200  0.14391500  0.98039600  1
  O  O13  1  0.62265100  0.61342600  0.48392900  1
  O  O14  1  0.58983500  0.04598000  0.73990500  1
  O  O15  1  0.82907700  0.62234600  0.01739400  1
  O  O16  1  0.80951100  0.04635700  0.82927100  1
  O  O17  1  0.59962400  0.67253100  0.04800800  1
  O  O18  1  0.79413700  0.18104000  0.32151100  1
