# generated using pymatgen
data_C
_symmetry_space_group_name_H-M   'P 1'
_cell_length_a   6.86513898
_cell_length_b   6.86513898
_cell_length_c   6.86513898
_cell_angle_alpha   92.45190968
_cell_angle_beta   92.45190968
_cell_angle_gamma   156.12608756
_symmetry_Int_Tables_number   1
_chemical_formula_structural   C
_chemical_formula_sum   C12
_cell_volume   128.11914069
_cell_formula_units_Z   12
loop_
 _symmetry_equiv_pos_site_id
 _symmetry_equiv_pos_as_xyz
  1  'x, y, z'
loop_
 _atom_site_type_symbol
 _atom_site_label
 _atom_site_symmetry_multiplicity
 _atom_site_fract_x
 _atom_site_fract_y
 _atom_site_fract_z
 _atom_site_occupancy
  C  C0  1  0.78528400  0.21471600  0.00000000  1
  C  C1  1  0.21471600  0.78528400  0.00000000  1
  C  C2  1  0.21471600  0.21471600  0.42943200  1
  C  C3  1  0.78528400  0.78528400  0.57056800  1
  C  C4  1  0.93638600  0.23797200  0.17435800  1
  C  C5  1  0.06361400  0.76202800  0.82564200  1
  C  C6  1  0.06361400  0.23797200  0.30158600  1
  C  C7  1  0.93638600  0.76202800  0.69841400  1
  C  C8  1  0.76202800  0.93638600  0.69841400  1
  C  C9  1  0.23797200  0.06361400  0.30158600  1
  C  C10  1  0.23797200  0.93638600  0.17435800  1
  C  C11  1  0.76202800  0.06361400  0.82564200  1
