# generated using pymatgen
data_Gd2S3
_symmetry_space_group_name_H-M   'P 1'
_cell_length_a   13.93820433
_cell_length_b   13.93820433
_cell_length_c   13.93820433
_cell_angle_alpha   144.86089110
_cell_angle_beta   144.86089110
_cell_angle_gamma   50.54187670
_symmetry_Int_Tables_number   1
_chemical_formula_structural   Gd2S3
_chemical_formula_sum   'Gd16 S24'
_cell_volume   892.51059799
_cell_formula_units_Z   8
loop_
 _symmetry_equiv_pos_site_id
 _symmetry_equiv_pos_as_xyz
  1  'x, y, z'
loop_
 _atom_site_type_symbol
 _atom_site_label
 _atom_site_symmetry_multiplicity
 _atom_site_fract_x
 _atom_site_fract_y
 _atom_site_fract_z
 _atom_site_occupancy
  Gd  Gd0  1  0.41581300  0.91581300  0.50000000  1
  Gd  Gd1  1  0.99446800  0.62500000  0.86946800  1
  Gd  Gd2  1  0.33418700  0.33418700  0.00000000  1
  Gd  Gd3  1  0.03036100  0.92719200  0.37937000  1
  Gd  Gd4  1  0.54782200  0.65099000  0.62063000  1
  Gd  Gd5  1  0.75553200  0.12500000  0.13053200  1
  Gd  Gd6  1  0.34901000  0.96963900  0.89683100  1
  Gd  Gd7  1  0.66581300  0.66581300  0.00000000  1
  Gd  Gd8  1  0.37500000  0.24446800  0.36946800  1
  Gd  Gd9  1  0.07280800  0.45217800  0.10316900  1
  Gd  Gd10  1  0.87500000  0.00553200  0.63053200  1
  Gd  Gd11  1  0.08418700  0.58418700  0.50000000  1
  Gd  Gd12  1  0.67719200  0.28036100  0.87937000  1
  Gd  Gd13  1  0.71963900  0.59901000  0.39683100  1
  Gd  Gd14  1  0.20217800  0.32280800  0.60316900  1
  Gd  Gd15  1  0.40099000  0.79782200  0.12063000  1
  S  S16  1  0.71168900  0.82350300  0.74567800  1
  S  S17  1  0.36558500  0.61224100  0.11004400  1
  S  S18  1  0.50219700  0.25554100  0.88995600  1
  S  S19  1  0.24780300  0.63775900  0.25334400  1
  S  S20  1  0.38441500  0.99445900  0.74665600  1
  S  S21  1  0.07782500  0.96601000  0.25432200  1
  S  S22  1  0.03831100  0.28399000  0.61181400  1
  S  S23  1  0.06095100  0.15389100  0.74893500  1
  S  S24  1  0.68798400  0.93904900  0.09293900  1
  S  S25  1  0.67217500  0.42649700  0.38818600  1
  S  S26  1  0.84610900  0.59504400  0.90706100  1
  S  S27  1  0.57350300  0.96168900  0.24567800  1
  S  S28  1  0.71601000  0.32782500  0.75432200  1
  S  S29  1  0.40495600  0.31201600  0.25106500  1
  S  S30  1  0.36224100  0.61558500  0.61004400  1
  S  S31  1  0.38775900  0.49780300  0.75334400  1
  S  S32  1  0.03399000  0.28831100  0.11181400  1
  S  S33  1  0.00554100  0.75219700  0.38995600  1
  S  S34  1  0.90389100  0.31095100  0.24893500  1
  S  S35  1  0.17649700  0.92217500  0.88818600  1
  S  S36  1  0.06201600  0.65495600  0.75106500  1
  S  S37  1  0.74445900  0.63441500  0.24665600  1
  S  S38  1  0.68904900  0.93798400  0.59293900  1
  S  S39  1  0.34504400  0.09610900  0.40706100  1
