# generated using pymatgen
data_H2O
_symmetry_space_group_name_H-M   'P 1'
_cell_length_a   4.73896326
_cell_length_b   4.73896326
_cell_length_c   7.28519496
_cell_angle_alpha   85.52213915
_cell_angle_beta   85.52213915
_cell_angle_gamma   120.74947272
_symmetry_Int_Tables_number   1
_chemical_formula_structural   H2O
_chemical_formula_sum   'H8 O4'
_cell_volume   138.84279695
_cell_formula_units_Z   4
loop_
 _symmetry_equiv_pos_site_id
 _symmetry_equiv_pos_as_xyz
  1  'x, y, z'
loop_
 _atom_site_type_symbol
 _atom_site_label
 _atom_site_symmetry_multiplicity
 _atom_site_fract_x
 _atom_site_fract_y
 _atom_site_fract_z
 _atom_site_occupancy
  H  H0  1  0.60952900  0.18894100  0.40410700  1
  H  H1  1  0.53343400  0.46083800  0.00475700  1
  H  H2  1  0.80057700  0.40125700  0.08905300  1
  H  H3  1  0.91710300  0.44371400  0.49706600  1
  H  H4  1  0.18894100  0.60952900  0.90410700  1
  H  H5  1  0.46083800  0.53343400  0.50475700  1
  H  H6  1  0.40125700  0.80057700  0.58905300  1
  H  H7  1  0.44371400  0.91710300  0.99706600  1
  O  O8  1  0.66943800  0.33289700  0.50048300  1
  O  O9  1  0.63390400  0.31935900  0.00453400  1
  O  O10  1  0.33289700  0.66943800  0.00048300  1
  O  O11  1  0.31935900  0.63390400  0.50453400  1
