# generated using pymatgen
data_GaGe5H6C4NO12
_symmetry_space_group_name_H-M   'P 1'
_cell_length_a   7.94135159
_cell_length_b   7.94135159
_cell_length_c   9.06661462
_cell_angle_alpha   55.36756971
_cell_angle_beta   55.36756971
_cell_angle_gamma   71.73428079
_symmetry_Int_Tables_number   1
_chemical_formula_structural   GaGe5H6C4NO12
_chemical_formula_sum   'Ga1 Ge5 H6 C4 N1 O12'
_cell_volume   387.07489051
_cell_formula_units_Z   1
loop_
 _symmetry_equiv_pos_site_id
 _symmetry_equiv_pos_as_xyz
  1  'x, y, z'
loop_
 _atom_site_type_symbol
 _atom_site_label
 _atom_site_symmetry_multiplicity
 _atom_site_fract_x
 _atom_site_fract_y
 _atom_site_fract_z
 _atom_site_occupancy
  Ga  Ga0  1  0.75066400  0.24933600  0.50000000  1
  Ge  Ge1  1  0.74810700  0.75608800  0.75482900  1
  Ge  Ge2  1  0.50746000  0.50109300  0.74493700  1
  Ge  Ge3  1  0.49890700  0.49254000  0.25506300  1
  Ge  Ge4  1  0.24871500  0.75128500  0.50000000  1
  Ge  Ge5  1  0.24391200  0.25189300  0.24517100  1
  H  H6  1  0.81178300  0.87032200  0.32313600  1
  H  H7  1  0.65405200  0.03308800  0.19041300  1
  H  H8  1  0.22853900  0.91901100  0.09572900  1
  H  H9  1  0.96691200  0.34594800  0.80958700  1
  H  H10  1  0.12967800  0.18821700  0.67686400  1
  H  H11  1  0.08098900  0.77146100  0.90427100  1
  C  C12  1  0.03456400  0.20281100  0.81443700  1
  C  C13  1  0.79718900  0.96543600  0.18556300  1
  C  C14  1  0.17404000  0.90454800  0.01792300  1
  C  C15  1  0.09545200  0.82596000  0.98207700  1
  N  N16  1  0.97204200  0.02795800  0.00000000  1
  O  O17  1  0.00493600  0.27802000  0.27280300  1
  O  O18  1  0.72198000  0.99506400  0.72719700  1
  O  O19  1  0.71623500  0.56484400  0.00397600  1
  O  O20  1  0.71950900  0.44463800  0.56287800  1
  O  O21  1  0.56683500  0.71824200  0.71962800  1
  O  O22  1  0.55536200  0.28049100  0.43712200  1
  O  O23  1  0.28175800  0.43316500  0.28037200  1
  O  O24  1  0.43515600  0.28376500  0.99602400  1
  O  O25  1  0.41869700  0.71614600  0.28313500  1
  O  O26  1  0.28837800  0.00270500  0.42373500  1
  O  O27  1  0.28385400  0.58130300  0.71686500  1
  O  O28  1  0.99729500  0.71162200  0.57626500  1
