# generated using pymatgen
data_K3P2H(O3F)2
_symmetry_space_group_name_H-M   'P 1'
_cell_length_a   7.17173948
_cell_length_b   7.17173948
_cell_length_c   9.44805201
_cell_angle_alpha   77.94810621
_cell_angle_beta   77.94810621
_cell_angle_gamma   111.35332201
_symmetry_Int_Tables_number   1
_chemical_formula_structural   K3P2H(O3F)2
_chemical_formula_sum   'K6 P4 H2 O12 F4'
_cell_volume   420.41714530
_cell_formula_units_Z   2
loop_
 _symmetry_equiv_pos_site_id
 _symmetry_equiv_pos_as_xyz
  1  'x, y, z'
loop_
 _atom_site_type_symbol
 _atom_site_label
 _atom_site_symmetry_multiplicity
 _atom_site_fract_x
 _atom_site_fract_y
 _atom_site_fract_z
 _atom_site_occupancy
  K  K0  1  0.14000400  0.85119400  0.25405700  1
  K  K1  1  0.46250600  0.72132100  0.56331700  1
  K  K2  1  0.27713400  0.53762200  0.94003600  1
  K  K3  1  0.72132100  0.46250600  0.06331700  1
  K  K4  1  0.53762200  0.27713400  0.44003600  1
  K  K5  1  0.85119400  0.14000400  0.75405700  1
  P  P6  1  0.67465400  0.90743200  0.18261800  1
  P  P7  1  0.90743200  0.67465400  0.68261800  1
  P  P8  1  0.09754000  0.32335300  0.32114900  1
  P  P9  1  0.32335300  0.09754000  0.82114900  1
  H  H10  1  0.00535000  0.00143900  0.50100000  1
  H  H11  1  0.00143900  0.00535000  0.00100000  1
  O  O12  1  0.11302500  0.93398100  0.94643300  1
  O  O13  1  0.43979700  0.99290500  0.74106300  1
  O  O14  1  0.07626000  0.88191600  0.55850800  1
  O  O15  1  0.00284300  0.55138900  0.76827200  1
  O  O16  1  0.72078600  0.69901300  0.77144900  1
  O  O17  1  0.69901300  0.72078600  0.27144900  1
  O  O18  1  0.30226900  0.28334700  0.72774500  1
  O  O19  1  0.28334700  0.30226900  0.22774500  1
  O  O20  1  0.99290500  0.43979700  0.24106300  1
  O  O21  1  0.93398100  0.11302500  0.44643300  1
  O  O22  1  0.55138900  0.00284300  0.26827200  1
  O  O23  1  0.88191600  0.07626000  0.05850800  1
  F  F24  1  0.53157100  0.81110700  0.07563700  1
  F  F25  1  0.19498500  0.46525900  0.42671500  1
  F  F26  1  0.81110700  0.53157100  0.57563700  1
  F  F27  1  0.46525900  0.19498500  0.92671500  1
