# generated using pymatgen
data_U2Te3
_symmetry_space_group_name_H-M   'P 1'
_cell_length_a   15.30985131
_cell_length_b   15.30985131
_cell_length_c   15.30985131
_cell_angle_alpha   145.00935539
_cell_angle_beta   145.00935539
_cell_angle_gamma   50.32058299
_symmetry_Int_Tables_number   1
_chemical_formula_structural   U2Te3
_chemical_formula_sum   'U16 Te24'
_cell_volume   1174.19077065
_cell_formula_units_Z   8
loop_
 _symmetry_equiv_pos_site_id
 _symmetry_equiv_pos_as_xyz
  1  'x, y, z'
loop_
 _atom_site_type_symbol
 _atom_site_label
 _atom_site_symmetry_multiplicity
 _atom_site_fract_x
 _atom_site_fract_y
 _atom_site_fract_z
 _atom_site_occupancy
  U  U0  1  0.71069400  0.58490900  0.37929400  1
  U  U1  1  0.41799500  0.91799500  0.50000000  1
  U  U2  1  0.75334300  0.12500000  0.12834300  1
  U  U3  1  0.54438500  0.66509100  0.62578500  1
  U  U4  1  0.33200500  0.33200500  0.00000000  1
  U  U5  1  0.99665700  0.62500000  0.87165700  1
  U  U6  1  0.03930600  0.91860000  0.37421500  1
  U  U7  1  0.08140000  0.45561500  0.12070600  1
  U  U8  1  0.87500000  0.00334300  0.62834300  1
  U  U9  1  0.66799500  0.66799500  0.00000000  1
  U  U10  1  0.33490900  0.96069400  0.87929400  1
  U  U11  1  0.37500000  0.24665700  0.37165700  1
  U  U12  1  0.08200500  0.58200500  0.50000000  1
  U  U13  1  0.41509100  0.79438500  0.12578500  1
  U  U14  1  0.20561500  0.33140000  0.62070600  1
  U  U15  1  0.66860000  0.28930600  0.87421500  1
  Te  Te16  1  0.35391200  0.60433200  0.09351700  1
  Te  Te17  1  0.07369700  0.97604300  0.25021900  1
  Te  Te18  1  0.51081500  0.26039400  0.90648300  1
  Te  Te19  1  0.39608800  0.98960600  0.75042100  1
  Te  Te20  1  0.23918500  0.64566800  0.24957900  1
  Te  Te21  1  0.02417600  0.27395700  0.59765400  1
  Te  Te22  1  0.72582400  0.82347800  0.74978100  1
  Te  Te23  1  0.68596800  0.93995000  0.09456600  1
  Te  Te24  1  0.67630300  0.42652200  0.40234600  1
  Te  Te25  1  0.40859800  0.31403200  0.25398200  1
  Te  Te26  1  0.84538400  0.59140200  0.90543400  1
  Te  Te27  1  0.72604300  0.32369700  0.75021900  1
  Te  Te28  1  0.57347800  0.97582400  0.24978100  1
  Te  Te29  1  0.35433200  0.60391200  0.59351700  1
  Te  Te30  1  0.06005000  0.15461600  0.74601800  1
  Te  Te31  1  0.02395700  0.27417600  0.09765400  1
  Te  Te32  1  0.01039400  0.76081500  0.40648300  1
  Te  Te33  1  0.73960600  0.64608800  0.25042100  1
  Te  Te34  1  0.17652200  0.92630300  0.90234600  1
  Te  Te35  1  0.06403200  0.65859800  0.75398200  1
  Te  Te36  1  0.90461600  0.31005000  0.24601800  1
  Te  Te37  1  0.68995000  0.93596800  0.59456600  1
  Te  Te38  1  0.39566800  0.48918500  0.74957900  1
  Te  Te39  1  0.34140200  0.09538400  0.40543400  1
