# generated using pymatgen
data_BaYbAl2Si2N5O2
_symmetry_space_group_name_H-M   'P 1'
_cell_length_a   6.06950100
_cell_length_b   7.52104667
_cell_length_c   8.11251648
_cell_angle_alpha   92.36232991
_cell_angle_beta   93.58763638
_cell_angle_gamma   111.60880049
_symmetry_Int_Tables_number   1
_chemical_formula_structural   BaYbAl2Si2N5O2
_chemical_formula_sum   'Ba2 Yb2 Al4 Si4 N10 O4'
_cell_volume   342.80173609
_cell_formula_units_Z   2
loop_
 _symmetry_equiv_pos_site_id
 _symmetry_equiv_pos_as_xyz
  1  'x, y, z'
loop_
 _atom_site_type_symbol
 _atom_site_label
 _atom_site_symmetry_multiplicity
 _atom_site_fract_x
 _atom_site_fract_y
 _atom_site_fract_z
 _atom_site_occupancy
  Ba  Ba0  1  0.35018500  0.59264700  0.75202000  1
  Ba  Ba1  1  0.69662900  0.33847100  0.19350700  1
  Yb  Yb2  1  0.33467300  0.74876500  0.38886600  1
  Yb  Yb3  1  0.77079300  0.41469400  0.78704200  1
  Al  Al4  1  0.73033700  0.91639900  0.06780800  1
  Al  Al5  1  0.15238400  0.29012200  0.02902800  1
  Al  Al6  1  0.09955500  0.76308600  0.06501300  1
  Al  Al7  1  0.80033200  0.69325800  0.46799000  1
  Si  Si8  1  0.37752500  0.01914900  0.70427500  1
  Si  Si9  1  0.77143600  0.08530000  0.47160200  1
  Si  Si10  1  0.31963900  0.26999400  0.43915800  1
  Si  Si11  1  0.87708700  0.95005400  0.78288800  1
  N  N12  1  0.70091700  0.87640900  0.59016300  1
  N  N13  1  0.84251300  0.75632700  0.90177600  1
  N  N14  1  0.13175300  0.07486800  0.68852500  1
  N  N15  1  0.08393500  0.20273600  0.57610900  1
  N  N16  1  0.84618700  0.12360200  0.92309300  1
  N  N17  1  0.02576100  0.96967900  0.18771800  1
  N  N18  1  0.99372800  0.79564200  0.28686500  1
  N  N19  1  0.52013600  0.16211100  0.54363400  1
  N  N20  1  0.48606800  0.50481400  0.42651300  1
  N  N21  1  0.18640100  0.17233100  0.23827700  1
  O  O22  1  0.42972100  0.35324600  0.94150900  1
  O  O23  1  0.42499100  0.83799100  0.10814100  1
  O  O24  1  0.06389500  0.50452800  0.01855100  1
  O  O25  1  0.98342000  0.58377500  0.56112900  1
