# generated using pymatgen
data_Na2Al2Si3(HO3)4
_symmetry_space_group_name_H-M   'P 1'
_cell_length_a   9.06646777
_cell_length_b   8.94978976
_cell_length_c   7.64012104
_cell_angle_alpha   91.54146354
_cell_angle_beta   79.48017494
_cell_angle_gamma   60.73830251
_symmetry_Int_Tables_number   1
_chemical_formula_structural   Na2Al2Si3(HO3)4
_chemical_formula_sum   'Na4 Al4 Si6 H8 O24'
_cell_volume   526.84740376
_cell_formula_units_Z   2
loop_
 _symmetry_equiv_pos_site_id
 _symmetry_equiv_pos_as_xyz
  1  'x, y, z'
loop_
 _atom_site_type_symbol
 _atom_site_label
 _atom_site_symmetry_multiplicity
 _atom_site_fract_x
 _atom_site_fract_y
 _atom_site_fract_z
 _atom_site_occupancy
  Na  Na0  1  0.47150100  0.64866900  0.84403400  1
  Na  Na1  1  0.10571100  0.00132500  0.36126300  1
  Na  Na2  1  0.34099700  0.28243900  0.72378000  1
  Na  Na3  1  0.92550600  0.30742200  0.92524300  1
  Al  Al4  1  0.92583600  0.68005500  0.93210700  1
  Al  Al5  1  0.67723100  0.86684500  0.71611500  1
  Al  Al6  1  0.43778800  0.57991200  0.44453600  1
  Al  Al7  1  0.59840600  0.21069600  0.95409000  1
  Si  Si8  1  0.74008100  0.05781700  0.29591300  1
  Si  Si9  1  0.99356900  0.45924400  0.58366100  1
  Si  Si10  1  0.07146000  0.90189900  0.03212500  1
  Si  Si11  1  0.33128000  0.95217300  0.60229800  1
  Si  Si12  1  0.73806200  0.29827300  0.60148900  1
  Si  Si13  1  0.27026900  0.55220400  0.14753900  1
  H  H14  1  0.89464100  0.82408300  0.78979500  1
  H  H15  1  0.03862600  0.54508800  0.43837600  1
  H  H16  1  0.11422500  0.83550900  0.83971400  1
  H  H17  1  0.81242500  0.64732700  0.64885300  1
  H  H18  1  0.70237800  0.40877000  0.26433300  1
  H  H19  1  0.65159600  0.58459600  0.12253000  1
  H  H20  1  0.18613400  0.07558600  0.89964900  1
  H  H21  1  0.13203500  0.35638900  0.24518600  1
  O  O22  1  0.04248400  0.48198400  0.78121900  1
  O  O23  1  0.27689900  0.08165700  0.43769400  1
  O  O24  1  0.87861200  0.36501700  0.56979500  1
  O  O25  1  0.20567600  0.27650100  0.45954900  1
  O  O26  1  0.59750000  0.01809000  0.42116600  1
  O  O27  1  0.29327600  0.80410100  0.52426200  1
  O  O28  1  0.69783900  0.75155800  0.98425100  1
  O  O29  1  0.41256600  0.42046700  0.97794500  1
  O  O30  1  0.81167400  0.15147500  0.42236800  1
  O  O31  1  0.64986400  0.19787400  0.16420600  1
  O  O32  1  0.07538500  0.56177100  0.11927100  1
  O  O33  1  0.76339800  0.89287300  0.48256600  1
  O  O34  1  0.63139500  0.53399700  0.28872700  1
  O  O35  1  0.05771800  0.08095800  0.08159100  1
  O  O36  1  0.11713600  0.37790900  0.11866500  1
  O  O37  1  0.23236100  0.74737700  0.11054400  1
  O  O38  1  0.30924500  0.52453000  0.34192200  1
  O  O39  1  0.19976600  0.10355900  0.77256900  1
  O  O40  1  0.89980000  0.88766500  0.13582500  1
  O  O41  1  0.75689300  0.22620600  0.79246200  1
  O  O42  1  0.50983300  0.83409300  0.66455900  1
  O  O43  1  0.55750400  0.06908500  0.84772100  1
  O  O44  1  0.53389100  0.44268300  0.60528800  1
  O  O45  1  0.68588900  0.59225300  0.98320400  1
