# generated using pymatgen
data_NaYbTiNbO6F
_symmetry_space_group_name_H-M   'P 1'
_cell_length_a   7.32945500
_cell_length_b   7.32945500
_cell_length_c   10.39108400
_cell_angle_alpha   90.00000000
_cell_angle_beta   90.00000000
_cell_angle_gamma   90.00000000
_symmetry_Int_Tables_number   1
_chemical_formula_structural   NaYbTiNbO6F
_chemical_formula_sum   'Na4 Yb4 Ti4 Nb4 O24 F4'
_cell_volume   558.21849457
_cell_formula_units_Z   4
loop_
 _symmetry_equiv_pos_site_id
 _symmetry_equiv_pos_as_xyz
  1  'x, y, z'
loop_
 _atom_site_type_symbol
 _atom_site_label
 _atom_site_symmetry_multiplicity
 _atom_site_fract_x
 _atom_site_fract_y
 _atom_site_fract_z
 _atom_site_occupancy
  Na  Na0  1  0.50000000  0.74732800  0.50000000  1
  Na  Na1  1  0.50000000  0.25267200  0.00000000  1
  Na  Na2  1  0.74732800  0.50000000  0.25000000  1
  Na  Na3  1  0.25267200  0.50000000  0.75000000  1
  Yb  Yb4  1  0.00000000  0.74423900  0.50000000  1
  Yb  Yb5  1  0.00000000  0.25576100  0.00000000  1
  Yb  Yb6  1  0.25576100  0.00000000  0.75000000  1
  Yb  Yb7  1  0.74423900  0.00000000  0.25000000  1
  Ti  Ti8  1  0.00000000  0.75842300  0.00000000  1
  Ti  Ti9  1  0.24157700  0.00000000  0.25000000  1
  Ti  Ti10  1  0.75842300  0.00000000  0.75000000  1
  Ti  Ti11  1  0.00000000  0.24157700  0.50000000  1
  Nb  Nb12  1  0.50000000  0.24150600  0.50000000  1
  Nb  Nb13  1  0.50000000  0.75849400  0.00000000  1
  Nb  Nb14  1  0.75849400  0.50000000  0.75000000  1
  Nb  Nb15  1  0.24150600  0.50000000  0.25000000  1
  O  O16  1  0.55462600  0.94668500  0.86873600  1
  O  O17  1  0.76574600  0.75341000  0.67849000  1
  O  O18  1  0.95058300  0.95058300  0.87500000  1
  O  O19  1  0.05331500  0.44537400  0.38126400  1
  O  O20  1  0.04941700  0.04941700  0.37500000  1
  O  O21  1  0.04941700  0.95058300  0.12500000  1
  O  O22  1  0.24659000  0.23425400  0.57151000  1
  O  O23  1  0.24659000  0.76574600  0.92849000  1
  O  O24  1  0.23425400  0.24659000  0.17849000  1
  O  O25  1  0.44537400  0.94668500  0.13126400  1
  O  O26  1  0.44537400  0.05331500  0.36873600  1
  O  O27  1  0.44160400  0.44160400  0.37500000  1
  O  O28  1  0.55839600  0.55839600  0.87500000  1
  O  O29  1  0.55462600  0.05331500  0.63126400  1
  O  O30  1  0.55839600  0.44160400  0.62500000  1
  O  O31  1  0.75341000  0.76574600  0.07151000  1
  O  O32  1  0.76574600  0.24659000  0.82151000  1
  O  O33  1  0.75341000  0.23425400  0.42849000  1
  O  O34  1  0.95058300  0.04941700  0.62500000  1
  O  O35  1  0.94668500  0.44537400  0.61873600  1
  O  O36  1  0.94668500  0.55462600  0.88126400  1
  O  O37  1  0.05331500  0.55462600  0.11873600  1
  O  O38  1  0.23425400  0.75341000  0.32151000  1
  O  O39  1  0.44160400  0.55839600  0.12500000  1
  F  F40  1  0.24280900  0.75719100  0.62500000  1
  F  F41  1  0.75719100  0.24280900  0.12500000  1
  F  F42  1  0.75719100  0.75719100  0.37500000  1
  F  F43  1  0.24280900  0.24280900  0.87500000  1
