# generated using pymatgen
data_Ta22O21
_symmetry_space_group_name_H-M   'P 1'
_cell_length_a   2.92780600
_cell_length_b   3.85510825
_cell_length_c   58.00865883
_cell_angle_alpha   90.65268181
_cell_angle_beta   90.89606012
_cell_angle_gamma   90.43331452
_symmetry_Int_Tables_number   1
_chemical_formula_structural   Ta22O21
_chemical_formula_sum   'Ta22 O21'
_cell_volume   654.60209284
_cell_formula_units_Z   1
loop_
 _symmetry_equiv_pos_site_id
 _symmetry_equiv_pos_as_xyz
  1  'x, y, z'
loop_
 _atom_site_type_symbol
 _atom_site_label
 _atom_site_symmetry_multiplicity
 _atom_site_fract_x
 _atom_site_fract_y
 _atom_site_fract_z
 _atom_site_occupancy
  Ta  Ta0  1  0.67148300  0.13861800  0.01951200  1
  Ta  Ta1  1  0.30440100  0.18509200  0.07966700  1
  Ta  Ta2  1  0.83330400  0.71671000  0.10695400  1
  Ta  Ta3  1  0.91418000  0.68407200  0.17249100  1
  Ta  Ta4  1  0.42433400  0.12501400  0.20803100  1
  Ta  Ta5  1  0.10642800  0.00503500  0.30179700  1
  Ta  Ta6  1  0.78158200  0.99976400  0.39710300  1
  Ta  Ta7  1  0.15473700  0.00064400  0.44361700  1
  Ta  Ta8  1  0.98662800  0.00061900  0.53992200  1
  Ta  Ta9  1  0.05110700  0.00420800  0.60557400  1
  Ta  Ta10  1  0.51076800  0.99939800  0.65404200  1
  Ta  Ta11  1  0.52737100  0.86736600  0.79021700  1
  Ta  Ta12  1  0.56608200  0.90964700  0.86828200  1
  Ta  Ta13  1  0.61051200  0.91270400  0.94885100  1
  Ta  Ta14  1  0.13876000  0.64500400  0.99002000  1
  Ta  Ta15  1  0.08243600  0.51155800  0.90871500  1
  Ta  Ta16  1  0.46651300  0.00007300  0.34867400  1
  Ta  Ta17  1  0.79100400  0.01585100  0.25318600  1
  Ta  Ta18  1  0.50325200  0.00136300  0.49145700  1
  Ta  Ta19  1  0.86777700  0.01707100  0.70161400  1
  Ta  Ta20  1  0.20916700  0.08332000  0.74804300  1
  Ta  Ta21  1  0.05322100  0.17598000  0.82912000  1
  O  O22  1  0.19424000  0.15476200  0.04568600  1
  O  O23  1  0.58885800  0.90189700  0.90960800  1
  O  O24  1  0.65093300  0.07850200  0.98307200  1
  O  O25  1  0.42185500  0.61673100  0.20152100  1
  O  O26  1  0.77174200  0.51825700  0.24928500  1
  O  O27  1  0.10326600  0.50505900  0.29963300  1
  O  O28  1  0.46327500  0.50006700  0.34896600  1
  O  O29  1  0.77567300  0.49976200  0.39700200  1
  O  O30  1  0.14754500  0.50064600  0.44460800  1
  O  O31  1  0.51407900  0.50138600  0.49156000  1
  O  O32  1  0.98313300  0.49955300  0.53600000  1
  O  O33  1  0.05777900  0.50532300  0.61010600  1
  O  O34  1  0.51638200  0.49938800  0.65706600  1
  O  O35  1  0.89202600  0.52143800  0.70614100  1
  O  O36  1  0.54475000  0.38167400  0.80391000  1
  O  O37  1  0.25603200  0.57253300  0.75714300  1
  O  O38  1  0.57098600  0.40336100  0.88281900  1
  O  O39  1  0.05340900  0.68703700  0.84505200  1
  O  O40  1  0.59220300  0.41295800  0.93580200  1
  O  O41  1  0.90281500  0.73815400  0.14048100  1
  O  O42  1  0.01897300  0.00240200  0.57265100  1
