# generated using pymatgen
data_Ta2O5
_symmetry_space_group_name_H-M   'P 1'
_cell_length_a   6.92468403
_cell_length_b   7.47292080
_cell_length_c   7.15298278
_cell_angle_alpha   59.68689055
_cell_angle_beta   62.77419010
_cell_angle_gamma   64.92891056
_symmetry_Int_Tables_number   1
_chemical_formula_structural   Ta2O5
_chemical_formula_sum   'Ta6 O15'
_cell_volume   275.02990888
_cell_formula_units_Z   3
loop_
 _symmetry_equiv_pos_site_id
 _symmetry_equiv_pos_as_xyz
  1  'x, y, z'
loop_
 _atom_site_type_symbol
 _atom_site_label
 _atom_site_symmetry_multiplicity
 _atom_site_fract_x
 _atom_site_fract_y
 _atom_site_fract_z
 _atom_site_occupancy
  Ta  Ta0  1  0.25650100  0.96519200  0.02792900  1
  Ta  Ta1  1  0.23156100  0.02930300  0.53525500  1
  Ta  Ta2  1  0.75042900  0.04027000  0.99174400  1
  Ta  Ta3  1  0.26956000  0.48014000  0.98361800  1
  Ta  Ta4  1  0.70472700  0.55401500  0.01219700  1
  Ta  Ta5  1  0.77339600  0.97870300  0.47219300  1
  O  O6  1  0.06331900  0.10519300  0.81777100  1
  O  O7  1  0.19865600  0.31394000  0.31992700  1
  O  O8  1  0.36858400  0.65048400  0.06888100  1
  O  O9  1  0.14301600  0.96267200  0.33740300  1
  O  O10  1  0.45693000  0.01150000  0.67739000  1
  O  O11  1  0.30815200  0.71068200  0.69266300  1
  O  O12  1  0.31806900  0.23739100  0.92636400  1
  O  O13  1  0.57708800  0.83873500  0.05738400  1
  O  O14  1  0.73933400  0.28337000  0.26917900  1
  O  O15  1  0.55736900  0.98819800  0.32189100  1
  O  O16  1  0.85690700  0.03948400  0.67616900  1
  O  O17  1  0.63054100  0.34058300  0.93424100  1
  O  O18  1  0.95407100  0.59041600  0.03505900  1
  O  O19  1  0.82223800  0.67271000  0.68883500  1
  O  O20  1  0.94725300  0.88631800  0.19600600  1
