# generated using pymatgen
data_Na3CaAl4Si8ClO24
_symmetry_space_group_name_H-M   'P 1'
_cell_length_a   7.69428000
_cell_length_b   9.41762526
_cell_length_c   9.43722524
_cell_angle_alpha   80.48496334
_cell_angle_beta   65.95014883
_cell_angle_gamma   66.27725831
_symmetry_Int_Tables_number   1
_chemical_formula_structural   Na3CaAl4Si8ClO24
_chemical_formula_sum   'Na3 Ca1 Al4 Si8 Cl1 O24'
_cell_volume   571.70848321
_cell_formula_units_Z   1
loop_
 _symmetry_equiv_pos_site_id
 _symmetry_equiv_pos_as_xyz
  1  'x, y, z'
loop_
 _atom_site_type_symbol
 _atom_site_label
 _atom_site_symmetry_multiplicity
 _atom_site_fract_x
 _atom_site_fract_y
 _atom_site_fract_z
 _atom_site_occupancy
  Na  Na0  1  0.85888400  0.34783800  0.91899800  1
  Na  Na1  1  0.77139800  0.08566600  0.34732400  1
  Na  Na2  1  0.13484800  0.64885100  0.08140500  1
  Ca  Ca3  1  0.21751900  0.91831700  0.64628200  1
  Al  Al4  1  0.86613000  0.42243100  0.25430700  1
  Al  Al5  1  0.54609000  0.57661400  0.74423600  1
  Al  Al6  1  0.28508200  0.25846000  0.57889500  1
  Al  Al7  1  0.12254100  0.74322200  0.42550200  1
  Si  Si8  1  0.66252100  0.74774400  0.93105500  1
  Si  Si9  1  0.87598400  0.24834400  0.57691900  1
  Si  Si10  1  0.71048300  0.75245900  0.42007100  1
  Si  Si11  1  0.58618400  0.07102700  0.75068200  1
  Si  Si12  1  0.41553100  0.92839600  0.25189100  1
  Si  Si13  1  0.45809000  0.41996100  0.24992600  1
  Si  Si14  1  0.12408300  0.58157400  0.75552500  1
  Si  Si15  1  0.33811200  0.25206300  0.07152000  1
  Cl  Cl16  1  0.02847200  0.98713500  0.95928700  1
  O  O17  1  0.90445700  0.64739600  0.90524700  1
  O  O18  1  0.87439700  0.81748000  0.42467600  1
  O  O19  1  0.65063900  0.89419400  0.81233300  1
  O  O20  1  0.82834900  0.60689700  0.30328900  1
  O  O21  1  0.56698200  0.63791400  0.89951500  1
  O  O22  1  0.73871700  0.39389300  0.69456800  1
  O  O23  1  0.86551700  0.28676200  0.40660900  1
  O  O24  1  0.80276900  0.09798700  0.64396600  1
  O  O25  1  0.55642500  0.71648900  0.59097400  1
  O  O26  1  0.55518700  0.90492200  0.35497300  1
  O  O27  1  0.68748800  0.42283700  0.18401200  1
  O  O28  1  0.54443900  0.80659700  0.10965300  1
  O  O29  1  0.46239700  0.19274000  0.89343500  1
  O  O30  1  0.29654700  0.57797000  0.81499200  1
  O  O31  1  0.45116300  0.09736900  0.64690500  1
  O  O32  1  0.43707700  0.29786900  0.39377100  1
  O  O33  1  0.21273000  0.89715200  0.37348400  1
  O  O34  1  0.12505900  0.70920100  0.61422300  1
  O  O35  1  0.27283000  0.58868800  0.29570300  1
  O  O36  1  0.44911300  0.35534200  0.10073200  1
  O  O37  1  0.14784700  0.41555200  0.70702000  1
  O  O38  1  0.35526600  0.10464100  0.18992100  1
  O  O39  1  0.10951500  0.18108500  0.57730400  1
  O  O40  1  0.10314000  0.35891900  0.09886800  1
