# generated using pymatgen
data_Rb4NaW2N5O
_symmetry_space_group_name_H-M   'P 1'
_cell_length_a   8.82706800
_cell_length_b   9.11468538
_cell_length_c   10.06367472
_cell_angle_alpha   81.89250399
_cell_angle_beta   65.71457067
_cell_angle_gamma   85.14882085
_symmetry_Int_Tables_number   1
_chemical_formula_structural   Rb4NaW2N5O
_chemical_formula_sum   'Rb8 Na2 W4 N10 O2'
_cell_volume   730.33885840
_cell_formula_units_Z   2
loop_
 _symmetry_equiv_pos_site_id
 _symmetry_equiv_pos_as_xyz
  1  'x, y, z'
loop_
 _atom_site_type_symbol
 _atom_site_label
 _atom_site_symmetry_multiplicity
 _atom_site_fract_x
 _atom_site_fract_y
 _atom_site_fract_z
 _atom_site_occupancy
  Rb  Rb0  1  0.19491000  0.34188400  0.75990100  1
  Rb  Rb1  1  0.23100900  0.94842300  0.41827200  1
  Rb  Rb2  1  0.71714700  0.46015700  0.72767100  1
  Rb  Rb3  1  0.63982300  0.20216600  0.26573100  1
  Rb  Rb4  1  0.36017700  0.79783400  0.73426900  1
  Rb  Rb5  1  0.28285300  0.53984300  0.27232900  1
  Rb  Rb6  1  0.76899100  0.05157700  0.58172800  1
  Rb  Rb7  1  0.80509000  0.65811600  0.24009900  1
  Na  Na8  1  0.85374000  0.11309600  0.94442100  1
  Na  Na9  1  0.14626000  0.88690400  0.05557900  1
  W  W10  1  0.58737400  0.87943800  0.02268400  1
  W  W11  1  0.06545500  0.18535900  0.17648000  1
  W  W12  1  0.93454500  0.81464100  0.82352000  1
  W  W13  1  0.41262600  0.12056200  0.97731600  1
  N  N14  1  0.01436300  0.99630900  0.73072200  1
  N  N15  1  0.96851100  0.69158200  0.65731700  1
  N  N16  1  0.96807400  0.25620500  0.05191200  1
  N  N17  1  0.91545800  0.36900200  0.44112900  1
  N  N18  1  0.57710500  0.90801400  0.19662000  1
  N  N19  1  0.42289500  0.09198600  0.80338000  1
  N  N20  1  0.08454200  0.63099800  0.55887100  1
  N  N21  1  0.03192600  0.74379500  0.94808800  1
  N  N22  1  0.03148900  0.30841800  0.34268300  1
  N  N23  1  0.98563700  0.00369100  0.26927800  1
  O  O24  1  0.75808600  0.36820200  0.44603100  1
  O  O25  1  0.24191400  0.63179800  0.55396900  1
