# generated using pymatgen
data_Cu11S20
_symmetry_space_group_name_H-M   'P 1'
_cell_length_a   3.70194799
_cell_length_b   3.70194800
_cell_length_c   69.68520424
_cell_angle_alpha   57.91081525
_cell_angle_beta   57.91081533
_cell_angle_gamma   60.00000516
_symmetry_Int_Tables_number   1
_chemical_formula_structural   Cu11S20
_chemical_formula_sum   'Cu11 S20'
_cell_volume   653.16753201
_cell_formula_units_Z   1
loop_
 _symmetry_equiv_pos_site_id
 _symmetry_equiv_pos_as_xyz
  1  'x, y, z'
loop_
 _atom_site_type_symbol
 _atom_site_label
 _atom_site_symmetry_multiplicity
 _atom_site_fract_x
 _atom_site_fract_y
 _atom_site_fract_z
 _atom_site_occupancy
  Cu  Cu0  1  0.73909700  0.73909700  0.08913500  1
  Cu  Cu1  1  0.77909000  0.77909000  0.48313600  1
  Cu  Cu2  1  0.83523800  0.83523800  0.57471400  1
  Cu  Cu3  1  0.79354900  0.79354900  0.63096800  1
  Cu  Cu4  1  0.76968400  0.76968400  0.68454700  1
  Cu  Cu5  1  0.75500100  0.75500100  0.73675000  1
  Cu  Cu6  1  0.74406800  0.74406800  0.78839000  1
  Cu  Cu7  1  0.73437900  0.73437900  0.83984300  1
  Cu  Cu8  1  0.72300400  0.72300400  0.89154900  1
  Cu  Cu9  1  0.70418700  0.70418700  0.94437200  1
  Cu  Cu10  1  0.67994300  0.67994300  0.99800900  1
  S  S11  1  0.89971700  0.89971700  0.01504200  1
  S  S12  1  0.99980000  0.99980000  0.05003000  1
  S  S13  1  0.98995600  0.98995600  0.10150700  1
  S  S14  1  0.87060000  0.87060000  0.16941000  1
  S  S15  1  0.86808400  0.86808400  0.26978700  1
  S  S16  1  0.11398100  0.11398100  0.18290300  1
  S  S17  1  0.80305500  0.80305500  0.37954200  1
  S  S18  1  0.10930500  0.10930500  0.28360400  1
  S  S19  1  0.98203000  0.98203000  0.40269500  1
  S  S20  1  0.03518700  0.03518700  0.49472200  1
  S  S21  1  0.15098700  0.15098700  0.42735200  1
  S  S22  1  0.09255900  0.09255900  0.53611600  1
  S  S23  1  0.02556000  0.02556000  0.69616600  1
  S  S24  1  0.06974100  0.06974100  0.58953900  1
  S  S25  1  0.04435400  0.04435400  0.64334700  1
  S  S26  1  0.01364900  0.01364900  0.74795300  1
  S  S27  1  0.00413300  0.00413300  0.79938000  1
  S  S28  1  0.99273700  0.99273700  0.85109000  1
  S  S29  1  0.97615900  0.97615900  0.90357600  1
  S  S30  1  0.95116400  0.95116400  0.95732500  1
