# generated using pymatgen
data_Sc2S3
_symmetry_space_group_name_H-M   'P 1'
_cell_length_a   6.40635891
_cell_length_b   6.40635891
_cell_length_c   6.37877389
_cell_angle_alpha   80.41033446
_cell_angle_beta   80.41033446
_cell_angle_gamma   119.98152293
_symmetry_Int_Tables_number   1
_chemical_formula_structural   Sc2S3
_chemical_formula_sum   'Sc4 S6'
_cell_volume   213.81331665
_cell_formula_units_Z   2
loop_
 _symmetry_equiv_pos_site_id
 _symmetry_equiv_pos_as_xyz
  1  'x, y, z'
loop_
 _atom_site_type_symbol
 _atom_site_label
 _atom_site_symmetry_multiplicity
 _atom_site_fract_x
 _atom_site_fract_y
 _atom_site_fract_z
 _atom_site_occupancy
  Sc  Sc0  1  0.66616600  0.33383400  0.50000000  1
  Sc  Sc1  1  0.33383400  0.66616600  0.50000000  1
  Sc  Sc2  1  0.00000000  0.00000000  0.50000000  1
  Sc  Sc3  1  0.50000000  0.50000000  0.00000000  1
  S  S4  1  0.90849200  0.58498400  0.74329200  1
  S  S5  1  0.58498400  0.90849200  0.74329200  1
  S  S6  1  0.26139400  0.26139400  0.74563600  1
  S  S7  1  0.09150800  0.41501600  0.25670800  1
  S  S8  1  0.73860600  0.73860700  0.25436400  1
  S  S9  1  0.41501600  0.09150800  0.25670800  1
