# generated using pymatgen
data_Ba3LaIn(WO6)2
_symmetry_space_group_name_H-M   'P 1'
_cell_length_a   9.90649523
_cell_length_b   9.90649523
_cell_length_c   9.90649475
_cell_angle_alpha   34.12813236
_cell_angle_beta   34.12813236
_cell_angle_gamma   34.12813028
_symmetry_Int_Tables_number   1
_chemical_formula_structural   Ba3LaIn(WO6)2
_chemical_formula_sum   'Ba3 La1 In1 W2 O12'
_cell_volume   272.84124017
_cell_formula_units_Z   1
loop_
 _symmetry_equiv_pos_site_id
 _symmetry_equiv_pos_as_xyz
  1  'x, y, z'
loop_
 _atom_site_type_symbol
 _atom_site_label
 _atom_site_symmetry_multiplicity
 _atom_site_fract_x
 _atom_site_fract_y
 _atom_site_fract_z
 _atom_site_occupancy
  Ba  Ba0  1  0.71051900  0.71051900  0.71051900  1
  Ba  Ba1  1  0.28837500  0.28837500  0.28837500  1
  Ba  Ba2  1  0.13157900  0.13157900  0.13157900  1
  La  La3  1  0.85871000  0.85871000  0.85871000  1
  In  In4  1  0.99966300  0.99966300  0.99966300  1
  W  W5  1  0.57718800  0.57718800  0.57718800  1
  W  W6  1  0.42348800  0.42348800  0.42348800  1
  O  O7  1  0.78152000  0.78152000  0.30045500  1
  O  O8  1  0.30045500  0.78152000  0.78152000  1
  O  O9  1  0.78152000  0.30045500  0.78152000  1
  O  O10  1  0.38118700  0.86654000  0.38118700  1
  O  O11  1  0.38118700  0.38118700  0.86654000  1
  O  O12  1  0.86654000  0.38118700  0.38118700  1
  O  O13  1  0.62273000  0.62273000  0.13265200  1
  O  O14  1  0.13265200  0.62273000  0.62273000  1
  O  O15  1  0.62273000  0.13265200  0.62273000  1
  O  O16  1  0.22153500  0.69688900  0.22153500  1
  O  O17  1  0.22153500  0.22153500  0.69688900  1
  O  O18  1  0.69688900  0.22153500  0.22153500  1
