# generated using pymatgen
data_Tb5Te9
_symmetry_space_group_name_H-M   'P 1'
_cell_length_a   16.09828900
_cell_length_b   11.71691500
_cell_length_c   11.95294341
_cell_angle_alpha   89.01887762
_cell_angle_beta   90.00000000
_cell_angle_gamma   90.00000000
_symmetry_Int_Tables_number   1
_chemical_formula_structural   Tb5Te9
_chemical_formula_sum   'Tb20 Te36'
_cell_volume   2254.26094125
_cell_formula_units_Z   4
loop_
 _symmetry_equiv_pos_site_id
 _symmetry_equiv_pos_as_xyz
  1  'x, y, z'
loop_
 _atom_site_type_symbol
 _atom_site_label
 _atom_site_symmetry_multiplicity
 _atom_site_fract_x
 _atom_site_fract_y
 _atom_site_fract_z
 _atom_site_occupancy
  Tb  Tb0  1  0.75633500  0.00000000  0.00000000  1
  Tb  Tb1  1  0.11119500  0.91337500  0.66127300  1
  Tb  Tb2  1  0.64158000  0.87771300  0.70415400  1
  Tb  Tb3  1  0.34682700  0.75155100  0.48365500  1
  Tb  Tb4  1  0.90327400  0.84286900  0.41833100  1
  Tb  Tb5  1  0.24577200  0.74080800  0.06015100  1
  Tb  Tb6  1  0.60478600  0.73372800  0.01193700  1
  Tb  Tb7  1  0.74151600  0.52977300  0.75505500  1
  Tb  Tb8  1  0.36434000  0.55594300  0.81207800  1
  Tb  Tb9  1  0.21008300  0.50000000  0.50000000  1
  Tb  Tb10  1  0.86057100  0.50000000  0.50000000  1
  Tb  Tb11  1  0.36434000  0.44405700  0.18792200  1
  Tb  Tb12  1  0.74151600  0.47022700  0.24494500  1
  Tb  Tb13  1  0.60478600  0.26627200  0.98806300  1
  Tb  Tb14  1  0.24577200  0.25919200  0.93984900  1
  Tb  Tb15  1  0.90327400  0.15713100  0.58166900  1
  Tb  Tb16  1  0.34682700  0.24844900  0.51634500  1
  Tb  Tb17  1  0.64158000  0.12228700  0.29584600  1
  Tb  Tb18  1  0.11119500  0.08662500  0.33872700  1
  Tb  Tb19  1  0.13549800  0.00000000  0.00000000  1
  Te  Te20  1  0.31808500  0.00000000  0.00000000  1
  Te  Te21  1  0.23960600  0.94069100  0.22032100  1
  Te  Te22  1  0.45393800  0.80171300  0.69793500  1
  Te  Te23  1  0.91980300  0.91585900  0.66399300  1
  Te  Te24  1  0.75238100  0.89670700  0.24706100  1
  Te  Te25  1  0.08820000  0.82934900  0.42172700  1
  Te  Te26  1  0.63850500  0.70878500  0.25940000  1
  Te  Te27  1  0.77018600  0.77826900  0.88377400  1
  Te  Te28  1  0.22577600  0.69247600  0.66805000  1
  Te  Te29  1  0.42323400  0.66605500  0.04334000  1
  Te  Te30  1  0.90249600  0.60377600  0.28243600  1
  Te  Te31  1  0.25293100  0.63280200  0.29292900  1
  Te  Te32  1  0.76010500  0.72310700  0.56633500  1
  Te  Te33  1  0.08489100  0.78513200  0.90534700  1
  Te  Te34  1  0.55542300  0.61634800  0.78281500  1
  Te  Te35  1  0.67914900  0.50000000  0.50000000  1
  Te  Te36  1  0.40745100  0.50000000  0.50000000  1
  Te  Te37  1  0.69374100  0.50000000  0.00000000  1
  Te  Te38  1  0.21817500  0.50000000  0.00000000  1
  Te  Te39  1  0.55542300  0.38365200  0.21718500  1
  Te  Te40  1  0.08489100  0.21486800  0.09465300  1
  Te  Te41  1  0.76010500  0.27689300  0.43366500  1
  Te  Te42  1  0.25293100  0.36719800  0.70707100  1
  Te  Te43  1  0.90249600  0.39622400  0.71756400  1
  Te  Te44  1  0.42323400  0.33394500  0.95666000  1
  Te  Te45  1  0.22577600  0.30752400  0.33195000  1
  Te  Te46  1  0.77018600  0.22173100  0.11622600  1
  Te  Te47  1  0.63850500  0.29121500  0.74060000  1
  Te  Te48  1  0.08820000  0.17065100  0.57827300  1
  Te  Te49  1  0.75238100  0.10329300  0.75293900  1
  Te  Te50  1  0.91980300  0.08414100  0.33600700  1
  Te  Te51  1  0.45393800  0.19828700  0.30206500  1
  Te  Te52  1  0.23960600  0.05930900  0.77967900  1
  Te  Te53  1  0.57283900  0.00000000  0.00000000  1
  Te  Te54  1  0.32502800  0.00000000  0.50000000  1
  Te  Te55  1  0.59971500  0.00000000  0.50000000  1
