# generated using pymatgen
data_TePb
_symmetry_space_group_name_H-M   'P 1'
_cell_length_a   4.69110700
_cell_length_b   7.09451800
_cell_length_c   8.43870800
_cell_angle_alpha   90.00000000
_cell_angle_beta   90.00000000
_cell_angle_gamma   90.00000000
_symmetry_Int_Tables_number   1
_chemical_formula_structural   TePb
_chemical_formula_sum   'Te4 Pb4'
_cell_volume   280.84984812
_cell_formula_units_Z   4
loop_
 _symmetry_equiv_pos_site_id
 _symmetry_equiv_pos_as_xyz
  1  'x, y, z'
loop_
 _atom_site_type_symbol
 _atom_site_label
 _atom_site_symmetry_multiplicity
 _atom_site_fract_x
 _atom_site_fract_y
 _atom_site_fract_z
 _atom_site_occupancy
  Te  Te0  1  0.75000000  0.11956700  0.19309800  1
  Te  Te1  1  0.75000000  0.38043300  0.69309800  1
  Te  Te2  1  0.25000000  0.61956700  0.30690200  1
  Te  Te3  1  0.25000000  0.88043300  0.80690200  1
  Pb  Pb4  1  0.75000000  0.72485500  0.04238900  1
  Pb  Pb5  1  0.75000000  0.77514500  0.54238900  1
  Pb  Pb6  1  0.25000000  0.22485500  0.45761100  1
  Pb  Pb7  1  0.25000000  0.27514500  0.95761100  1
