# generated using pymatgen
data_Cu14I19
_symmetry_space_group_name_H-M   'P 1'
_cell_length_a   4.22313188
_cell_length_b   4.22313188
_cell_length_c   67.35931072
_cell_angle_alpha   88.48193098
_cell_angle_beta   88.48193098
_cell_angle_gamma   60.30550454
_symmetry_Int_Tables_number   1
_chemical_formula_structural   Cu14I19
_chemical_formula_sum   'Cu14 I19'
_cell_volume   1043.09141886
_cell_formula_units_Z   1
loop_
 _symmetry_equiv_pos_site_id
 _symmetry_equiv_pos_as_xyz
  1  'x, y, z'
loop_
 _atom_site_type_symbol
 _atom_site_label
 _atom_site_symmetry_multiplicity
 _atom_site_fract_x
 _atom_site_fract_y
 _atom_site_fract_z
 _atom_site_occupancy
  Cu  Cu0  1  0.96090500  0.96090500  0.11851700  1
  Cu  Cu1  1  0.90824000  0.90824000  0.27591300  1
  Cu  Cu2  1  0.56243300  0.56243300  0.38123800  1
  Cu  Cu3  1  0.87905200  0.87905200  0.43520200  1
  Cu  Cu4  1  0.19566800  0.19566800  0.48799500  1
  Cu  Cu5  1  0.51166200  0.51166200  0.54065400  1
  Cu  Cu6  1  0.82737100  0.82737100  0.59326400  1
  Cu  Cu7  1  0.14320600  0.14320600  0.64588100  1
  Cu  Cu8  1  0.45881900  0.45881900  0.69857100  1
  Cu  Cu9  1  0.77437600  0.77437600  0.75125300  1
  Cu  Cu10  1  0.09036900  0.09036900  0.80389900  1
  Cu  Cu11  1  0.40644800  0.40644800  0.85649500  1
  Cu  Cu12  1  0.72178000  0.72178000  0.90939700  1
  Cu  Cu13  1  0.03756700  0.03756700  0.96366900  1
  I  I14  1  0.00827600  0.00827600  0.00069400  1
  I  I15  1  0.31583800  0.31583800  0.05232900  1
  I  I16  1  0.62987800  0.62987800  0.10303900  1
  I  I17  1  0.57730100  0.57730100  0.26043200  1
  I  I18  1  0.95054100  0.95054100  0.15539500  1
  I  I19  1  0.26306100  0.26306100  0.20929000  1
  I  I20  1  0.89831900  0.89831900  0.31283600  1
  I  I21  1  0.23161600  0.23161600  0.36907600  1
  I  I22  1  0.54820800  0.54820800  0.42197200  1
  I  I23  1  0.18059100  0.18059100  0.52714200  1
  I  I24  1  0.86472000  0.86472000  0.47463400  1
  I  I25  1  0.49643300  0.49643300  0.57968000  1
  I  I26  1  0.81221600  0.81221600  0.63224300  1
  I  I27  1  0.12781600  0.12781600  0.68485900  1
  I  I28  1  0.75915700  0.75915700  0.79013100  1
  I  I29  1  0.44335300  0.44335300  0.73750400  1
  I  I30  1  0.39069900  0.39069900  0.89514900  1
  I  I31  1  0.07531000  0.07531000  0.84266700  1
  I  I32  1  0.70519000  0.70519000  0.94771700  1
