# generated using pymatgen
data_IF7
_symmetry_space_group_name_H-M   'P 1'
_cell_length_a   6.21826000
_cell_length_b   6.36173015
_cell_length_c   6.62233367
_cell_angle_alpha   90.76752473
_cell_angle_beta   91.33108502
_cell_angle_gamma   110.32701495
_symmetry_Int_Tables_number   1
_chemical_formula_structural   IF7
_chemical_formula_sum   'I2 F14'
_cell_volume   245.52725647
_cell_formula_units_Z   2
loop_
 _symmetry_equiv_pos_site_id
 _symmetry_equiv_pos_as_xyz
  1  'x, y, z'
loop_
 _atom_site_type_symbol
 _atom_site_label
 _atom_site_symmetry_multiplicity
 _atom_site_fract_x
 _atom_site_fract_y
 _atom_site_fract_z
 _atom_site_occupancy
  I  I0  1  0.99612000  0.22532300  0.99482900  1
  I  I1  1  0.44776200  0.56812000  0.54713400  1
  F  F2  1  0.68342800  0.18969800  0.32688500  1
  F  F3  1  0.98403500  0.26225900  0.71040600  1
  F  F4  1  0.48662700  0.03420100  0.22124000  1
  F  F5  1  0.31266500  0.26009300  0.46828600  1
  F  F6  1  0.76364500  0.36690300  0.98375000  1
  F  F7  1  0.27536200  0.18757300  0.90620800  1
  F  F8  1  0.73290600  0.52577700  0.59548200  1
  F  F9  1  0.16730900  0.77310300  0.02368800  1
  F  F10  1  0.28107200  0.65939700  0.87368200  1
  F  F11  1  0.75756400  0.96103300  0.92228800  1
  F  F12  1  0.60719100  0.87949700  0.55719800  1
  F  F13  1  0.54215000  0.59505900  0.27986900  1
  F  F14  1  0.01905700  0.00827700  0.19834100  1
  F  F15  1  0.18720500  0.61978800  0.42661500  1
