# generated using pymatgen
data_NaMn2Mo2H3O10
_symmetry_space_group_name_H-M   'P 1'
_cell_length_a   6.50032739
_cell_length_b   6.50032739
_cell_length_c   7.34611368
_cell_angle_alpha   60.17388538
_cell_angle_beta   60.17388538
_cell_angle_gamma   75.30193354
_symmetry_Int_Tables_number   1
_chemical_formula_structural   NaMn2Mo2H3O10
_chemical_formula_sum   'Na1 Mn2 Mo2 H3 O10'
_cell_volume   233.60950937
_cell_formula_units_Z   1
loop_
 _symmetry_equiv_pos_site_id
 _symmetry_equiv_pos_as_xyz
  1  'x, y, z'
loop_
 _atom_site_type_symbol
 _atom_site_label
 _atom_site_symmetry_multiplicity
 _atom_site_fract_x
 _atom_site_fract_y
 _atom_site_fract_z
 _atom_site_occupancy
  Na  Na0  1  0.55619800  0.44380200  0.50000000  1
  Mn  Mn1  1  0.86940400  0.49776400  0.70916400  1
  Mn  Mn2  1  0.50223600  0.13059600  0.29083600  1
  Mo  Mo3  1  0.98919700  0.97190500  0.80680100  1
  Mo  Mo4  1  0.02809500  0.01080300  0.19319900  1
  H  H5  1  0.69320900  0.60815200  0.02213700  1
  H  H6  1  0.48171900  0.51828100  0.00000000  1
  H  H7  1  0.39184800  0.30679100  0.97786300  1
  O  O8  1  0.84425000  0.69268100  0.86155100  1
  O  O9  1  0.53891700  0.51866600  0.81263600  1
  O  O10  1  0.79599900  0.88287600  0.15035600  1
  O  O11  1  0.09324400  0.72410700  0.38402500  1
  O  O12  1  0.27589300  0.90675600  0.61597500  1
  O  O13  1  0.75881500  0.14280200  0.35444500  1
  O  O14  1  0.85719800  0.24118500  0.64555500  1
  O  O15  1  0.11712400  0.20400100  0.84964400  1
  O  O16  1  0.48133400  0.46108300  0.18736400  1
  O  O17  1  0.30731900  0.15575000  0.13844900  1
