# generated using pymatgen
data_V25O32
_symmetry_space_group_name_H-M   'P 1'
_cell_length_a   9.61736501
_cell_length_b   9.61736501
_cell_length_c   8.67943986
_cell_angle_alpha   63.83038470
_cell_angle_beta   63.83038470
_cell_angle_gamma   79.17065008
_symmetry_Int_Tables_number   1
_chemical_formula_structural   V25O32
_chemical_formula_sum   'V25 O32'
_cell_volume   646.62241556
_cell_formula_units_Z   1
loop_
 _symmetry_equiv_pos_site_id
 _symmetry_equiv_pos_as_xyz
  1  'x, y, z'
loop_
 _atom_site_type_symbol
 _atom_site_label
 _atom_site_symmetry_multiplicity
 _atom_site_fract_x
 _atom_site_fract_y
 _atom_site_fract_z
 _atom_site_occupancy
  V  V0  1  0.37842000  0.62158000  0.00000000  1
  V  V1  1  0.37928500  0.86571300  0.13463600  1
  V  V2  1  0.11670400  0.61733100  0.38291300  1
  V  V3  1  0.25369200  0.24452000  0.12523400  1
  V  V4  1  0.63079600  0.36920400  0.00000000  1
  V  V5  1  0.60872400  0.86308200  0.25262300  1
  V  V6  1  0.87352100  0.61888000  0.24613000  1
  V  V7  1  0.13414100  0.86585900  0.50000000  1
  V  V8  1  0.87437300  0.37508400  0.12733500  1
  V  V9  1  0.87070100  0.87758400  0.38220800  1
  V  V10  1  0.61068900  0.11790100  0.38307700  1
  V  V11  1  0.37670400  0.39148900  0.35849800  1
  V  V12  1  0.60851100  0.62329600  0.64150200  1
  V  V13  1  0.38266900  0.88329600  0.61708700  1
  V  V14  1  0.12241600  0.12929900  0.61779200  1
  V  V15  1  0.13428700  0.62071500  0.86536400  1
  V  V16  1  0.60898000  0.39102000  0.50000000  1
  V  V17  1  0.87763100  0.12236900  0.50000000  1
  V  V18  1  0.38112000  0.12647900  0.75387000  1
  V  V19  1  0.13691800  0.39127600  0.74737700  1
  V  V20  1  0.12031500  0.87968500  0.00000000  1
  V  V21  1  0.75548000  0.74630800  0.87476600  1
  V  V22  1  0.88209900  0.38931100  0.61692300  1
  V  V23  1  0.62491600  0.12562700  0.87266500  1
  V  V24  1  0.88437900  0.11562100  0.00000000  1
  O  O25  1  0.11958000  0.63530400  0.11979800  1
  O  O26  1  0.62263800  0.87789900  0.00515400  1
  O  O27  1  0.88595400  0.62100900  0.00700000  1
  O  O28  1  0.11996800  0.85333600  0.26796400  1
  O  O29  1  0.34973800  0.62044900  0.25059200  1
  O  O30  1  0.64098600  0.11249600  0.11937200  1
  O  O31  1  0.86349100  0.86129800  0.15721700  1
  O  O32  1  0.38203400  0.37536400  0.12923400  1
  O  O33  1  0.36713500  0.87736700  0.37769900  1
  O  O34  1  0.63280500  0.62046000  0.39680500  1
  O  O35  1  0.12422100  0.11035100  0.39120900  1
  O  O36  1  0.12263300  0.63286500  0.62230100  1
  O  O37  1  0.85379800  0.11461400  0.26860400  1
  O  O38  1  0.61851100  0.36011800  0.26319400  1
  O  O39  1  0.62198600  0.87094300  0.48401200  1
  O  O40  1  0.86900600  0.63533200  0.48314300  1
  O  O41  1  0.12905700  0.37801400  0.51598800  1
  O  O42  1  0.36466800  0.13099400  0.51685700  1
  O  O43  1  0.37955100  0.65026200  0.74940800  1
  O  O44  1  0.14666400  0.88003200  0.73203600  1
  O  O45  1  0.84948800  0.37996900  0.38638700  1
  O  O46  1  0.88964900  0.87577900  0.60879100  1
  O  O47  1  0.37954000  0.36719500  0.60319500  1
  O  O48  1  0.62003100  0.15051200  0.61361300  1
  O  O49  1  0.62463600  0.61796600  0.87076600  1
  O  O50  1  0.13870200  0.13650900  0.84278300  1
  O  O51  1  0.36469600  0.88042000  0.88020200  1
  O  O52  1  0.63988200  0.38148900  0.73680600  1
  O  O53  1  0.88538600  0.14620200  0.73139600  1
  O  O54  1  0.37899100  0.11404600  0.99300000  1
  O  O55  1  0.12210100  0.37736200  0.99484600  1
  O  O56  1  0.88750400  0.35901400  0.88062800  1
