# generated using pymatgen
data_In2Br3
_symmetry_space_group_name_H-M   'P 1'
_cell_length_a   13.22948000
_cell_length_b   13.34453400
_cell_length_c   33.05137021
_cell_angle_alpha   89.88359983
_cell_angle_beta   90.00000000
_cell_angle_gamma   90.00000000
_symmetry_Int_Tables_number   1
_chemical_formula_structural   In2Br3
_chemical_formula_sum   'In64 Br96'
_cell_volume   5834.91802584
_cell_formula_units_Z   32
loop_
 _symmetry_equiv_pos_site_id
 _symmetry_equiv_pos_as_xyz
  1  'x, y, z'
loop_
 _atom_site_type_symbol
 _atom_site_label
 _atom_site_symmetry_multiplicity
 _atom_site_fract_x
 _atom_site_fract_y
 _atom_site_fract_z
 _atom_site_occupancy
  In  In0  1  0.93966400  0.59341700  0.87080700  1
  In  In1  1  0.93999000  0.59377300  0.37117500  1
  In  In2  1  0.93831900  0.75210300  0.51465100  1
  In  In3  1  0.93280800  0.37525500  0.96547700  1
  In  In4  1  0.93380600  0.37224700  0.46476100  1
  In  In5  1  0.90001900  0.71810900  0.72540000  1
  In  In6  1  0.90187900  0.71979300  0.22409800  1
  In  In7  1  0.86307000  0.05609700  0.66437400  1
  In  In8  1  0.86369700  0.05528800  0.16550500  1
  In  In9  1  0.86179500  0.05476600  0.58057800  1
  In  In10  1  0.86012900  0.05461400  0.08184400  1
  In  In11  1  0.78821800  0.73587800  0.87177600  1
  In  In12  1  0.78802700  0.73622300  0.37143000  1
  In  In13  1  0.77037100  0.42103400  0.62451200  1
  In  In14  1  0.77251000  0.42487200  0.12383400  1
  In  In15  1  0.72945200  0.08041500  0.87340200  1
  In  In16  1  0.72985100  0.07887500  0.37461400  1
  In  In17  1  0.71187800  0.76403000  0.62143000  1
  In  In18  1  0.71522100  0.76103900  0.12058300  1
  In  In19  1  0.63807300  0.44483700  0.83150400  1
  In  In20  1  0.63825700  0.44542500  0.33071500  1
  In  In21  1  0.63264300  0.44436600  0.91548800  1
  In  In22  1  0.63609100  0.44418500  0.41450700  1
  In  In23  1  0.60359000  0.77370700  0.97564300  1
  In  In24  1  0.59899700  0.78080000  0.47531100  1
  In  In25  1  0.56614000  0.12944500  0.21853000  1
  In  In26  1  0.56556500  0.12875400  0.71481400  1
  In  In27  1  0.56194700  0.74714500  0.76484500  1
  In  In28  1  0.56201200  0.74722600  0.26488600  1
  In  In29  1  0.55996800  0.90654200  0.62125800  1
  In  In30  1  0.56104900  0.90101300  0.12253300  1
  In  In31  1  0.54990700  0.15528600  0.02509800  1
  In  In32  1  0.43999000  0.40622700  0.62882500  1
  In  In33  1  0.43966400  0.40658300  0.12919300  1
  In  In34  1  0.43831900  0.24789700  0.48534900  1
  In  In35  1  0.43380600  0.62775300  0.53523900  1
  In  In36  1  0.43280800  0.62474500  0.03452300  1
  In  In37  1  0.40187900  0.28020700  0.77590200  1
  In  In38  1  0.40001900  0.28189100  0.27460000  1
  In  In39  1  0.36369700  0.94471200  0.83449500  1
  In  In40  1  0.36307000  0.94390300  0.33562600  1
  In  In41  1  0.36012900  0.94538600  0.91815600  1
  In  In42  1  0.36179500  0.94523400  0.41942200  1
  In  In43  1  0.28802700  0.26377700  0.62857000  1
  In  In44  1  0.28821800  0.26412200  0.12822400  1
  In  In45  1  0.27251000  0.57512800  0.87616600  1
  In  In46  1  0.27037100  0.57896600  0.37548800  1
  In  In47  1  0.22985100  0.92112500  0.62538600  1
  In  In48  1  0.22945200  0.91958500  0.12659800  1
  In  In49  1  0.21522100  0.23896100  0.87941700  1
  In  In50  1  0.21187800  0.23597000  0.37857000  1
  In  In51  1  0.13825700  0.55457500  0.66928500  1
  In  In52  1  0.13807300  0.55516300  0.16849600  1
  In  In53  1  0.13609100  0.55581500  0.58549300  1
  In  In54  1  0.13264300  0.55563400  0.08451200  1
  In  In55  1  0.09899700  0.21920000  0.52468900  1
  In  In56  1  0.10359000  0.22629300  0.02435700  1
  In  In57  1  0.06614000  0.87055500  0.78147000  1
  In  In58  1  0.06556500  0.87124600  0.28518600  1
  In  In59  1  0.06201200  0.25277400  0.73511400  1
  In  In60  1  0.06194700  0.25285500  0.23515500  1
  In  In61  1  0.06104900  0.09898700  0.87746700  1
  In  In62  1  0.05996800  0.09345800  0.37874200  1
  In  In63  1  0.04990700  0.84471400  0.97490200  1
  Br  Br64  1  0.96281900  0.50011900  0.70038300  1
  Br  Br65  1  0.96319300  0.50010000  0.20046600  1
  Br  Br66  1  0.96087400  0.51533100  0.55269500  1
  Br  Br67  1  0.95973800  0.51065600  0.05279500  1
  Br  Br68  1  0.94350900  0.11375100  0.81398700  1
  Br  Br69  1  0.94480900  0.11306100  0.31452700  1
  Br  Br70  1  0.93628100  0.12056700  0.93843900  1
  Br  Br71  1  0.93355900  0.12595900  0.43825500  1
  Br  Br72  1  0.90817200  0.78754000  0.62429600  1
  Br  Br73  1  0.90875300  0.78917800  0.12500800  1
  Br  Br74  1  0.91086000  0.40098900  0.86838600  1
  Br  Br75  1  0.91009000  0.40092700  0.36850000  1
  Br  Br76  1  0.83960200  0.23502800  0.55126200  1
  Br  Br77  1  0.83474900  0.23355200  0.05106300  1
  Br  Br78  1  0.82539300  0.22869700  0.69894500  1
  Br  Br79  1  0.82541400  0.22878900  0.19910500  1
  Br  Br80  1  0.80436800  0.85938400  0.93403500  1
  Br  Br81  1  0.80137800  0.85988800  0.43358800  1
  Br  Br82  1  0.80263300  0.86103200  0.31099700  1
  Br  Br83  1  0.80306900  0.86035300  0.81105500  1
  Br  Br84  1  0.75952600  0.55461800  0.95674400  1
  Br  Br85  1  0.75971200  0.55507300  0.45686300  1
  Br  Br86  1  0.75632500  0.55832600  0.78835100  1
  Br  Br87  1  0.75651600  0.55837500  0.28815200  1
  Br  Br88  1  0.74326500  0.94169800  0.53813800  1
  Br  Br89  1  0.73874800  0.94880800  0.03776200  1
  Br  Br90  1  0.74023000  0.94471700  0.70694100  1
  Br  Br91  1  0.73927400  0.94452000  0.20749600  1
  Br  Br92  1  0.69716700  0.63952400  0.56096700  1
  Br  Br93  1  0.69278200  0.63703900  0.06106100  1
  Br  Br94  1  0.69867500  0.63986500  0.68368600  1
  Br  Br95  1  0.69833200  0.64006500  0.18380700  1
  Br  Br96  1  0.68027200  0.27024900  0.94756500  1
  Br  Br97  1  0.67474800  0.27117800  0.44896300  1
  Br  Br98  1  0.66039300  0.26502400  0.80127700  1
  Br  Br99  1  0.66088800  0.26504400  0.30145200  1
  Br  Br100  1  0.58998100  0.09924300  0.61837300  1
  Br  Br101  1  0.59239700  0.09698400  0.12179100  1
  Br  Br102  1  0.59229200  0.71331300  0.87440700  1
  Br  Br103  1  0.59170500  0.71246400  0.37426500  1
  Br  Br104  1  0.56689500  0.37409700  0.68817600  1
  Br  Br105  1  0.56591800  0.37348100  0.18856500  1
  Br  Br106  1  0.55499100  0.38705900  0.56448600  1
  Br  Br107  1  0.55727800  0.38583100  0.06507800  1
  Br  Br108  1  0.53987300  0.98483000  0.80262000  1
  Br  Br109  1  0.53914300  0.98430100  0.30298600  1
  Br  Br110  1  0.54086600  0.99265700  0.94647400  1
  Br  Br111  1  0.53710100  0.00002500  0.45033900  1
  Br  Br112  1  0.46281900  0.49988100  0.29961700  1
  Br  Br113  1  0.46319300  0.49990000  0.79953400  1
  Br  Br114  1  0.46087400  0.48466900  0.44730500  1
  Br  Br115  1  0.45973800  0.48934400  0.94720500  1
  Br  Br116  1  0.44350900  0.88624900  0.18601300  1
  Br  Br117  1  0.44480900  0.88693900  0.68547300  1
  Br  Br118  1  0.43355900  0.87404100  0.56174500  1
  Br  Br119  1  0.43628100  0.87943300  0.06156100  1
  Br  Br120  1  0.40875300  0.21082200  0.87499200  1
  Br  Br121  1  0.40817200  0.21246000  0.37570400  1
  Br  Br122  1  0.41009000  0.59907300  0.63150000  1
  Br  Br123  1  0.41086000  0.59901100  0.13161400  1
  Br  Br124  1  0.33960200  0.76497200  0.44873800  1
  Br  Br125  1  0.33474900  0.76644800  0.94893700  1
  Br  Br126  1  0.32541400  0.77121100  0.80089500  1
  Br  Br127  1  0.32539300  0.77130300  0.30105500  1
  Br  Br128  1  0.30137800  0.14011200  0.56641200  1
  Br  Br129  1  0.30436800  0.14061600  0.06596500  1
  Br  Br130  1  0.30263300  0.13896800  0.68900300  1
  Br  Br131  1  0.30306900  0.13964700  0.18894500  1
  Br  Br132  1  0.25971200  0.44492700  0.54313700  1
  Br  Br133  1  0.25952600  0.44538200  0.04325600  1
  Br  Br134  1  0.25651600  0.44162500  0.71184800  1
  Br  Br135  1  0.25632500  0.44167400  0.21164900  1
  Br  Br136  1  0.24326500  0.05830200  0.46186200  1
  Br  Br137  1  0.23874800  0.05119200  0.96223800  1
  Br  Br138  1  0.23927400  0.05548000  0.79250400  1
  Br  Br139  1  0.24023000  0.05528300  0.29305900  1
  Br  Br140  1  0.19278200  0.36296100  0.93893900  1
  Br  Br141  1  0.19716700  0.36047600  0.43903300  1
  Br  Br142  1  0.19833200  0.35993500  0.81619300  1
  Br  Br143  1  0.19867500  0.36013500  0.31631400  1
  Br  Br144  1  0.17474800  0.72882200  0.55103700  1
  Br  Br145  1  0.18027200  0.72975100  0.05243500  1
  Br  Br146  1  0.16088800  0.73495600  0.69854800  1
  Br  Br147  1  0.16039300  0.73497600  0.19872300  1
  Br  Br148  1  0.09239700  0.90301600  0.87820900  1
  Br  Br149  1  0.08998100  0.90075700  0.38162700  1
  Br  Br150  1  0.09170500  0.28753600  0.62573500  1
  Br  Br151  1  0.09229200  0.28668700  0.12559300  1
  Br  Br152  1  0.06591800  0.62651900  0.81143500  1
  Br  Br153  1  0.06689500  0.62590300  0.31182400  1
  Br  Br154  1  0.05727800  0.61416900  0.93492200  1
  Br  Br155  1  0.05499100  0.61294100  0.43551400  1
  Br  Br156  1  0.03914300  0.01569900  0.69701400  1
  Br  Br157  1  0.03987300  0.01517000  0.19738000  1
  Br  Br158  1  0.03710100  0.99997500  0.54966100  1
  Br  Br159  1  0.04086600  0.00734300  0.05352600  1
