# generated using pymatgen
data_NaFe8F24
_symmetry_space_group_name_H-M   'P 1'
_cell_length_a   7.75178300
_cell_length_b   9.58812335
_cell_length_c   14.34781932
_cell_angle_alpha   89.51113712
_cell_angle_beta   105.58825866
_cell_angle_gamma   113.25926973
_symmetry_Int_Tables_number   1
_chemical_formula_structural   NaFe8F24
_chemical_formula_sum   'Na2 Fe16 F48'
_cell_volume   937.94088601
_cell_formula_units_Z   2
loop_
 _symmetry_equiv_pos_site_id
 _symmetry_equiv_pos_as_xyz
  1  'x, y, z'
loop_
 _atom_site_type_symbol
 _atom_site_label
 _atom_site_symmetry_multiplicity
 _atom_site_fract_x
 _atom_site_fract_y
 _atom_site_fract_z
 _atom_site_occupancy
  Na  Na0  1  0.99952100  0.75121600  0.75150300  1
  Na  Na1  1  0.00047900  0.24878400  0.24849700  1
  Fe  Fe2  1  0.81031500  0.18682800  0.43953100  1
  Fe  Fe3  1  0.56014800  0.43461700  0.68793000  1
  Fe  Fe4  1  0.68411800  0.81270700  0.55997500  1
  Fe  Fe5  1  0.18968500  0.81317200  0.56046900  1
  Fe  Fe6  1  0.31588200  0.18729300  0.44002500  1
  Fe  Fe7  1  0.31863900  0.68678600  0.94057900  1
  Fe  Fe8  1  0.43935100  0.06434600  0.81377900  1
  Fe  Fe9  1  0.93630000  0.06534600  0.81315900  1
  Fe  Fe10  1  0.06463800  0.43643400  0.68746000  1
  Fe  Fe11  1  0.06370000  0.93465400  0.18684100  1
  Fe  Fe12  1  0.19008300  0.31346400  0.05905000  1
  Fe  Fe13  1  0.68136100  0.31321400  0.05942100  1
  Fe  Fe14  1  0.80991700  0.68653600  0.94095000  1
  Fe  Fe15  1  0.93536200  0.56356600  0.31254000  1
  Fe  Fe16  1  0.43985200  0.56538300  0.31207000  1
  Fe  Fe17  1  0.56064900  0.93565400  0.18622100  1
  F  F18  1  0.58913900  0.65847400  0.44625900  1
  F  F19  1  0.76924700  0.98466300  0.48072600  1
  F  F20  1  0.94970300  0.80132800  0.59156900  1
  F  F21  1  0.23075300  0.01533700  0.51927400  1
  F  F22  1  0.41086100  0.34152600  0.55374100  1
  F  F23  1  0.32809500  0.90598300  0.69611500  1
  F  F24  1  0.57540500  0.17795300  0.46633600  1
  F  F25  1  0.51705000  0.23187800  0.72953200  1
  F  F26  1  0.80769900  0.45328000  0.66144400  1
  F  F27  1  0.69576100  0.05256600  0.83790500  1
  F  F28  1  0.96650500  0.28598200  0.57197200  1
  F  F29  1  0.98131500  0.26745600  0.76687100  1
  F  F30  1  0.14008500  0.60881100  0.60716400  1
  F  F31  1  0.15193700  0.58898200  0.79656600  1
  F  F32  1  0.42459500  0.82204700  0.53366400  1
  F  F33  1  0.08897600  0.15595900  0.94558600  1
  F  F34  1  0.32250200  0.42898800  0.71394900  1
  F  F35  1  0.26808100  0.47439700  0.98144900  1
  F  F36  1  0.62005200  0.64282400  0.64554900  1
  F  F37  1  0.56077000  0.69847000  0.90718300  1
  F  F38  1  0.78714100  0.96189900  0.67878300  1
  F  F39  1  0.43923000  0.30153000  0.09281700  1
  F  F40  1  0.72332400  0.54232400  0.81752500  1
  F  F41  1  0.73191900  0.52560300  0.01855100  1
  F  F42  1  0.89383700  0.85733700  0.85393000  1
  F  F43  1  0.91102400  0.84404100  0.05441400  1
  F  F44  1  0.16782300  0.06103400  0.78145900  1
  F  F45  1  0.84806300  0.41101800  0.20343400  1
  F  F46  1  0.06325300  0.68150800  0.95991400  1
  F  F47  1  0.01868500  0.73254400  0.23312900  1
  F  F48  1  0.34369100  0.89287600  0.88457400  1
  F  F49  1  0.30423900  0.94743400  0.16209500  1
  F  F50  1  0.52617500  0.21301700  0.92157700  1
  F  F51  1  0.19230100  0.54672000  0.33855600  1
  F  F52  1  0.47382500  0.78698300  0.07842300  1
  F  F53  1  0.48295000  0.76812200  0.27046800  1
  F  F54  1  0.65630900  0.10712400  0.11542600  1
  F  F55  1  0.67190500  0.09401700  0.30388500  1
  F  F56  1  0.93674700  0.31849200  0.04008600  1
  F  F57  1  0.83217700  0.93896600  0.21854100  1
  F  F58  1  0.10616300  0.14266300  0.14607000  1
  F  F59  1  0.05029700  0.19867200  0.40843100  1
  F  F60  1  0.27667600  0.45767600  0.18247500  1
  F  F61  1  0.21285900  0.03810100  0.32121700  1
  F  F62  1  0.37994800  0.35717600  0.35445100  1
  F  F63  1  0.67749800  0.57101200  0.28605100  1
  F  F64  1  0.85991500  0.39118900  0.39283600  1
  F  F65  1  0.03349500  0.71401800  0.42802800  1
