# generated using pymatgen
data_Na8Ga42O67
_symmetry_space_group_name_H-M   'P 1'
_cell_length_a   5.97995300
_cell_length_b   12.27585387
_cell_length_c   20.70908432
_cell_angle_alpha   97.89447886
_cell_angle_beta   89.91899936
_cell_angle_gamma   104.01946383
_symmetry_Int_Tables_number   1
_chemical_formula_structural   Na8Ga42O67
_chemical_formula_sum   'Na8 Ga42 O67'
_cell_volume   1460.16971614
_cell_formula_units_Z   1
loop_
 _symmetry_equiv_pos_site_id
 _symmetry_equiv_pos_as_xyz
  1  'x, y, z'
loop_
 _atom_site_type_symbol
 _atom_site_label
 _atom_site_symmetry_multiplicity
 _atom_site_fract_x
 _atom_site_fract_y
 _atom_site_fract_z
 _atom_site_occupancy
  Na  Na0  1  0.99327500  0.96036900  0.15996900  1
  Na  Na1  1  0.31655400  0.48243400  0.21662500  1
  Na  Na2  1  0.76715100  0.47284100  0.48806200  1
  Na  Na3  1  0.03230100  0.04974300  0.84051300  1
  Na  Na4  1  0.90860400  0.41406700  0.30847400  1
  Na  Na5  1  0.36567500  0.49983800  0.00549300  1
  Na  Na6  1  0.30754700  0.49659800  0.60774800  1
  Na  Na7  1  0.82358700  0.58732500  0.31041000  1
  Ga  Ga8  1  0.00567600  0.99346100  0.99839200  1
  Ga  Ga9  1  0.40293600  0.77853400  0.15084100  1
  Ga  Ga10  1  0.14633300  0.78280600  0.01804000  1
  Ga  Ga11  1  0.65111400  0.78782600  0.01735700  1
  Ga  Ga12  1  0.52645200  0.03978500  0.08890400  1
  Ga  Ga13  1  0.65734800  0.29773500  0.10615200  1
  Ga  Ga14  1  0.86423200  0.70616500  0.14386800  1
  Ga  Ga15  1  0.91406800  0.79678000  0.40374100  1
  Ga  Ga16  1  0.65182300  0.78454500  0.27663200  1
  Ga  Ga17  1  0.16973000  0.78633100  0.27660200  1
  Ga  Ga18  1  0.50693900  0.98928500  0.24848000  1
  Ga  Ga19  1  0.03112100  0.04667200  0.33845500  1
  Ga  Ga20  1  0.85755900  0.20581300  0.22486900  1
  Ga  Ga21  1  0.35135700  0.21515800  0.22866700  1
  Ga  Ga22  1  0.11528100  0.21889200  0.10227300  1
  Ga  Ga23  1  0.20525300  0.34873400  0.36958400  1
  Ga  Ga24  1  0.34441700  0.65327800  0.39194700  1
  Ga  Ga25  1  0.40279800  0.79074000  0.65176900  1
  Ga  Ga26  1  0.15597800  0.78155200  0.52789100  1
  Ga  Ga27  1  0.65421400  0.78244800  0.52826700  1
  Ga  Ga28  1  0.01012400  0.00037200  0.50362700  1
  Ga  Ga29  1  0.48587800  0.94844100  0.41524500  1
  Ga  Ga30  1  0.53485500  0.04925600  0.58702000  1
  Ga  Ga31  1  0.37259700  0.21302300  0.47939800  1
  Ga  Ga32  1  0.87124000  0.21321100  0.47694200  1
  Ga  Ga33  1  0.61010900  0.20133700  0.35264300  1
  Ga  Ga34  1  0.68548000  0.34925500  0.61397100  1
  Ga  Ga35  1  0.83278800  0.64675400  0.63794500  1
  Ga  Ga36  1  0.88780800  0.76363200  0.89143200  1
  Ga  Ga37  1  0.64961300  0.77924300  0.77518100  1
  Ga  Ga38  1  0.14219100  0.77662400  0.77541600  1
  Ga  Ga39  1  0.98414800  0.95480200  0.66617600  1
  Ga  Ga40  1  0.86867900  0.22207500  0.72774600  1
  Ga  Ga41  1  0.11689000  0.21552600  0.60353500  1
  Ga  Ga42  1  0.37132800  0.22409700  0.72774400  1
  Ga  Ga43  1  0.18093200  0.34825400  0.85938600  1
  Ga  Ga44  1  0.32507200  0.63635300  0.88779100  1
  Ga  Ga45  1  0.48281800  0.95175800  0.90997400  1
  Ga  Ga46  1  0.50974800  0.00797600  0.74994300  1
  Ga  Ga47  1  0.35882100  0.21202300  0.97225800  1
  Ga  Ga48  1  0.86738700  0.21788500  0.97234100  1
  Ga  Ga49  1  0.61631700  0.21961800  0.84401600  1
  O  O50  1  0.15738400  0.29980400  0.02899800  1
  O  O51  1  0.45291700  0.88108000  0.07780900  1
  O  O52  1  0.55693400  0.09814100  0.18335200  1
  O  O53  1  0.30286100  0.10788000  0.05934200  1
  O  O54  1  0.81436400  0.11412300  0.06070500  1
  O  O55  1  0.63743300  0.27949200  0.27563200  1
  O  O56  1  0.41262000  0.31627600  0.15694000  1
  O  O57  1  0.91328200  0.31556600  0.15900700  1
  O  O58  1  0.65277100  0.30355700  0.02037900  1
  O  O59  1  0.86493500  0.69192400  0.23178700  1
  O  O60  1  0.59549000  0.68940700  0.10036100  1
  O  O61  1  0.12108800  0.69815000  0.10078000  1
  O  O62  1  0.95384800  0.88486800  0.32582300  1
  O  O63  1  0.67373900  0.87828300  0.20741100  1
  O  O64  1  0.23433500  0.88017500  0.20843400  1
  O  O65  1  0.94889500  0.88414900  0.05932600  1
  O  O66  1  0.06249600  0.10471700  0.42920200  1
  O  O67  1  0.79266600  0.09788800  0.29805800  1
  O  O68  1  0.32025200  0.09883300  0.29938000  1
  O  O69  1  0.07895600  0.13960000  0.18004800  1
  O  O70  1  0.15778200  0.29079500  0.52340100  1
  O  O71  1  0.90316600  0.29979500  0.40036500  1
  O  O72  1  0.43919200  0.30309000  0.40490100  1
  O  O73  1  0.15538900  0.30456500  0.27817300  1
  O  O74  1  0.22851500  0.50164200  0.36391000  1
  O  O75  1  0.36785400  0.70181500  0.47947900  1
  O  O76  1  0.12070200  0.71346900  0.35515400  1
  O  O77  1  0.62958800  0.70340900  0.35373600  1
  O  O78  1  0.36316500  0.68967900  0.23287000  1
  O  O79  1  0.45149600  0.88498800  0.57083200  1
  O  O80  1  0.19627800  0.90077500  0.45384000  1
  O  O81  1  0.72747100  0.89887800  0.45289500  1
  O  O82  1  0.46664400  0.89657400  0.32494600  1
  O  O83  1  0.56266500  0.10649800  0.67280300  1
  O  O84  1  0.29746400  0.10157900  0.54457600  1
  O  O85  1  0.82385000  0.10144300  0.54392200  1
  O  O86  1  0.56632300  0.11132400  0.42560000  1
  O  O87  1  0.66024600  0.30515700  0.76860500  1
  O  O88  1  0.39734600  0.30123200  0.64729900  1
  O  O89  1  0.92347500  0.30317200  0.64815900  1
  O  O90  1  0.66188500  0.29197000  0.52176000  1
  O  O91  1  0.72765500  0.49773100  0.60015800  1
  O  O92  1  0.85638200  0.69598400  0.72475600  1
  O  O93  1  0.59660000  0.70171100  0.60095400  1
  O  O94  1  0.12226800  0.69792600  0.59983100  1
  O  O95  1  0.87093800  0.71030900  0.47719200  1
  O  O96  1  0.93824800  0.86035000  0.82172500  1
  O  O97  1  0.68995900  0.89951600  0.69992500  1
  O  O98  1  0.22329000  0.89961300  0.69903300  1
  O  O99  1  0.95719100  0.89563200  0.57014100  1
  O  O100  1  0.05801200  0.11001700  0.94741500  1
  O  O101  1  0.78108900  0.11304600  0.78930600  1
  O  O102  1  0.34377600  0.11387700  0.78833600  1
  O  O103  1  0.06418900  0.11593000  0.67126700  1
  O  O104  1  0.89587600  0.29033200  0.89694100  1
  O  O105  1  0.40093200  0.28517800  0.89702300  1
  O  O106  1  0.15772100  0.30477300  0.76947700  1
  O  O107  1  0.28376500  0.49230600  0.89958500  1
  O  O108  1  0.35986600  0.70025900  0.98032800  1
  O  O109  1  0.10631400  0.69116500  0.84858000  1
  O  O110  1  0.59679200  0.69795800  0.84957100  1
  O  O111  1  0.36479200  0.71304700  0.72604700  1
  O  O112  1  0.20208300  0.89923800  0.95256200  1
  O  O113  1  0.71259700  0.90184300  0.95298000  1
  O  O114  1  0.45532000  0.90066900  0.81866500  1
  O  O115  1  0.56400200  0.11328900  0.93091300  1
  O  O116  1  0.85693300  0.70366000  0.97203300  1
