# generated using pymatgen
data_Li3Mn10O20
_symmetry_space_group_name_H-M   'P 1'
_cell_length_a   5.81863288
_cell_length_b   5.79975837
_cell_length_c   29.53355518
_cell_angle_alpha   60.59719083
_cell_angle_beta   60.37347317
_cell_angle_gamma   60.10725620
_symmetry_Int_Tables_number   1
_chemical_formula_structural   Li3Mn10O20
_chemical_formula_sum   'Li6 Mn20 O40'
_cell_volume   710.44654358
_cell_formula_units_Z   2
loop_
 _symmetry_equiv_pos_site_id
 _symmetry_equiv_pos_as_xyz
  1  'x, y, z'
loop_
 _atom_site_type_symbol
 _atom_site_label
 _atom_site_symmetry_multiplicity
 _atom_site_fract_x
 _atom_site_fract_y
 _atom_site_fract_z
 _atom_site_occupancy
  Li  Li0  1  0.14232100  0.13612200  0.61708700  1
  Li  Li1  1  0.87240600  0.87392400  0.17594900  1
  Li  Li2  1  0.85447900  0.87515200  0.37904400  1
  Li  Li3  1  0.86256700  0.88421100  0.57380200  1
  Li  Li4  1  0.88345200  0.88385500  0.76976700  1
  Li  Li5  1  0.85699400  0.87233300  0.97966800  1
  Mn  Mn6  1  0.15758300  0.10248400  0.22749000  1
  Mn  Mn7  1  0.39143000  0.44498200  0.04372100  1
  Mn  Mn8  1  0.50788400  0.48738700  0.10750400  1
  Mn  Mn9  1  0.51086100  0.49167900  0.20115600  1
  Mn  Mn10  1  0.16077500  0.11580800  0.42152200  1
  Mn  Mn11  1  0.50788400  0.96720600  0.10750400  1
  Mn  Mn12  1  0.50648300  0.49847800  0.30202200  1
  Mn  Mn13  1  0.50935200  0.50170700  0.39744700  1
  Mn  Mn14  1  0.50648300  0.98493100  0.30202200  1
  Mn  Mn15  1  0.50247200  0.50071000  0.50005000  1
  Mn  Mn16  1  0.00899000  0.50435900  0.69645800  1
  Mn  Mn17  1  0.51171700  0.50682900  0.59492500  1
  Mn  Mn18  1  0.50247200  0.99656600  0.50005000  1
  Mn  Mn19  1  0.50402500  0.50611300  0.69615100  1
  Mn  Mn20  1  0.02225900  0.51519700  0.88946900  1
  Mn  Mn21  1  0.50402500  0.00910800  0.69615100  1
  Mn  Mn22  1  0.51711100  0.02581600  0.88843700  1
  Mn  Mn23  1  0.51106800  0.51132000  0.79325800  1
  Mn  Mn24  1  0.51711100  0.51488700  0.88843700  1
  Mn  Mn25  1  0.54603900  0.56754000  0.96377600  1
  O  O26  1  0.24617500  0.20048200  0.06577100  1
  O  O27  1  0.27934900  0.22798000  0.15293800  1
  O  O28  1  0.24617500  0.72449000  0.06577100  1
  O  O29  1  0.70396400  0.23791100  0.06404300  1
  O  O30  1  0.27813300  0.24235800  0.25232000  1
  O  O31  1  0.28698300  0.71925800  0.15490000  1
  O  O32  1  0.70770900  0.27785800  0.15631800  1
  O  O33  1  0.70100800  0.74063700  0.06354300  1
  O  O34  1  0.28090200  0.24923100  0.34412700  1
  O  O35  1  0.27813300  0.71791100  0.25232000  1
  O  O36  1  0.72318700  0.25069400  0.25508500  1
  O  O37  1  0.70770900  0.73284200  0.15631800  1
  O  O38  1  0.28639200  0.24788900  0.44797800  1
  O  O39  1  0.28383600  0.73722900  0.34834100  1
  O  O40  1  0.70203000  0.74890300  0.26003300  1
  O  O41  1  0.70267500  0.28858400  0.35105500  1
  O  O42  1  0.29772300  0.25768600  0.53738100  1
  O  O43  1  0.28639200  0.72582800  0.44797800  1
  O  O44  1  0.73011200  0.26071700  0.44969100  1
  O  O45  1  0.70267500  0.75346700  0.35105500  1
  O  O46  1  0.28408400  0.74130700  0.54666000  1
  O  O47  1  0.26278600  0.26515200  0.65169600  1
  O  O48  1  0.69448100  0.28913200  0.55179800  1
  O  O49  1  0.70306600  0.75031200  0.45926200  1
  O  O50  1  0.26278600  0.71358000  0.65169600  1
  O  O51  1  0.27332900  0.27307300  0.73610500  1
  O  O52  1  0.69448100  0.75739700  0.55179800  1
  O  O53  1  0.71224100  0.27082000  0.64922400  1
  O  O54  1  0.28254300  0.28224000  0.84347800  1
  O  O55  1  0.29972900  0.74569100  0.74177800  1
  O  O56  1  0.74458700  0.29939900  0.74151900  1
  O  O57  1  0.74169900  0.73943600  0.65588600  1
  O  O58  1  0.28452500  0.28417000  0.92942700  1
  O  O59  1  0.28254300  0.71782700  0.84347800  1
  O  O60  1  0.72147600  0.28285700  0.84256200  1
  O  O61  1  0.74458700  0.74842000  0.74151900  1
  O  O62  1  0.27988500  0.78169800  0.93134400  1
  O  O63  1  0.77239800  0.28577100  0.93323800  1
  O  O64  1  0.75187100  0.75041600  0.84945900  1
  O  O65  1  0.77239800  0.77563900  0.93323800  1
