# generated using pymatgen
data_Yb29S30
_symmetry_space_group_name_H-M   'P 1'
_cell_length_a   8.01581997
_cell_length_b   8.02644088
_cell_length_c   64.26491511
_cell_angle_alpha   59.76663139
_cell_angle_beta   59.86257738
_cell_angle_gamma   60.26875504
_symmetry_Int_Tables_number   1
_chemical_formula_structural   Yb29S30
_chemical_formula_sum   'Yb58 S60'
_cell_volume   2921.29849523
_cell_formula_units_Z   2
loop_
 _symmetry_equiv_pos_site_id
 _symmetry_equiv_pos_as_xyz
  1  'x, y, z'
loop_
 _atom_site_type_symbol
 _atom_site_label
 _atom_site_symmetry_multiplicity
 _atom_site_fract_x
 _atom_site_fract_y
 _atom_site_fract_z
 _atom_site_occupancy
  Yb  Yb0  1  0.98413899  0.01013319  0.06481633  1
  Yb  Yb1  1  0.98918476  0.51101537  0.00126602  1
  Yb  Yb2  1  0.52923164  0.00410833  0.99940028  1
  Yb  Yb3  1  0.97221398  0.49875497  0.06313560  1
  Yb  Yb4  1  0.51416900  0.48334234  0.99861773  1
  Yb  Yb5  1  0.98490968  0.50772850  0.12740914  1
  Yb  Yb6  1  0.51350723  0.49705066  0.06284795  1
  Yb  Yb7  1  0.50515174  0.98154413  0.12815002  1
  Yb  Yb8  1  0.97971082  0.51642378  0.18614383  1
  Yb  Yb9  1  0.49475015  0.49906270  0.12658283  1
  Yb  Yb10  1  0.51149286  0.98628688  0.06112355  1
  Yb  Yb11  1  0.99879766  0.99883274  0.31261157  1
  Yb  Yb12  1  0.99673340  0.99758264  0.18834643  1
  Yb  Yb13  1  0.98072382  0.51861196  0.25323624  1
  Yb  Yb14  1  0.51041651  0.50979517  0.18649425  1
  Yb  Yb15  1  0.51837924  0.98102699  0.25321760  1
  Yb  Yb16  1  0.00087835  0.50018992  0.31304899  1
  Yb  Yb17  1  0.49741632  0.49749183  0.25076472  1
  Yb  Yb18  1  0.50010915  0.00093176  0.31304298  1
  Yb  Yb19  1  0.51692187  0.97969931  0.18610165  1
  Yb  Yb20  1  0.00138221  0.49954811  0.37491824  1
  Yb  Yb21  1  0.49876424  0.49880252  0.31253911  1
  Yb  Yb22  1  0.99993795  0.50007015  0.43749409  1
  Yb  Yb23  1  0.00001646  0.00000885  0.56254158  1
  Yb  Yb24  1  0.49955778  0.49955246  0.37494931  1
  Yb  Yb25  1  0.99976115  0.49998523  0.50002962  1
  Yb  Yb26  1  0.99994339  0.99993846  0.43749840  1
  Yb  Yb27  1  0.49989849  0.49989222  0.43753592  1
  Yb  Yb28  1  0.49999064  0.99975468  0.50002924  1
  Yb  Yb29  1  0.49954142  0.00139136  0.37491945  1
  Yb  Yb30  1  0.00001016  0.49966288  0.56254213  1
  Yb  Yb31  1  0.49967299  0.00000382  0.56254195  1
  Yb  Yb32  1  0.50000020  0.50000018  0.50002808  1
  Yb  Yb33  1  0.50007324  0.99993301  0.43749405  1
  Yb  Yb34  1  0.99783986  0.50086161  0.62508076  1
  Yb  Yb35  1  0.49991033  0.49990607  0.56253642  1
  Yb  Yb36  1  0.50087589  0.99780222  0.62507897  1
  Yb  Yb37  1  0.00178941  0.50912512  0.68582879  1
  Yb  Yb38  1  0.50068453  0.50070485  0.62508875  1
  Yb  Yb39  1  0.00304800  0.50235300  0.74895262  1
  Yb  Yb40  1  0.00198658  0.00180501  0.68580281  1
  Yb  Yb41  1  0.50052851  0.50036872  0.68728593  1
  Yb  Yb42  1  0.00277236  0.00262926  0.74892012  1
  Yb  Yb43  1  0.00208191  0.50240792  0.81153142  1
  Yb  Yb44  1  0.50249682  0.50236070  0.74895807  1
  Yb  Yb45  1  0.50932616  0.00164763  0.68581596  1
  Yb  Yb46  1  0.00246544  0.00230847  0.81156518  1
  Yb  Yb47  1  0.00261117  0.50027539  0.87406806  1
  Yb  Yb48  1  0.50257595  0.50249363  0.81156276  1
  Yb  Yb49  1  0.99037906  0.50655671  0.93629181  1
  Yb  Yb50  1  0.00286746  0.00344393  0.87416213  1
  Yb  Yb51  1  0.50248650  0.00292320  0.74895196  1
  Yb  Yb52  1  0.50432496  0.98855245  0.93666002  1
  Yb  Yb53  1  0.50196758  0.50133029  0.87440699  1
  Yb  Yb54  1  0.50252030  0.00193579  0.81153419  1
  Yb  Yb55  1  0.00313998  0.99828034  0.93803223  1
  Yb  Yb56  1  0.50813181  0.51201299  0.93573704  1
  Yb  Yb57  1  0.50067752  0.00282457  0.87402987  1
  S  S58  1  0.24861966  0.24817979  0.03115421  1
  S  S59  1  0.25145427  0.25126118  0.15545590  1
  S  S60  1  0.25763376  0.74291590  0.09093718  1
  S  S61  1  0.73810622  0.25917365  0.03231595  1
  S  S62  1  0.73997311  0.25402610  0.09349401  1
  S  S63  1  0.74798044  0.74823191  0.03120741  1
  S  S64  1  0.25859676  0.74096466  0.15662925  1
  S  S65  1  0.75387706  0.75134718  0.09247385  1
  S  S66  1  0.25157677  0.25134551  0.27981442  1
  S  S67  1  0.25974881  0.74458447  0.21666342  1
  S  S68  1  0.74005816  0.25954869  0.15665592  1
  S  S69  1  0.25469423  0.25464325  0.34299928  1
  S  S70  1  0.74503373  0.25950077  0.21670056  1
  S  S71  1  0.75528966  0.75416090  0.15502961  1
  S  S72  1  0.26029599  0.75075264  0.28059879  1
  S  S73  1  0.75159847  0.75108512  0.21778001  1
  S  S74  1  0.24984346  0.24983900  0.40627735  1
  S  S75  1  0.25634975  0.74447533  0.34286577  1
  S  S76  1  0.75064124  0.26038905  0.28062505  1
  S  S77  1  0.74465984  0.25617269  0.34288657  1
  S  S78  1  0.25578532  0.25579807  0.46802247  1
  S  S79  1  0.74602999  0.74593293  0.28300834  1
  S  S80  1  0.25695955  0.74279880  0.40716700  1
  S  S81  1  0.75036126  0.75033162  0.34358802  1
  S  S82  1  0.25010515  0.25008098  0.53121519  1
  S  S83  1  0.25686426  0.74313538  0.46788488  1
  S  S84  1  0.74262006  0.25714417  0.40719053  1
  S  S85  1  0.25633443  0.25634145  0.59295276  1
  S  S86  1  0.74331395  0.25669290  0.46790627  1
  S  S87  1  0.74377240  0.74376387  0.40704061  1
  S  S88  1  0.25680388  0.74346596  0.53202869  1
  S  S89  1  0.74997005  0.74998426  0.46875657  1
  S  S90  1  0.24913527  0.24917141  0.65659567  1
  S  S91  1  0.25745397  0.74257969  0.59281833  1
  S  S92  1  0.74330512  0.25698255  0.53204854  1
  S  S93  1  0.74277070  0.25726556  0.59284022  1
  S  S94  1  0.24698836  0.24712380  0.71962242  1
  S  S95  1  0.74441911  0.74438648  0.53191416  1
  S  S96  1  0.25687156  0.74268324  0.65726420  1
  S  S97  1  0.75002909  0.75003728  0.59374081  1
  S  S98  1  0.74246476  0.25711349  0.65728488  1
  S  S99  1  0.24775331  0.24793640  0.78216322  1
  S  S100  1  0.24705966  0.74967956  0.71960274  1
  S  S101  1  0.74952984  0.24718156  0.71960655  1
  S  S102  1  0.24770426  0.24759575  0.84475761  1
  S  S103  1  0.74354914  0.74358425  0.65714191  1
  S  S104  1  0.24785376  0.74743941  0.78219462  1
  S  S105  1  0.74822815  0.74836185  0.71945794  1
  S  S106  1  0.74732357  0.24802245  0.78218993  1
  S  S107  1  0.24710034  0.24822111  0.90769244  1
  S  S108  1  0.24712986  0.74752181  0.84474507  1
  S  S109  1  0.74723801  0.24720044  0.84475006  1
  S  S110  1  0.74754021  0.74762952  0.78219366  1
  S  S111  1  0.24394297  0.74370950  0.90783034  1
  S  S112  1  0.74743759  0.74792359  0.84476147  1
  S  S113  1  0.25700631  0.73622879  0.96902119  1
  S  S114  1  0.74340263  0.24498929  0.90780484  1
  S  S115  1  0.74488615  0.25709484  0.96749162  1
  S  S116  1  0.75119501  0.75108462  0.90625140  1
  S  S117  1  0.74085403  0.75011660  0.97008655  1
