# generated using pymatgen
data_U11Se20
_symmetry_space_group_name_H-M   'P 1'
_cell_length_a   15.13096800
_cell_length_b   15.13096800
_cell_length_c   6.71347000
_cell_angle_alpha   90.00000000
_cell_angle_beta   90.00000000
_cell_angle_gamma   90.00000000
_symmetry_Int_Tables_number   1
_chemical_formula_structural   U11Se20
_chemical_formula_sum   'U22 Se40'
_cell_volume   1537.02339575
_cell_formula_units_Z   2
loop_
 _symmetry_equiv_pos_site_id
 _symmetry_equiv_pos_as_xyz
  1  'x, y, z'
loop_
 _atom_site_type_symbol
 _atom_site_label
 _atom_site_symmetry_multiplicity
 _atom_site_fract_x
 _atom_site_fract_y
 _atom_site_fract_z
 _atom_site_occupancy
  U  U0  1  0.50000000  0.50000000  0.14490400  1
  U  U1  1  0.90617700  0.75636800  0.25103400  1
  U  U2  1  0.40345800  0.25309900  0.25032900  1
  U  U3  1  0.74690100  0.40345800  0.25032900  1
  U  U4  1  0.24363200  0.90617700  0.25103400  1
  U  U5  1  0.59654200  0.74690100  0.25032900  1
  U  U6  1  0.09382300  0.24363200  0.25103400  1
  U  U7  1  0.75636800  0.09382300  0.25103400  1
  U  U8  1  0.25309900  0.59654200  0.25032900  1
  U  U9  1  0.00000000  0.50000000  0.35480500  1
  U  U10  1  0.50000000  0.00000000  0.35480500  1
  U  U11  1  0.00000000  0.00000000  0.64490400  1
  U  U12  1  0.75309900  0.90345800  0.75032900  1
  U  U13  1  0.25636800  0.40617700  0.75103400  1
  U  U14  1  0.74363200  0.59382300  0.75103400  1
  U  U15  1  0.59382300  0.25636800  0.75103400  1
  U  U16  1  0.90345800  0.24690100  0.75032900  1
  U  U17  1  0.24690100  0.09654200  0.75032900  1
  U  U18  1  0.40617700  0.74363200  0.75103400  1
  U  U19  1  0.09654200  0.75309900  0.75032900  1
  U  U20  1  0.00000000  0.50000000  0.85480500  1
  U  U21  1  0.50000000  0.00000000  0.85480500  1
  Se  Se22  1  0.24844200  0.25025800  0.00284800  1
  Se  Se23  1  0.74974200  0.24844200  0.00284800  1
  Se  Se24  1  0.25025800  0.75155800  0.00284800  1
  Se  Se25  1  0.55979300  0.14855800  0.11127100  1
  Se  Se26  1  0.64886900  0.94057800  0.11208600  1
  Se  Se27  1  0.05942200  0.64886900  0.11208600  1
  Se  Se28  1  0.85144200  0.55979300  0.11127100  1
  Se  Se29  1  0.14855800  0.44020700  0.11127100  1
  Se  Se30  1  0.94057800  0.35113100  0.11208600  1
  Se  Se31  1  0.35113100  0.05942200  0.11208600  1
  Se  Se32  1  0.44020700  0.85144200  0.11127100  1
  Se  Se33  1  0.64838500  0.56050300  0.38446000  1
  Se  Se34  1  0.93864300  0.14896800  0.38991600  1
  Se  Se35  1  0.14896800  0.06135700  0.38991600  1
  Se  Se36  1  0.43949700  0.64838500  0.38446000  1
  Se  Se37  1  0.85103200  0.93864300  0.38991600  1
  Se  Se38  1  0.35161500  0.43949700  0.38446000  1
  Se  Se39  1  0.56050300  0.35161500  0.38446000  1
  Se  Se40  1  0.06135700  0.85103200  0.38991600  1
  Se  Se41  1  0.75025800  0.74844200  0.50284800  1
  Se  Se42  1  0.24974200  0.25155800  0.50284800  1
  Se  Se43  1  0.74844200  0.24974200  0.50284800  1
  Se  Se44  1  0.25155800  0.75025800  0.50284800  1
  Se  Se45  1  0.94020700  0.64855800  0.61127100  1
  Se  Se46  1  0.44057800  0.14886900  0.61208600  1
  Se  Se47  1  0.64855800  0.05979300  0.61127100  1
  Se  Se48  1  0.55942200  0.85113100  0.61208600  1
  Se  Se49  1  0.85113100  0.44057800  0.61208600  1
  Se  Se50  1  0.14886900  0.55942200  0.61208600  1
  Se  Se51  1  0.35144200  0.94020700  0.61127100  1
  Se  Se52  1  0.05979300  0.35144200  0.61127100  1
  Se  Se53  1  0.56135700  0.64896800  0.88991600  1
  Se  Se54  1  0.06050300  0.14838500  0.88446000  1
  Se  Se55  1  0.64896800  0.43864300  0.88991600  1
  Se  Se56  1  0.85161500  0.06050300  0.88446000  1
  Se  Se57  1  0.93949700  0.85161500  0.88446000  1
  Se  Se58  1  0.35103200  0.56135700  0.88991600  1
  Se  Se59  1  0.14838500  0.93949700  0.88446000  1
  Se  Se60  1  0.43864300  0.35103200  0.88991600  1
  Se  Se61  1  0.75155800  0.74974200  0.00284800  1
