# generated using pymatgen
data_K24Zr18Se91
_symmetry_space_group_name_H-M   'P 1'
_cell_length_a   18.35013681
_cell_length_b   18.94988280
_cell_length_c   17.86229256
_cell_angle_alpha   62.19648011
_cell_angle_beta   78.17080319
_cell_angle_gamma   68.25902404
_symmetry_Int_Tables_number   1
_chemical_formula_structural   K24Zr18Se91
_chemical_formula_sum   'K24 Zr18 Se91'
_cell_volume   5099.48519662
_cell_formula_units_Z   1
loop_
 _symmetry_equiv_pos_site_id
 _symmetry_equiv_pos_as_xyz
  1  'x, y, z'
loop_
 _atom_site_type_symbol
 _atom_site_label
 _atom_site_symmetry_multiplicity
 _atom_site_fract_x
 _atom_site_fract_y
 _atom_site_fract_z
 _atom_site_occupancy
  K  K0  1  0.82384494  0.22140766  0.31888364  1
  K  K1  1  0.22016017  0.09278061  0.74167086  1
  K  K2  1  0.12086875  0.42206121  0.07039602  1
  K  K3  1  0.06598017  0.45735203  0.65701386  1
  K  K4  1  0.08447058  0.81983540  0.94713547  1
  K  K5  1  0.32338472  0.06437443  0.97262483  1
  K  K6  1  0.23393144  0.43630471  0.27802774  1
  K  K7  1  0.24339846  0.56843315  0.47690787  1
  K  K8  1  0.30015384  0.41393381  0.81561067  1
  K  K9  1  0.71854614  0.02452706  0.43673778  1
  K  K10  1  0.46489827  0.55943576  0.74330888  1
  K  K11  1  0.34548922  0.71426717  0.04204129  1
  K  K12  1  0.51131725  0.25633517  0.06432133  1
  K  K13  1  0.53464231  0.41263265  0.29046567  1
  K  K14  1  0.51809730  0.03528746  0.33204541  1
  K  K15  1  0.66700263  0.65747325  0.09979693  1
  K  K16  1  0.85727143  0.41999067  0.46265872  1
  K  K17  1  0.77868193  0.48629167  0.76336878  1
  K  K18  1  0.62723962  0.95307128  0.08271198  1
  K  K19  1  0.00852700  0.26048525  0.96728493  1
  K  K20  1  0.96297912  0.61174324  0.23363239  1
  K  K21  1  0.72074427  0.76058503  0.62762318  1
  K  K22  1  0.81152640  0.92894072  0.21300416  1
  K  K23  1  0.01829496  0.83243197  0.66084267  1
  Zr  Zr24  1  0.08182994  0.10273808  0.53375407  1
  Zr  Zr25  1  0.94521970  0.56897840  0.82522281  1
  Zr  Zr26  1  0.11407462  0.30197265  0.50561036  1
  Zr  Zr27  1  0.13927966  0.80574937  0.27358033  1
  Zr  Zr28  1  0.30175307  0.20892071  0.15001417  1
  Zr  Zr29  1  0.71909332  0.24695198  0.85412092  1
  Zr  Zr30  1  0.55751820  0.21960367  0.80416708  1
  Zr  Zr31  1  0.18709994  0.82912454  0.44207903  1
  Zr  Zr32  1  0.31000295  0.80917957  0.77385996  1
  Zr  Zr33  1  0.71855723  0.21659469  0.12261707  1
  Zr  Zr34  1  0.79717164  0.83134161  0.84922410  1
  Zr  Zr35  1  0.41956987  0.75283079  0.24702699  1
  Zr  Zr36  1  0.63224500  0.97994508  0.80858633  1
  Zr  Zr37  1  0.50206106  0.83474103  0.85668788  1
  Zr  Zr38  1  0.93564602  0.18329470  0.78275750  1
  Zr  Zr39  1  0.90105847  0.65624349  0.51057072  1
  Zr  Zr40  1  0.04138990  0.27122540  0.33152173  1
  Zr  Zr41  1  0.96784867  0.88640801  0.41552974  1
  Se  Se42  1  0.88624804  0.03458468  0.30334344  1
  Se  Se43  1  0.07163801  0.84836469  0.13534139  1
  Se  Se44  1  0.03499931  0.08724933  0.41655987  1
  Se  Se45  1  0.99669737  0.39659892  0.56116361  1
  Se  Se46  1  0.06594227  0.39757832  0.35022529  1
  Se  Se47  1  0.05212832  0.18206130  0.63659824  1
  Se  Se48  1  0.16704491  0.19863054  0.86070206  1
  Se  Se49  1  0.26726675  0.26340444  0.55232723  1
  Se  Se50  1  0.06207497  0.70351126  0.29279812  1
  Se  Se51  1  0.16387190  0.21445133  0.11306373  1
  Se  Se52  1  0.18406612  0.60001218  0.00877425  1
  Se  Se53  1  0.08449246  0.74767216  0.50299555  1
  Se  Se54  1  0.92058549  0.05648530  0.15714570  1
  Se  Se55  1  0.50368076  0.07884879  0.49801408  1
  Se  Se56  1  0.13416405  0.62744982  0.12527773  1
  Se  Se57  1  0.19128022  0.40864125  0.48667599  1
  Se  Se58  1  0.17516296  0.19758428  0.25399592  1
  Se  Se59  1  0.74926225  0.57200906  0.94265475  1
  Se  Se60  1  0.00454005  0.62282151  0.90304290  1
  Se  Se61  1  0.20747228  0.85001375  0.12233757  1
  Se  Se62  1  0.21731518  0.30755353  0.76385623  1
  Se  Se63  1  0.37289428  0.21612728  0.25675371  1
  Se  Se64  1  0.84177800  0.28826596  0.85644157  1
  Se  Se65  1  0.15417386  0.96871332  0.47179351  1
  Se  Se66  1  0.73594073  0.32391747  0.45141237  1
  Se  Se67  1  0.46139624  0.95914311  0.23040048  1
  Se  Se68  1  0.16420481  0.84096419  0.74606125  1
  Se  Se69  1  0.32461373  0.79570446  0.49325644  1
  Se  Se70  1  0.27301334  0.74646911  0.34421495  1
  Se  Se71  1  0.33600112  0.66091362  0.87610697  1
  Se  Se72  1  0.31674188  0.33527872  0.01982884  1
  Se  Se73  1  0.34485967  0.05989501  0.15123495  1
  Se  Se74  1  0.36251982  0.45262044  0.06962387  1
  Se  Se75  1  0.32814550  0.56491211  0.62594908  1
  Se  Se76  1  0.56628763  0.19772508  0.37091906  1
  Se  Se77  1  0.58075961  0.21850213  0.48725526  1
  Se  Se78  1  0.60607121  0.62932452  0.78240540  1
  Se  Se79  1  0.62483519  0.14472546  0.94275068  1
  Se  Se80  1  0.59658399  0.35320781  0.75414195  1
  Se  Se81  1  0.48537894  0.98020835  0.87039660  1
  Se  Se82  1  0.34609399  0.88740421  0.84143799  1
  Se  Se83  1  0.61944375  0.13717065  0.71544906  1
  Se  Se84  1  0.41309770  0.22742628  0.82696732  1
  Se  Se85  1  0.54966100  0.79794702  0.16443357  1
  Se  Se86  1  0.41239163  0.84634245  0.32883041  1
  Se  Se87  1  0.66171289  0.09576370  0.19319593  1
  Se  Se88  1  0.40050741  0.60994423  0.26225793  1
  Se  Se89  1  0.53082724  0.59614555  0.28022344  1
  Se  Se90  1  0.37823263  0.84981421  0.10028313  1
  Se  Se91  1  0.41045997  0.35326282  0.19842801  1
  Se  Se92  1  0.40098450  0.90415333  0.56029906  1
  Se  Se93  1  0.40827685  0.76732255  0.66331422  1
  Se  Se94  1  0.61794020  0.42658232  0.44008228  1
  Se  Se95  1  0.64019773  0.54475812  0.92357773  1
  Se  Se96  1  0.73833021  0.94186962  0.91090863  1
  Se  Se97  1  0.52618438  0.70398456  0.98793119  1
  Se  Se98  1  0.66940658  0.30843338  0.97049413  1
  Se  Se99  1  0.79930138  0.22451289  0.70814582  1
  Se  Se100  1  0.71293371  0.18190898  0.50961223  1
  Se  Se101  1  0.86836693  0.20536042  0.10233283  1
  Se  Se102  1  0.51429019  0.99106089  0.72650762  1
  Se  Se103  1  0.25973318  0.70558234  0.60857769  1
  Se  Se104  1  0.89861112  0.96096282  0.50419068  1
  Se  Se105  1  0.17657523  0.18293183  0.44006567  1
  Se  Se106  1  0.55759912  0.78539966  0.73420851  1
  Se  Se107  1  0.64945776  0.86280875  0.28526192  1
  Se  Se108  1  0.65927610  0.74778729  0.26001338  1
  Se  Se109  1  0.82213939  0.10517434  0.84220407  1
  Se  Se110  1  0.33517884  0.24986754  0.70376587  1
  Se  Se111  1  0.96699587  0.28572767  0.20703456  1
  Se  Se112  1  0.82851603  0.82143525  0.69926555  1
  Se  Se113  1  0.82096662  0.54703745  0.56134899  1
  Se  Se114  1  0.06507972  0.44993798  0.85191062  1
  Se  Se115  1  0.52412725  0.93016108  0.56797954  1
  Se  Se116  1  0.05184599  0.03582824  0.84761614  1
  Se  Se117  1  0.66802508  0.80404660  0.87251808  1
  Se  Se118  1  0.94643335  0.23254732  0.46385787  1
  Se  Se119  1  0.86699620  0.46700215  0.92660449  1
  Se  Se120  1  0.92707820  0.34601335  0.70461138  1
  Se  Se121  1  0.75830532  0.69282185  0.47004466  1
  Se  Se122  1  0.95694614  0.41169362  0.21383185  1
  Se  Se123  1  0.76563585  0.74141082  0.16084015  1
  Se  Se124  1  0.87155372  0.81514525  0.40947164  1
  Se  Se125  1  0.91410414  0.63613815  0.66623156  1
  Se  Se126  1  0.02546668  0.59149790  0.43279466  1
  Se  Se127  1  0.76564941  0.96008866  0.69492397  1
  Se  Se128  1  0.93573539  0.75071995  0.92021122  1
  Se  Se129  1  0.08991429  0.93551827  0.30905921  1
  Se  Se130  1  0.66612710  0.30865808  0.19725319  1
  Se  Se131  1  0.98135837  0.09811053  0.94205390  1
  Se  Se132  1  0.12982432  0.99562733  0.69198006  1
