# generated using pymatgen
data_Pr6MnS10
_symmetry_space_group_name_H-M   'P 1'
_cell_length_a   7.44239800
_cell_length_b   7.45521514
_cell_length_c   30.63270209
_cell_angle_alpha   94.21046578
_cell_angle_beta   95.14043786
_cell_angle_gamma   108.77544273
_symmetry_Int_Tables_number   1
_chemical_formula_structural   Pr6MnS10
_chemical_formula_sum   'Pr24 Mn4 S40'
_cell_volume   1593.27921703
_cell_formula_units_Z   4
loop_
 _symmetry_equiv_pos_site_id
 _symmetry_equiv_pos_as_xyz
  1  'x, y, z'
loop_
 _atom_site_type_symbol
 _atom_site_label
 _atom_site_symmetry_multiplicity
 _atom_site_fract_x
 _atom_site_fract_y
 _atom_site_fract_z
 _atom_site_occupancy
  Pr  Pr0  1  0.82026400  0.19655900  0.02574400  1
  Pr  Pr1  1  0.00389400  0.63638800  0.12605900  1
  Pr  Pr2  1  0.42314900  0.79211500  0.22438300  1
  Pr  Pr3  1  0.46673300  0.58909100  0.07633800  1
  Pr  Pr4  1  0.60364700  0.23742700  0.32582700  1
  Pr  Pr5  1  0.02334700  0.38281500  0.43114100  1
  Pr  Pr6  1  0.82356600  0.08100700  0.15071100  1
  Pr  Pr7  1  0.07475300  0.20063800  0.27216100  1
  Pr  Pr8  1  0.18608600  0.82557400  0.52440600  1
  Pr  Pr9  1  0.63429500  0.00646300  0.62394100  1
  Pr  Pr10  1  0.42412700  0.67467700  0.34949900  1
  Pr  Pr11  1  0.67732200  0.81067300  0.47288500  1
  Pr  Pr12  1  0.01203500  0.87886200  0.37332400  1
  Pr  Pr13  1  0.80269900  0.42927300  0.72447100  1
  Pr  Pr14  1  0.22522100  0.59817900  0.82649100  1
  Pr  Pr15  1  0.26943200  0.39674600  0.66978700  1
  Pr  Pr16  1  0.59646300  0.45740300  0.56945500  1
  Pr  Pr17  1  0.40074000  0.01941700  0.92453800  1
  Pr  Pr18  1  0.62840200  0.87566900  0.75398200  1
  Pr  Pr19  1  0.18981800  0.07619500  0.77923500  1
  Pr  Pr20  1  0.07980300  0.82311100  0.64863900  1
  Pr  Pr21  1  0.21447500  0.45679900  0.94952900  1
  Pr  Pr22  1  0.80531400  0.68574500  0.97393600  1
  Pr  Pr23  1  0.68285600  0.42812300  0.85286600  1
  Mn  Mn24  1  0.40621600  0.25714100  0.17220500  1
  Mn  Mn25  1  0.28331800  0.03145300  0.05124500  1
  Mn  Mn26  1  0.85705500  0.60231300  0.24813800  1
  Mn  Mn27  1  0.47141300  0.23901100  0.45667700  1
  S  S28  1  0.18231300  0.28720800  0.10716600  1
  S  S29  1  0.67197600  0.31231700  0.10066500  1
  S  S30  1  0.66550600  0.64532300  0.17723800  1
  S  S31  1  0.26953100  0.91517900  0.29997100  1
  S  S32  1  0.12751700  0.98866000  0.19505000  1
  S  S33  1  0.84193500  0.85514100  0.07274500  1
  S  S34  1  0.65507700  0.17928700  0.22516200  1
  S  S35  1  0.08101200  0.57239400  0.03071200  1
  S  S36  1  0.38850900  0.89031100  0.12294400  1
  S  S37  1  0.98231500  0.49599300  0.31988800  1
  S  S38  1  0.26623100  0.26654100  0.37246900  1
  S  S39  1  0.84600000  0.50846700  0.49812400  1
  S  S40  1  0.71199800  0.56849600  0.39603300  1
  S  S41  1  0.44712000  0.45967000  0.27164600  1
  S  S42  1  0.27641200  0.75933700  0.42676800  1
  S  S43  1  0.06682600  0.47474000  0.20395100  1
  S  S44  1  0.56278800  0.08602900  0.52184400  1
  S  S45  1  0.84776700  0.84130900  0.57139900  1
  S  S46  1  0.45826600  0.10072100  0.70148200  1
  S  S47  1  0.30375100  0.14109200  0.60040200  1
  S  S48  1  0.76299300  0.89094700  0.29673000  1
  S  S49  1  0.06080200  0.04914000  0.46642300  1
  S  S50  1  0.89104500  0.39935600  0.63183200  1
  S  S51  1  0.68184100  0.06092700  0.40059100  1
  S  S52  1  0.45954400  0.45699600  0.77092500  1
  S  S53  1  0.05461200  0.69243000  0.90170200  1
  S  S54  1  0.90252900  0.73988300  0.79903200  1
  S  S55  1  0.37089700  0.49071400  0.49447600  1
  S  S56  1  0.65535300  0.66793700  0.67280100  1
  S  S57  1  0.47582100  0.98445400  0.82924500  1
  S  S58  1  0.31435800  0.66519200  0.60038900  1
  S  S59  1  0.19431000  0.68708800  0.72902300  1
  S  S60  1  0.08814100  0.06170800  0.98347400  1
  S  S61  1  0.51136200  0.37139200  0.00011900  1
  S  S62  1  0.95736200  0.09915200  0.69950400  1
  S  S63  1  0.26775800  0.26359400  0.86986100  1
  S  S64  1  0.89971100  0.25711800  0.79836800  1
  S  S65  1  0.78895000  0.28941900  0.93272100  1
  S  S66  1  0.54188400  0.69725100  0.90161200  1
  S  S67  1  0.48143800  0.86321800  0.00289800  1
