# generated using pymatgen
data_K(WO3)9
_symmetry_space_group_name_H-M   'P 1'
_cell_length_a   7.50981289
_cell_length_b   7.50981289
_cell_length_c   46.37742800
_cell_angle_alpha   90.00000000
_cell_angle_beta   90.00000000
_cell_angle_gamma   120.00000786
_symmetry_Int_Tables_number   1
_chemical_formula_structural   K(WO3)9
_chemical_formula_sum   'K4 W36 O108'
_cell_volume   2265.14230079
_cell_formula_units_Z   4
loop_
 _symmetry_equiv_pos_site_id
 _symmetry_equiv_pos_as_xyz
  1  'x, y, z'
loop_
 _atom_site_type_symbol
 _atom_site_label
 _atom_site_symmetry_multiplicity
 _atom_site_fract_x
 _atom_site_fract_y
 _atom_site_fract_z
 _atom_site_occupancy
  K  K0  1  0.00000000  0.00000000  0.29089600  1
  K  K1  1  0.00000000  0.00000000  0.45369000  1
  K  K2  1  0.00000000  0.00000000  0.70910400  1
  K  K3  1  0.00000000  0.00000000  0.54631000  1
  W  W4  1  0.00000000  0.50911400  0.83394600  1
  W  W5  1  0.00000000  0.51082600  0.00000000  1
  W  W6  1  0.00000000  0.50911400  0.16605400  1
  W  W7  1  0.00000000  0.50222900  0.33304000  1
  W  W8  1  0.00000000  0.49920100  0.50000000  1
  W  W9  1  0.00000000  0.50222900  0.66696000  1
  W  W10  1  0.49088600  0.49088600  0.83394600  1
  W  W11  1  0.48917400  0.48917400  0.00000000  1
  W  W12  1  0.49088600  0.49088600  0.16605400  1
  W  W13  1  0.49777100  0.49777100  0.33304000  1
  W  W14  1  0.50079900  0.50079900  0.50000000  1
  W  W15  1  0.49777100  0.49777100  0.66696000  1
  W  W16  1  0.50400500  0.50400500  0.75060700  1
  W  W17  1  0.51047200  0.51047200  0.91697200  1
  W  W18  1  0.51047200  0.51047200  0.08302800  1
  W  W19  1  0.50400500  0.50400500  0.24939300  1
  W  W20  1  0.50098100  0.50098100  0.41634500  1
  W  W21  1  0.50098100  0.50098100  0.58365500  1
  W  W22  1  0.49599500  0.00000000  0.75060700  1
  W  W23  1  0.48952800  0.00000000  0.91697200  1
  W  W24  1  0.48952800  0.00000000  0.08302800  1
  W  W25  1  0.49599500  0.00000000  0.24939300  1
  W  W26  1  0.49901900  0.00000000  0.41634500  1
  W  W27  1  0.49901900  0.00000000  0.58365500  1
  W  W28  1  0.50911400  0.00000000  0.83394600  1
  W  W29  1  0.51082600  0.00000000  0.00000000  1
  W  W30  1  0.50911400  0.00000000  0.16605400  1
  W  W31  1  0.50222900  0.00000000  0.33304000  1
  W  W32  1  0.49920100  0.00000000  0.50000000  1
  W  W33  1  0.50222900  0.00000000  0.66696000  1
  W  W34  1  0.00000000  0.49599500  0.75060700  1
  W  W35  1  0.00000000  0.48952800  0.91697200  1
  W  W36  1  0.00000000  0.48952800  0.08302800  1
  W  W37  1  0.00000000  0.49599500  0.24939300  1
  W  W38  1  0.00000000  0.49901900  0.41634500  1
  W  W39  1  0.00000000  0.49901900  0.58365500  1
  O  O40  1  0.00000000  0.49988600  0.79117000  1
  O  O41  1  0.00000000  0.49976400  0.95830800  1
  O  O42  1  0.00000000  0.50083400  0.12519400  1
  O  O43  1  0.00000000  0.50049400  0.29184000  1
  O  O44  1  0.00000000  0.49940400  0.45852500  1
  O  O45  1  0.00000000  0.49976400  0.62486900  1
  O  O46  1  0.21102000  0.78766700  0.74988800  1
  O  O47  1  0.21172800  0.78495900  0.91714900  1
  O  O48  1  0.21172800  0.78495900  0.08285100  1
  O  O49  1  0.21102000  0.78766700  0.25011200  1
  O  O50  1  0.21129700  0.78831700  0.41782000  1
  O  O51  1  0.21129700  0.78831700  0.58218000  1
  O  O52  1  0.21503800  0.78817600  0.83233900  1
  O  O53  1  0.21503400  0.78840000  0.00000000  1
  O  O54  1  0.21503800  0.78817600  0.16766100  1
  O  O55  1  0.21222100  0.78860300  0.33245400  1
  O  O56  1  0.20972200  0.78938700  0.50000000  1
  O  O57  1  0.21222100  0.78860300  0.66754600  1
  O  O58  1  0.21182400  0.42686300  0.83233900  1
  O  O59  1  0.21160000  0.42663400  0.00000000  1
  O  O60  1  0.21182400  0.42686300  0.16766100  1
  O  O61  1  0.21139700  0.42361800  0.33245400  1
  O  O62  1  0.21061300  0.42033500  0.50000000  1
  O  O63  1  0.21139700  0.42361800  0.66754600  1
  O  O64  1  0.49988600  0.00000000  0.79117000  1
  O  O65  1  0.49976400  0.00000000  0.95830800  1
  O  O66  1  0.50083400  0.00000000  0.12519400  1
  O  O67  1  0.50049400  0.00000000  0.29184000  1
  O  O68  1  0.49940400  0.00000000  0.45852500  1
  O  O69  1  0.49976400  0.00000000  0.62486900  1
  O  O70  1  0.21233300  0.42335300  0.74988800  1
  O  O71  1  0.21504100  0.42676900  0.91714900  1
  O  O72  1  0.21504100  0.42676900  0.08285100  1
  O  O73  1  0.21233300  0.42335300  0.25011200  1
  O  O74  1  0.21168300  0.42298000  0.41782000  1
  O  O75  1  0.21168300  0.42298000  0.58218000  1
  O  O76  1  0.57664700  0.78898000  0.74988800  1
  O  O77  1  0.57323100  0.78827200  0.91714900  1
  O  O78  1  0.57323100  0.78827200  0.08285100  1
  O  O79  1  0.57664700  0.78898000  0.25011200  1
  O  O80  1  0.57702000  0.78870300  0.41782000  1
  O  O81  1  0.57702000  0.78870300  0.58218000  1
  O  O82  1  0.57313700  0.78496200  0.83233900  1
  O  O83  1  0.57336600  0.78496600  0.00000000  1
  O  O84  1  0.57638200  0.78777900  0.33245400  1
  O  O85  1  0.57313700  0.78496200  0.16766100  1
  O  O86  1  0.57966500  0.79027800  0.50000000  1
  O  O87  1  0.57638200  0.78777900  0.66754600  1
  O  O88  1  0.50011400  0.50011400  0.79117000  1
  O  O89  1  0.50023600  0.50023600  0.95830800  1
  O  O90  1  0.49916600  0.49916600  0.12519400  1
  O  O91  1  0.49950600  0.49950600  0.29184000  1
  O  O92  1  0.50059600  0.50059600  0.45852500  1
  O  O93  1  0.50023600  0.50023600  0.62486900  1
  O  O94  1  0.49916600  0.49916600  0.87480600  1
  O  O95  1  0.50023600  0.50023600  0.04169200  1
  O  O96  1  0.50011400  0.50011400  0.20883000  1
  O  O97  1  0.50023600  0.50023600  0.37513100  1
  O  O98  1  0.50059600  0.50059600  0.54147500  1
  O  O99  1  0.49950600  0.49950600  0.70816000  1
  O  O100  1  0.42676900  0.21504100  0.91714900  1
  O  O101  1  0.42676900  0.21504100  0.08285100  1
  O  O102  1  0.42335300  0.21233300  0.25011200  1
  O  O103  1  0.42298000  0.21168300  0.41782000  1
  O  O104  1  0.42298000  0.21168300  0.58218000  1
  O  O105  1  0.42335300  0.21233300  0.74988800  1
  O  O106  1  0.42686300  0.21182400  0.83233900  1
  O  O107  1  0.42663400  0.21160000  0.00000000  1
  O  O108  1  0.42686300  0.21182400  0.16766100  1
  O  O109  1  0.42361800  0.21139700  0.33245400  1
  O  O110  1  0.42033500  0.21061300  0.50000000  1
  O  O111  1  0.42361800  0.21139700  0.66754600  1
  O  O112  1  0.78496200  0.57313700  0.83233900  1
  O  O113  1  0.78496600  0.57336600  0.00000000  1
  O  O114  1  0.78496200  0.57313700  0.16766100  1
  O  O115  1  0.78777900  0.57638200  0.33245400  1
  O  O116  1  0.79027800  0.57966500  0.50000000  1
  O  O117  1  0.78777900  0.57638200  0.66754600  1
  O  O118  1  0.50083400  0.00000000  0.87480600  1
  O  O119  1  0.49976400  0.00000000  0.04169200  1
  O  O120  1  0.49988600  0.00000000  0.20883000  1
  O  O121  1  0.49976400  0.00000000  0.37513100  1
  O  O122  1  0.49940400  0.00000000  0.54147500  1
  O  O123  1  0.50049400  0.00000000  0.70816000  1
  O  O124  1  0.78827200  0.57323100  0.91714900  1
  O  O125  1  0.78827200  0.57323100  0.08285100  1
  O  O126  1  0.78898000  0.57664700  0.25011200  1
  O  O127  1  0.78870300  0.57702000  0.41782000  1
  O  O128  1  0.78870300  0.57702000  0.58218000  1
  O  O129  1  0.78898000  0.57664700  0.74988800  1
  O  O130  1  0.78495900  0.21172800  0.91714900  1
  O  O131  1  0.78495900  0.21172800  0.08285100  1
  O  O132  1  0.78766700  0.21102000  0.25011200  1
  O  O133  1  0.78831700  0.21129700  0.41782000  1
  O  O134  1  0.78831700  0.21129700  0.58218000  1
  O  O135  1  0.78766700  0.21102000  0.74988800  1
  O  O136  1  0.78817600  0.21503800  0.83233900  1
  O  O137  1  0.78840000  0.21503400  0.00000000  1
  O  O138  1  0.78817600  0.21503800  0.16766100  1
  O  O139  1  0.78860300  0.21222100  0.33245400  1
  O  O140  1  0.78938700  0.20972200  0.50000000  1
  O  O141  1  0.78860300  0.21222100  0.66754600  1
  O  O142  1  0.00000000  0.50083400  0.87480600  1
  O  O143  1  0.00000000  0.49976400  0.04169200  1
  O  O144  1  0.00000000  0.49988600  0.20883000  1
  O  O145  1  0.00000000  0.49940400  0.54147500  1
  O  O146  1  0.00000000  0.50049400  0.70816000  1
  O  O147  1  0.00000000  0.49976400  0.37513100  1
