# generated using pymatgen
data_K(Zr3I7)4
_symmetry_space_group_name_H-M   'P 1'
_cell_length_a   11.33677500
_cell_length_b   11.33677528
_cell_length_c   53.28751243
_cell_angle_alpha   90.00000000
_cell_angle_beta   90.00000000
_cell_angle_gamma   93.96941227
_symmetry_Int_Tables_number   1
_chemical_formula_structural   K(Zr3I7)4
_chemical_formula_sum   'K4 Zr48 I112'
_cell_volume   6832.21386642
_cell_formula_units_Z   4
loop_
 _symmetry_equiv_pos_site_id
 _symmetry_equiv_pos_as_xyz
  1  'x, y, z'
loop_
 _atom_site_type_symbol
 _atom_site_label
 _atom_site_symmetry_multiplicity
 _atom_site_fract_x
 _atom_site_fract_y
 _atom_site_fract_z
 _atom_site_occupancy
  K  K0  1  0.99427703  0.99427703  0.64862657  1
  K  K1  1  0.06249852  0.06249852  0.87625357  1
  K  K2  1  0.56249852  0.56249852  0.49874643  1
  K  K3  1  0.49427703  0.49427703  0.72637343  1
  Zr  Zr4  1  0.05203367  0.82266095  0.09574469  1
  Zr  Zr5  1  0.05391392  0.82012931  0.34457411  1
  Zr  Zr6  1  0.04730156  0.83067585  0.59983775  1
  Zr  Zr7  1  0.01303874  0.80320461  0.84632177  1
  Zr  Zr8  1  0.18102625  0.94958648  0.15484446  1
  Zr  Zr9  1  0.16602237  0.95996430  0.39958539  1
  Zr  Zr10  1  0.21812641  0.94756594  0.65252718  1
  Zr  Zr11  1  0.21572035  0.91352287  0.91304296  1
  Zr  Zr12  1  0.10288139  0.10288139  0.10691155  1
  Zr  Zr13  1  0.11220422  0.11220422  0.35217099  1
  Zr  Zr14  1  0.12438866  0.12438866  0.60187511  1
  Zr  Zr15  1  0.19273869  0.19273869  0.83670621  1
  Zr  Zr16  1  0.32012931  0.55391392  0.03042589  1
  Zr  Zr17  1  0.30320461  0.51303874  0.52867823  1
  Zr  Zr18  1  0.32266095  0.55203367  0.27925531  1
  Zr  Zr19  1  0.33067585  0.54730156  0.77516225  1
  Zr  Zr20  1  0.39950074  0.39950074  0.23119173  1
  Zr  Zr21  1  0.32093987  0.32093987  0.72418734  1
  Zr  Zr22  1  0.35444886  0.35444886  0.47955731  1
  Zr  Zr23  1  0.39277673  0.39277673  0.98109371  1
  Zr  Zr24  1  0.44958648  0.68102625  0.22015554  1
  Zr  Zr25  1  0.44756594  0.71812641  0.72247282  1
  Zr  Zr26  1  0.41352287  0.71572035  0.46195704  1
  Zr  Zr27  1  0.45996430  0.66602237  0.97541461  1
  Zr  Zr28  1  0.55391392  0.32012931  0.03042589  1
  Zr  Zr29  1  0.55203367  0.32266095  0.27925531  1
  Zr  Zr30  1  0.51303874  0.30320461  0.52867823  1
  Zr  Zr31  1  0.54730156  0.33067585  0.77516225  1
  Zr  Zr32  1  0.61220422  0.61220422  0.02282901  1
  Zr  Zr33  1  0.60288139  0.60288139  0.26808845  1
  Zr  Zr34  1  0.69273869  0.69273869  0.53829379  1
  Zr  Zr35  1  0.62438866  0.62438866  0.77312489  1
  Zr  Zr36  1  0.71812641  0.44756594  0.72247282  1
  Zr  Zr37  1  0.68102625  0.44958648  0.22015554  1
  Zr  Zr38  1  0.71572035  0.41352287  0.46195704  1
  Zr  Zr39  1  0.66602237  0.45996430  0.97541461  1
  Zr  Zr40  1  0.89950074  0.89950074  0.14380827  1
  Zr  Zr41  1  0.82093987  0.82093987  0.65081266  1
  Zr  Zr42  1  0.85444886  0.85444886  0.89544269  1
  Zr  Zr43  1  0.89277673  0.89277673  0.39390629  1
  Zr  Zr44  1  0.82266095  0.05203367  0.09574469  1
  Zr  Zr45  1  0.82012931  0.05391392  0.34457411  1
  Zr  Zr46  1  0.80320461  0.01303874  0.84632177  1
  Zr  Zr47  1  0.83067585  0.04730156  0.59983775  1
  Zr  Zr48  1  0.94958648  0.18102625  0.15484446  1
  Zr  Zr49  1  0.94756594  0.21812641  0.65252718  1
  Zr  Zr50  1  0.95996430  0.16602237  0.39958539  1
  Zr  Zr51  1  0.91352287  0.21572035  0.91304296  1
  I  I52  1  0.02940415  0.79427571  0.18496714  1
  I  I53  1  0.03497073  0.79881689  0.43396305  1
  I  I54  1  0.03835227  0.78820085  0.68480008  1
  I  I55  1  0.02334998  0.78711540  0.93673581  1
  I  I56  1  0.10722293  0.61146271  0.06241997  1
  I  I57  1  0.11146271  0.60722293  0.31258003  1
  I  I58  1  0.10339009  0.60345058  0.56192720  1
  I  I59  1  0.10345058  0.60339009  0.81307280  1
  I  I60  1  0.10718829  0.34397261  0.12756723  1
  I  I61  1  0.10918765  0.34683607  0.37423889  1
  I  I62  1  0.11800827  0.36259883  0.62506171  1
  I  I63  1  0.09963415  0.34806539  0.87680586  1
  I  I64  1  0.15585531  0.39531060  0.00284142  1
  I  I65  1  0.15893667  0.39547293  0.25195955  1
  I  I66  1  0.12491723  0.37535514  0.50128279  1
  I  I67  1  0.13216816  0.38749303  0.75527935  1
  I  I68  1  0.20867919  0.97346321  0.06573819  1
  I  I69  1  0.20611697  0.96681456  0.31262879  1
  I  I70  1  0.20250396  0.96056382  0.56424888  1
  I  I71  1  0.19268698  0.95677359  0.81547524  1
  I  I72  1  0.14393843  0.14393843  0.19060348  1
  I  I73  1  0.14978739  0.14978739  0.43816456  1
  I  I74  1  0.15353888  0.15353888  0.68968065  1
  I  I75  1  0.13452090  0.13452090  0.93694875  1
  I  I76  1  0.25337814  0.75366256  0.00082329  1
  I  I77  1  0.24820268  0.75271719  0.24982264  1
  I  I78  1  0.24353798  0.75742421  0.75113708  1
  I  I79  1  0.24800489  0.73692686  0.50101887  1
  I  I80  1  0.25271719  0.74820268  0.12517736  1
  I  I81  1  0.25366256  0.75337814  0.37417671  1
  I  I82  1  0.25742421  0.74353798  0.62386292  1
  I  I83  1  0.23692686  0.74800489  0.87398113  1
  I  I84  1  0.29427571  0.52940415  0.19003286  1
  I  I85  1  0.28711540  0.52334998  0.43826419  1
  I  I86  1  0.28820085  0.53835227  0.69019992  1
  I  I87  1  0.29881689  0.53497073  0.94103695  1
  I  I88  1  0.35643715  0.35643715  0.06529536  1
  I  I89  1  0.35824127  0.35824127  0.31512968  1
  I  I90  1  0.32908464  0.32908464  0.56583432  1
  I  I91  1  0.36205579  0.36205579  0.81537600  1
  I  I92  1  0.39171832  0.89171832  0.18750000  1
  I  I93  1  0.41758651  0.91758651  0.68750000  1
  I  I94  1  0.39125943  0.91821359  0.43403567  1
  I  I95  1  0.41821359  0.89125943  0.94096433  1
  I  I96  1  0.34397261  0.10718829  0.12756723  1
  I  I97  1  0.34683607  0.10918765  0.37423889  1
  I  I98  1  0.36259883  0.11800827  0.62506171  1
  I  I99  1  0.34806539  0.09963415  0.87680586  1
  I  I100  1  0.39531060  0.15585531  0.00284142  1
  I  I101  1  0.39547293  0.15893667  0.25195955  1
  I  I102  1  0.37535514  0.12491723  0.50128279  1
  I  I103  1  0.38749303  0.13216816  0.75527935  1
  I  I104  1  0.46681456  0.70611697  0.06237021  1
  I  I105  1  0.47346321  0.70867919  0.30926181  1
  I  I106  1  0.45677359  0.69268698  0.55952476  1
  I  I107  1  0.46056382  0.70250396  0.81075112  1
  I  I108  1  0.52940415  0.29427571  0.19003286  1
  I  I109  1  0.52334998  0.28711540  0.43826419  1
  I  I110  1  0.53835227  0.28820085  0.69019992  1
  I  I111  1  0.53497073  0.29881689  0.94103695  1
  I  I112  1  0.60718829  0.84397261  0.24743277  1
  I  I113  1  0.59963415  0.84806539  0.49819314  1
  I  I114  1  0.61800827  0.86259883  0.74993829  1
  I  I115  1  0.60918765  0.84683607  0.00076211  1
  I  I116  1  0.65893667  0.89547293  0.12304045  1
  I  I117  1  0.65585531  0.89531060  0.37215758  1
  I  I118  1  0.63216816  0.88749303  0.61972065  1
  I  I119  1  0.62491723  0.87535514  0.87371721  1
  I  I120  1  0.61146271  0.10722293  0.06241997  1
  I  I121  1  0.60722293  0.11146271  0.31258003  1
  I  I122  1  0.60339009  0.10345058  0.81307280  1
  I  I123  1  0.60345058  0.10339009  0.56192720  1
  I  I124  1  0.63452090  0.63452090  0.43805125  1
  I  I125  1  0.65353888  0.65353888  0.68531935  1
  I  I126  1  0.64393843  0.64393843  0.18439652  1
  I  I127  1  0.64978739  0.64978739  0.93683544  1
  I  I128  1  0.70611697  0.46681456  0.06237021  1
  I  I129  1  0.70867919  0.47346321  0.30926181  1
  I  I130  1  0.70250396  0.46056382  0.81075112  1
  I  I131  1  0.69268698  0.45677359  0.55952476  1
  I  I132  1  0.74820268  0.25271719  0.12517736  1
  I  I133  1  0.75337814  0.25366256  0.37417671  1
  I  I134  1  0.74353798  0.25742421  0.62386292  1
  I  I135  1  0.74800489  0.23692686  0.87398113  1
  I  I136  1  0.75366256  0.25337814  0.00082329  1
  I  I137  1  0.75271719  0.24820268  0.24982264  1
  I  I138  1  0.73692686  0.24800489  0.50101887  1
  I  I139  1  0.75742421  0.24353798  0.75113708  1
  I  I140  1  0.85824127  0.85824127  0.05987032  1
  I  I141  1  0.85643715  0.85643715  0.30970464  1
  I  I142  1  0.86205579  0.86205579  0.55962400  1
  I  I143  1  0.82908464  0.82908464  0.80916568  1
  I  I144  1  0.79427571  0.02940415  0.18496714  1
  I  I145  1  0.79881689  0.03497073  0.43396305  1
  I  I146  1  0.78820085  0.03835227  0.68480008  1
  I  I147  1  0.78711540  0.02334998  0.93673581  1
  I  I148  1  0.84397261  0.60718829  0.24743277  1
  I  I149  1  0.86259883  0.61800827  0.74993829  1
  I  I150  1  0.84683607  0.60918765  0.00076211  1
  I  I151  1  0.84806539  0.59963415  0.49819314  1
  I  I152  1  0.89547293  0.65893667  0.12304045  1
  I  I153  1  0.89531060  0.65585531  0.37215758  1
  I  I154  1  0.88749303  0.63216816  0.61972065  1
  I  I155  1  0.87535514  0.62491723  0.87371721  1
  I  I156  1  0.89171832  0.39171832  0.18750000  1
  I  I157  1  0.91821359  0.39125943  0.43403567  1
  I  I158  1  0.91758651  0.41758651  0.68750000  1
  I  I159  1  0.89125943  0.41821359  0.94096433  1
  I  I160  1  0.97346321  0.20867919  0.06573819  1
  I  I161  1  0.96681456  0.20611697  0.31262879  1
  I  I162  1  0.96056382  0.20250396  0.56424888  1
  I  I163  1  0.95677359  0.19268698  0.81547524  1
