# generated using pymatgen
data_K2NaAg3(CN)6
_symmetry_space_group_name_H-M   'P 1'
_cell_length_a   7.18875076
_cell_length_b   7.18875076
_cell_length_c   8.65007400
_cell_angle_alpha   90.00000000
_cell_angle_beta   90.00000000
_cell_angle_gamma   120.00000700
_symmetry_Int_Tables_number   1
_chemical_formula_structural   K2NaAg3(CN)6
_chemical_formula_sum   'K2 Na1 Ag3 C6 N6'
_cell_volume   387.13040063
_cell_formula_units_Z   1
loop_
 _symmetry_equiv_pos_site_id
 _symmetry_equiv_pos_as_xyz
  1  'x, y, z'
loop_
 _atom_site_type_symbol
 _atom_site_label
 _atom_site_symmetry_multiplicity
 _atom_site_fract_x
 _atom_site_fract_y
 _atom_site_fract_z
 _atom_site_occupancy
  K  K0  1  0.33333300  0.66666700  0.50000000  1
  K  K1  1  0.66666700  0.33333300  0.50000000  1
  Na  Na2  1  0.00000000  0.00000000  0.50000000  1
  Ag  Ag3  1  0.00000000  0.50000000  0.00000000  1
  Ag  Ag4  1  0.50000000  0.00000000  0.00000000  1
  Ag  Ag5  1  0.50000000  0.50000000  0.00000000  1
  C  C6  1  0.63358600  0.00000000  0.78998600  1
  C  C7  1  0.36641400  0.36641400  0.78998600  1
  C  C8  1  0.63358600  0.63358600  0.21001400  1
  C  C9  1  0.00000000  0.36641400  0.21001400  1
  C  C10  1  0.00000000  0.63358600  0.78998600  1
  C  C11  1  0.36641400  0.00000000  0.21001400  1
  N  N12  1  0.70385500  0.00000000  0.66750600  1
  N  N13  1  0.00000000  0.29614500  0.33249400  1
  N  N14  1  0.70385500  0.70385500  0.33249400  1
  N  N15  1  0.29614500  0.00000000  0.33249400  1
  N  N16  1  0.29614500  0.29614500  0.66750600  1
  N  N17  1  0.00000000  0.70385500  0.66750600  1
