# generated using pymatgen
data_Mg(FeO2)2
_symmetry_space_group_name_H-M   'P 1'
_cell_length_a   6.02463939
_cell_length_b   6.02677192
_cell_length_c   42.26990425
_cell_angle_alpha   59.91874945
_cell_angle_beta   59.88880309
_cell_angle_gamma   59.87957950
_symmetry_Int_Tables_number   1
_chemical_formula_structural   Mg(FeO2)2
_chemical_formula_sum   'Mg14 Fe28 O56'
_cell_volume   1082.68766688
_cell_formula_units_Z   14
loop_
 _symmetry_equiv_pos_site_id
 _symmetry_equiv_pos_as_xyz
  1  'x, y, z'
loop_
 _atom_site_type_symbol
 _atom_site_label
 _atom_site_symmetry_multiplicity
 _atom_site_fract_x
 _atom_site_fract_y
 _atom_site_fract_z
 _atom_site_occupancy
  Mg  Mg0  1  0.13962800  0.12504300  0.01616600  1
  Mg  Mg1  1  0.13503800  0.11943400  0.16063700  1
  Mg  Mg2  1  0.00432900  0.49797600  0.07150900  1
  Mg  Mg3  1  0.00281300  0.49934500  0.21403100  1
  Mg  Mg4  1  0.50055600  0.00160700  0.35677100  1
  Mg  Mg5  1  0.99987900  0.50094400  0.35700900  1
  Mg  Mg6  1  0.49926200  0.99976400  0.49984000  1
  Mg  Mg7  1  0.99975800  0.49911100  0.49986500  1
  Mg  Mg8  1  0.50063300  0.99999700  0.64283900  1
  Mg  Mg9  1  0.99997900  0.50066600  0.64283200  1
  Mg  Mg10  1  0.49996900  0.99930600  0.78597500  1
  Mg  Mg11  1  0.99938800  0.50016000  0.78593000  1
  Mg  Mg12  1  0.49808800  0.99839600  0.92930100  1
  Mg  Mg13  1  0.99977000  0.49880900  0.92902600  1
  Fe  Fe14  1  0.49589500  0.49629500  0.07110000  1
  Fe  Fe15  1  0.49607500  0.00623300  0.07132100  1
  Fe  Fe16  1  0.49588900  0.50075200  0.14328900  1
  Fe  Fe17  1  0.12961100  0.12919400  0.30371800  1
  Fe  Fe18  1  0.49960600  0.50131600  0.21330900  1
  Fe  Fe19  1  0.49886400  0.50189900  0.28569000  1
  Fe  Fe20  1  0.13259000  0.13250300  0.44525300  1
  Fe  Fe21  1  0.49954700  0.00733900  0.21300700  1
  Fe  Fe22  1  0.86596500  0.88060500  0.12459300  1
  Fe  Fe23  1  0.50019500  0.50028600  0.35728000  1
  Fe  Fe24  1  0.50037900  0.50111500  0.42836400  1
  Fe  Fe25  1  0.13284500  0.13288300  0.58832500  1
  Fe  Fe26  1  0.86419400  0.87794200  0.26830900  1
  Fe  Fe27  1  0.49877100  0.49864700  0.50014500  1
  Fe  Fe28  1  0.50042000  0.50046400  0.57124600  1
  Fe  Fe29  1  0.13241400  0.13274400  0.73110900  1
  Fe  Fe30  1  0.86723900  0.86701900  0.41167500  1
  Fe  Fe31  1  0.49989700  0.49993400  0.64284600  1
  Fe  Fe32  1  0.86692700  0.86692700  0.55422600  1
  Fe  Fe33  1  0.49998600  0.49996200  0.71429500  1
  Fe  Fe34  1  0.13194500  0.13213300  0.87399800  1
  Fe  Fe35  1  0.49906700  0.49933300  0.78607000  1
  Fe  Fe36  1  0.86754200  0.86763000  0.69724800  1
  Fe  Fe37  1  0.49886100  0.49794200  0.85778500  1
  Fe  Fe38  1  0.49473800  0.49485200  0.92949500  1
  Fe  Fe39  1  0.86597800  0.86617600  0.84077800  1
  Fe  Fe40  1  0.49736400  0.49634800  0.00136300  1
  Fe  Fe41  1  0.86705800  0.86857300  0.98359300  1
  O  O42  1  0.26669300  0.25040500  0.03805200  1
  O  O43  1  0.26722800  0.25372600  0.10378800  1
  O  O44  1  0.26546400  0.71861200  0.03782500  1
  O  O45  1  0.72723900  0.25085400  0.03866900  1
  O  O46  1  0.26147500  0.74296000  0.10806200  1
  O  O47  1  0.26723500  0.25437600  0.18032200  1
  O  O48  1  0.73259100  0.74395700  0.04055300  1
  O  O49  1  0.73328800  0.27207300  0.10800600  1
  O  O50  1  0.26244800  0.25237600  0.24771600  1
  O  O51  1  0.26805400  0.71445800  0.18052400  1
  O  O52  1  0.72453300  0.25606400  0.18063300  1
  O  O53  1  0.73316100  0.74270700  0.10794700  1
  O  O54  1  0.26168300  0.26583300  0.32053200  1
  O  O55  1  0.26751300  0.74508100  0.24935900  1
  O  O56  1  0.73538200  0.27295100  0.24990700  1
  O  O57  1  0.26211500  0.26171300  0.38932500  1
  O  O58  1  0.26377700  0.73314700  0.32135300  1
  O  O59  1  0.73780700  0.74421100  0.18189700  1
  O  O60  1  0.73230800  0.26800200  0.32080900  1
  O  O61  1  0.73555400  0.74618000  0.24935100  1
  O  O62  1  0.26220200  0.26234100  0.46368100  1
  O  O63  1  0.26912000  0.74052500  0.39164500  1
  O  O64  1  0.26067600  0.26074700  0.53237700  1
  O  O65  1  0.74016200  0.26902100  0.39165900  1
  O  O66  1  0.26284900  0.73301000  0.46396200  1
  O  O67  1  0.74013400  0.74268500  0.32374400  1
  O  O68  1  0.73280100  0.26305500  0.46392900  1
  O  O69  1  0.74087900  0.74183300  0.39194000  1
  O  O70  1  0.26873900  0.73904000  0.53439600  1
  O  O71  1  0.26290400  0.26306500  0.60667500  1
  O  O72  1  0.73902500  0.26846600  0.53441900  1
  O  O73  1  0.74039500  0.74009900  0.46669900  1
  O  O74  1  0.26169800  0.26188500  0.67515300  1
  O  O75  1  0.26340900  0.73378600  0.60684400  1
  O  O76  1  0.73351600  0.26342600  0.60686200  1
  O  O77  1  0.73990900  0.73978700  0.53487900  1
  O  O78  1  0.26210600  0.26221400  0.74961800  1
  O  O79  1  0.26948800  0.73969300  0.67731300  1
  O  O80  1  0.73969500  0.26930200  0.67732000  1
  O  O81  1  0.74150300  0.74140300  0.60934500  1
  O  O82  1  0.26303900  0.26326700  0.81778500  1
  O  O83  1  0.26231900  0.73367100  0.74982300  1
  O  O84  1  0.73326400  0.26236400  0.74985200  1
  O  O85  1  0.74007400  0.73995100  0.67803500  1
  O  O86  1  0.26140000  0.26104500  0.89227800  1
  O  O87  1  0.26753000  0.73802500  0.82098900  1
  O  O88  1  0.73824500  0.26744500  0.82093900  1
  O  O89  1  0.26136400  0.73518900  0.89266600  1
  O  O90  1  0.74037100  0.74035500  0.75248000  1
  O  O91  1  0.26710700  0.26609200  0.95928600  1
  O  O92  1  0.73489700  0.26077100  0.89272200  1
  O  O93  1  0.73819500  0.73791800  0.82182400  1
  O  O94  1  0.26439600  0.73419800  0.96567300  1
  O  O95  1  0.73766000  0.26508800  0.96504600  1
  O  O96  1  0.73581400  0.73688200  0.89659300  1
  O  O97  1  0.73861200  0.73506400  0.96575700  1
