# generated using pymatgen
data_CsTaSe3
_symmetry_space_group_name_H-M   'P 1'
_cell_length_a   6.18906800
_cell_length_b   7.76013300
_cell_length_c   13.44037100
_cell_angle_alpha   90.00000000
_cell_angle_beta   90.00000000
_cell_angle_gamma   90.00000000
_symmetry_Int_Tables_number   1
_chemical_formula_structural   CsTaSe3
_chemical_formula_sum   'Cs4 Ta4 Se12'
_cell_volume   645.51401509
_cell_formula_units_Z   4
loop_
 _symmetry_equiv_pos_site_id
 _symmetry_equiv_pos_as_xyz
  1  'x, y, z'
loop_
 _atom_site_type_symbol
 _atom_site_label
 _atom_site_symmetry_multiplicity
 _atom_site_fract_x
 _atom_site_fract_y
 _atom_site_fract_z
 _atom_site_occupancy
  Cs  Cs0  1  0.75177700  0.25000000  0.91649500  1
  Cs  Cs1  1  0.24822300  0.75000000  0.08350500  1
  Cs  Cs2  1  0.74822300  0.75000000  0.41649500  1
  Cs  Cs3  1  0.25177700  0.25000000  0.58350500  1
  Ta  Ta4  1  0.45929500  0.75000000  0.75229700  1
  Ta  Ta5  1  0.04070500  0.25000000  0.25229700  1
  Ta  Ta6  1  0.54070500  0.25000000  0.24770300  1
  Ta  Ta7  1  0.95929500  0.75000000  0.74770300  1
  Se  Se8  1  0.25003900  0.98912400  0.82742200  1
  Se  Se9  1  0.25287800  0.25000000  0.09103500  1
  Se  Se10  1  0.24996100  0.48912400  0.32742200  1
  Se  Se11  1  0.74996100  0.48912400  0.17257800  1
  Se  Se12  1  0.25003900  0.51087600  0.82742200  1
  Se  Se13  1  0.24712200  0.75000000  0.59103500  1
  Se  Se14  1  0.74712200  0.75000000  0.90896500  1
  Se  Se15  1  0.75003900  0.98912400  0.67257800  1
  Se  Se16  1  0.24996100  0.01087600  0.32742200  1
  Se  Se17  1  0.74996100  0.01087600  0.17257800  1
  Se  Se18  1  0.75287800  0.25000000  0.40896500  1
  Se  Se19  1  0.75003900  0.51087600  0.67257800  1
