# generated using pymatgen
data_Na2PrO3
_symmetry_space_group_name_H-M   'P 1'
_cell_length_a   7.85383019
_cell_length_b   7.85383019
_cell_length_c   19.02748888
_cell_angle_alpha   89.13189072
_cell_angle_beta   89.13189072
_cell_angle_gamma   122.80368203
_symmetry_Int_Tables_number   1
_chemical_formula_structural   Na2PrO3
_chemical_formula_sum   'Na24 Pr12 O36'
_cell_volume   986.00921421
_cell_formula_units_Z   12
loop_
 _symmetry_equiv_pos_site_id
 _symmetry_equiv_pos_as_xyz
  1  'x, y, z'
loop_
 _atom_site_type_symbol
 _atom_site_label
 _atom_site_symmetry_multiplicity
 _atom_site_fract_x
 _atom_site_fract_y
 _atom_site_fract_z
 _atom_site_occupancy
  Na  Na0  1  0.36483000  0.26928900  0.33105700  1
  Na  Na1  1  0.00000000  0.00000000  0.00000000  1
  Na  Na2  1  0.59013500  0.23489200  0.48568300  1
  Na  Na3  1  0.36571400  0.04508000  0.18446900  1
  Na  Na4  1  0.01720300  0.60237300  0.85515000  1
  Na  Na5  1  0.60237300  0.01720300  0.35515000  1
  Na  Na6  1  0.29480900  0.70519100  0.75000000  1
  Na  Na7  1  0.79584000  0.10709500  0.58565700  1
  Na  Na8  1  0.23489200  0.59013500  0.98568300  1
  Na  Na9  1  0.04508000  0.36571400  0.68446900  1
  Na  Na10  1  0.63517000  0.73071100  0.66894300  1
  Na  Na11  1  0.89290500  0.20416000  0.91434300  1
  Na  Na12  1  0.00000000  0.00000000  0.50000000  1
  Na  Na13  1  0.73071100  0.63517000  0.16894300  1
  Na  Na14  1  0.26928900  0.36483100  0.83105700  1
  Na  Na15  1  0.20416000  0.89290500  0.41434300  1
  Na  Na16  1  0.39762800  0.98279700  0.64485000  1
  Na  Na17  1  0.10709500  0.79584000  0.08565700  1
  Na  Na18  1  0.95492000  0.63428600  0.31553100  1
  Na  Na19  1  0.76510800  0.40986500  0.01431700  1
  Na  Na20  1  0.70519100  0.29480900  0.25000000  1
  Na  Na21  1  0.40986500  0.76510800  0.51431700  1
  Na  Na22  1  0.98279700  0.39762700  0.14485000  1
  Na  Na23  1  0.63428600  0.95492000  0.81553100  1
  Pr  Pr24  1  0.05230700  0.36595800  0.41750500  1
  Pr  Pr25  1  0.63404200  0.94769300  0.08249500  1
  Pr  Pr26  1  0.35858800  0.35840600  0.58438000  1
  Pr  Pr27  1  0.35547700  0.64452300  0.25000000  1
  Pr  Pr28  1  0.96473600  0.03526400  0.25000000  1
  Pr  Pr29  1  0.64159400  0.64141200  0.91562000  1
  Pr  Pr30  1  0.64141200  0.64159400  0.41562000  1
  Pr  Pr31  1  0.35840600  0.35858800  0.08438000  1
  Pr  Pr32  1  0.03526400  0.96473600  0.75000000  1
  Pr  Pr33  1  0.64452300  0.35547700  0.75000000  1
  Pr  Pr34  1  0.94769300  0.63404200  0.58249500  1
  Pr  Pr35  1  0.36595800  0.05230700  0.91750500  1
  O  O36  1  0.64024500  0.32015800  0.61742400  1
  O  O37  1  0.25499900  0.94878200  0.29636900  1
  O  O38  1  0.33309800  0.64954400  0.63029300  1
  O  O39  1  0.05108200  0.74037300  0.96608300  1
  O  O40  1  0.01870700  0.35355900  0.28903600  1
  O  O41  1  0.08225800  0.42188400  0.55413000  1
  O  O42  1  0.57811600  0.91774200  0.94587000  1
  O  O43  1  0.64644100  0.98129300  0.21096400  1
  O  O44  1  0.32768400  0.33628600  0.45654900  1
  O  O45  1  0.74037300  0.05108200  0.46608300  1
  O  O46  1  0.35045600  0.66690200  0.86970700  1
  O  O47  1  0.00445000  0.05193800  0.11999700  1
  O  O48  1  0.32015800  0.64024500  0.11742400  1
  O  O49  1  0.94806200  0.99555000  0.38000300  1
  O  O50  1  0.67725700  0.66543600  0.78660900  1
  O  O51  1  0.05193800  0.00445000  0.61999700  1
  O  O52  1  0.94878200  0.25499900  0.79636900  1
  O  O53  1  0.66371400  0.67231600  0.04345100  1
  O  O54  1  0.66543600  0.67725700  0.28660900  1
  O  O55  1  0.25962700  0.94891800  0.53391700  1
  O  O56  1  0.33456400  0.32274300  0.71339100  1
  O  O57  1  0.67231600  0.66371400  0.54345100  1
  O  O58  1  0.33628600  0.32768400  0.95654900  1
  O  O59  1  0.05121800  0.74500100  0.20363100  1
  O  O60  1  0.32274300  0.33456400  0.21339100  1
  O  O61  1  0.91774200  0.57811600  0.44587000  1
  O  O62  1  0.67984200  0.35975500  0.88257600  1
  O  O63  1  0.99555000  0.94806200  0.88000300  1
  O  O64  1  0.64954400  0.33309800  0.13029300  1
  O  O65  1  0.66690200  0.35045600  0.36970700  1
  O  O66  1  0.35355900  0.01870700  0.78903600  1
  O  O67  1  0.42188400  0.08225800  0.05413000  1
  O  O68  1  0.35975500  0.67984200  0.38257600  1
  O  O69  1  0.98129300  0.64644100  0.71096400  1
  O  O70  1  0.94891800  0.25962700  0.03391700  1
  O  O71  1  0.74500100  0.05121800  0.70363100  1
