# generated using pymatgen
data_Ag3(Bi2Br3)7
_symmetry_space_group_name_H-M   'P 1'
_cell_length_a   15.00285800
_cell_length_b   13.02264900
_cell_length_c   14.18459370
_cell_angle_alpha   72.11746103
_cell_angle_beta   90.00000000
_cell_angle_gamma   90.00000000
_symmetry_Int_Tables_number   1
_chemical_formula_structural   Ag3(Bi2Br3)7
_chemical_formula_sum   'Ag6 Bi28 Br42'
_cell_volume   2637.45367451
_cell_formula_units_Z   2
loop_
 _symmetry_equiv_pos_site_id
 _symmetry_equiv_pos_as_xyz
  1  'x, y, z'
loop_
 _atom_site_type_symbol
 _atom_site_label
 _atom_site_symmetry_multiplicity
 _atom_site_fract_x
 _atom_site_fract_y
 _atom_site_fract_z
 _atom_site_occupancy
  Ag  Ag0  1  0.84106800  0.54092000  0.61772400  1
  Ag  Ag1  1  0.15893200  0.54092000  0.61772400  1
  Ag  Ag2  1  0.34763100  0.44992200  0.39030700  1
  Ag  Ag3  1  0.65236900  0.44992200  0.39030700  1
  Ag  Ag4  1  0.33689400  0.13402700  0.37802300  1
  Ag  Ag5  1  0.66310600  0.13402700  0.37802300  1
  Bi  Bi6  1  0.00000000  0.89961900  0.93071500  1
  Bi  Bi7  1  0.81473700  0.88068100  0.61287000  1
  Bi  Bi8  1  0.18526300  0.88068100  0.61287000  1
  Bi  Bi9  1  0.82480500  0.75452200  0.97049500  1
  Bi  Bi10  1  0.17519500  0.75452200  0.97049500  1
  Bi  Bi11  1  0.00000000  0.63965300  0.91974400  1
  Bi  Bi12  1  0.32414600  0.77949800  0.39315500  1
  Bi  Bi13  1  0.67585400  0.77949800  0.39315500  1
  Bi  Bi14  1  0.89290800  0.84366800  0.14032700  1
  Bi  Bi15  1  0.10709200  0.84366800  0.14032700  1
  Bi  Bi16  1  0.50000000  0.74063000  0.02484800  1
  Bi  Bi17  1  0.00000000  0.65163700  0.28290200  1
  Bi  Bi18  1  0.39795400  0.45765900  0.85949200  1
  Bi  Bi19  1  0.60204600  0.45765900  0.85949200  1
  Bi  Bi20  1  0.10525600  0.55523500  0.13662000  1
  Bi  Bi21  1  0.89474400  0.55523500  0.13662000  1
  Bi  Bi22  1  0.50000000  0.34578500  0.72043100  1
  Bi  Bi23  1  0.00000000  0.26454000  0.97914800  1
  Bi  Bi24  1  0.39683400  0.14521200  0.85661200  1
  Bi  Bi25  1  0.60316600  0.14521200  0.85661200  1
  Bi  Bi26  1  0.17454400  0.22629300  0.59944600  1
  Bi  Bi27  1  0.82545600  0.22629300  0.59944600  1
  Bi  Bi28  1  0.50000000  0.36181100  0.08671400  1
  Bi  Bi29  1  0.33928700  0.24509100  0.02741700  1
  Bi  Bi30  1  0.66071300  0.24509100  0.02741700  1
  Bi  Bi31  1  0.87132500  0.18937500  0.17611200  1
  Bi  Bi32  1  0.12867500  0.18937500  0.17611200  1
  Bi  Bi33  1  0.50000000  0.08834400  0.07175600  1
  Br  Br34  1  0.77761000  0.99797500  0.74849600  1
  Br  Br35  1  0.22239000  0.99797500  0.74849600  1
  Br  Br36  1  0.50000000  0.01507800  0.74835900  1
  Br  Br37  1  0.36056200  0.90841300  0.53553200  1
  Br  Br38  1  0.63943800  0.90841300  0.53553200  1
  Br  Br39  1  0.00000000  0.85147600  0.69443300  1
  Br  Br40  1  0.50000000  0.65835100  0.74937000  1
  Br  Br41  1  0.50000000  0.81999000  0.30216900  1
  Br  Br42  1  0.85891100  0.76424800  0.46505400  1
  Br  Br43  1  0.14108900  0.76424800  0.46505400  1
  Br  Br44  1  0.36160300  0.89563400  0.01991600  1
  Br  Br45  1  0.63839700  0.89563400  0.01991600  1
  Br  Br46  1  0.77765800  0.68268700  0.75233700  1
  Br  Br47  1  0.22234200  0.68268700  0.75233700  1
  Br  Br48  1  0.27755500  0.66542600  0.26173000  1
  Br  Br49  1  0.72244500  0.66542600  0.26173000  1
  Br  Br50  1  0.00000000  0.53086500  0.70574500  1
  Br  Br51  1  0.34663000  0.57472100  0.53588200  1
  Br  Br52  1  0.65337000  0.57472100  0.53588200  1
  Br  Br53  1  0.86268600  0.42969400  0.96852000  1
  Br  Br54  1  0.13731400  0.42969400  0.96852000  1
  Br  Br55  1  0.35788200  0.58825000  0.02529800  1
  Br  Br56  1  0.64211800  0.58825000  0.02529800  1
  Br  Br57  1  0.85829300  0.42422200  0.46193200  1
  Br  Br58  1  0.14170700  0.42422200  0.46193200  1
  Br  Br59  1  0.50000000  0.47212900  0.28810100  1
  Br  Br60  1  0.78119400  0.32723800  0.74211600  1
  Br  Br61  1  0.21880600  0.32723800  0.74211600  1
  Br  Br62  1  0.74886500  0.32605800  0.24338500  1
  Br  Br63  1  0.25113500  0.32605800  0.24338500  1
  Br  Br64  1  0.86341300  0.09361900  0.99012900  1
  Br  Br65  1  0.13658700  0.09361900  0.99012900  1
  Br  Br66  1  0.35346300  0.24154800  0.52815800  1
  Br  Br67  1  0.64653700  0.24154800  0.52815800  1
  Br  Br68  1  0.00000000  0.17800000  0.69777900  1
  Br  Br69  1  0.00000000  0.29535100  0.26687100  1
  Br  Br70  1  0.50000000  0.15679100  0.28690200  1
  Br  Br71  1  0.85536700  0.09099200  0.46450700  1
  Br  Br72  1  0.14463300  0.09099200  0.46450700  1
  Br  Br73  1  0.00000000  0.01434300  0.25520200  1
  Br  Br74  1  0.27006500  0.99086400  0.25496400  1
  Br  Br75  1  0.72993500  0.99086400  0.25496400  1
