# generated using pymatgen
data_K4Pt2I9
_symmetry_space_group_name_H-M   'P 1'
_cell_length_a   40.04933834
_cell_length_b   9.78530483
_cell_length_c   10.79270847
_cell_angle_alpha   90.00000000
_cell_angle_beta   90.00000000
_cell_angle_gamma   52.35059769
_symmetry_Int_Tables_number   1
_chemical_formula_structural   K4Pt2I9
_chemical_formula_sum   'K20 Pt10 I45'
_cell_volume   3348.84847327
_cell_formula_units_Z   5
loop_
 _symmetry_equiv_pos_site_id
 _symmetry_equiv_pos_as_xyz
  1  'x, y, z'
loop_
 _atom_site_type_symbol
 _atom_site_label
 _atom_site_symmetry_multiplicity
 _atom_site_fract_x
 _atom_site_fract_y
 _atom_site_fract_z
 _atom_site_occupancy
  K  K0  1  0.09180189  0.05325839  0.75000000  1
  K  K1  1  0.07424373  0.56691777  0.25000000  1
  K  K2  1  0.12611139  0.43187632  0.75000000  1
  K  K3  1  0.10871896  0.94578074  0.25000000  1
  K  K4  1  0.27388861  0.06243326  0.75000000  1
  K  K5  1  0.29128104  0.48937554  0.25000000  1
  K  K6  1  0.30819811  0.51226784  0.75000000  1
  K  K7  1  0.32575627  0.93813641  0.25000000  1
  K  K8  1  0.49138050  0.05478627  0.75000000  1
  K  K9  1  0.47323554  0.57107456  0.25000000  1
  K  K10  1  0.52498851  0.43695724  0.75000000  1
  K  K11  1  0.50765740  0.94811046  0.25000000  1
  K  K12  1  0.67478244  0.07007576  0.75000000  1
  K  K13  1  0.68761288  0.52168189  0.25000000  1
  K  K14  1  0.72521756  0.44398796  0.75000000  1
  K  K15  1  0.71238712  0.95974630  0.25000000  1
  K  K16  1  0.87501149  0.06189979  0.75000000  1
  K  K17  1  0.89234260  0.48639748  0.25000000  1
  K  K18  1  0.90861950  0.51168879  0.75000000  1
  K  K19  1  0.92676446  0.93725226  0.25000000  1
  Pt  Pt20  1  0.00009486  0.00068797  0.97868138  1
  Pt  Pt21  1  0.00009486  0.00068797  0.52131862  1
  Pt  Pt22  1  0.20000000  -0.00087585  0.02119219  1
  Pt  Pt23  1  0.20000000  -0.00087585  0.47880781  1
  Pt  Pt24  1  0.39990514  0.00116229  0.97868138  1
  Pt  Pt25  1  0.39990514  0.00116229  0.52131862  1
  Pt  Pt26  1  0.59969005  -0.00032420  0.01836685  1
  Pt  Pt27  1  0.59969005  -0.00032420  0.48163315  1
  Pt  Pt28  1  0.80030995  0.99812607  0.01836685  1
  Pt  Pt29  1  0.80030995  0.99812607  0.48163315  1
  I  I30  1  0.00026651  0.03125132  0.25000000  1
  I  I31  1  0.00002799  0.27306135  0.54329154  1
  I  I32  1  0.00009877  0.72672964  0.97967562  1
  I  I33  1  0.00009877  0.72672964  0.52032438  1
  I  I34  1  0.11550612  0.21242290  0.02975165  1
  I  I35  1  0.11550612  0.21242290  0.47024835  1
  I  I36  1  0.08449918  0.78757258  0.52917103  1
  I  I37  1  0.08449918  0.78757258  0.97082897  1
  I  I38  1  0.20000000  0.27294455  0.02073509  1
  I  I39  1  0.20000000  0.27294455  0.47926491  1
  I  I40  1  0.20000000  0.72685775  0.45628472  1
  I  I41  1  0.20000000  0.72685775  0.04371528  1
  I  I42  1  0.20000000  0.96813790  0.75000000  1
  I  I43  1  0.31550082  0.21006851  0.97082897  1
  I  I44  1  0.31550082  0.21006851  0.52917103  1
  I  I45  1  0.28449388  0.78995352  0.02975165  1
  I  I46  1  0.28449388  0.78995352  0.47024835  1
  I  I47  1  0.39973349  0.03258385  0.25000000  1
  I  I48  1  0.39997201  0.27320130  0.54329154  1
  I  I49  1  0.39997201  0.27320130  0.95670846  1
  I  I50  1  0.39990123  0.72722352  0.52032438  1
  I  I51  1  0.39990123  0.72722352  0.97967562  1
  I  I52  1  0.51528400  0.21590512  0.03129728  1
  I  I53  1  0.51528400  0.21590512  0.46870272  1
  I  I54  1  0.48439852  0.78787181  0.97100988  1
  I  I55  1  0.48439852  0.78787181  0.52899012  1
  I  I56  1  0.60107420  0.27045350  0.47933988  1
  I  I57  1  0.60107420  0.27045350  0.02066012  1
  I  I58  1  0.59848424  0.72981926  0.46107448  1
  I  I59  1  0.59848424  0.72981926  0.03892552  1
  I  I60  1  0.59787061  0.97890758  0.75000000  1
  I  I61  1  0.71548168  0.20795119  0.01371007  1
  I  I62  1  0.71548168  0.20795119  0.48628993  1
  I  I63  1  0.68451832  0.78535958  0.01371007  1
  I  I64  1  0.68451832  0.78535958  0.48628993  1
  I  I65  1  0.79892580  0.27582452  0.47933988  1
  I  I66  1  0.79892580  0.27582452  0.02066012  1
  I  I67  1  0.80151576  0.72224044  0.46107448  1
  I  I68  1  0.80151576  0.72224044  0.03892552  1
  I  I69  1  0.80212939  0.96826063  0.75000000  1
  I  I70  1  0.91560148  0.20986439  0.97100988  1
  I  I71  1  0.91560148  0.20986439  0.52899012  1
  I  I72  1  0.88471600  0.79232513  0.03129728  1
  I  I73  1  0.88471600  0.79232513  0.46870272  1
  I  I74  1  0.00002799  0.27306135  0.95670846  1
