# generated using pymatgen
data_Yb7Mg3Ge8
_symmetry_space_group_name_H-M   'P 1'
_cell_length_a   7.65641100
_cell_length_b   14.99533000
_cell_length_c   16.10360058
_cell_angle_alpha   72.31673079
_cell_angle_beta   90.00000000
_cell_angle_gamma   90.00000000
_symmetry_Int_Tables_number   1
_chemical_formula_structural   Yb7Mg3Ge8
_chemical_formula_sum   'Yb28 Mg12 Ge32'
_cell_volume   1761.50270406
_cell_formula_units_Z   4
loop_
 _symmetry_equiv_pos_site_id
 _symmetry_equiv_pos_as_xyz
  1  'x, y, z'
loop_
 _atom_site_type_symbol
 _atom_site_label
 _atom_site_symmetry_multiplicity
 _atom_site_fract_x
 _atom_site_fract_y
 _atom_site_fract_z
 _atom_site_occupancy
  Yb  Yb0  1  0.01247500  0.61451900  0.48690900  1
  Yb  Yb1  1  0.00057100  0.74466600  0.63453500  1
  Yb  Yb2  1  0.97310300  0.12539000  0.98914400  1
  Yb  Yb3  1  0.07257000  0.28390100  0.11303900  1
  Yb  Yb4  1  0.78614100  0.91397300  0.21356700  1
  Yb  Yb5  1  0.78605500  0.51023400  0.84105200  1
  Yb  Yb6  1  0.80840000  0.03742100  0.35433900  1
  Yb  Yb7  1  0.71385900  0.41397300  0.21356700  1
  Yb  Yb8  1  0.69160000  0.53742100  0.35433900  1
  Yb  Yb9  1  0.71394500  0.01023400  0.84105200  1
  Yb  Yb10  1  0.42743000  0.78390100  0.11303900  1
  Yb  Yb11  1  0.52689700  0.62539000  0.98914400  1
  Yb  Yb12  1  0.48752500  0.11451900  0.48690900  1
  Yb  Yb13  1  0.49942900  0.24466600  0.63453500  1
  Yb  Yb14  1  0.51247500  0.88548100  0.51309100  1
  Yb  Yb15  1  0.50057100  0.75533400  0.36546500  1
  Yb  Yb16  1  0.47310300  0.37461000  0.01085600  1
  Yb  Yb17  1  0.57257000  0.21609900  0.88696100  1
  Yb  Yb18  1  0.28605500  0.98976600  0.15894800  1
  Yb  Yb19  1  0.28614100  0.58602700  0.78643300  1
  Yb  Yb20  1  0.30840000  0.46257900  0.64566100  1
  Yb  Yb21  1  0.19160000  0.96257900  0.64566100  1
  Yb  Yb22  1  0.21394500  0.48976600  0.15894800  1
  Yb  Yb23  1  0.21385900  0.08602700  0.78643300  1
  Yb  Yb24  1  0.92743000  0.71609900  0.88696100  1
  Yb  Yb25  1  0.02689700  0.87461000  0.01085600  1
  Yb  Yb26  1  0.99942900  0.25533400  0.36546500  1
  Yb  Yb27  1  0.98752500  0.38548100  0.51309100  1
  Mg  Mg28  1  0.85951900  0.65924600  0.13078200  1
  Mg  Mg29  1  0.85225100  0.13845500  0.60225200  1
  Mg  Mg30  1  0.75696200  0.37979100  0.71459300  1
  Mg  Mg31  1  0.74303800  0.87979100  0.71459300  1
  Mg  Mg32  1  0.64774900  0.63845500  0.60225200  1
  Mg  Mg33  1  0.64048100  0.15924600  0.13078200  1
  Mg  Mg34  1  0.35951900  0.84075400  0.86921800  1
  Mg  Mg35  1  0.35225100  0.36154500  0.39774800  1
  Mg  Mg36  1  0.25696200  0.12020900  0.28540700  1
  Mg  Mg37  1  0.24303800  0.62020900  0.28540700  1
  Mg  Mg38  1  0.14774900  0.86154500  0.39774800  1
  Mg  Mg39  1  0.14048100  0.34075400  0.86921800  1
  Ge  Ge40  1  0.03169000  0.90956400  0.81608300  1
  Ge  Ge41  1  0.03992200  0.46725900  0.32299400  1
  Ge  Ge42  1  0.84998000  0.47231000  0.03350000  1
  Ge  Ge43  1  0.87582400  0.72246400  0.31608400  1
  Ge  Ge44  1  0.86055700  0.95561300  0.53967500  1
  Ge  Ge45  1  0.86499900  0.19621600  0.76816400  1
  Ge  Ge46  1  0.82138000  0.80228000  0.45424700  1
  Ge  Ge47  1  0.82357100  0.32077200  0.96988700  1
  Ge  Ge48  1  0.67642900  0.82077200  0.96988700  1
  Ge  Ge49  1  0.67862000  0.30228000  0.45424700  1
  Ge  Ge50  1  0.63500100  0.69621600  0.76816400  1
  Ge  Ge51  1  0.62417600  0.22246400  0.31608400  1
  Ge  Ge52  1  0.63944300  0.45561300  0.53967500  1
  Ge  Ge53  1  0.65002000  0.97231000  0.03350000  1
  Ge  Ge54  1  0.46007800  0.96725900  0.32299400  1
  Ge  Ge55  1  0.46831000  0.40956400  0.81608300  1
  Ge  Ge56  1  0.53169000  0.59043600  0.18391700  1
  Ge  Ge57  1  0.53992200  0.03274100  0.67700600  1
  Ge  Ge58  1  0.34998000  0.02769000  0.96650000  1
  Ge  Ge59  1  0.36055700  0.54438700  0.46032500  1
  Ge  Ge60  1  0.37582400  0.77753600  0.68391600  1
  Ge  Ge61  1  0.36499900  0.30378400  0.23183600  1
  Ge  Ge62  1  0.32138000  0.69772000  0.54575300  1
  Ge  Ge63  1  0.32357100  0.17922800  0.03011300  1
  Ge  Ge64  1  0.17642900  0.67922800  0.03011300  1
  Ge  Ge65  1  0.17862000  0.19772000  0.54575300  1
  Ge  Ge66  1  0.13944300  0.04438700  0.46032500  1
  Ge  Ge67  1  0.13500100  0.80378400  0.23183600  1
  Ge  Ge68  1  0.15002000  0.52769000  0.96650000  1
  Ge  Ge69  1  0.12417600  0.27753600  0.68391600  1
  Ge  Ge70  1  0.96007800  0.53274100  0.67700600  1
  Ge  Ge71  1  0.96831000  0.09043600  0.18391700  1
