# generated using pymatgen
data_Ce14Gd18O55
_symmetry_space_group_name_H-M   'P 1'
_cell_length_a   9.52402852
_cell_length_b   9.44395653
_cell_length_c   18.98913673
_cell_angle_alpha   109.00344762
_cell_angle_beta   109.56293214
_cell_angle_gamma   109.68900163
_symmetry_Int_Tables_number   1
_chemical_formula_structural   Ce14Gd18O55
_chemical_formula_sum   'Ce14 Gd18 O55'
_cell_volume   1317.31687206
_cell_formula_units_Z   1
loop_
 _symmetry_equiv_pos_site_id
 _symmetry_equiv_pos_as_xyz
  1  'x, y, z'
loop_
 _atom_site_type_symbol
 _atom_site_label
 _atom_site_symmetry_multiplicity
 _atom_site_fract_x
 _atom_site_fract_y
 _atom_site_fract_z
 _atom_site_occupancy
  Ce  Ce0  1  0.49638741  0.24758730  0.87358799  1
  Ce  Ce1  1  0.48973285  0.73776786  0.62083295  1
  Ce  Ce2  1  0.72445053  0.48197554  0.61637622  1
  Ce  Ce3  1  0.75888421  0.75445108  0.50267579  1
  Ce  Ce4  1  0.49540289  0.24819704  0.37153257  1
  Ce  Ce5  1  0.70221411  0.23278209  0.74015993  1
  Ce  Ce6  1  0.48532574  0.99600198  0.49612298  1
  Ce  Ce7  1  0.75908596  0.00824705  0.87444970  1
  Ce  Ce8  1  0.97855178  0.25018687  0.61563019  1
  Ce  Ce9  1  0.75504193  0.75633596  0.00550644  1
  Ce  Ce10  1  0.70694542  0.23908667  0.24195288  1
  Ce  Ce11  1  0.49039811  0.99403811  0.00128971  1
  Ce  Ce12  1  0.75831362  0.00934396  0.37586378  1
  Ce  Ce13  1  0.98245398  0.25415023  0.11781076  1
  Gd  Gd14  1  0.00638805  0.77254919  0.89056786  1
  Gd  Gd15  1  0.24015240  0.97364003  0.62546292  1
  Gd  Gd16  1  0.01009552  0.77768761  0.39035623  1
  Gd  Gd17  1  0.29411569  0.52340156  0.87133470  1
  Gd  Gd18  1  0.27523053  0.75205592  0.75316595  1
  Gd  Gd19  1  0.24589116  0.23305533  0.98913244  1
  Gd  Gd20  1  0.24226729  0.96187755  0.12484864  1
  Gd  Gd21  1  0.53331891  0.52693838  0.76044461  1
  Gd  Gd22  1  0.27026966  0.73911929  0.24809737  1
  Gd  Gd23  1  0.29387169  0.52561848  0.38327610  1
  Gd  Gd24  1  0.24303245  0.24788753  0.48277305  1
  Gd  Gd25  1  0.52818373  0.52521659  0.26037721  1
  Gd  Gd26  1  0.52932201  0.76640925  0.13718293  1
  Gd  Gd27  1  0.71530976  0.47818501  0.11716638  1
  Gd  Gd28  1  0.00117465  0.50442483  0.51267205  1
  Gd  Gd29  1  0.00816408  0.00181903  0.24716759  1
  Gd  Gd30  1  0.00367369  0.00763095  0.75083367  1
  Gd  Gd31  1  0.97560856  0.50138365  0.01498432  1
  O  O32  1  0.23166478  0.97970765  0.75550900  1
  O  O33  1  0.23195010  0.74370880  0.87207506  1
  O  O34  1  0.22715452  0.27846386  0.87349416  1
  O  O35  1  0.00990349  0.03415905  0.63004666  1
  O  O36  1  0.24271448  0.46526044  0.73666370  1
  O  O37  1  0.01605666  0.25095280  0.50841622  1
  O  O38  1  0.25715750  0.74051120  0.62946568  1
  O  O39  1  0.22394928  0.95700798  0.24426815  1
  O  O40  1  0.74193369  0.00828849  0.00006949  1
  O  O41  1  0.23596549  0.74532876  0.37359310  1
  O  O42  1  0.52452495  0.76295597  0.75162478  1
  O  O43  1  0.52073398  0.51386274  0.87784061  1
  O  O44  1  0.48576443  0.22654351  0.98994680  1
  O  O45  1  0.23536480  0.50864012  0.48892119  1
  O  O46  1  0.52037508  0.76002916  0.50628348  1
  O  O47  1  0.24870139  0.25826014  0.36283324  1
  O  O48  1  0.48038115  0.47687482  0.62023428  1
  O  O49  1  0.47445553  0.24265464  0.74071222  1
  O  O50  1  0.01062412  0.03550135  0.12865259  1
  O  O51  1  0.23581567  0.45868310  0.23748357  1
  O  O52  1  0.25450682  0.02496982  0.51294852  1
  O  O53  1  0.51705340  0.00858839  0.87154685  1
  O  O54  1  0.76160918  0.77654282  0.88564546  1
  O  O55  1  0.01742734  0.26012233  0.00532093  1
  O  O56  1  0.25359592  0.71328622  0.11454929  1
  O  O57  1  0.75943590  0.27843247  0.87349291  1
  O  O58  1  0.98719279  0.73356934  -0.00025385  1
  O  O59  1  0.48811476  0.98403737  0.62241932  1
  O  O60  1  0.74432503  0.01368101  0.49962272  1
  O  O61  1  0.78199079  0.51371645  0.76146527  1
  O  O62  1  0.52831545  0.76957064  0.25926921  1
  O  O63  1  0.99828840  0.97999787  0.86308261  1
  O  O64  1  0.52458669  0.51822861  0.38105712  1
  O  O65  1  0.49251421  0.23951410  0.49249170  1
  O  O66  1  0.76548507  0.74441466  0.63819155  1
  O  O67  1  0.73589633  0.49517524  0.50207736  1
  O  O68  1  0.49967488  0.74331683  0.00261464  1
  O  O69  1  0.46558774  0.47698395  0.11739292  1
  O  O70  1  0.47319795  0.24183351  0.24123396  1
  O  O71  1  0.74283698  0.23981231  0.62783126  1
  O  O72  1  0.24988853  0.01679894  0.01291097  1
  O  O73  1  0.77519979  0.04224174  0.75281586  1
  O  O74  1  0.76645915  0.77815134  0.38787755  1
  O  O75  1  0.51096075  0.01102149  0.37437695  1
  O  O76  1  0.98596782  0.51059595  0.63428233  1
  O  O77  1  0.76326120  0.27912628  0.37456387  1
  O  O78  1  0.99525579  0.73566779  0.49958129  1
  O  O79  1  0.49374506  0.99446618  0.12478756  1
  O  O80  1  0.77748195  0.51530767  0.26164109  1
  O  O81  1  0.00154033  0.98714640  0.36361301  1
  O  O82  1  0.77263543  0.74942257  0.13460708  1
  O  O83  1  0.72389861  0.48779859  0.99816946  1
  O  O84  1  0.74825331  0.23726074  0.12998469  1
  O  O85  1  0.77560675  0.03929615  0.25203115  1
  O  O86  1  0.98556043  0.51145772  0.13588751  1
