# generated using pymatgen
data_MgIn2O4
_symmetry_space_group_name_H-M   'P 1'
_cell_length_a   6.36293092
_cell_length_b   6.36293092
_cell_length_c   26.20333953
_cell_angle_alpha   83.00446855
_cell_angle_beta   83.00446855
_cell_angle_gamma   60.70362342
_symmetry_Int_Tables_number   1
_chemical_formula_structural   MgIn2O4
_chemical_formula_sum   'Mg10 In20 O40'
_cell_volume   915.94278696
_cell_formula_units_Z   10
loop_
 _symmetry_equiv_pos_site_id
 _symmetry_equiv_pos_as_xyz
  1  'x, y, z'
loop_
 _atom_site_type_symbol
 _atom_site_label
 _atom_site_symmetry_multiplicity
 _atom_site_fract_x
 _atom_site_fract_y
 _atom_site_fract_z
 _atom_site_occupancy
  Mg  Mg0  1  0.00194100  0.00194100  0.00023300  1
  Mg  Mg1  1  0.87780700  0.87780700  0.87439300  1
  Mg  Mg2  1  0.27505700  0.27505700  0.67492500  1
  Mg  Mg3  1  0.07499500  0.07499500  0.77461300  1
  Mg  Mg4  1  0.67504100  0.67504100  0.47493000  1
  Mg  Mg5  1  0.47501200  0.47501200  0.57491000  1
  Mg  Mg6  1  0.07503000  0.07503000  0.27492100  1
  Mg  Mg7  1  0.87504000  0.87504000  0.37488900  1
  Mg  Mg8  1  0.47490800  0.47490800  0.07546000  1
  Mg  Mg9  1  0.27499100  0.27499100  0.17503500  1
  In  In10  1  0.34644300  0.34644300  0.95059900  1
  In  In11  1  0.67389700  0.67389700  0.97699700  1
  In  In12  1  0.36876200  0.87786600  0.87442600  1
  In  In13  1  0.74696800  0.74696800  0.74926800  1
  In  In14  1  0.87786600  0.36876200  0.87442600  1
  In  In15  1  0.77506000  0.27489300  0.67488300  1
  In  In16  1  0.20297100  0.20297100  0.40082300  1
  In  In17  1  0.14716200  0.14716200  0.54900100  1
  In  In18  1  0.27489300  0.77506000  0.67488300  1
  In  In19  1  0.54719200  0.54719200  0.34900800  1
  In  In20  1  0.40324200  0.40324200  0.80049600  1
  In  In21  1  0.17506600  0.67498700  0.47490500  1
  In  In22  1  0.67498700  0.17506600  0.47490500  1
  In  In23  1  0.80291600  0.80291600  0.60077800  1
  In  In24  1  0.57512300  0.07492700  0.27488600  1
  In  In25  1  0.94728600  0.94728600  0.14868600  1
  In  In26  1  0.07492700  0.57512300  0.27488600  1
  In  In27  1  0.97504600  0.47476600  0.07551800  1
  In  In28  1  0.47476600  0.97504600  0.07551800  1
  In  In29  1  0.60281500  0.60281500  0.20096500  1
  O  O30  1  0.54362700  0.00210500  0.92199400  1
  O  O31  1  0.72611400  0.72611400  0.83093600  1
  O  O32  1  0.00210500  0.54362700  0.92199400  1
  O  O33  1  0.53613000  0.53613000  0.92290400  1
  O  O34  1  0.21241500  0.21241500  0.82469700  1
  O  O35  1  0.94453100  0.39685200  0.72368300  1
  O  O36  1  0.02375700  0.02375700  0.92059400  1
  O  O37  1  0.75227400  0.20481600  0.82600800  1
  O  O38  1  0.12706500  0.12706500  0.63043700  1
  O  O39  1  0.39685200  0.94453100  0.72368300  1
  O  O40  1  0.93831300  0.93831300  0.72481600  1
  O  O41  1  0.20481600  0.75227400  0.82600800  1
  O  O42  1  0.61155400  0.61155400  0.62531400  1
  O  O43  1  0.34456400  0.79693900  0.52366600  1
  O  O44  1  0.42298900  0.42298900  0.71951700  1
  O  O45  1  0.15285500  0.60538500  0.62646800  1
  O  O46  1  0.52707000  0.52707000  0.43044100  1
  O  O47  1  0.79693900  0.34456400  0.52366600  1
  O  O48  1  0.33845500  0.33845500  0.52479500  1
  O  O49  1  0.60538500  0.15285500  0.62646800  1
  O  O50  1  0.01157300  0.01157300  0.42532100  1
  O  O51  1  0.74456400  0.19693200  0.32365300  1
  O  O52  1  0.82293000  0.82293000  0.51962200  1
  O  O53  1  0.55296100  0.00538700  0.42647200  1
  O  O54  1  0.92710100  0.92710100  0.23030300  1
  O  O55  1  0.19693200  0.74456400  0.32365300  1
  O  O56  1  0.73849600  0.73849600  0.32478500  1
  O  O57  1  0.00538700  0.55296100  0.42647200  1
  O  O58  1  0.41152300  0.41152300  0.22536500  1
  O  O59  1  0.14506200  0.59613800  0.12381700  1
  O  O60  1  0.22296100  0.22296100  0.31965900  1
  O  O61  1  0.95291300  0.40536600  0.22648400  1
  O  O62  1  0.32743200  0.32743200  0.03046200  1
  O  O63  1  0.59613800  0.14506200  0.12381700  1
  O  O64  1  0.13873700  0.13873700  0.12497200  1
  O  O65  1  0.40536600  0.95291300  0.22648400  1
  O  O66  1  0.81826200  0.81826200  0.02634600  1
  O  O67  1  0.62273300  0.62273300  0.11991700  1
  O  O68  1  0.34163600  0.81226900  0.02707200  1
  O  O69  1  0.81226900  0.34163600  0.02707200  1
