# generated using pymatgen
data_In4As3Se
_symmetry_space_group_name_H-M   'P 1'
_cell_length_a   7.72181400
_cell_length_b   7.72181400
_cell_length_c   7.72181400
_cell_angle_alpha   131.79985152
_cell_angle_beta   131.79985152
_cell_angle_gamma   70.54532391
_symmetry_Int_Tables_number   1
_chemical_formula_structural   In4As3Se
_chemical_formula_sum   'In4 As3 Se1'
_cell_volume   250.69986471
_cell_formula_units_Z   1
loop_
 _symmetry_equiv_pos_site_id
 _symmetry_equiv_pos_as_xyz
  1  'x, y, z'
loop_
 _atom_site_type_symbol
 _atom_site_label
 _atom_site_symmetry_multiplicity
 _atom_site_fract_x
 _atom_site_fract_y
 _atom_site_fract_z
 _atom_site_occupancy
  In  In0  1  0.62787000  0.11622700  0.00000000  1
  In  In1  1  0.11622700  0.62787000  0.00000000  1
  In  In2  1  0.37213000  0.37213000  0.48835700  1
  In  In3  1  0.88377300  0.88377300  0.51164300  1
  As  As4  1  0.00000000  0.00000000  0.00000000  1
  As  As5  1  0.25000000  0.75000000  0.50000000  1
  As  As6  1  0.75000000  0.25000000  0.50000000  1
  Se  Se7  1  0.50000000  0.50000000  0.00000000  1
