# generated using pymatgen
data_Ta6Pb4O19
_symmetry_space_group_name_H-M   'P 1'
_cell_length_a   7.53468329
_cell_length_b   7.53468329
_cell_length_c   18.44780072
_cell_angle_alpha   89.59518810
_cell_angle_beta   89.59518810
_cell_angle_gamma   59.80492555
_symmetry_Int_Tables_number   1
_chemical_formula_structural   Ta6Pb4O19
_chemical_formula_sum   'Ta12 Pb8 O38'
_cell_volume   905.17751377
_cell_formula_units_Z   2
loop_
 _symmetry_equiv_pos_site_id
 _symmetry_equiv_pos_as_xyz
  1  'x, y, z'
loop_
 _atom_site_type_symbol
 _atom_site_label
 _atom_site_symmetry_multiplicity
 _atom_site_fract_x
 _atom_site_fract_y
 _atom_site_fract_z
 _atom_site_occupancy
  Ta  Ta0  1  0.16711600  0.16711600  0.67155400  1
  Ta  Ta1  1  0.66669800  0.16619600  0.66869000  1
  Ta  Ta2  1  0.16619600  0.66669800  0.66869000  1
  Ta  Ta3  1  0.00000000  0.50000000  0.00000000  1
  Ta  Ta4  1  0.33514600  0.33514600  0.83562100  1
  Ta  Ta5  1  0.66485400  0.66485400  0.16437900  1
  Ta  Ta6  1  0.50000000  0.00000000  0.00000000  1
  Ta  Ta7  1  0.33330200  0.83380400  0.33131000  1
  Ta  Ta8  1  0.00000000  0.00000000  0.50000000  1
  Ta  Ta9  1  0.83380400  0.33330200  0.33131000  1
  Ta  Ta10  1  0.50000000  0.50000000  0.00000000  1
  Ta  Ta11  1  0.83288400  0.83288400  0.32844600  1
  Pb  Pb12  1  0.82640700  0.82640700  0.82892000  1
  Pb  Pb13  1  0.00000000  0.00000000  0.00000000  1
  Pb  Pb14  1  0.17359300  0.17359300  0.17108000  1
  Pb  Pb15  1  0.34241700  0.34241700  0.32388200  1
  Pb  Pb16  1  0.50000000  0.50000000  0.50000000  1
  Pb  Pb17  1  0.65758300  0.65758300  0.67611800  1
  Pb  Pb18  1  0.00000000  0.50000000  0.50000000  1
  Pb  Pb19  1  0.50000000  0.00000000  0.50000000  1
  O  O20  1  0.45494000  0.45494000  0.89740800  1
  O  O21  1  0.87269800  0.25263200  0.68390300  1
  O  O22  1  0.07937700  0.46464100  0.89565100  1
  O  O23  1  0.25263200  0.87269800  0.68390300  1
  O  O24  1  0.79645200  0.79645200  0.97649500  1
  O  O25  1  0.20241000  0.59145300  0.01875200  1
  O  O26  1  0.19387000  0.58900300  0.77226500  1
  O  O27  1  0.78724800  0.78724800  0.23141700  1
  O  O28  1  0.46464100  0.07937700  0.89565100  1
  O  O29  1  0.87307600  0.87307600  0.69153800  1
  O  O30  1  0.59145300  0.20241000  0.01875200  1
  O  O31  1  0.40854700  0.79759000  0.98124800  1
  O  O32  1  0.58900300  0.19387000  0.77226500  1
  O  O33  1  0.41099700  0.80613000  0.22773500  1
  O  O34  1  0.12692400  0.12692400  0.30846200  1
  O  O35  1  0.53911300  0.91705600  0.35521200  1
  O  O36  1  0.53535900  0.92062300  0.10434900  1
  O  O37  1  0.12728100  0.12728100  0.55996800  1
  O  O38  1  0.80613000  0.41099700  0.22773500  1
  O  O39  1  0.79759000  0.40854700  0.98124800  1
  O  O40  1  0.21275200  0.21275200  0.76858300  1
  O  O41  1  0.20354800  0.20354800  0.02350500  1
  O  O42  1  0.91705600  0.53911300  0.35521200  1
  O  O43  1  0.33490300  0.33490300  0.44001800  1
  O  O44  1  0.74736800  0.12730200  0.31609700  1
  O  O45  1  0.92062300  0.53535900  0.10434900  1
  O  O46  1  0.74585000  0.12714300  0.56245000  1
  O  O47  1  0.46091000  0.46091000  0.64921700  1
  O  O48  1  0.87285700  0.25415000  0.43755000  1
  O  O49  1  0.12714300  0.74585000  0.56245000  1
  O  O50  1  0.12730200  0.74736800  0.31609700  1
  O  O51  1  0.54506000  0.54506000  0.10259200  1
  O  O52  1  0.53909000  0.53909000  0.35078300  1
  O  O53  1  0.25415000  0.87285700  0.43755000  1
  O  O54  1  0.66509700  0.66509700  0.55998200  1
  O  O55  1  0.08294400  0.46088700  0.64478800  1
  O  O56  1  0.46088700  0.08294400  0.64478800  1
  O  O57  1  0.87271900  0.87271900  0.44003200  1
