# generated using pymatgen
data_Ce4Y6O17
_symmetry_space_group_name_H-M   'P 1'
_cell_length_a   3.78911265
_cell_length_b   3.78911217
_cell_length_c   38.88225543
_cell_angle_alpha   60.83970442
_cell_angle_beta   60.83970824
_cell_angle_gamma   59.99999459
_symmetry_Int_Tables_number   1
_chemical_formula_structural   Ce4Y6O17
_chemical_formula_sum   'Ce4 Y6 O17'
_cell_volume   399.67638601
_cell_formula_units_Z   1
loop_
 _symmetry_equiv_pos_site_id
 _symmetry_equiv_pos_as_xyz
  1  'x, y, z'
loop_
 _atom_site_type_symbol
 _atom_site_label
 _atom_site_symmetry_multiplicity
 _atom_site_fract_x
 _atom_site_fract_y
 _atom_site_fract_z
 _atom_site_occupancy
  Ce  Ce0  1  0.00635700  0.00635700  0.69809300  1
  Ce  Ce1  1  0.00660300  0.00660300  0.79801900  1
  Ce  Ce2  1  0.00685800  0.00685800  0.59794300  1
  Ce  Ce3  1  0.00752900  0.00752900  0.89774100  1
  Y  Y4  1  0.00807000  0.00807000  0.99757900  1
  Y  Y5  1  0.98856100  0.98856100  0.10343200  1
  Y  Y6  1  0.01032900  0.01032900  0.19690100  1
  Y  Y7  1  0.01045400  0.01045400  0.39686400  1
  Y  Y8  1  0.98983500  0.98983500  0.50304900  1
  Y  Y9  1  0.98933700  0.98933700  0.30319900  1
  O  O10  1  0.24852200  0.24852200  0.12544300  1
  O  O11  1  0.78335400  0.78335400  0.06499400  1
  O  O12  1  0.24922900  0.24922900  0.32523100  1
  O  O13  1  0.71701900  0.71701900  0.18489400  1
  O  O14  1  0.78467600  0.78467600  0.26459700  1
  O  O15  1  0.24768900  0.24768900  0.52569300  1
  O  O16  1  0.71717200  0.71717200  0.38484800  1
  O  O17  1  0.24657100  0.24657100  0.62602900  1
  O  O18  1  0.78457300  0.78457300  0.46462800  1
  O  O19  1  0.24653500  0.24653500  0.72603900  1
  O  O20  1  0.74819600  0.74819600  0.57554100  1
  O  O21  1  0.24643400  0.24643400  0.82607000  1
  O  O22  1  0.74772900  0.74772900  0.67568100  1
  O  O23  1  0.24912600  0.24912600  0.92526200  1
  O  O24  1  0.74798500  0.74798500  0.77560500  1
  O  O25  1  0.74937800  0.74937800  0.87518700  1
  O  O26  1  0.71187900  0.71187900  0.98643600  1
