# generated using pymatgen
data_Nb12I21Br
_symmetry_space_group_name_H-M   'P 1'
_cell_length_a   11.71366000
_cell_length_b   13.86182100
_cell_length_c   15.52193500
_cell_angle_alpha   90.00000000
_cell_angle_beta   90.00000000
_cell_angle_gamma   90.00000000
_symmetry_Int_Tables_number   1
_chemical_formula_structural   Nb12I21Br
_chemical_formula_sum   'Nb24 I42 Br2'
_cell_volume   2520.33784597
_cell_formula_units_Z   2
loop_
 _symmetry_equiv_pos_site_id
 _symmetry_equiv_pos_as_xyz
  1  'x, y, z'
loop_
 _atom_site_type_symbol
 _atom_site_label
 _atom_site_symmetry_multiplicity
 _atom_site_fract_x
 _atom_site_fract_y
 _atom_site_fract_z
 _atom_site_occupancy
  Nb  Nb0  1  0.81851100  0.62098200  0.29881600  1
  Nb  Nb1  1  0.81851100  0.12098200  0.70118400  1
  Nb  Nb2  1  0.85080600  0.52053900  0.14210600  1
  Nb  Nb3  1  0.85080600  0.02053900  0.85789400  1
  Nb  Nb4  1  0.87970700  0.92035100  0.70078500  1
  Nb  Nb5  1  0.87970700  0.42035100  0.29921500  1
  Nb  Nb6  1  0.12029300  0.92035100  0.29921500  1
  Nb  Nb7  1  0.12029300  0.42035100  0.70078500  1
  Nb  Nb8  1  0.14919400  0.02053900  0.14210600  1
  Nb  Nb9  1  0.14919400  0.52053900  0.85789400  1
  Nb  Nb10  1  0.18148900  0.62098200  0.70118400  1
  Nb  Nb11  1  0.18148900  0.12098200  0.29881600  1
  Nb  Nb12  1  0.31548800  0.87771500  0.19642600  1
  Nb  Nb13  1  0.31548800  0.37771500  0.80357400  1
  Nb  Nb14  1  0.34609200  0.47709700  0.64752400  1
  Nb  Nb15  1  0.34609200  0.97709700  0.35247600  1
  Nb  Nb16  1  0.37530700  0.57867300  0.80391400  1
  Nb  Nb17  1  0.37530700  0.07867300  0.19608600  1
  Nb  Nb18  1  0.62469300  0.57867300  0.19608600  1
  Nb  Nb19  1  0.62469300  0.07867300  0.80391400  1
  Nb  Nb20  1  0.65390800  0.97709700  0.64752400  1
  Nb  Nb21  1  0.65390800  0.47709700  0.35247600  1
  Nb  Nb22  1  0.68451200  0.87771500  0.80357400  1
  Nb  Nb23  1  0.68451200  0.37771500  0.19642600  1
  I  I24  1  0.78351900  0.72140900  0.13577800  1
  I  I25  1  0.78351900  0.22140900  0.86422200  1
  I  I26  1  0.84395200  0.52175100  0.46282300  1
  I  I27  1  0.84395200  0.02175100  0.53717700  1
  I  I28  1  0.90668900  0.31859700  0.13631400  1
  I  I29  1  0.90668900  0.81859700  0.86368600  1
  I  I30  1  0.92459800  0.80260000  0.36904300  1
  I  I31  1  0.92459800  0.30260000  0.63095700  1
  I  I32  1  0.95403000  0.06350600  0.25086600  1
  I  I33  1  0.95403000  0.56350600  0.74913400  1
  I  I34  1  0.04597000  0.56350600  0.25086600  1
  I  I35  1  0.04597000  0.06350600  0.74913400  1
  I  I36  1  0.07540200  0.80260000  0.63095700  1
  I  I37  1  0.07540200  0.30260000  0.36904300  1
  I  I38  1  0.09331100  0.81859700  0.13631400  1
  I  I39  1  0.09331100  0.31859700  0.86368600  1
  I  I40  1  0.15604800  0.52175100  0.53717700  1
  I  I41  1  0.15604800  0.02175100  0.46282300  1
  I  I42  1  0.21648100  0.22140900  0.13577800  1
  I  I43  1  0.21648100  0.72140900  0.86422200  1
  I  I44  1  0.27774500  0.27610600  0.64155300  1
  I  I45  1  0.27774500  0.77610600  0.35844700  1
  I  I46  1  0.34061000  0.97690200  0.03258700  1
  I  I47  1  0.34061000  0.47690200  0.96741300  1
  I  I48  1  0.40422500  0.67851900  0.64021400  1
  I  I49  1  0.40422500  0.17851900  0.35978600  1
  I  I50  1  0.42751900  0.69733700  0.12868700  1
  I  I51  1  0.42751900  0.19733700  0.87131300  1
  I  I52  1  0.45758500  0.43636500  0.24391700  1
  I  I53  1  0.45758500  0.93636500  0.75608300  1
  I  I54  1  0.50000000  0.92750800  0.50000000  1
  I  I55  1  0.50000000  0.42750800  0.50000000  1
  I  I56  1  0.54241500  0.43636500  0.75608300  1
  I  I57  1  0.54241500  0.93636500  0.24391700  1
  I  I58  1  0.57248100  0.69733700  0.87131300  1
  I  I59  1  0.57248100  0.19733700  0.12868700  1
  I  I60  1  0.59577500  0.17851900  0.64021400  1
  I  I61  1  0.59577500  0.67851900  0.35978600  1
  I  I62  1  0.65939000  0.97690200  0.96741300  1
  I  I63  1  0.65939000  0.47690200  0.03258700  1
  I  I64  1  0.72225500  0.77610600  0.64155300  1
  I  I65  1  0.72225500  0.27610600  0.35844700  1
  Br  Br66  1  0.00000000  0.55739400  0.00000000  1
  Br  Br67  1  0.00000000  0.05739400  0.00000000  1
