# generated using pymatgen
data_Er18Ti14O55
_symmetry_space_group_name_H-M   'P 1'
_cell_length_a   7.22741123
_cell_length_b   7.22741123
_cell_length_c   23.76895474
_cell_angle_alpha   81.62301241
_cell_angle_beta   81.62301241
_cell_angle_gamma   60.15645511
_symmetry_Int_Tables_number   1
_chemical_formula_structural   Er18Ti14O55
_chemical_formula_sum   'Er18 Ti14 O55'
_cell_volume   1061.56132151
_cell_formula_units_Z   1
loop_
 _symmetry_equiv_pos_site_id
 _symmetry_equiv_pos_as_xyz
  1  'x, y, z'
loop_
 _atom_site_type_symbol
 _atom_site_label
 _atom_site_symmetry_multiplicity
 _atom_site_fract_x
 _atom_site_fract_y
 _atom_site_fract_z
 _atom_site_occupancy
  Er  Er0  1  0.61654000  0.61654000  0.13432700  1
  Er  Er1  1  0.49041200  0.49041200  0.00035800  1
  Er  Er2  1  0.12742300  0.61184800  0.12624400  1
  Er  Er3  1  0.01775900  0.01775900  0.99369000  1
  Er  Er4  1  0.37431000  0.37431000  0.37704200  1
  Er  Er5  1  0.61184800  0.12742300  0.12624400  1
  Er  Er6  1  0.37416600  0.87425300  0.37690500  1
  Er  Er7  1  0.24896700  0.24896700  0.25263200  1
  Er  Er8  1  0.13121200  0.13121200  0.12347800  1
  Er  Er9  1  0.62448000  0.62448000  0.62493200  1
  Er  Er10  1  0.87425300  0.37416600  0.37690500  1
  Er  Er11  1  0.49994700  0.49994700  0.50019000  1
  Er  Er12  1  0.12564900  0.62460500  0.62470800  1
  Er  Er13  1  0.86819400  0.37712300  0.87169400  1
  Er  Er14  1  0.75110000  0.75110000  0.74834900  1
  Er  Er15  1  0.62460500  0.12564900  0.62470800  1
  Er  Er16  1  0.37712300  0.86819400  0.87169400  1
  Er  Er17  1  0.87708300  0.87708300  0.87236800  1
  Ti  Ti18  1  0.98601300  0.50589000  0.00137300  1
  Ti  Ti19  1  0.87406500  0.87406500  0.37669800  1
  Ti  Ti20  1  0.75360600  0.75360600  0.25143700  1
  Ti  Ti21  1  0.50589000  0.98601300  0.00137300  1
  Ti  Ti22  1  0.23949600  0.75492400  0.25203900  1
  Ti  Ti23  1  0.99976100  0.99976100  0.50070500  1
  Ti  Ti24  1  0.74933800  0.24960900  0.74959800  1
  Ti  Ti25  1  0.75492400  0.23949600  0.25203900  1
  Ti  Ti26  1  0.37731400  0.37731400  0.87524700  1
  Ti  Ti27  1  0.49960200  0.99968300  0.50083700  1
  Ti  Ti28  1  0.25083600  0.25083600  0.74994300  1
  Ti  Ti29  1  0.12393800  0.12393800  0.62616000  1
  Ti  Ti30  1  0.99968300  0.49960200  0.50083700  1
  Ti  Ti31  1  0.24960900  0.74933800  0.74959800  1
  O  O32  1  0.25846400  0.79325000  0.16283200  1
  O  O33  1  0.18674800  0.18674800  0.02145400  1
  O  O34  1  0.13461400  0.67394100  0.02891000  1
  O  O35  1  0.79325000  0.25846400  0.16283200  1
  O  O36  1  0.58590300  0.99803700  0.41740000  1
  O  O37  1  0.62611000  0.06715600  0.23856600  1
  O  O38  1  0.47477200  0.47477200  0.09282900  1
  O  O39  1  0.45106300  0.45106300  0.26479500  1
  O  O40  1  0.78078300  0.78078300  0.16353400  1
  O  O41  1  0.67394100  0.13461400  0.02891000  1
  O  O42  1  0.45136000  0.83166700  0.26523500  1
  O  O43  1  0.48459900  0.92914000  0.08297900  1
  O  O44  1  0.21750500  0.21750500  0.34594000  1
  O  O45  1  0.06715600  0.62611000  0.23856600  1
  O  O46  1  0.27418900  0.27418900  0.15942400  1
  O  O47  1  0.99803700  0.58590300  0.41740000  1
  O  O48  1  0.83629900  0.24886600  0.66559600  1
  O  O49  1  0.89790100  0.31136400  0.47903500  1
  O  O50  1  0.75073900  0.75073900  0.33381800  1
  O  O51  1  0.68912400  0.68912400  0.51995200  1
  O  O52  1  0.99839500  0.99839500  0.41746200  1
  O  O53  1  0.06538900  0.06538900  0.24163600  1
  O  O54  1  0.92914000  0.48459900  0.08297900  1
  O  O55  1  0.83166700  0.45136000  0.26523500  1
  O  O56  1  0.68966800  0.10126800  0.51987200  1
  O  O57  1  0.46811500  0.46811500  0.59384000  1
  O  O58  1  0.31136400  0.89790100  0.47903500  1
  O  O59  1  0.74947600  0.16579500  0.33432800  1
  O  O60  1  0.53169100  0.53169100  0.40645000  1
  O  O61  1  0.24886600  0.83629900  0.66559600  1
  O  O62  1  0.11547100  0.50232100  0.92130400  1
  O  O63  1  0.15060600  0.55957600  0.72793700  1
  O  O64  1  0.00196600  0.00196600  0.58198400  1
  O  O65  1  0.93944900  0.93944900  0.76636300  1
  O  O66  1  0.24783500  0.24783500  0.66642500  1
  O  O67  1  0.31181900  0.31181900  0.47896900  1
  O  O68  1  0.16579500  0.74947600  0.33432800  1
  O  O69  1  0.10126800  0.68966800  0.51987200  1
  O  O70  1  0.93934700  0.35324800  0.76899500  1
  O  O71  1  0.00258800  0.41382200  0.58213300  1
  O  O72  1  0.72279600  0.72279600  0.84206700  1
  O  O73  1  0.50232100  0.11547100  0.92130400  1
  O  O74  1  0.78219300  0.78219300  0.65474500  1
  O  O75  1  0.55957600  0.15060600  0.72793700  1
  O  O76  1  0.39281000  0.83177800  0.97290500  1
  O  O77  1  0.25391100  0.25391100  0.83204700  1
  O  O78  1  0.51304100  0.51304100  0.90519900  1
  O  O79  1  0.56107400  0.56107400  0.72843000  1
  O  O80  1  0.41382200  0.00258800  0.58213300  1
  O  O81  1  0.35324800  0.93934700  0.76899500  1
  O  O82  1  0.83177800  0.39281000  0.97290500  1
  O  O83  1  0.23915600  0.67303400  0.83040500  1
  O  O84  1  0.03223900  0.03223900  0.90336200  1
  O  O85  1  0.78863300  0.78863300  0.97431300  1
  O  O86  1  0.67303400  0.23915600  0.83040500  1
