# generated using pymatgen
data_Ce4Si4N7ClO3
_symmetry_space_group_name_H-M   'P 1'
_cell_length_a   9.79124881
_cell_length_b   10.50679124
_cell_length_c   10.86901000
_cell_angle_alpha   90.00000000
_cell_angle_beta   90.00000000
_cell_angle_gamma   90.00000000
_symmetry_Int_Tables_number   1
_chemical_formula_structural   Ce4Si4N7ClO3
_chemical_formula_sum   'Ce16 Si16 N28 Cl4 O12'
_cell_volume   1118.14513468
_cell_formula_units_Z   4
loop_
 _symmetry_equiv_pos_site_id
 _symmetry_equiv_pos_as_xyz
  1  'x, y, z'
loop_
 _atom_site_type_symbol
 _atom_site_label
 _atom_site_symmetry_multiplicity
 _atom_site_fract_x
 _atom_site_fract_y
 _atom_site_fract_z
 _atom_site_occupancy
  Ce  Ce0  1  0.06437407  0.19578608  0.67074713  1
  Ce  Ce1  1  0.09485980  0.54955851  0.42045964  1
  Ce  Ce2  1  0.15770985  0.68338668  0.06266978  1
  Ce  Ce3  1  0.21785641  0.96701605  0.30284626  1
  Ce  Ce4  1  0.28214359  0.46701605  0.69715374  1
  Ce  Ce5  1  0.34229015  0.18338668  0.93733022  1
  Ce  Ce6  1  0.40514020  0.04955851  0.57954036  1
  Ce  Ce7  1  0.43562593  0.69578608  0.32925287  1
  Ce  Ce8  1  0.56437407  0.80421392  0.82925287  1
  Ce  Ce9  1  0.59485980  0.45044149  0.07954036  1
  Ce  Ce10  1  0.65770985  0.31661332  0.43733022  1
  Ce  Ce11  1  0.71785641  0.03298395  0.19715374  1
  Ce  Ce12  1  0.78214359  0.53298395  0.80284626  1
  Ce  Ce13  1  0.84229015  0.81661332  0.56266978  1
  Ce  Ce14  1  0.90514020  0.95044149  0.92045964  1
  Ce  Ce15  1  0.93562593  0.30421392  0.17074713  1
  Si  Si16  1  0.05886641  0.70612437  0.77292230  1
  Si  Si17  1  0.05147595  0.42469813  0.92521738  1
  Si  Si18  1  0.21232815  0.26383528  0.41346258  1
  Si  Si19  1  0.23986055  0.41220592  0.17472856  1
  Si  Si20  1  0.26013945  0.91220592  0.82527144  1
  Si  Si21  1  0.28767185  0.76383528  0.58653742  1
  Si  Si22  1  0.44852405  0.92469813  0.07478262  1
  Si  Si23  1  0.44113359  0.20612437  0.22707770  1
  Si  Si24  1  0.55886641  0.29387563  0.72707770  1
  Si  Si25  1  0.55147595  0.57530187  0.57478262  1
  Si  Si26  1  0.71232815  0.73616472  0.08653742  1
  Si  Si27  1  0.73986055  0.58779408  0.32527144  1
  Si  Si28  1  0.76013945  0.08779408  0.67472856  1
  Si  Si29  1  0.78767185  0.23616472  0.91346258  1
  Si  Si30  1  0.94852405  0.07530187  0.42521738  1
  Si  Si31  1  0.94113359  0.79387563  0.27292230  1
  N  N32  1  0.04828155  0.56099387  0.84099970  1
  N  N33  1  0.12450982  0.69835390  0.62445537  1
  N  N34  1  0.11456537  0.45284074  0.07006595  1
  N  N35  1  0.12995447  0.81522687  0.87753852  1
  N  N36  1  0.11578745  0.12774637  0.44703897  1
  N  N37  1  0.14224875  0.35403904  0.29471807  1
  N  N38  1  0.19881370  0.36067317  0.54086638  1
  N  N39  1  0.30118630  0.86067317  0.45913362  1
  N  N40  1  0.35775125  0.85403904  0.70528193  1
  N  N41  1  0.38421255  0.62774637  0.55296103  1
  N  N42  1  0.37004553  0.31522687  0.12246148  1
  N  N43  1  0.38543463  0.95284074  0.92993405  1
  N  N44  1  0.37549018  0.19835390  0.37554463  1
  N  N45  1  0.45171845  0.06099387  0.15900030  1
  N  N46  1  0.54828155  0.43900613  0.65900030  1
  N  N47  1  0.62450982  0.30164610  0.87554463  1
  N  N48  1  0.61456537  0.54715926  0.42993405  1
  N  N49  1  0.62995447  0.18477313  0.62246148  1
  N  N50  1  0.61578745  0.87225363  0.05296103  1
  N  N51  1  0.64224875  0.64596096  0.20528193  1
  N  N52  1  0.69881370  0.63932683  0.95913362  1
  N  N53  1  0.80118630  0.13932683  0.04086638  1
  N  N54  1  0.85775125  0.14596096  0.79471807  1
  N  N55  1  0.88421255  0.37225363  0.94703897  1
  N  N56  1  0.87004553  0.68477313  0.37753852  1
  N  N57  1  0.88543463  0.04715926  0.57006595  1
  N  N58  1  0.87549018  0.80164610  0.12445537  1
  N  N59  1  0.95171845  0.93900613  0.34099970  1
  Cl  Cl60  1  0.11093050  0.08662894  0.07634179  1
  Cl  Cl61  1  0.38906950  0.58662894  0.92365821  1
  Cl  Cl62  1  0.61093050  0.91337106  0.42365821  1
  Cl  Cl63  1  0.88906950  0.41337106  0.57634179  1
  O  O64  1  0.10493011  0.74224449  0.26300678  1
  O  O65  1  0.15221826  0.32233116  0.84804406  1
  O  O66  1  0.19438556  0.05061524  0.77924858  1
  O  O67  1  0.30561444  0.55061524  0.22075142  1
  O  O68  1  0.34778174  0.82233116  0.15195594  1
  O  O69  1  0.39506989  0.24224449  0.73699322  1
  O  O70  1  0.60493011  0.25775551  0.23699322  1
  O  O71  1  0.65221826  0.67766884  0.65195594  1
  O  O72  1  0.69438556  0.94938476  0.72075142  1
  O  O73  1  0.80561444  0.44938476  0.27924858  1
  O  O74  1  0.84778174  0.17766884  0.34804406  1
  O  O75  1  0.89506989  0.75775551  0.76300678  1
