# generated using pymatgen
data_Cr2CoSe4
_symmetry_space_group_name_H-M   'P 1'
_cell_length_a   4.85192508
_cell_length_b   5.58760914
_cell_length_c   49.38875093
_cell_angle_alpha   121.08558738
_cell_angle_beta   103.83926851
_cell_angle_gamma   84.29036171
_symmetry_Int_Tables_number   1
_chemical_formula_structural   Cr2CoSe4
_chemical_formula_sum   'Cr16 Co8 Se32'
_cell_volume   1112.93076023
_cell_formula_units_Z   8
loop_
 _symmetry_equiv_pos_site_id
 _symmetry_equiv_pos_as_xyz
  1  'x, y, z'
loop_
 _atom_site_type_symbol
 _atom_site_label
 _atom_site_symmetry_multiplicity
 _atom_site_fract_x
 _atom_site_fract_y
 _atom_site_fract_z
 _atom_site_occupancy
  Cr  Cr0  1  0.27479857  0.29920558  0.94268519  1
  Cr  Cr1  1  0.25641569  0.29085191  0.85521764  1
  Cr  Cr2  1  0.67125192  0.79107766  0.93467359  1
  Cr  Cr3  1  0.36042315  0.11256106  0.72354326  1
  Cr  Cr4  1  0.63745582  0.76108345  0.77289191  1
  Cr  Cr5  1  0.34579761  0.20716426  0.60161270  1
  Cr  Cr6  1  0.62538578  0.88449109  0.65159885  1
  Cr  Cr7  1  0.36521135  0.13026187  0.47249444  1
  Cr  Cr8  1  0.62904789  0.83180474  0.52351540  1
  Cr  Cr9  1  0.36050332  0.23622393  0.35293396  1
  Cr  Cr10  1  0.63943947  0.87559171  0.40092084  1
  Cr  Cr11  1  0.24215603  0.22137314  0.18368331  1
  Cr  Cr12  1  0.74440702  0.70883290  0.26982560  1
  Cr  Cr13  1  0.18653297  0.26044175  0.02123347  1
  Cr  Cr14  1  0.68718426  0.72852229  0.18201707  1
  Cr  Cr15  1  0.81788504  0.73481126  0.10297137  1
  Co  Co16  1  0.96231359  0.97033282  0.87436650  1
  Co  Co17  1  0.95480754  0.00481334  0.74976866  1
  Co  Co18  1  0.03297306  0.00940980  0.62648502  1
  Co  Co19  1  0.02259084  0.00854130  0.50140932  1
  Co  Co20  1  0.04239172  -0.01452937  0.37498012  1
  Co  Co21  1  0.04316412  0.03596364  0.25138720  1
  Co  Co22  1  0.37705409  0.29250548  0.10652661  1
  Co  Co23  1  0.69352093  0.71659526  0.02163022  1
  Se  Se24  1  0.09826212  0.77075454  0.90713405  1
  Se  Se25  1  0.43520150  0.82010877  0.97897006  1
  Se  Se26  1  0.15786024  0.89141144  0.78938530  1
  Se  Se27  1  0.58801390  0.26720876  0.90306195  1
  Se  Se28  1  0.25430460  0.65746791  0.84268289  1
  Se  Se29  1  0.15844931  0.81458704  0.66044934  1
  Se  Se30  1  0.19574544  0.88301071  0.03774123  1
  Se  Se31  1  0.64148189  0.32777546  0.77956151  1
  Se  Se32  1  0.29207182  0.67079207  0.72175644  1
  Se  Se33  1  0.17127418  0.84122342  0.53760127  1
  Se  Se34  1  0.75109804  0.12316842  0.83838682  1
  Se  Se35  1  0.69054827  0.33002173  0.65405728  1
  Se  Se36  1  0.33606210  0.67307313  0.59633789  1
  Se  Se37  1  0.16891261  0.78901274  0.40839822  1
  Se  Se38  1  0.83066621  0.20350805  0.71638423  1
  Se  Se39  1  0.67067187  0.31719993  0.52807592  1
  Se  Se40  1  0.31319774  0.65678215  0.46975331  1
  Se  Se41  1  0.25266058  0.87868557  0.28738935  1
  Se  Se42  1  0.81726019  0.14485714  0.58835270  1
  Se  Se43  1  0.71105342  0.32063019  0.40349789  1
  Se  Se44  1  0.35337262  0.66377709  0.34520477  1
  Se  Se45  1  0.78546767  0.08542510  0.08360571  1
  Se  Se46  1  0.83889721  0.17510262  0.46438447  1
  Se  Se47  1  0.75079626  0.34675225  0.28314792  1
  Se  Se48  1  0.40924100  0.73501846  0.22246968  1
  Se  Se49  1  0.88536746  0.29549424  0.97332471  1
  Se  Se50  1  0.84055274  0.10534070  0.33600620  1
  Se  Se51  1  0.29532275  0.58681033  0.08505477  1
  Se  Se52  1  0.60273983  0.19236613  0.14871825  1
  Se  Se53  1  0.89628377  0.24013924  0.21927060  1
  Se  Se54  1  0.71802760  0.40619339  0.04039207  1
  Se  Se55  1  0.11642325  0.68837039  0.15107090  1
