# generated using pymatgen
data_Na3Zr2Si2PO12
_symmetry_space_group_name_H-M   'P 1'
_cell_length_a   9.16023190
_cell_length_b   9.17160636
_cell_length_c   18.59183150
_cell_angle_alpha   61.46555904
_cell_angle_beta   61.37718037
_cell_angle_gamma   60.02358252
_symmetry_Int_Tables_number   1
_chemical_formula_structural   Na3Zr2Si2PO12
_chemical_formula_sum   'Na12 Zr8 Si8 P4 O48'
_cell_volume   1127.82755017
_cell_formula_units_Z   4
loop_
 _symmetry_equiv_pos_site_id
 _symmetry_equiv_pos_as_xyz
  1  'x, y, z'
loop_
 _atom_site_type_symbol
 _atom_site_label
 _atom_site_symmetry_multiplicity
 _atom_site_fract_x
 _atom_site_fract_y
 _atom_site_fract_z
 _atom_site_occupancy
  Na  Na0  1  0.27303700  0.07829100  0.18721800  1
  Na  Na1  1  0.05712300  0.30635000  0.45813700  1
  Na  Na2  1  0.62936300  0.97223300  0.27228800  1
  Na  Na3  1  0.59839200  0.40257200  0.12478200  1
  Na  Na4  1  0.31350700  0.05388900  0.71395400  1
  Na  Na5  1  0.38177000  0.60608000  0.38001500  1
  Na  Na6  1  0.05564300  0.30508200  0.95750900  1
  Na  Na7  1  0.95046000  0.68468000  0.03739400  1
  Na  Na8  1  0.59771100  0.39344300  0.62945500  1
  Na  Na9  1  0.38321300  0.60285000  0.88053500  1
  Na  Na10  1  0.94582600  0.68878600  0.53764900  1
  Na  Na11  1  0.68954700  0.94948800  0.79147400  1
  Zr  Zr12  1  0.14912200  0.65059000  0.28122200  1
  Zr  Zr13  1  0.64410100  0.14588100  0.02844100  1
  Zr  Zr14  1  0.15445400  0.64946500  0.77921000  1
  Zr  Zr15  1  0.34918300  0.85160200  0.47032800  1
  Zr  Zr16  1  0.64471400  0.14397600  0.52866700  1
  Zr  Zr17  1  0.84956800  0.35008900  0.22177500  1
  Zr  Zr18  1  0.34778200  0.84933300  0.97097600  1
  Zr  Zr19  1  0.85645700  0.34808900  0.71937300  1
  Si  Si20  1  0.24711600  0.47072700  0.11984700  1
  Si  Si21  1  0.04503100  0.95694700  0.37568200  1
  Si  Si22  1  0.47110400  0.24815800  0.36653100  1
  Si  Si23  1  0.52762100  0.75154700  0.13014900  1
  Si  Si24  1  0.24863900  0.47283900  0.61797400  1
  Si  Si25  1  0.04238900  0.95532400  0.87560700  1
  Si  Si26  1  0.47093100  0.24713100  0.86818400  1
  Si  Si27  1  0.52859300  0.75062100  0.63119000  1
  P  P28  1  0.95444700  0.04276000  0.12691400  1
  P  P29  1  0.75146100  0.52974000  0.38085900  1
  P  P30  1  0.95593700  0.04442000  0.62508500  1
  P  P31  1  0.75245100  0.52859900  0.87966600  1
  O  O32  1  0.10903200  0.00185700  0.04496400  1
  O  O33  1  0.99936900  0.12128500  0.29030400  1
  O  O34  1  0.07099400  0.42799800  0.14554900  1
  O  O35  1  0.26161500  0.63168600  0.02684400  1
  O  O36  1  0.10865400  0.00549200  0.54301700  1
  O  O37  1  0.42425700  0.28982100  0.11204600  1
  O  O38  1  0.23698300  0.52961000  0.19280100  1
  O  O39  1  0.06336200  0.76855500  0.37579400  1
  O  O40  1  0.00620300  0.11906700  0.78858100  1
  O  O41  1  0.28558900  0.42100100  0.36123800  1
  O  O42  1  0.43208200  0.06951900  0.39473000  1
  O  O43  1  0.06716100  0.43766600  0.64534700  1
  O  O44  1  0.47847900  0.74857500  0.05709300  1
  O  O45  1  0.77460100  0.07549400  0.12263000  1
  O  O46  1  0.36062100  0.74220700  0.22083800  1
  O  O47  1  0.62897700  0.26920400  0.27288800  1
  O  O48  1  0.23691300  0.93185500  0.37442800  1
  O  O49  1  0.52635500  0.24641500  0.43913300  1
  O  O50  1  0.26464200  0.63298500  0.52527200  1
  O  O51  1  0.55719700  0.93598000  0.10320500  1
  O  O52  1  0.71158000  0.58211200  0.13949400  1
  O  O53  1  0.42255100  0.28984800  0.61133000  1
  O  O54  1  0.24258200  0.52960100  0.69101400  1
  O  O55  1  0.94561100  0.21921700  0.12463700  1
  O  O56  1  0.05913500  0.76779400  0.87573500  1
  O  O57  1  0.75319600  0.48166200  0.31081800  1
  O  O58  1  0.58967900  0.70467000  0.38687600  1
  O  O59  1  0.28543300  0.41799500  0.86045700  1
  O  O60  1  0.43426800  0.06546900  0.89847700  1
  O  O61  1  0.73409900  0.37862600  0.46833800  1
  O  O62  1  0.47489300  0.75486300  0.55797400  1
  O  O63  1  0.77498300  0.07170100  0.62464000  1
  O  O64  1  0.36512000  0.73797700  0.72370100  1
  O  O65  1  0.63483500  0.25983000  0.77680100  1
  O  O66  1  0.23429900  0.92924000  0.87549000  1
  O  O67  1  0.51885700  0.25374600  0.94103800  1
  O  O68  1  0.92382900  0.55905200  0.35541600  1
  O  O69  1  0.56290100  0.93128100  0.60546100  1
  O  O70  1  0.71043600  0.57717500  0.64004700  1
  O  O71  1  0.98092000  0.89143100  0.21033000  1
  O  O72  1  0.94223600  0.22269700  0.62322700  1
  O  O73  1  0.75276500  0.47820200  0.81118000  1
  O  O74  1  0.58868800  0.70204700  0.88761100  1
  O  O75  1  0.88535600  0.99568600  0.46387500  1
  O  O76  1  0.73999000  0.37706400  0.96732300  1
  O  O77  1  0.92260900  0.56439200  0.85215000  1
  O  O78  1  0.98980100  0.89261900  0.70800400  1
  O  O79  1  0.88187400  0.99525000  0.96311400  1
