# generated using pymatgen
data_Na11La7Th2Ti20O60
_symmetry_space_group_name_H-M   'P 1'
_cell_length_a   5.50818100
_cell_length_b   5.50865732
_cell_length_c   38.84190001
_cell_angle_alpha   89.94154169
_cell_angle_beta   89.97806375
_cell_angle_gamma   89.79483900
_symmetry_Int_Tables_number   1
_chemical_formula_structural   Na11La7Th2Ti20O60
_chemical_formula_sum   'Na11 La7 Th2 Ti20 O60'
_cell_volume   1178.55914935
_cell_formula_units_Z   1
loop_
 _symmetry_equiv_pos_site_id
 _symmetry_equiv_pos_as_xyz
  1  'x, y, z'
loop_
 _atom_site_type_symbol
 _atom_site_label
 _atom_site_symmetry_multiplicity
 _atom_site_fract_x
 _atom_site_fract_y
 _atom_site_fract_z
 _atom_site_occupancy
  Na  Na0  1  0.01071800  0.00728700  0.15055900  1
  Na  Na1  1  0.01439000  0.00716800  0.34796100  1
  Na  Na2  1  0.01393300  0.00541000  0.55361900  1
  Na  Na3  1  0.00614800  0.00731800  0.74872200  1
  Na  Na4  1  0.00575100  0.00690200  0.94889600  1
  Na  Na5  1  0.49551500  0.50665000  0.04901000  1
  Na  Na6  1  0.50134700  0.50888200  0.64738000  1
  Na  Na7  1  0.50243800  0.50598800  0.25363200  1
  Na  Na8  1  0.49407600  0.50727400  0.84887600  1
  Na  Na9  1  0.51340900  0.49387100  0.34557300  1
  Na  Na10  1  0.51381100  0.49678500  0.55610300  1
  La  La11  1  0.50587400  0.49427900  0.74867400  1
  La  La12  1  0.50667700  0.49450800  0.94906000  1
  La  La13  1  0.99993400  0.99584400  0.25280700  1
  La  La14  1  0.99150300  0.99404400  0.04862000  1
  La  La15  1  0.00153500  0.99461200  0.64839600  1
  La  La16  1  0.99523100  0.99937700  0.45004300  1
  La  La17  1  0.99281400  0.99430000  0.84897000  1
  Th  Th18  1  0.49003600  0.49899000  0.45017500  1
  Th  Th19  1  0.52466400  0.49495900  0.15060000  1
  Ti  Ti20  1  0.99993400  0.50959900  0.99904900  1
  Ti  Ti21  1  0.00794600  0.50879800  0.09971400  1
  Ti  Ti22  1  0.01127000  0.50568700  0.20091500  1
  Ti  Ti23  1  0.01221500  0.50373800  0.30150400  1
  Ti  Ti24  1  0.00066300  0.49506600  0.39629700  1
  Ti  Ti25  1  0.99938500  0.51025400  0.79869600  1
  Ti  Ti26  1  0.50295700  0.00614500  0.09921700  1
  Ti  Ti27  1  0.49845700  0.00660600  0.99887200  1
  Ti  Ti28  1  0.49873800  0.99961400  0.50422800  1
  Ti  Ti29  1  0.51197900  0.00475100  0.30177000  1
  Ti  Ti30  1  0.50685100  0.00240800  0.20170500  1
  Ti  Ti31  1  0.51576300  0.00495400  0.59901700  1
  Ti  Ti32  1  0.50043000  0.01063800  0.89877400  1
  Ti  Ti33  1  0.50151800  0.99993700  0.39603700  1
  Ti  Ti34  1  0.50475000  0.00876600  0.69841500  1
  Ti  Ti35  1  0.49847400  0.00636500  0.79858500  1
  Ti  Ti36  1  0.99759800  0.49619900  0.50401300  1
  Ti  Ti37  1  0.00452300  0.50597800  0.69868300  1
  Ti  Ti38  1  0.01574500  0.50076400  0.59911900  1
  Ti  Ti39  1  0.00179700  0.50662500  0.89877600  1
  O  O40  1  0.00067600  0.42045700  0.05137100  1
  O  O41  1  0.99540400  0.42682600  0.24871100  1
  O  O42  1  0.00690300  0.43023200  0.44936600  1
  O  O43  1  0.99532700  0.42801700  0.65037500  1
  O  O44  1  0.00211800  0.42294500  0.85091200  1
  O  O45  1  0.26247500  0.26682900  0.18934200  1
  O  O46  1  0.24411100  0.24937200  0.59355400  1
  O  O47  1  0.25928600  0.25891600  0.39452300  1
  O  O48  1  0.26426300  0.26690100  0.11053300  1
  O  O49  1  0.24316500  0.24637900  0.30576700  1
  O  O50  1  0.25539900  0.25286800  0.79289600  1
  O  O51  1  0.25511300  0.25187700  0.99307400  1
  O  O52  1  0.25889200  0.25912200  0.50429900  1
  O  O53  1  0.25368200  0.25338900  0.70831800  1
  O  O54  1  0.25680100  0.25306400  0.90867900  1
  O  O55  1  0.23970200  0.75728000  0.20648200  1
  O  O56  1  0.24205100  0.75196200  0.00870000  1
  O  O57  1  0.23841300  0.75900600  0.09279400  1
  O  O58  1  0.23849100  0.75021700  0.29161000  1
  O  O59  1  0.25031600  0.74811200  0.48883100  1
  O  O60  1  0.24330500  0.75056400  0.69298800  1
  O  O61  1  0.23766400  0.75322100  0.60800200  1
  O  O62  1  0.25064200  0.74792300  0.41069900  1
  O  O63  1  0.24350600  0.75203200  0.89304700  1
  O  O64  1  0.24224400  0.75303700  0.80842600  1
  O  O65  1  0.49421400  0.90717900  0.14969000  1
  O  O66  1  0.48819700  0.92160600  0.35039800  1
  O  O67  1  0.48799300  0.92238600  0.54924200  1
  O  O68  1  0.49633400  0.92382100  0.75076800  1
  O  O69  1  0.49713300  0.92269400  0.95105700  1
  O  O70  1  0.50089200  0.06907700  0.05112500  1
  O  O71  1  0.49381800  0.06923600  0.24892700  1
  O  O72  1  0.49548800  0.06908100  0.65042000  1
  O  O73  1  0.49335600  0.08211700  0.44937900  1
  O  O74  1  0.50287000  0.06741200  0.85084600  1
  O  O75  1  0.74751800  0.24828000  0.10972500  1
  O  O76  1  0.74715800  0.24829600  0.19031800  1
  O  O77  1  0.75370400  0.23518700  0.30598200  1
  O  O78  1  0.75022500  0.24438700  0.70812100  1
  O  O79  1  0.75797400  0.23927100  0.39530500  1
  O  O80  1  0.75380200  0.23762600  0.59340400  1
  O  O81  1  0.75658500  0.24042400  0.50358100  1
  O  O82  1  0.75214600  0.24314300  0.79300700  1
  O  O83  1  0.75244200  0.24315400  0.90846200  1
  O  O84  1  0.75207000  0.24189800  0.99322200  1
  O  O85  1  0.74204200  0.74501100  0.09259400  1
  O  O86  1  0.74592500  0.74297500  0.00860000  1
  O  O87  1  0.74026400  0.74517700  0.20675800  1
  O  O88  1  0.74682700  0.75030300  0.29116700  1
  O  O89  1  0.73824700  0.73920000  0.48839700  1
  O  O90  1  0.74524500  0.74540000  0.69300100  1
  O  O91  1  0.73824300  0.73904300  0.41109800  1
  O  O92  1  0.74676200  0.75269900  0.60847000  1
  O  O93  1  0.74666400  0.74402400  0.80845800  1
  O  O94  1  0.74688000  0.74299700  0.89312000  1
  O  O95  1  0.97515600  0.57259200  0.14980800  1
  O  O96  1  0.98668400  0.57589100  0.35037700  1
  O  O97  1  0.98594900  0.57600000  0.54911900  1
  O  O98  1  0.99457300  0.56786300  0.75067700  1
  O  O99  1  0.99587500  0.56666200  0.95101800  1
