# generated using pymatgen
data_Y2BeAlBO7
_symmetry_space_group_name_H-M   'P 1'
_cell_length_a   7.40503300
_cell_length_b   7.51958100
_cell_length_c   10.06476800
_cell_angle_alpha   90.00000000
_cell_angle_beta   90.00000000
_cell_angle_gamma   90.00000000
_symmetry_Int_Tables_number   1
_chemical_formula_structural   Y2BeAlBO7
_chemical_formula_sum   'Y8 Be4 Al4 B4 O28'
_cell_volume   560.43391457
_cell_formula_units_Z   4
loop_
 _symmetry_equiv_pos_site_id
 _symmetry_equiv_pos_as_xyz
  1  'x, y, z'
loop_
 _atom_site_type_symbol
 _atom_site_label
 _atom_site_symmetry_multiplicity
 _atom_site_fract_x
 _atom_site_fract_y
 _atom_site_fract_z
 _atom_site_occupancy
  Y  Y0  1  0.07185000  0.28167600  0.10518200  1
  Y  Y1  1  0.50179300  0.77407700  0.26911300  1
  Y  Y2  1  0.92815000  0.78167600  0.39481800  1
  Y  Y3  1  0.49820700  0.27407700  0.23088700  1
  Y  Y4  1  0.99820700  0.22592300  0.76911300  1
  Y  Y5  1  0.42815000  0.71832400  0.60518200  1
  Y  Y6  1  0.00179300  0.72592300  0.73088700  1
  Y  Y7  1  0.57185000  0.21832400  0.89481800  1
  Be  Be8  1  0.41631300  0.85867900  0.88616200  1
  Be  Be9  1  0.58368700  0.35867900  0.61383800  1
  Be  Be10  1  0.08368700  0.14132100  0.38616200  1
  Be  Be11  1  0.91631300  0.64132100  0.11383800  1
  Al  Al12  1  0.76469100  0.92105400  0.01272800  1
  Al  Al13  1  0.73530900  0.07894600  0.51272800  1
  Al  Al14  1  0.23530900  0.42105400  0.48727200  1
  Al  Al15  1  0.26469000  0.57894600  0.98727200  1
  B  B16  1  0.82473900  0.53029100  0.93984200  1
  B  B17  1  0.17526100  0.03029100  0.56015800  1
  B  B18  1  0.67526100  0.46970900  0.43984200  1
  B  B19  1  0.32473900  0.96970900  0.06015800  1
  O  O20  1  0.72409600  0.54311000  0.32302100  1
  O  O21  1  0.41454300  0.40636200  0.04888600  1
  O  O22  1  0.80057300  0.80107400  0.17232600  1
  O  O23  1  0.62020300  0.08821200  0.09667400  1
  O  O24  1  0.11585300  0.58835200  0.13720400  1
  O  O25  1  0.30893500  0.04738700  0.93623700  1
  O  O26  1  0.89150200  0.70879000  0.94547200  1
  O  O27  1  0.10849800  0.20879000  0.55452800  1
  O  O28  1  0.69106500  0.54738700  0.56376300  1
  O  O29  1  0.88414700  0.08835200  0.36279600  1
  O  O30  1  0.37979700  0.58821200  0.40332600  1
  O  O31  1  0.19942700  0.30107400  0.32767400  1
  O  O32  1  0.58545700  0.90636200  0.45111400  1
  O  O33  1  0.27590400  0.04311000  0.17697900  1
  O  O34  1  0.77590400  0.45689000  0.82302100  1
  O  O35  1  0.38414700  0.41164800  0.63720400  1
  O  O36  1  0.87979700  0.91178800  0.59667400  1
  O  O37  1  0.69942700  0.19892600  0.67232600  1
  O  O38  1  0.08545700  0.59363800  0.54888600  1
  O  O39  1  0.60849800  0.29121000  0.44547200  1
  O  O40  1  0.19106500  0.95261300  0.43623700  1
  O  O41  1  0.39150200  0.79121000  0.05452800  1
  O  O42  1  0.80893500  0.45261300  0.06376300  1
  O  O43  1  0.91454300  0.09363800  0.95111400  1
  O  O44  1  0.30057300  0.69892600  0.82767400  1
  O  O45  1  0.12020300  0.41178800  0.90332600  1
  O  O46  1  0.61585300  0.91164800  0.86279600  1
  O  O47  1  0.22409600  0.95689000  0.67697900  1
