# generated using pymatgen
data_Nd3O2F5
_symmetry_space_group_name_H-M   'P 1'
_cell_length_a   3.84161300
_cell_length_b   5.61409200
_cell_length_c   14.99465288
_cell_angle_alpha   86.68331458
_cell_angle_beta   90.00000000
_cell_angle_gamma   90.00000000
_symmetry_Int_Tables_number   1
_chemical_formula_structural   Nd3O2F5
_chemical_formula_sum   'Nd6 O4 F10'
_cell_volume   322.85053149
_cell_formula_units_Z   2
loop_
 _symmetry_equiv_pos_site_id
 _symmetry_equiv_pos_as_xyz
  1  'x, y, z'
loop_
 _atom_site_type_symbol
 _atom_site_label
 _atom_site_symmetry_multiplicity
 _atom_site_fract_x
 _atom_site_fract_y
 _atom_site_fract_z
 _atom_site_occupancy
  Nd  Nd0  1  0.00000000  0.92926300  0.09332200  1
  Nd  Nd1  1  0.00000000  0.83442600  0.73835100  1
  Nd  Nd2  1  0.00000000  0.80264000  0.36484400  1
  Nd  Nd3  1  0.50000000  0.34395300  0.51505600  1
  Nd  Nd4  1  0.50000000  0.41910300  0.21665800  1
  Nd  Nd5  1  0.50000000  0.42433600  0.90610900  1
  O  O6  1  0.00000000  0.66298500  0.22706700  1
  O  O7  1  0.50000000  0.62164600  0.77372800  1
  O  O8  1  0.50000000  0.56654700  0.37122900  1
  O  O9  1  0.50000000  0.04443100  0.15652000  1
  F  F10  1  0.00000000  0.19124500  0.95279100  1
  F  F11  1  0.00000000  0.10012400  0.48438200  1
  F  F12  1  0.00000000  0.57038900  0.50078700  1
  F  F13  1  0.00000000  0.67608300  0.89557700  1
  F  F14  1  0.00000000  0.35692600  0.11339800  1
  F  F15  1  0.50000000  0.68099500  0.03443000  1
  F  F16  1  0.50000000  0.09399800  0.64810300  1
  F  F17  1  0.50000000  0.08214900  0.82269300  1
  F  F18  1  0.50000000  0.64362400  0.60584400  1
  F  F19  1  0.50000000  0.08913700  0.34044400  1
