# generated using pymatgen
data_DyZr9Si9PO40
_symmetry_space_group_name_H-M   'P 1'
_cell_length_a   5.64106362
_cell_length_b   5.64106362
_cell_length_c   47.67077800
_cell_angle_alpha   90.00000000
_cell_angle_beta   90.00000000
_cell_angle_gamma   115.37492257
_symmetry_Int_Tables_number   1
_chemical_formula_structural   DyZr9Si9PO40
_chemical_formula_sum   'Dy2 Zr18 Si18 P2 O80'
_cell_volume   1370.60849771
_cell_formula_units_Z   2
loop_
 _symmetry_equiv_pos_site_id
 _symmetry_equiv_pos_as_xyz
  1  'x, y, z'
loop_
 _atom_site_type_symbol
 _atom_site_label
 _atom_site_symmetry_multiplicity
 _atom_site_fract_x
 _atom_site_fract_y
 _atom_site_fract_z
 _atom_site_occupancy
  Dy  Dy0  1  0.50000000  0.00000000  0.94976000  1
  Dy  Dy1  1  0.00000000  0.50000000  0.05024000  1
  Zr  Zr2  1  0.50000000  0.00000000  0.15018000  1
  Zr  Zr3  1  0.00000000  0.50000000  0.25000200  1
  Zr  Zr4  1  0.00000000  0.00000000  0.89916200  1
  Zr  Zr5  1  0.50000000  0.00000000  0.35000000  1
  Zr  Zr6  1  0.50000000  0.50000000  0.00000000  1
  Zr  Zr7  1  0.00000000  0.50000000  0.45000000  1
  Zr  Zr8  1  0.00000000  0.00000000  0.10083800  1
  Zr  Zr9  1  0.50000000  0.00000000  0.55000000  1
  Zr  Zr10  1  0.50000000  0.50000000  0.19999700  1
  Zr  Zr11  1  0.00000000  0.50000000  0.65000000  1
  Zr  Zr12  1  0.00000000  0.00000000  0.30000000  1
  Zr  Zr13  1  0.50000000  0.00000000  0.74999800  1
  Zr  Zr14  1  0.50000000  0.50000000  0.40000000  1
  Zr  Zr15  1  0.00000000  0.50000000  0.84982000  1
  Zr  Zr16  1  0.00000000  0.00000000  0.50000000  1
  Zr  Zr17  1  0.50000000  0.50000000  0.60000000  1
  Zr  Zr18  1  0.00000000  0.00000000  0.70000000  1
  Zr  Zr19  1  0.50000000  0.50000000  0.80000300  1
  Si  Si20  1  0.50000000  0.50000000  0.89913400  1
  Si  Si21  1  0.00000000  0.00000000  0.00000000  1
  Si  Si22  1  0.50000000  0.50000000  0.10086600  1
  Si  Si23  1  0.00000000  0.00000000  0.20004900  1
  Si  Si24  1  0.00000000  0.50000000  0.14997300  1
  Si  Si25  1  0.50000000  0.50000000  0.30000100  1
  Si  Si26  1  0.50000000  0.00000000  0.24999700  1
  Si  Si27  1  0.00000000  0.00000000  0.40000000  1
  Si  Si28  1  0.00000000  0.50000000  0.35000000  1
  Si  Si29  1  0.50000000  0.50000000  0.50000000  1
  Si  Si30  1  0.50000000  0.00000000  0.45000000  1
  Si  Si31  1  0.00000000  0.00000000  0.60000000  1
  Si  Si32  1  0.00000000  0.50000000  0.55000000  1
  Si  Si33  1  0.50000000  0.50000000  0.69999900  1
  Si  Si34  1  0.50000000  0.00000000  0.65000000  1
  Si  Si35  1  0.00000000  0.00000000  0.79995100  1
  Si  Si36  1  0.00000000  0.50000000  0.75000300  1
  Si  Si37  1  0.50000000  0.00000000  0.85002700  1
  P  P38  1  0.00000000  0.50000000  0.95008800  1
  P  P39  1  0.50000000  0.00000000  0.04991200  1
  O  O40  1  0.22657900  0.41401200  0.88098100  1
  O  O41  1  0.59922100  0.77202700  0.91696700  1
  O  O42  1  0.40077900  0.22797300  0.91696700  1
  O  O43  1  0.72559400  0.90318200  0.98222200  1
  O  O44  1  0.77342100  0.58598800  0.88098100  1
  O  O45  1  0.09681800  0.27440600  0.01777800  1
  O  O46  1  0.75132400  0.43136800  0.96804200  1
  O  O47  1  0.90318200  0.72559400  0.01777800  1
  O  O48  1  0.22797300  0.40077900  0.08303300  1
  O  O49  1  0.06770700  0.74833200  0.93191300  1
  O  O50  1  0.27440600  0.09681800  0.98222200  1
  O  O51  1  0.93229300  0.25166800  0.93191300  1
  O  O52  1  0.58598800  0.77342100  0.11901900  1
  O  O53  1  0.25166800  0.93229300  0.06808700  1
  O  O54  1  0.41401200  0.22657900  0.11901900  1
  O  O55  1  0.72894300  0.91147100  0.18176200  1
  O  O56  1  0.24867600  0.56863200  0.96804200  1
  O  O57  1  0.56863200  0.24867600  0.03195800  1
  O  O58  1  0.77202700  0.59922100  0.08303300  1
  O  O59  1  0.43136800  0.75132400  0.03195800  1
  O  O60  1  0.08851900  0.27152100  0.21831300  1
  O  O61  1  0.72916900  0.41209200  0.16828100  1
  O  O62  1  0.91148100  0.72847900  0.21831300  1
  O  O63  1  0.22859900  0.41150600  0.28171000  1
  O  O64  1  0.74833200  0.06770700  0.06808700  1
  O  O65  1  0.08840500  0.77152600  0.13170100  1
  O  O66  1  0.27105700  0.08852900  0.18176200  1
  O  O67  1  0.91159500  0.22847400  0.13170100  1
  O  O68  1  0.58849300  0.77141200  0.31829300  1
  O  O69  1  0.22861400  0.91151700  0.26828900  1
  O  O70  1  0.41150700  0.22858800  0.31829300  1
  O  O71  1  0.72859100  0.91150800  0.38170800  1
  O  O72  1  0.27083100  0.58790800  0.16828100  1
  O  O73  1  0.58846700  0.27141200  0.23170100  1
  O  O74  1  0.77140100  0.58849400  0.28171000  1
  O  O75  1  0.41153300  0.72858800  0.23170100  1
  O  O76  1  0.08849100  0.27140700  0.41829100  1
  O  O77  1  0.72859300  0.41150900  0.36829200  1
  O  O78  1  0.91150900  0.72859300  0.41829100  1
  O  O79  1  0.22859200  0.41150800  0.48170800  1
  O  O80  1  0.77138600  0.08848300  0.26828900  1
  O  O81  1  0.08849100  0.77140900  0.33170800  1
  O  O82  1  0.27140900  0.08849200  0.38170800  1
  O  O83  1  0.91150900  0.22859100  0.33170800  1
  O  O84  1  0.58849200  0.77140800  0.51829200  1
  O  O85  1  0.22859200  0.91151000  0.46829200  1
  O  O86  1  0.41150800  0.22859200  0.51829200  1
  O  O87  1  0.72859300  0.91150900  0.58170900  1
  O  O88  1  0.27140700  0.58849100  0.36829200  1
  O  O89  1  0.58849300  0.27140900  0.43170800  1
  O  O90  1  0.77140800  0.58849200  0.48170800  1
  O  O91  1  0.41150700  0.72859100  0.43170800  1
  O  O92  1  0.08849200  0.27140900  0.61829200  1
  O  O93  1  0.72859100  0.41150700  0.56829200  1
  O  O94  1  0.91150800  0.72859100  0.61829200  1
  O  O95  1  0.22858800  0.41150700  0.68170700  1
  O  O96  1  0.77140800  0.08849000  0.46829200  1
  O  O97  1  0.08849000  0.77140800  0.53170800  1
  O  O98  1  0.27140700  0.08849100  0.58170900  1
  O  O99  1  0.91151000  0.22859200  0.53170800  1
  O  O100  1  0.58849400  0.77140100  0.71829000  1
  O  O101  1  0.22859100  0.91150900  0.66829200  1
  O  O102  1  0.41150600  0.22859900  0.71829000  1
  O  O103  1  0.72847900  0.91148100  0.78168700  1
  O  O104  1  0.27140900  0.58849300  0.56829200  1
  O  O105  1  0.58849100  0.27140700  0.63170800  1
  O  O106  1  0.77141200  0.58849300  0.68170700  1
  O  O107  1  0.41150900  0.72859300  0.63170800  1
  O  O108  1  0.08852900  0.27105700  0.81823800  1
  O  O109  1  0.72858800  0.41153300  0.76829900  1
  O  O110  1  0.91147100  0.72894300  0.81823800  1
  O  O111  1  0.77140900  0.08849100  0.66829200  1
  O  O112  1  0.08848300  0.77138600  0.73171100  1
  O  O113  1  0.27152100  0.08851900  0.78168700  1
  O  O114  1  0.91151700  0.22861400  0.73171100  1
  O  O115  1  0.22847400  0.91159500  0.86829900  1
  O  O116  1  0.27141200  0.58846700  0.76829900  1
  O  O117  1  0.58790800  0.27083100  0.83171900  1
  O  O118  1  0.41209200  0.72916900  0.83171900  1
  O  O119  1  0.77152600  0.08840500  0.86829900  1
