# generated using pymatgen
data_Sr2La14Mg4(Ga4O15)3
_symmetry_space_group_name_H-M   'P 1'
_cell_length_a   5.55728829
_cell_length_b   5.58326724
_cell_length_c   44.84938461
_cell_angle_alpha   60.74150416
_cell_angle_beta   60.72331317
_cell_angle_gamma   60.49893941
_symmetry_Int_Tables_number   1
_chemical_formula_structural   Sr2La14Mg4(Ga4O15)3
_chemical_formula_sum   'Sr2 La14 Mg4 Ga12 O45'
_cell_volume   998.52601446
_cell_formula_units_Z   1
loop_
 _symmetry_equiv_pos_site_id
 _symmetry_equiv_pos_as_xyz
  1  'x, y, z'
loop_
 _atom_site_type_symbol
 _atom_site_label
 _atom_site_symmetry_multiplicity
 _atom_site_fract_x
 _atom_site_fract_y
 _atom_site_fract_z
 _atom_site_occupancy
  Sr  Sr0  1  0.25919700  0.26229200  0.02414300  1
  Sr  Sr1  1  0.25613100  0.25604900  0.15447700  1
  La  La2  1  0.27744300  0.25242600  0.27871600  1
  La  La3  1  0.79374900  0.73680400  0.08888200  1
  La  La4  1  0.20860400  0.23187400  0.41520600  1
  La  La5  1  0.75570700  0.74441600  0.21575500  1
  La  La6  1  0.24575200  0.24205500  0.53375600  1
  La  La7  1  0.70421700  0.79242700  0.34942400  1
  La  La8  1  0.24687200  0.24607100  0.65721000  1
  La  La9  1  0.74780500  0.75234000  0.47047700  1
  La  La10  1  0.25314900  0.25256400  0.77945000  1
  La  La11  1  0.75158300  0.74862800  0.59505200  1
  La  La12  1  0.25260400  0.26699800  0.90179200  1
  La  La13  1  0.75045300  0.74998200  0.71824000  1
  La  La14  1  0.74978400  0.75024800  0.84191700  1
  La  La15  1  0.75044800  0.75754600  0.96357200  1
  Mg  Mg16  1  0.96900800  0.96092700  0.25692000  1
  Mg  Mg17  1  0.94847600  0.98150400  0.38090400  1
  Mg  Mg18  1  0.53673900  0.51345500  0.18488600  1
  Mg  Mg19  1  0.52122600  0.52075300  0.31537900  1
  Ga  Ga20  1  0.00593400  0.01366600  0.99386900  1
  Ga  Ga21  1  0.98527500  0.00128600  0.12864000  1
  Ga  Ga22  1  0.52801700  0.52796800  0.05197600  1
  Ga  Ga23  1  0.99217000  0.98395700  0.50415600  1
  Ga  Ga24  1  0.99777500  0.99580900  0.62629600  1
  Ga  Ga25  1  0.48670600  0.49548700  0.44031900  1
  Ga  Ga26  1  0.00043500  0.00010100  0.74945000  1
  Ga  Ga27  1  0.49824200  0.49524000  0.56483200  1
  Ga  Ga28  1  0.00427100  0.00654800  0.87194600  1
  Ga  Ga29  1  0.50042900  0.49991100  0.68772400  1
  Ga  Ga30  1  0.50618400  0.50423800  0.81044300  1
  Ga  Ga31  1  0.50351200  0.50872700  0.93410100  1
  O  O32  1  0.27005000  0.76656800  0.02274900  1
  O  O33  1  0.26316700  0.61522700  0.09315300  1
  O  O34  1  0.68826100  0.17964100  0.04277100  1
  O  O35  1  0.89951900  0.27164400  0.08718500  1
  O  O36  1  0.33853500  0.86282400  0.13595500  1
  O  O37  1  0.80018300  0.72278700  0.02054100  1
  O  O38  1  0.17649200  0.67333900  0.22140500  1
  O  O39  1  0.69934300  0.21566000  0.16305800  1
  O  O40  1  0.75927100  0.27545200  0.22250200  1
  O  O41  1  0.34499400  0.89698300  0.25837700  1
  O  O42  1  0.82091200  0.71288700  0.15648900  1
  O  O43  1  0.19079700  0.83875200  0.33642100  1
  O  O44  1  0.65186900  0.21871500  0.29383400  1
  O  O45  1  0.18106000  0.29823600  0.46897200  1
  O  O46  1  0.58770000  0.21497700  0.36142100  1
  O  O47  1  0.29303300  0.77474900  0.40104200  1
  O  O48  1  0.86825100  0.62511500  0.29883100  1
  O  O49  1  0.21587200  0.77841900  0.46784600  1
  O  O50  1  0.76550000  0.22930100  0.41198700  1
  O  O51  1  0.18035900  0.31219500  0.59427900  1
  O  O52  1  0.67392100  0.20449100  0.48152500  1
  O  O53  1  0.32732100  0.74999300  0.52440300  1
  O  O54  1  0.77903100  0.67854900  0.41851400  1
  O  O55  1  0.23618500  0.81072600  0.58768200  1
  O  O56  1  0.76081100  0.18567300  0.54096800  1
  O  O57  1  0.18098400  0.31915000  0.71934400  1
  O  O58  1  0.67173300  0.23291800  0.60517800  1
  O  O59  1  0.32005400  0.74984500  0.64851200  1
  O  O60  1  0.81394500  0.67022700  0.53909400  1
  O  O61  1  0.25319100  0.81919600  0.71027700  1
  O  O62  1  0.75281300  0.18090800  0.66546400  1
  O  O63  1  0.18840200  0.32119600  0.84407700  1
  O  O64  1  0.68207600  0.24859600  0.72727300  1
  O  O65  1  0.31829000  0.74907000  0.77219200  1
  O  O66  1  0.81929200  0.67597500  0.65871500  1
  O  O67  1  0.26574900  0.82791000  0.83255000  1
  O  O68  1  0.74812100  0.17876500  0.78927800  1
  O  O69  1  0.18762600  0.32630400  0.96765700  1
  O  O70  1  0.69280700  0.26782900  0.84922200  1
  O  O71  1  0.31008000  0.73763900  0.89630800  1
  O  O72  1  0.82453800  0.68070900  0.77927600  1
  O  O73  1  0.26940700  0.83731100  0.95495700  1
  O  O74  1  0.74889200  0.18224300  0.91256000  1
  O  O75  1  0.71118800  0.29593500  0.97024500  1
  O  O76  1  0.81687800  0.69667700  0.89975500  1
