# generated using pymatgen
data_Sr5Li25La7(BiO6)8
_symmetry_space_group_name_H-M   'P 1'
_cell_length_a   11.61383168
_cell_length_b   11.54710618
_cell_length_c   11.59260900
_cell_angle_alpha   109.71164400
_cell_angle_beta   108.82509603
_cell_angle_gamma   109.80694692
_symmetry_Int_Tables_number   1
_chemical_formula_structural   Sr5Li25La7(BiO6)8
_chemical_formula_sum   'Sr5 Li25 La7 Bi8 O48'
_cell_volume   1197.71486956
_cell_formula_units_Z   1
loop_
 _symmetry_equiv_pos_site_id
 _symmetry_equiv_pos_as_xyz
  1  'x, y, z'
loop_
 _atom_site_type_symbol
 _atom_site_label
 _atom_site_symmetry_multiplicity
 _atom_site_fract_x
 _atom_site_fract_y
 _atom_site_fract_z
 _atom_site_occupancy
  Sr  Sr0  1  0.12616100  0.37631100  0.74206800  1
  Sr  Sr1  1  0.12289300  0.23775000  0.37216300  1
  Sr  Sr2  1  0.60622400  0.86871100  0.76765600  1
  Sr  Sr3  1  0.61630900  0.24880400  0.86985400  1
  Sr  Sr4  1  0.74815000  0.14137700  0.35406700  1
  Li  Li5  1  0.27093900  0.65249600  0.36600900  1
  Li  Li6  1  0.25458700  0.10317900  0.86300500  1
  Li  Li7  1  0.37850400  0.61547000  0.76842800  1
  Li  Li8  1  0.35769800  0.24853300  0.63273200  1
  Li  Li9  1  0.55260300  0.72376200  0.37093500  1
  Li  Li10  1  0.53989600  0.28501600  0.58864200  1
  Li  Li11  1  0.68364200  0.79829900  0.25842900  1
  Li  Li12  1  0.74110200  0.37827100  0.57986400  1
  Li  Li13  1  0.58933100  0.53814800  0.28594800  1
  Li  Li14  1  0.75266600  0.86629900  0.11906900  1
  Li  Li15  1  0.64960800  0.37873200  0.30077600  1
  Li  Li16  1  0.97088900  0.58977100  0.78035400  1
  Li  Li17  1  0.72328900  0.88232900  0.61225100  1
  Li  Li18  1  0.21873000  0.75095700  0.84415300  1
  Li  Li19  1  0.46411300  0.25528600  0.06596700  1
  Li  Li20  1  0.11795100  0.86663800  0.24253300  1
  Li  Li21  1  0.79963000  0.24944700  0.68201600  1
  Li  Li22  1  0.87887700  0.12524600  0.76758800  1
  Li  Li23  1  0.75500800  0.98692500  0.50208900  1
  Li  Li24  1  0.29297800  0.59126700  0.54086800  1
  Li  Li25  1  0.05321100  0.09249300  0.79197100  1
  Li  Li26  1  0.76378200  0.28335700  0.15633200  1
  Li  Li27  1  0.88732600  0.22872500  0.00136100  1
  Li  Li28  1  0.03887200  0.44239900  0.25165900  1
  Li  Li29  1  0.82580700  0.07260300  0.09893600  1
  La  La30  1  0.24640700  0.87664900  0.61698500  1
  La  La31  1  0.36293100  0.74129300  0.11671100  1
  La  La32  1  0.23679700  0.36304800  0.11973200  1
  La  La33  1  0.36392400  0.10800700  0.24089700  1
  La  La34  1  0.73660700  0.62105900  0.86892800  1
  La  La35  1  0.88442300  0.74787800  0.62255500  1
  La  La36  1  0.86916100  0.62406400  0.23821000  1
  Bi  Bi37  1  0.00611100  0.50278500  0.50210100  1
  Bi  Bi38  1  0.99555300  0.50301100  0.99684300  1
  Bi  Bi39  1  0.99608600  0.98089300  0.98919500  1
  Bi  Bi40  1  0.48890600  0.48921100  0.49454200  1
  Bi  Bi41  1  0.49367700  0.99168800  0.48990400  1
  Bi  Bi42  1  0.49314400  0.49314400  0.99638000  1
  Bi  Bi43  1  0.50064600  0.99293400  0.99587400  1
  Bi  Bi44  1  0.00225500  0.00556100  0.49922800  1
  O  O45  1  0.09362100  0.96911300  0.67377700  1
  O  O46  1  0.00144200  0.30967400  0.91243500  1
  O  O47  1  0.12293400  0.59816400  0.91898900  1
  O  O48  1  0.08004000  0.70688200  0.67334100  1
  O  O49  1  0.06619200  0.86158500  0.40179400  1
  O  O50  1  0.12060100  0.62124600  0.42587500  1
  O  O51  1  0.18096800  0.48020700  0.59339900  1
  O  O52  1  0.38942000  0.80489700  0.79390800  1
  O  O53  1  0.37310800  0.57681200  0.91600900  1
  O  O54  1  0.31228100  0.30792800  0.94347200  1
  O  O55  1  0.32051400  0.91117400  0.29074700  1
  O  O56  1  0.01016100  0.18302000  0.10909800  1
  O  O57  1  0.17215200  0.20141700  0.57872000  1
  O  O58  1  0.18997200  0.56592300  0.16924900  1
  O  O59  1  0.40602800  0.82821800  0.53520200  1
  O  O60  1  0.29531000  0.47965900  0.37151500  1
  O  O61  1  0.33448500  0.90609200  0.03790700  1
  O  O62  1  0.12739800  0.01361000  0.18728700  1
  O  O63  1  0.40989700  0.07963800  0.87837300  1
  O  O64  1  0.50271800  0.61431900  0.68684600  1
  O  O65  1  0.53065000  0.40895700  0.82631500  1
  O  O66  1  0.37761000  0.28268200  0.46543800  1
  O  O67  1  0.56923100  0.88764400  0.36059500  1
  O  O68  1  0.18505800  0.11169400  0.99823600  1
  O  O69  1  0.79543600  0.87885700  0.97655300  1
  O  O70  1  0.43720000  0.11339900  0.61856300  1
  O  O71  1  0.62580900  0.68105200  0.50887700  1
  O  O72  1  0.47660500  0.59629700  0.18358500  1
  O  O73  1  0.47177200  0.37066700  0.28760700  1
  O  O74  1  0.60752800  0.92197600  0.11605900  1
  O  O75  1  0.88313200  0.96776900  0.78701100  1
  O  O76  1  0.68853900  0.10148600  0.98139200  1
  O  O77  1  0.67740900  0.50160800  0.62166100  1
  O  O78  1  0.60396800  0.17912400  0.47753000  1
  O  O79  1  0.80448800  0.41857500  0.80543500  1
  O  O80  1  0.80284800  0.82694300  0.44157200  1
  O  O81  1  0.93655600  0.76356300  0.84861000  1
  O  O82  1  0.68919200  0.05044000  0.65954700  1
  O  O83  1  0.70052400  0.67948000  0.09813300  1
  O  O84  1  0.62072400  0.43017200  0.12158800  1
  O  O85  1  0.57975700  0.18717700  0.18531100  1
  O  O86  1  0.83316600  0.54134400  0.40646100  1
  O  O87  1  0.90833600  0.39701000  0.59167900  1
  O  O88  1  0.93728000  0.12791000  0.62895100  1
  O  O89  1  0.91898400  0.31079000  0.31011300  1
  O  O90  1  0.87738800  0.40581200  0.08883500  1
  O  O91  1  0.95345800  0.66825100  0.08405300  1
  O  O92  1  0.88351000  0.01381600  0.32044100  1
