# generated using pymatgen
data_K5YNi2(NO2)12
_symmetry_space_group_name_H-M   'P 1'
_cell_length_a   10.61392800
_cell_length_b   10.61392800
_cell_length_c   10.61392800
_cell_angle_alpha   90.00000000
_cell_angle_beta   90.00000000
_cell_angle_gamma   90.00000000
_symmetry_Int_Tables_number   1
_chemical_formula_structural   K5YNi2(NO2)12
_chemical_formula_sum   'K10 Y2 Ni4 N24 O48'
_cell_volume   1195.71702180
_cell_formula_units_Z   2
loop_
 _symmetry_equiv_pos_site_id
 _symmetry_equiv_pos_as_xyz
  1  'x, y, z'
loop_
 _atom_site_type_symbol
 _atom_site_label
 _atom_site_symmetry_multiplicity
 _atom_site_fract_x
 _atom_site_fract_y
 _atom_site_fract_z
 _atom_site_occupancy
  K  K0  1  0.25000000  0.25000000  0.75000000  1
  K  K1  1  0.25000000  0.75000000  0.25000000  1
  K  K2  1  0.00000000  0.50000000  0.50000000  1
  K  K3  1  0.50000000  0.00000000  0.00000000  1
  K  K4  1  0.50000000  0.00000000  0.50000000  1
  K  K5  1  0.75000000  0.75000000  0.75000000  1
  K  K6  1  0.50000000  0.50000000  0.00000000  1
  K  K7  1  0.00000000  0.50000000  0.00000000  1
  K  K8  1  0.75000000  0.25000000  0.25000000  1
  K  K9  1  0.00000000  0.00000000  0.50000000  1
  Y  Y10  1  0.00000000  0.00000000  0.00000000  1
  Y  Y11  1  0.50000000  0.50000000  0.50000000  1
  Ni  Ni12  1  0.75000000  0.75000000  0.25000000  1
  Ni  Ni13  1  0.25000000  0.75000000  0.75000000  1
  Ni  Ni14  1  0.75000000  0.25000000  0.75000000  1
  Ni  Ni15  1  0.25000000  0.25000000  0.25000000  1
  N  N16  1  0.25627800  0.25682800  0.44478200  1
  N  N17  1  0.55521800  0.74372200  0.25682800  1
  N  N18  1  0.44478200  0.74372200  0.74317200  1
  N  N19  1  0.25682800  0.55521800  0.74372200  1
  N  N20  1  0.74372200  0.74317200  0.44478200  1
  N  N21  1  0.75682800  0.05521800  0.75627800  1
  N  N22  1  0.05521800  0.75627800  0.75682800  1
  N  N23  1  0.55521800  0.25627800  0.74317200  1
  N  N24  1  0.25682800  0.44478200  0.25627800  1
  N  N25  1  0.75627800  0.24317200  0.94478200  1
  N  N26  1  0.74317200  0.55521800  0.25627800  1
  N  N27  1  0.24372200  0.24317200  0.05521800  1
  N  N28  1  0.25627800  0.74317200  0.55521800  1
  N  N29  1  0.75682800  0.94478200  0.24372200  1
  N  N30  1  0.44478200  0.25627800  0.25682800  1
  N  N31  1  0.24317200  0.94478200  0.75627800  1
  N  N32  1  0.24317200  0.05521800  0.24372200  1
  N  N33  1  0.94478200  0.75627800  0.24317200  1
  N  N34  1  0.74317200  0.44478200  0.74372200  1
  N  N35  1  0.74372200  0.25682800  0.55521800  1
  N  N36  1  0.24372200  0.75682800  0.94478200  1
  N  N37  1  0.75627800  0.75682800  0.05521800  1
  N  N38  1  0.94478200  0.24372200  0.75682800  1
  N  N39  1  0.05521800  0.24372200  0.24317200  1
  O  O40  1  0.25543900  0.00690300  0.65654900  1
  O  O41  1  0.75543900  0.50690300  0.84345100  1
  O  O42  1  0.15654900  0.75543900  0.49309700  1
  O  O43  1  0.99309700  0.34345100  0.25543900  1
  O  O44  1  0.65654900  0.25543900  0.00690300  1
  O  O45  1  0.00548200  0.85713000  0.21820200  1
  O  O46  1  0.14287000  0.21820200  0.99451800  1
  O  O47  1  0.71820200  0.49451800  0.35713000  1
  O  O48  1  0.34345100  0.74456100  0.00690300  1
  O  O49  1  0.78179800  0.00548200  0.14287000  1
  O  O50  1  0.84345100  0.75543900  0.50690300  1
  O  O51  1  0.14287000  0.78179800  0.00548200  1
  O  O52  1  0.49309700  0.15654900  0.75543900  1
  O  O53  1  0.64287000  0.71820200  0.50548200  1
  O  O54  1  0.78179800  0.99451800  0.85713000  1
  O  O55  1  0.65654900  0.74456100  0.99309700  1
  O  O56  1  0.64287000  0.28179800  0.49451800  1
  O  O57  1  0.00690300  0.65654900  0.25543900  1
  O  O58  1  0.84345100  0.24456100  0.49309700  1
  O  O59  1  0.85713000  0.78179800  0.99451800  1
  O  O60  1  0.28179800  0.49451800  0.64287000  1
  O  O61  1  0.00690300  0.34345100  0.74456100  1
  O  O62  1  0.00548200  0.14287000  0.78179800  1
  O  O63  1  0.49309700  0.84345100  0.24456100  1
  O  O64  1  0.75543900  0.49309700  0.15654900  1
  O  O65  1  0.99451800  0.14287000  0.21820200  1
  O  O66  1  0.15654900  0.24456100  0.50690300  1
  O  O67  1  0.74456100  0.00690300  0.34345100  1
  O  O68  1  0.34345100  0.25543900  0.99309700  1
  O  O69  1  0.28179800  0.50548200  0.35713000  1
  O  O70  1  0.49451800  0.35713000  0.71820200  1
  O  O71  1  0.35713000  0.71820200  0.49451800  1
  O  O72  1  0.99309700  0.65654900  0.74456100  1
  O  O73  1  0.50548200  0.64287000  0.71820200  1
  O  O74  1  0.50690300  0.84345100  0.75543900  1
  O  O75  1  0.25543900  0.99309700  0.34345100  1
  O  O76  1  0.49451800  0.64287000  0.28179800  1
  O  O77  1  0.50690300  0.15654900  0.24456100  1
  O  O78  1  0.74456100  0.99309700  0.65654900  1
  O  O79  1  0.24456100  0.49309700  0.84345100  1
  O  O80  1  0.85713000  0.21820200  0.00548200  1
  O  O81  1  0.99451800  0.85713000  0.78179800  1
  O  O82  1  0.21820200  0.99451800  0.14287000  1
  O  O83  1  0.35713000  0.28179800  0.50548200  1
  O  O84  1  0.24456100  0.50690300  0.15654900  1
  O  O85  1  0.71820200  0.50548200  0.64287000  1
  O  O86  1  0.50548200  0.35713000  0.28179800  1
  O  O87  1  0.21820200  0.00548200  0.85713000  1
