# generated using pymatgen
data_Ta2Mn4O9
_symmetry_space_group_name_H-M   'P 1'
_cell_length_a   5.70486330
_cell_length_b   5.70486330
_cell_length_c   13.41835310
_cell_angle_alpha   87.70504980
_cell_angle_beta   87.70504980
_cell_angle_gamma   56.48269347
_symmetry_Int_Tables_number   1
_chemical_formula_structural   Ta2Mn4O9
_chemical_formula_sum   'Ta4 Mn8 O18'
_cell_volume   363.71425321
_cell_formula_units_Z   2
loop_
 _symmetry_equiv_pos_site_id
 _symmetry_equiv_pos_as_xyz
  1  'x, y, z'
loop_
 _atom_site_type_symbol
 _atom_site_label
 _atom_site_symmetry_multiplicity
 _atom_site_fract_x
 _atom_site_fract_y
 _atom_site_fract_z
 _atom_site_occupancy
  Ta  Ta0  1  0.01488600  0.99668000  0.99583200  1
  Ta  Ta1  1  0.67601000  0.66424500  0.17078900  1
  Ta  Ta2  1  0.66424500  0.67601000  0.67078900  1
  Ta  Ta3  1  0.99668000  0.01488600  0.49583200  1
  Mn  Mn4  1  0.34560700  0.34428400  0.33659500  1
  Mn  Mn5  1  0.38527500  0.37348500  0.09767800  1
  Mn  Mn6  1  0.71271800  0.72675800  0.42824200  1
  Mn  Mn7  1  0.05049600  0.04918500  0.26185700  1
  Mn  Mn8  1  0.04918500  0.05049600  0.76185700  1
  Mn  Mn9  1  0.34428400  0.34560700  0.83659500  1
  Mn  Mn10  1  0.37348500  0.38527500  0.59767800  1
  Mn  Mn11  1  0.72675800  0.71271800  0.92824200  1
  O  O12  1  0.62167000  0.37091600  0.23057700  1
  O  O13  1  0.77149700  0.40169700  0.03972600  1
  O  O14  1  0.24729600  0.85920400  0.12068300  1
  O  O15  1  0.06348800  0.44615800  0.20340700  1
  O  O16  1  0.52049600  0.89611400  0.28579300  1
  O  O17  1  0.93666000  0.69910100  0.57828000  1
  O  O18  1  0.69910100  0.93666000  0.07828000  1
  O  O19  1  0.08252400  0.77056800  0.38023900  1
  O  O20  1  0.59516800  0.16703400  0.46734400  1
  O  O21  1  0.40169700  0.77149700  0.53972600  1
  O  O22  1  0.85920400  0.24729600  0.62068300  1
  O  O23  1  0.28235600  0.01802600  0.91415800  1
  O  O24  1  0.01802600  0.28235600  0.41415800  1
  O  O25  1  0.44615800  0.06348800  0.70340700  1
  O  O26  1  0.89611400  0.52049600  0.78579300  1
  O  O27  1  0.77056800  0.08252400  0.88023900  1
  O  O28  1  0.16703400  0.59516800  0.96734400  1
  O  O29  1  0.37091600  0.62167000  0.73057700  1
