# generated using pymatgen
data_Fe7(PO5)4
_symmetry_space_group_name_H-M   'P 1'
_cell_length_a   7.35002500
_cell_length_b   7.41791450
_cell_length_c   7.59889508
_cell_angle_alpha   90.60479880
_cell_angle_beta   91.09516332
_cell_angle_gamma   117.94248961
_symmetry_Int_Tables_number   1
_chemical_formula_structural   Fe7(PO5)4
_chemical_formula_sum   'Fe7 P4 O20'
_cell_volume   365.84926410
_cell_formula_units_Z   1
loop_
 _symmetry_equiv_pos_site_id
 _symmetry_equiv_pos_as_xyz
  1  'x, y, z'
loop_
 _atom_site_type_symbol
 _atom_site_label
 _atom_site_symmetry_multiplicity
 _atom_site_fract_x
 _atom_site_fract_y
 _atom_site_fract_z
 _atom_site_occupancy
  Fe  Fe0  1  0.75517900  0.74759900  0.74385000  1
  Fe  Fe1  1  0.00000000  0.50000000  0.50000000  1
  Fe  Fe2  1  0.72245300  0.23091400  0.22379500  1
  Fe  Fe3  1  0.50000000  0.50000000  0.00000000  1
  Fe  Fe4  1  0.24482100  0.25240100  0.25615000  1
  Fe  Fe5  1  0.27754700  0.76908600  0.77620500  1
  Fe  Fe6  1  0.00000000  0.00000000  0.50000000  1
  P  P7  1  0.00041500  0.74366300  0.12704300  1
  P  P8  1  0.49031700  0.75739500  0.37894700  1
  P  P9  1  0.50968300  0.24260500  0.62105300  1
  P  P10  1  0.99958500  0.25633700  0.87295700  1
  O  O11  1  0.99954400  0.74056900  0.63510400  1
  O  O12  1  0.94334600  0.05949700  0.76039500  1
  O  O13  1  0.69355800  0.30067500  0.49952500  1
  O  O14  1  0.93519600  0.56192900  0.25407400  1
  O  O15  1  0.00045600  0.25943100  0.36489600  1
  O  O16  1  0.80816800  0.69614800  0.00612800  1
  O  O17  1  0.68066300  0.79464200  0.49786800  1
  O  O18  1  0.50034900  0.28367700  0.14649800  1
  O  O19  1  0.54256300  0.94640700  0.27236500  1
  O  O20  1  0.82003900  0.22285200  0.98951200  1
  O  O21  1  0.56819500  0.42778000  0.75016500  1
  O  O22  1  0.43180500  0.57222000  0.24983500  1
  O  O23  1  0.45743700  0.05359300  0.72763500  1
  O  O24  1  0.17996100  0.77714800  0.01048800  1
  O  O25  1  0.49965100  0.71632300  0.85350200  1
  O  O26  1  0.31933700  0.20535800  0.50213200  1
  O  O27  1  0.19183200  0.30385200  0.99387200  1
  O  O28  1  0.06480400  0.43807100  0.74592600  1
  O  O29  1  0.30644200  0.69932500  0.50047500  1
  O  O30  1  0.05665400  0.94050300  0.23960500  1
