# generated using pymatgen
data_CdH20C2S2(NO2)6
_symmetry_space_group_name_H-M   'P 1'
_cell_length_a   7.35089100
_cell_length_b   7.40722050
_cell_length_c   11.54771255
_cell_angle_alpha   82.23769715
_cell_angle_beta   83.67866101
_cell_angle_gamma   66.40522123
_symmetry_Int_Tables_number   1
_chemical_formula_structural   CdH20C2S2(NO2)6
_chemical_formula_sum   'Cd1 H20 C2 S2 N6 O12'
_cell_volume   569.83523222
_cell_formula_units_Z   1
loop_
 _symmetry_equiv_pos_site_id
 _symmetry_equiv_pos_as_xyz
  1  'x, y, z'
loop_
 _atom_site_type_symbol
 _atom_site_label
 _atom_site_symmetry_multiplicity
 _atom_site_fract_x
 _atom_site_fract_y
 _atom_site_fract_z
 _atom_site_occupancy
  Cd  Cd0  1  0.50000000  0.50000000  0.50000000  1
  H  H1  1  0.16465700  0.65720100  0.37794500  1
  H  H2  1  0.83534300  0.34279900  0.62205500  1
  H  H3  1  0.58619300  0.77973300  0.20711300  1
  H  H4  1  0.41380700  0.22026700  0.79288700  1
  H  H5  1  0.89620400  0.74368600  0.22999000  1
  H  H6  1  0.10379600  0.25631400  0.77001000  1
  H  H7  1  0.17017100  0.12654300  0.34044200  1
  H  H8  1  0.82982900  0.87345700  0.65955800  1
  H  H9  1  0.71774200  0.72111100  0.47030300  1
  H  H10  1  0.28225800  0.27888900  0.52969700  1
  H  H11  1  0.80689600  0.60053600  0.71277200  1
  H  H12  1  0.19310400  0.39946400  0.28722800  1
  H  H13  1  0.44777700  0.15321200  0.74496400  1
  H  H14  1  0.55222300  0.84678800  0.25503600  1
  H  H15  1  0.86020800  0.57535200  0.65352000  1
  H  H16  1  0.13979200  0.42464800  0.34648000  1
  H  H17  1  0.76001700  0.50513400  0.91566500  1
  H  H18  1  0.23998300  0.49486600  0.08433500  1
  H  H19  1  0.63035400  0.15228700  0.01710100  1
  H  H20  1  0.36964600  0.84771300  0.98289900  1
  C  C21  1  0.64338900  0.63236200  0.95297400  1
  C  C22  1  0.35661100  0.36763800  0.04702600  1
  S  S23  1  0.91523900  0.07754800  0.74351700  1
  S  S24  1  0.08476100  0.92245200  0.25648300  1
  N  N25  1  0.52607700  0.25772400  0.06503900  1
  N  N26  1  0.47392300  0.74227600  0.93496100  1
  N  N27  1  0.77676400  0.26796800  0.19789500  1
  N  N28  1  0.22323600  0.73203200  0.80210500  1
  N  N29  1  0.74843900  0.57181700  0.49366100  1
  N  N30  1  0.25156100  0.42818300  0.50633900  1
  O  O31  1  0.05295400  0.93895200  0.53883000  1
  O  O32  1  0.94704600  0.06104800  0.46117000  1
  O  O33  1  0.69684200  0.38263000  0.26622700  1
  O  O34  1  0.30315800  0.61737000  0.73377300  1
  O  O35  1  0.85746200  0.12093200  0.86581900  1
  O  O36  1  0.14253800  0.87906800  0.13418100  1
  O  O37  1  0.78028200  0.93307600  0.73388600  1
  O  O38  1  0.21971800  0.06692400  0.26611400  1
  O  O39  1  0.76385100  0.25750500  0.65794600  1
  O  O40  1  0.23614900  0.74249500  0.34205400  1
  O  O41  1  0.10584900  0.18182300  0.70575700  1
  O  O42  1  0.89415100  0.81817700  0.29424300  1
