# generated using pymatgen
data_BaH2(CO2)2
_symmetry_space_group_name_H-M   'P 1'
_cell_length_a   6.90181100
_cell_length_b   7.70586600
_cell_length_c   9.08559200
_cell_angle_alpha   90.00000000
_cell_angle_beta   90.00000000
_cell_angle_gamma   90.00000000
_symmetry_Int_Tables_number   1
_chemical_formula_structural   BaH2(CO2)2
_chemical_formula_sum   'Ba4 H8 C8 O16'
_cell_volume   483.21203830
_cell_formula_units_Z   4
loop_
 _symmetry_equiv_pos_site_id
 _symmetry_equiv_pos_as_xyz
  1  'x, y, z'
loop_
 _atom_site_type_symbol
 _atom_site_label
 _atom_site_symmetry_multiplicity
 _atom_site_fract_x
 _atom_site_fract_y
 _atom_site_fract_z
 _atom_site_occupancy
  Ba  Ba0  1  0.42195700  0.21166700  0.83600100  1
  Ba  Ba1  1  0.92195700  0.28833300  0.16399900  1
  Ba  Ba2  1  0.07804300  0.78833300  0.33600100  1
  Ba  Ba3  1  0.57804300  0.71166700  0.66399900  1
  H  H4  1  0.49640300  0.06223300  0.30099000  1
  H  H5  1  0.99640300  0.43776700  0.69901000  1
  H  H6  1  0.00359700  0.93776700  0.80099000  1
  H  H7  1  0.50359700  0.56223300  0.19901000  1
  H  H8  1  0.76880600  0.70740900  0.00931600  1
  H  H9  1  0.26880600  0.79259100  0.99068400  1
  H  H10  1  0.73119400  0.29259100  0.50931600  1
  H  H11  1  0.23119400  0.20740900  0.49068400  1
  C  C12  1  0.42625900  0.12593600  0.20509000  1
  C  C13  1  0.92625900  0.37406400  0.79491000  1
  C  C14  1  0.07374100  0.87406400  0.70509000  1
  C  C15  1  0.57374100  0.62593600  0.29491000  1
  C  C16  1  0.75175300  0.85115900  0.01185600  1
  C  C17  1  0.25175300  0.64884100  0.98814400  1
  C  C18  1  0.74824700  0.14884100  0.51185600  1
  C  C19  1  0.24824700  0.35115900  0.48814400  1
  O  O20  1  0.25550400  0.07577500  0.17224100  1
  O  O21  1  0.75550400  0.42422500  0.82775900  1
  O  O22  1  0.24449600  0.92422500  0.67224100  1
  O  O23  1  0.74449600  0.57577500  0.32775900  1
  O  O24  1  0.52166000  0.23995600  0.13548100  1
  O  O25  1  0.02166000  0.26004400  0.86451900  1
  O  O26  1  0.97834000  0.76004400  0.63548100  1
  O  O27  1  0.47834000  0.73995600  0.36451900  1
  O  O28  1  0.63510600  0.91590800  0.91816100  1
  O  O29  1  0.13510600  0.58409200  0.08183900  1
  O  O30  1  0.86489400  0.08409200  0.41816100  1
  O  O31  1  0.36489400  0.41590800  0.58183900  1
  O  O32  1  0.85114600  0.93270400  0.10603900  1
  O  O33  1  0.35114600  0.56729600  0.89396100  1
  O  O34  1  0.64885400  0.06729600  0.60603900  1
  O  O35  1  0.14885400  0.43270400  0.39396100  1
