# generated using pymatgen
data_SrPrGaCuO5
_symmetry_space_group_name_H-M   'P 1'
_cell_length_a   5.83057500
_cell_length_b   6.07413258
_cell_length_c   8.17753001
_cell_angle_alpha   105.84025664
_cell_angle_beta   108.66344551
_cell_angle_gamma   88.69702671
_symmetry_Int_Tables_number   1
_chemical_formula_structural   SrPrGaCuO5
_chemical_formula_sum   'Sr2 Pr2 Ga2 Cu2 O10'
_cell_volume   263.30008033
_cell_formula_units_Z   2
loop_
 _symmetry_equiv_pos_site_id
 _symmetry_equiv_pos_as_xyz
  1  'x, y, z'
loop_
 _atom_site_type_symbol
 _atom_site_label
 _atom_site_symmetry_multiplicity
 _atom_site_fract_x
 _atom_site_fract_y
 _atom_site_fract_z
 _atom_site_occupancy
  Sr  Sr0  1  0.17438000  0.64828800  0.25171800  1
  Sr  Sr1  1  0.69821200  0.00330800  0.27453100  1
  Pr  Pr2  1  0.36317800  0.86647900  0.77529100  1
  Pr  Pr3  1  0.86905300  0.42125600  0.82266200  1
  Ga  Ga4  1  0.77360700  0.58044400  0.46253600  1
  Ga  Ga5  1  0.29875500  0.28011700  0.52892100  1
  Cu  Cu6  1  0.51100800  0.35925100  0.01347300  1
  Cu  Cu7  1  0.99252000  0.00032400  0.99236400  1
  O  O8  1  0.17082500  0.73094200  0.93765300  1
  O  O9  1  0.00255100  0.81456200  0.51412500  1
  O  O10  1  0.97248200  0.34393000  0.52822200  1
  O  O11  1  0.57087600  0.58439700  0.24289000  1
  O  O12  1  0.74755500  0.78503600  0.98669100  1
  O  O13  1  0.19034700  0.19382500  0.94013100  1
  O  O14  1  0.84698100  0.27632600  0.07077400  1
  O  O15  1  0.52187300  0.55608500  0.57224300  1
  O  O16  1  0.32111900  0.05465100  0.34143400  1
  O  O17  1  0.47467600  0.22478100  0.74434100  1
