# generated using pymatgen
data_Sr6La14Mg7Ti13O60
_symmetry_space_group_name_H-M   'P 1'
_cell_length_a   5.60319200
_cell_length_b   5.61888078
_cell_length_c   39.56028065
_cell_angle_alpha   89.95477262
_cell_angle_beta   89.94614437
_cell_angle_gamma   89.71038331
_symmetry_Int_Tables_number   1
_chemical_formula_structural   Sr6La14Mg7Ti13O60
_chemical_formula_sum   'Sr6 La14 Mg7 Ti13 O60'
_cell_volume   1245.48589095
_cell_formula_units_Z   1
loop_
 _symmetry_equiv_pos_site_id
 _symmetry_equiv_pos_as_xyz
  1  'x, y, z'
loop_
 _atom_site_type_symbol
 _atom_site_label
 _atom_site_symmetry_multiplicity
 _atom_site_fract_x
 _atom_site_fract_y
 _atom_site_fract_z
 _atom_site_occupancy
  Sr  Sr0  1  0.01236900  0.99701900  0.85240000  1
  Sr  Sr1  1  0.01407300  0.99588500  0.65252900  1
  Sr  Sr2  1  0.01583000  0.99685700  0.05019400  1
  Sr  Sr3  1  0.51716800  0.50544900  0.65276400  1
  Sr  Sr4  1  0.51671600  0.50649700  0.85343400  1
  Sr  Sr5  1  0.48417800  0.49349900  0.94780700  1
  La  La6  1  0.01675100  0.00265300  0.44888100  1
  La  La7  1  0.01701500  0.00410500  0.24880200  1
  La  La8  1  0.53295900  0.51272600  0.44896900  1
  La  La9  1  0.53321500  0.51400500  0.24914800  1
  La  La10  1  0.52641900  0.50933000  0.05085900  1
  La  La11  1  0.47635800  0.49042200  0.74893400  1
  La  La12  1  0.46685700  0.48636100  0.34895600  1
  La  La13  1  0.47536200  0.49182100  0.54906200  1
  La  La14  1  0.46818100  0.48810500  0.14905000  1
  La  La15  1  0.98512800  0.00272700  0.94618200  1
  La  La16  1  0.98338300  0.00133500  0.74885700  1
  La  La17  1  0.98132400  0.00124000  0.54929300  1
  La  La18  1  0.98279600  0.99603800  0.34876900  1
  La  La19  1  0.98399100  0.99815100  0.14857100  1
  Mg  Mg20  1  0.00019700  0.50033400  0.90018500  1
  Mg  Mg21  1  0.99882000  0.50078800  0.70003600  1
  Mg  Mg22  1  0.00087200  0.49905800  0.49935500  1
  Mg  Mg23  1  0.00031600  0.49965400  0.39964700  1
  Mg  Mg24  1  0.99912700  0.50123900  0.10030400  1
  Mg  Mg25  1  0.00099600  0.50081800  0.19997900  1
  Mg  Mg26  1  0.99946400  0.49986400  0.29981200  1
  Ti  Ti27  1  0.00520200  0.49007200  0.99986600  1
  Ti  Ti28  1  0.99359300  0.49926800  0.80135100  1
  Ti  Ti29  1  0.99392800  0.50143500  0.60127800  1
  Ti  Ti30  1  0.50431800  0.99250700  0.99908300  1
  Ti  Ti31  1  0.49516600  0.99277100  0.80194300  1
  Ti  Ti32  1  0.49891900  0.99572900  0.89984800  1
  Ti  Ti33  1  0.49979500  0.99952100  0.39872000  1
  Ti  Ti34  1  0.49503400  0.99468500  0.60175700  1
  Ti  Ti35  1  0.49999300  0.99126000  0.70068800  1
  Ti  Ti36  1  0.49913900  0.00060300  0.49951700  1
  Ti  Ti37  1  0.49992100  0.00066500  0.29867600  1
  Ti  Ti38  1  0.50015900  0.00017700  0.19874400  1
  Ti  Ti39  1  0.50033200  0.99684200  0.09858000  1
  O  O40  1  0.50796100  0.93745100  0.95168900  1
  O  O41  1  0.51026100  0.92443000  0.75031600  1
  O  O42  1  0.51158600  0.91965200  0.55022300  1
  O  O43  1  0.51238300  0.91200500  0.35056700  1
  O  O44  1  0.51075700  0.91603900  0.15061800  1
  O  O45  1  0.76394400  0.76674100  0.80576100  1
  O  O46  1  0.76506800  0.76599400  0.60573800  1
  O  O47  1  0.76234100  0.77979300  0.40977000  1
  O  O48  1  0.75778900  0.77478500  0.89461300  1
  O  O49  1  0.75918100  0.77654600  0.69400300  1
  O  O50  1  0.75449000  0.76437900  0.00804200  1
  O  O51  1  0.76336000  0.78176700  0.29118400  1
  O  O52  1  0.76382600  0.78016100  0.49171000  1
  O  O53  1  0.76206400  0.78044300  0.20981000  1
  O  O54  1  0.75527600  0.77348900  0.09249000  1
  O  O55  1  0.27005900  0.73963200  0.80606800  1
  O  O56  1  0.26986000  0.74877700  0.89438800  1
  O  O57  1  0.27353000  0.74516200  0.69407900  1
  O  O58  1  0.28088600  0.74107500  0.29118200  1
  O  O59  1  0.28062400  0.74058900  0.40988700  1
  O  O60  1  0.26859300  0.73904500  0.60600000  1
  O  O61  1  0.28001800  0.73946800  0.49179600  1
  O  O62  1  0.27271800  0.73424900  0.00858500  1
  O  O63  1  0.28168700  0.74122500  0.21002700  1
  O  O64  1  0.28284500  0.73670900  0.09200600  1
  O  O65  1  0.00673400  0.58070700  0.95304700  1
  O  O66  1  0.01738800  0.58036900  0.75172200  1
  O  O67  1  0.02552600  0.59185900  0.34998000  1
  O  O68  1  0.01736700  0.58073100  0.55130100  1
  O  O69  1  0.02627300  0.59377200  0.15035000  1
  O  O70  1  0.99241500  0.43600300  0.64690900  1
  O  O71  1  0.99323100  0.43847500  0.84695100  1
  O  O72  1  0.97415300  0.40722900  0.44981400  1
  O  O73  1  0.97436800  0.40820800  0.25010900  1
  O  O74  1  0.98085800  0.43858700  0.04795500  1
  O  O75  1  0.73730800  0.25892900  0.99278200  1
  O  O76  1  0.73703500  0.26392900  0.79031800  1
  O  O77  1  0.73396600  0.24783700  0.90738900  1
  O  O78  1  0.73609700  0.26352100  0.59029400  1
  O  O79  1  0.72545700  0.25845100  0.70865100  1
  O  O80  1  0.71867800  0.25898300  0.39102700  1
  O  O81  1  0.72150900  0.25932500  0.50972700  1
  O  O82  1  0.71903400  0.25888300  0.30982600  1
  O  O83  1  0.71991100  0.25927400  0.19112900  1
  O  O84  1  0.72065300  0.25997400  0.10883700  1
  O  O85  1  0.23763500  0.22268300  0.90778600  1
  O  O86  1  0.24088800  0.22742800  0.70871800  1
  O  O87  1  0.23720900  0.22140800  0.50975800  1
  O  O88  1  0.23762200  0.21983400  0.30974500  1
  O  O89  1  0.23054200  0.23278800  0.99265300  1
  O  O90  1  0.23826400  0.23506900  0.79040800  1
  O  O91  1  0.23839300  0.23470100  0.59041800  1
  O  O92  1  0.23651700  0.21791400  0.39108900  1
  O  O93  1  0.23965200  0.22340500  0.10930000  1
  O  O94  1  0.23622700  0.21852100  0.19123100  1
  O  O95  1  0.49273400  0.06663500  0.84825100  1
  O  O96  1  0.49303500  0.06610200  0.64811900  1
  O  O97  1  0.48761600  0.08660200  0.45064200  1
  O  O98  1  0.48769300  0.08826900  0.25060800  1
  O  O99  1  0.49154300  0.08247300  0.04977300  1
