# generated using pymatgen
data_Na9CaTa9TiO30
_symmetry_space_group_name_H-M   'P 1'
_cell_length_a   38.53595900
_cell_length_b   5.76151800
_cell_length_c   5.79794870
_cell_angle_alpha   88.50723223
_cell_angle_beta   90.00000000
_cell_angle_gamma   90.00000000
_symmetry_Int_Tables_number   1
_chemical_formula_structural   Na9CaTa9TiO30
_chemical_formula_sum   'Na18 Ca2 Ta18 Ti2 O60'
_cell_volume   1286.85628330
_cell_formula_units_Z   2
loop_
 _symmetry_equiv_pos_site_id
 _symmetry_equiv_pos_as_xyz
  1  'x, y, z'
loop_
 _atom_site_type_symbol
 _atom_site_label
 _atom_site_symmetry_multiplicity
 _atom_site_fract_x
 _atom_site_fract_y
 _atom_site_fract_z
 _atom_site_occupancy
  Na  Na0  1  0.89790900  0.02949500  0.95751000  1
  Na  Na1  1  0.70198900  0.96999200  0.96916600  1
  Na  Na2  1  0.50000000  0.00193400  0.96096700  1
  Na  Na3  1  0.29801100  0.96999200  0.96916600  1
  Na  Na4  1  0.10209100  0.02949500  0.95751000  1
  Na  Na5  1  0.69995200  0.47396200  0.47858700  1
  Na  Na6  1  0.89275000  0.37092700  0.57133900  1
  Na  Na7  1  0.50000000  0.49902400  0.45950000  1
  Na  Na8  1  0.30004800  0.47396200  0.47858700  1
  Na  Na9  1  0.10725000  0.37092700  0.57133900  1
  Na  Na10  1  0.79772800  0.40586600  0.57842800  1
  Na  Na11  1  0.39938000  0.49208100  0.45839100  1
  Na  Na12  1  0.60062000  0.49208100  0.45839100  1
  Na  Na13  1  0.20227200  0.40586600  0.57842800  1
  Na  Na14  1  0.80233700  0.94992400  0.93299200  1
  Na  Na15  1  0.60040000  0.99731500  0.95987300  1
  Na  Na16  1  0.39960000  0.99731500  0.95987300  1
  Na  Na17  1  0.19766300  0.94992400  0.93299200  1
  Ca  Ca18  1  0.00000000  0.32590000  0.45209500  1
  Ca  Ca19  1  0.00000000  0.96736300  0.04374200  1
  Ta  Ta20  1  0.85315400  0.88482800  0.41128200  1
  Ta  Ta21  1  0.55002700  0.99917400  0.47511500  1
  Ta  Ta22  1  0.34906000  0.98940400  0.47939900  1
  Ta  Ta23  1  0.24866400  0.95369900  0.49898300  1
  Ta  Ta24  1  0.14684600  0.88482800  0.41128200  1
  Ta  Ta25  1  0.94834300  0.50575100  0.03434100  1
  Ta  Ta26  1  0.05165700  0.50575100  0.03434100  1
  Ta  Ta27  1  0.75176900  0.45366400  0.02137400  1
  Ta  Ta28  1  0.85039500  0.44864200  0.07265400  1
  Ta  Ta29  1  0.55019000  0.49958700  0.97528400  1
  Ta  Ta30  1  0.44981000  0.49958700  0.97528400  1
  Ta  Ta31  1  0.14960500  0.44864200  0.07265400  1
  Ta  Ta32  1  0.65010600  0.49483100  0.97732700  1
  Ta  Ta33  1  0.34989400  0.49483100  0.97732700  1
  Ta  Ta34  1  0.24823100  0.45366400  0.02137400  1
  Ta  Ta35  1  0.75133600  0.95369900  0.49898300  1
  Ta  Ta36  1  0.44997300  0.99917400  0.47511500  1
  Ta  Ta37  1  0.65094000  0.98940400  0.47939900  1
  Ti  Ti38  1  0.95069800  0.79102000  0.58308200  1
  Ti  Ti39  1  0.04930200  0.79102000  0.58308200  1
  O  O40  1  0.00000000  0.90355100  0.53588500  1
  O  O41  1  0.80463500  0.96010300  0.50111700  1
  O  O42  1  0.60038200  0.95248400  0.52611300  1
  O  O43  1  0.39961800  0.95248400  0.52611300  1
  O  O44  1  0.19536500  0.96010300  0.50111700  1
  O  O45  1  0.89701100  0.89494900  0.57455400  1
  O  O46  1  0.65503300  0.76289800  0.77233500  1
  O  O47  1  0.45576500  0.75812400  0.76092400  1
  O  O48  1  0.94841300  0.85735500  0.88700200  1
  O  O49  1  0.74934900  0.71415400  0.74037500  1
  O  O50  1  0.25065100  0.71415400  0.74037500  1
  O  O51  1  0.05158700  0.85735500  0.88700200  1
  O  O52  1  0.34496700  0.76289800  0.77233500  1
  O  O53  1  0.54423500  0.75812400  0.76092400  1
  O  O54  1  0.10298900  0.89494900  0.57455400  1
  O  O55  1  0.93718600  0.67295300  0.30271100  1
  O  O56  1  0.85646100  0.80071300  0.08538000  1
  O  O57  1  0.74534100  0.76038100  0.24815700  1
  O  O58  1  0.65538800  0.74471000  0.27194000  1
  O  O59  1  0.45526400  0.76077800  0.26026200  1
  O  O60  1  0.14353900  0.80071300  0.08538000  1
  O  O61  1  0.34461200  0.74471000  0.27194000  1
  O  O62  1  0.25465900  0.76038100  0.24815700  1
  O  O63  1  0.54473600  0.76077800  0.26026200  1
  O  O64  1  0.06281400  0.67295300  0.30271100  1
  O  O65  1  0.00000000  0.57813600  0.08803500  1
  O  O66  1  0.80035000  0.53675500  0.03412900  1
  O  O67  1  0.39984400  0.55788800  0.02296400  1
  O  O68  1  0.60015600  0.55788800  0.02296400  1
  O  O69  1  0.19965000  0.53675500  0.03412900  1
  O  O70  1  0.70050900  0.45920600  0.01974100  1
  O  O71  1  0.90008700  0.45743400  0.96117400  1
  O  O72  1  0.50000000  0.45072600  0.02747200  1
  O  O73  1  0.29949100  0.45920600  0.01974100  1
  O  O74  1  0.09991300  0.45743400  0.96117400  1
  O  O75  1  0.04171900  0.47833600  0.68814600  1
  O  O76  1  0.95828100  0.47833600  0.68814600  1
  O  O77  1  0.75573400  0.20967400  0.80856100  1
  O  O78  1  0.84285300  0.25421300  0.82798400  1
  O  O79  1  0.44470400  0.26484300  0.75611400  1
  O  O80  1  0.64549600  0.27142400  0.74630800  1
  O  O81  1  0.55529600  0.26484300  0.75611400  1
  O  O82  1  0.35450400  0.27142400  0.74630800  1
  O  O83  1  0.24426600  0.20967400  0.80856100  1
  O  O84  1  0.15714700  0.25421300  0.82798400  1
  O  O85  1  0.95817300  0.21984700  0.18509400  1
  O  O86  1  0.04182700  0.21984700  0.18509400  1
  O  O87  1  0.86308100  0.19307400  0.27427700  1
  O  O88  1  0.35401000  0.23906900  0.25000200  1
  O  O89  1  0.75403300  0.26011000  0.29995400  1
  O  O90  1  0.55622900  0.25320700  0.25640700  1
  O  O91  1  0.64599000  0.23906900  0.25000200  1
  O  O92  1  0.44377100  0.25320700  0.25640700  1
  O  O93  1  0.13691900  0.19307400  0.27427700  1
  O  O94  1  0.24596700  0.26011000  0.29995400  1
  O  O95  1  0.84458900  0.56346100  0.43251000  1
  O  O96  1  0.70153500  0.03623100  0.52883300  1
  O  O97  1  0.50000000  0.06430100  0.51591600  1
  O  O98  1  0.29846500  0.03623100  0.52883300  1
  O  O99  1  0.15541100  0.56346100  0.43251000  1
