# generated using pymatgen
data_BaMg2Al6(Si3O10)3
_symmetry_space_group_name_H-M   'P 1'
_cell_length_a   10.25904400
_cell_length_b   10.33608980
_cell_length_c   14.37323016
_cell_angle_alpha   89.83703871
_cell_angle_beta   90.61069435
_cell_angle_gamma   119.71970015
_symmetry_Int_Tables_number   1
_chemical_formula_structural   BaMg2Al6(Si3O10)3
_chemical_formula_sum   'Ba2 Mg4 Al12 Si18 O60'
_cell_volume   1323.55360994
_cell_formula_units_Z   2
loop_
 _symmetry_equiv_pos_site_id
 _symmetry_equiv_pos_as_xyz
  1  'x, y, z'
loop_
 _atom_site_type_symbol
 _atom_site_label
 _atom_site_symmetry_multiplicity
 _atom_site_fract_x
 _atom_site_fract_y
 _atom_site_fract_z
 _atom_site_occupancy
  Ba  Ba0  1  0.99019100  0.99539000  0.25432600  1
  Ba  Ba1  1  0.99775800  0.99337500  0.75447600  1
  Mg  Mg2  1  0.66640700  0.33777900  0.75231200  1
  Mg  Mg3  1  0.66522000  0.33526000  0.25181600  1
  Mg  Mg4  1  0.33607800  0.66150100  0.75338700  1
  Mg  Mg5  1  0.34143200  0.66936500  0.25043600  1
  Al  Al6  1  0.35076900  0.24752800  0.38775000  1
  Al  Al7  1  0.50498300  0.50159000  0.24658900  1
  Al  Al8  1  0.49584500  0.99867300  0.25174700  1
  Al  Al9  1  0.10835600  0.74767600  0.88793700  1
  Al  Al10  1  0.00284300  0.49360800  0.74840600  1
  Al  Al11  1  0.00230100  0.50329800  0.25233400  1
  Al  Al12  1  0.50493500  0.00400700  0.74947800  1
  Al  Al13  1  0.24307800  0.34552000  0.88918400  1
  Al  Al14  1  0.64621800  0.89670800  0.11211700  1
  Al  Al15  1  0.49577000  0.50200800  0.75292700  1
  Al  Al16  1  0.65259600  0.75805800  0.38652000  1
  Al  Al17  1  0.64844700  0.75525400  0.61132300  1
  Si  Si18  1  0.34759800  0.24714000  0.61231900  1
  Si  Si19  1  0.34985400  0.09963800  0.88667400  1
  Si  Si20  1  0.34130400  0.09481500  0.10948400  1
  Si  Si21  1  0.75844400  0.65576000  0.10955300  1
  Si  Si22  1  0.75729200  0.65816000  0.88740400  1
  Si  Si23  1  0.90148800  0.65365200  0.61270300  1
  Si  Si24  1  0.90071600  0.65004700  0.39084700  1
  Si  Si25  1  0.75247800  0.10525300  0.38796600  1
  Si  Si26  1  0.75176800  0.10176200  0.60972100  1
  Si  Si27  1  0.10516000  0.74812100  0.11100800  1
  Si  Si28  1  0.89391500  0.24362800  0.88936700  1
  Si  Si29  1  0.89718800  0.24900400  0.11211500  1
  Si  Si30  1  0.24863600  0.90302200  0.61187200  1
  Si  Si31  1  0.24760200  0.89900500  0.39092000  1
  Si  Si32  1  0.10259600  0.35100600  0.38722500  1
  Si  Si33  1  0.10161200  0.34780800  0.60707100  1
  Si  Si34  1  0.24090700  0.33984300  0.11241000  1
  Si  Si35  1  0.64535700  0.89599900  0.88948100  1
  O  O36  1  0.28350000  0.20596600  0.85570400  1
  O  O37  1  0.26515500  0.19620600  0.13884200  1
  O  O38  1  0.26538000  0.05658700  0.35879300  1
  O  O39  1  0.27357500  0.06829600  0.64221600  1
  O  O40  1  0.39272500  0.27285400  0.50605500  1
  O  O41  1  0.48691000  0.35192700  0.68316100  1
  O  O42  1  0.50275000  0.35923200  0.31649600  1
  O  O43  1  0.38495400  0.11149400  0.99996100  1
  O  O44  1  0.64510200  0.51075300  0.82471600  1
  O  O45  1  0.64662100  0.50856800  0.17045700  1
  O  O46  1  0.73195700  0.61932200  0.99810100  1
  O  O47  1  0.50212700  0.14066700  0.82533400  1
  O  O48  1  0.48690400  0.13384500  0.17591100  1
  O  O49  1  0.80328700  0.72587100  0.35860100  1
  O  O50  1  0.79895200  0.72332300  0.64302300  1
  O  O51  1  0.92962100  0.72390000  0.85772900  1
  O  O52  1  0.93347100  0.70872700  0.14018300  1
  O  O53  1  0.64490700  0.14262400  0.67466500  1
  O  O54  1  0.63972200  0.14041800  0.32388100  1
  O  O55  1  0.89133100  0.61213100  0.50204700  1
  O  O56  1  0.86347200  0.50439100  0.32583800  1
  O  O57  1  0.86615600  0.50704600  0.67622000  1
  O  O58  1  0.72198800  0.11358000  0.49880100  1
  O  O59  1  0.07457500  0.78731100  0.63976000  1
  O  O60  1  0.07505400  0.77303900  0.36284000  1
  O  O61  1  0.85998900  0.35448900  0.82290700  1
  O  O62  1  0.86684600  0.36385400  0.17591300  1
  O  O63  1  0.88663000  0.27628200  0.00026500  1
  O  O64  1  0.22364900  0.93337200  0.85568500  1
  O  O65  1  0.20782500  0.92656300  0.13909800  1
  O  O66  1  0.77426700  0.06872500  0.86266400  1
  O  O67  1  0.78702200  0.07901300  0.14178000  1
  O  O68  1  0.12184100  0.71878000  0.00477500  1
  O  O69  1  0.14326100  0.63263800  0.81723600  1
  O  O70  1  0.14236600  0.64734300  0.18279800  1
  O  O71  1  0.93000300  0.22056000  0.63338900  1
  O  O72  1  0.92550400  0.23154500  0.36167300  1
  O  O73  1  0.27359500  0.89161800  0.50213500  1
  O  O74  1  0.14139300  0.49758400  0.32448500  1
  O  O75  1  0.13638500  0.48959700  0.67128600  1
  O  O76  1  0.11915800  0.38940500  0.49796300  1
  O  O77  1  0.36254900  0.87224700  0.67451000  1
  O  O78  1  0.36147600  0.86656400  0.33031300  1
  O  O79  1  0.05276000  0.26288000  0.85688500  1
  O  O80  1  0.06585400  0.27913500  0.14445800  1
  O  O81  1  0.20505900  0.27406400  0.63830300  1
  O  O82  1  0.19784300  0.27343900  0.35658300  1
  O  O83  1  0.50594900  0.86273600  0.81955400  1
  O  O84  1  0.49312400  0.85883400  0.18129600  1
  O  O85  1  0.26466300  0.38024100  0.00562400  1
  O  O86  1  0.35710300  0.49995900  0.82423700  1
  O  O87  1  0.35169400  0.48095900  0.17671500  1
  O  O88  1  0.59978400  0.87552100  0.99563200  1
  O  O89  1  0.49922000  0.64159400  0.68300000  1
  O  O90  1  0.50581700  0.64470300  0.31091700  1
  O  O91  1  0.59884700  0.73230500  0.49813300  1
  O  O92  1  0.73876400  0.94969300  0.35403500  1
  O  O93  1  0.73147000  0.94507300  0.64611200  1
  O  O94  1  0.72319700  0.79505700  0.85934900  1
  O  O95  1  0.73775700  0.79529200  0.13975500  1
