# generated using pymatgen
data_V2Bi8O17
_symmetry_space_group_name_H-M   'P 1'
_cell_length_a   4.18629034
_cell_length_b   4.18629034
_cell_length_c   32.17732774
_cell_angle_alpha   85.75988679
_cell_angle_beta   85.75988679
_cell_angle_gamma   52.71044703
_symmetry_Int_Tables_number   1
_chemical_formula_structural   V2Bi8O17
_chemical_formula_sum   'V2 Bi8 O17'
_cell_volume   447.10673111
_cell_formula_units_Z   1
loop_
 _symmetry_equiv_pos_site_id
 _symmetry_equiv_pos_as_xyz
  1  'x, y, z'
loop_
 _atom_site_type_symbol
 _atom_site_label
 _atom_site_symmetry_multiplicity
 _atom_site_fract_x
 _atom_site_fract_y
 _atom_site_fract_z
 _atom_site_occupancy
  V  V0  1  0.70493300  0.70493300  0.60951000  1
  V  V1  1  0.30952500  0.30952500  0.78633700  1
  Bi  Bi2  1  0.00507600  0.00507600  0.97470300  1
  Bi  Bi3  1  0.36399400  0.36399400  0.09105900  1
  Bi  Bi4  1  0.59291500  0.59291500  0.19364700  1
  Bi  Bi5  1  0.94742000  0.94742000  0.30877200  1
  Bi  Bi6  1  0.19382000  0.19382000  0.40968200  1
  Bi  Bi7  1  0.53784200  0.53784200  0.52271400  1
  Bi  Bi8  1  0.14363200  0.14363200  0.69847000  1
  Bi  Bi9  1  0.75539800  0.75539800  0.87471100  1
  O  O10  1  0.60694900  0.60694900  0.12461400  1
  O  O11  1  0.95985600  0.95985600  0.05614900  1
  O  O12  1  0.26820300  0.26820300  0.19262500  1
  O  O13  1  0.19513500  0.19513500  0.34138100  1
  O  O14  1  0.54525900  0.54525900  0.27421400  1
  O  O15  1  0.87061800  0.87061800  0.40760100  1
  O  O16  1  0.79939500  0.79939500  0.55573100  1
  O  O17  1  0.15506000  0.15506000  0.49062300  1
  O  O18  1  0.18243800  0.18243800  0.62269100  1
  O  O19  1  0.49229500  0.49229500  0.59646300  1
  O  O20  1  0.40456000  0.40456000  0.73171100  1
  O  O21  1  0.76941300  0.76941300  0.66801400  1
  O  O22  1  0.78683100  0.78683100  0.80012000  1
  O  O23  1  0.09718100  0.09718100  0.77413900  1
  O  O24  1  0.01486100  0.01486100  0.90601300  1
  O  O25  1  0.37482700  0.37482700  0.84372700  1
  O  O26  1  0.68136800  0.68136800  0.97218400  1
