# generated using pymatgen
data_Sr5La3Mn8(O2F)8
_symmetry_space_group_name_H-M   'P 1'
_cell_length_a   5.78299700
_cell_length_b   5.85185388
_cell_length_c   15.71062507
_cell_angle_alpha   90.02974199
_cell_angle_beta   90.29872623
_cell_angle_gamma   90.54720059
_symmetry_Int_Tables_number   1
_chemical_formula_structural   Sr5La3Mn8(O2F)8
_chemical_formula_sum   'Sr5 La3 Mn8 O16 F8'
_cell_volume   531.63568558
_cell_formula_units_Z   1
loop_
 _symmetry_equiv_pos_site_id
 _symmetry_equiv_pos_as_xyz
  1  'x, y, z'
loop_
 _atom_site_type_symbol
 _atom_site_label
 _atom_site_symmetry_multiplicity
 _atom_site_fract_x
 _atom_site_fract_y
 _atom_site_fract_z
 _atom_site_occupancy
  Sr  Sr0  1  0.98796600  0.50943300  0.87891200  1
  Sr  Sr1  1  0.99054700  0.49952500  0.37508400  1
  Sr  Sr2  1  0.53316900  0.00281200  0.61824700  1
  Sr  Sr3  1  0.50717500  0.00893300  0.12662100  1
  Sr  Sr4  1  0.51316300  0.99929100  0.88201300  1
  La  La5  1  0.45292200  0.01340000  0.38138800  1
  La  La6  1  0.96601800  0.49792100  0.61528300  1
  La  La7  1  0.01195600  0.49423400  0.12303000  1
  Mn  Mn8  1  0.99802800  0.00348600  0.99985900  1
  Mn  Mn9  1  0.98594200  0.01339400  0.49824800  1
  Mn  Mn10  1  0.51444500  0.51428100  0.74969800  1
  Mn  Mn11  1  0.50286000  0.49919500  0.25064500  1
  Mn  Mn12  1  0.49603100  0.50214600  0.00009200  1
  Mn  Mn13  1  0.50585100  0.49016700  0.49726100  1
  Mn  Mn14  1  0.99236600  0.98618600  0.74999300  1
  Mn  Mn15  1  0.00409200  0.99514300  0.25073500  1
  O  O16  1  0.97217400  0.09356700  0.62548700  1
  O  O17  1  0.99781200  0.08882900  0.12662800  1
  O  O18  1  0.76039600  0.27492200  0.98792300  1
  O  O19  1  0.71945200  0.23501200  0.47342400  1
  O  O20  1  0.77936600  0.74257400  0.51567400  1
  O  O21  1  0.78661400  0.72070700  0.72714400  1
  O  O22  1  0.79049600  0.70854800  0.22887400  1
  O  O23  1  0.50597500  0.57974700  0.87655700  1
  O  O24  1  0.47991200  0.59497500  0.37626100  1
  O  O25  1  0.47601100  0.42691200  0.12414100  1
  O  O26  1  0.53654300  0.42886800  0.62268600  1
  O  O27  1  0.22762800  0.25130200  0.48486900  1
  O  O28  1  0.24655600  0.25235000  0.27078900  1
  O  O29  1  0.22399300  0.72444700  0.02054000  1
  O  O30  1  0.04502100  0.92182100  0.37689000  1
  O  O31  1  0.99226000  0.93291600  0.87497300  1
  F  F32  1  0.73029500  0.23026900  0.77587600  1
  F  F33  1  0.72622400  0.21604500  0.27985200  1
  F  F34  1  0.73559400  0.76652400  0.02922000  1
  F  F35  1  0.25879700  0.23794000  0.97148000  1
  F  F36  1  0.23877900  0.26159900  0.76975400  1
  F  F37  1  0.26989600  0.75425000  0.52817400  1
  F  F38  1  0.26693700  0.76237500  0.71500700  1
  F  F39  1  0.27074100  0.76395400  0.22066700  1
