# generated using pymatgen
data_Na2TiFe(PO4)3
_symmetry_space_group_name_H-M   'P 1'
_cell_length_a   8.75187819
_cell_length_b   8.75187819
_cell_length_c   8.86927442
_cell_angle_alpha   60.60229090
_cell_angle_beta   60.60229090
_cell_angle_gamma   60.03088895
_symmetry_Int_Tables_number   1
_chemical_formula_structural   Na2TiFe(PO4)3
_chemical_formula_sum   'Na4 Ti2 Fe2 P6 O24'
_cell_volume   484.81153729
_cell_formula_units_Z   2
loop_
 _symmetry_equiv_pos_site_id
 _symmetry_equiv_pos_as_xyz
  1  'x, y, z'
loop_
 _atom_site_type_symbol
 _atom_site_label
 _atom_site_symmetry_multiplicity
 _atom_site_fract_x
 _atom_site_fract_y
 _atom_site_fract_z
 _atom_site_occupancy
  Na  Na0  1  0.99967100  0.49241500  0.74860900  1
  Na  Na1  1  0.50758500  0.00032900  0.25139100  1
  Na  Na2  1  0.24837600  0.38165300  0.00003700  1
  Na  Na3  1  0.61834700  0.75162400  0.99996300  1
  Ti  Ti4  1  0.14227400  0.64480100  0.31883200  1
  Ti  Ti5  1  0.35519900  0.85772600  0.68116800  1
  Fe  Fe6  1  0.65599800  0.15039300  0.80181000  1
  Fe  Fe7  1  0.84960700  0.34400200  0.19819000  1
  P  P8  1  0.74915100  0.95613900  0.50319700  1
  P  P9  1  0.04386100  0.25084900  0.49680300  1
  P  P10  1  0.45779700  0.54220300  0.50000000  1
  P  P11  1  0.53972300  0.46027700  0.00000000  1
  P  P12  1  0.96035500  0.75393200  0.99985100  1
  P  P13  1  0.24606800  0.03964500  0.00014900  1
  O  O14  1  0.28908300  0.00020000  0.82871800  1
  O  O15  1  0.50150000  0.63248400  0.82975700  1
  O  O16  1  0.92111000  0.77628300  0.48411200  1
  O  O17  1  0.13288000  0.78747000  0.83029300  1
  O  O18  1  0.78153200  0.12496800  0.33231400  1
  O  O19  1  0.57901000  0.93076500  0.51662400  1
  O  O20  1  0.06923500  0.42099000  0.48337600  1
  O  O21  1  0.22371700  0.07889000  0.51588800  1
  O  O22  1  0.43112200  0.72333800  0.51677500  1
  O  O23  1  0.36751600  0.49850000  0.17024300  1
  O  O24  1  0.71829000  0.44605800  0.00836300  1
  O  O25  1  0.99980000  0.71091700  0.17128200  1
  O  O26  1  0.02105500  0.28533000  0.31962900  1
  O  O27  1  0.27666200  0.56887800  0.48322500  1
  O  O28  1  0.62441300  0.51726100  0.32437700  1
  O  O29  1  0.55394200  0.28171000  0.99163700  1
  O  O30  1  0.77632600  0.91896500  0.99246900  1
  O  O31  1  0.94199700  0.58260900  0.00639900  1
  O  O32  1  0.41739100  0.05800300  0.99360100  1
  O  O33  1  0.21253000  0.86712000  0.16970700  1
  O  O34  1  0.87503200  0.21846800  0.66768600  1
  O  O35  1  0.08103500  0.22367400  0.00753100  1
  O  O36  1  0.48273900  0.37558700  0.67562300  1
  O  O37  1  0.71467000  0.97894500  0.68037100  1
