# generated using pymatgen
data_Na4Ga3Si3NO14
_symmetry_space_group_name_H-M   'P 1'
_cell_length_a   9.22651500
_cell_length_b   9.26344082
_cell_length_c   9.40644479
_cell_angle_alpha   90.30517832
_cell_angle_beta   90.06346948
_cell_angle_gamma   90.59578921
_symmetry_Int_Tables_number   1
_chemical_formula_structural   Na4Ga3Si3NO14
_chemical_formula_sum   'Na8 Ga6 Si6 N2 O28'
_cell_volume   803.90661028
_cell_formula_units_Z   2
loop_
 _symmetry_equiv_pos_site_id
 _symmetry_equiv_pos_as_xyz
  1  'x, y, z'
loop_
 _atom_site_type_symbol
 _atom_site_label
 _atom_site_symmetry_multiplicity
 _atom_site_fract_x
 _atom_site_fract_y
 _atom_site_fract_z
 _atom_site_occupancy
  Na  Na0  1  0.80516400  0.18096400  0.80665400  1
  Na  Na1  1  0.81482800  0.80243000  0.19778300  1
  Na  Na2  1  0.67156100  0.31239800  0.31811500  1
  Na  Na3  1  0.70730400  0.69177300  0.67496600  1
  Na  Na4  1  0.31592800  0.31759100  0.70002800  1
  Na  Na5  1  0.29662300  0.69568600  0.29463400  1
  Na  Na6  1  0.19066600  0.18553300  0.18024000  1
  Na  Na7  1  0.20301500  0.80387300  0.78308800  1
  Ga  Ga8  1  0.01380600  0.75326700  0.45775700  1
  Ga  Ga9  1  0.74736200  0.48841600  0.03068500  1
  Ga  Ga10  1  0.50457000  0.98873900  0.26161800  1
  Ga  Ga11  1  0.52441600  0.98546700  0.79064500  1
  Ga  Ga12  1  0.23919500  0.49325000  0.99984700  1
  Ga  Ga13  1  0.00243800  0.24888300  0.49080400  1
  Si  Si14  1  0.99743800  0.48061400  0.25483300  1
  Si  Si15  1  0.73901700  0.00981600  0.52008400  1
  Si  Si16  1  0.50890700  0.73215400  0.01978500  1
  Si  Si17  1  0.48933000  0.24478400  0.01186000  1
  Si  Si18  1  0.23036500  0.00099600  0.47421400  1
  Si  Si19  1  0.01713100  0.50939500  0.71821800  1
  N  N20  1  0.41170900  0.40877000  0.46999400  1
  N  N21  1  0.82554900  0.06440100  0.08760700  1
  O  O22  1  0.92393300  0.34187000  0.33769000  1
  O  O23  1  0.95955400  0.64631700  0.62855700  1
  O  O24  1  0.85427200  0.46040400  0.78918900  1
  O  O25  1  0.85776200  0.55863400  0.17948800  1
  O  O26  1  0.85381200  0.13806900  0.56544400  1
  O  O27  1  0.82638700  0.86342900  0.45442400  1
  O  O28  1  0.63530600  0.07152300  0.39249100  1
  O  O29  1  0.68167300  0.95393500  0.67583800  1
  O  O30  1  0.61263800  0.35004200  0.08370400  1
  O  O31  1  0.64773900  0.64189300  0.95478000  1
  O  O32  1  0.55698100  0.16395300  0.86961600  1
  O  O33  1  0.56545900  0.83224400  0.15405800  1
  O  O34  1  0.69630500  0.76368900  0.43454000  1
  O  O35  1  0.43677700  0.13235300  0.13646900  1
  O  O36  1  0.45084800  0.83359000  0.89132000  1
  O  O37  1  0.34686700  0.33124700  0.94944100  1
  O  O38  1  0.36848800  0.63262500  0.06881600  1
  O  O39  1  0.32101300  0.09069300  0.60401000  1
  O  O40  1  0.34373700  0.93065600  0.36184700  1
  O  O41  1  0.13004200  0.88321200  0.55784800  1
  O  O42  1  0.14323800  0.13762400  0.40715300  1
  O  O43  1  0.14168300  0.55950500  0.83661800  1
  O  O44  1  0.12116700  0.42423000  0.14196500  1
  O  O45  1  0.07649500  0.36382300  0.63790600  1
  O  O46  1  0.08450400  0.58145900  0.37183500  1
  O  O47  1  0.36833000  0.95665900  0.67474600  1
  O  O48  1  0.05256800  0.82701500  0.27007800  1
  O  O49  1  0.88310400  0.38010700  0.92567100  1
