# generated using pymatgen
data_RbAl6H20N5F24
_symmetry_space_group_name_H-M   'P 1'
_cell_length_a   5.33719600
_cell_length_b   5.35700207
_cell_length_c   18.71502242
_cell_angle_alpha   89.43494717
_cell_angle_beta   88.86614751
_cell_angle_gamma   89.24501537
_symmetry_Int_Tables_number   1
_chemical_formula_structural   RbAl6H20N5F24
_chemical_formula_sum   'Rb1 Al6 H20 N5 F24'
_cell_volume   534.91224318
_cell_formula_units_Z   1
loop_
 _symmetry_equiv_pos_site_id
 _symmetry_equiv_pos_as_xyz
  1  'x, y, z'
loop_
 _atom_site_type_symbol
 _atom_site_label
 _atom_site_symmetry_multiplicity
 _atom_site_fract_x
 _atom_site_fract_y
 _atom_site_fract_z
 _atom_site_occupancy
  Rb  Rb0  1  0.10068000  0.36761400  0.82010900  1
  Al  Al1  1  0.33911100  0.71453700  0.34662600  1
  Al  Al2  1  0.65692300  0.37394500  0.65785900  1
  Al  Al3  1  0.84858300  0.22170900  0.33665800  1
  Al  Al4  1  0.99054400  0.97239100  0.99534400  1
  Al  Al5  1  0.15967800  0.90584000  0.67012700  1
  Al  Al6  1  0.49346800  0.48348300  0.00229700  1
  H  H7  1  0.50159600  0.13417100  0.19039200  1
  H  H8  1  0.82399300  0.55923300  0.12075300  1
  H  H9  1  0.82128400  0.93909200  0.50447400  1
  H  H10  1  0.98843100  0.37509200  0.17668100  1
  H  H11  1  0.84848700  0.71091900  0.24359800  1
  H  H12  1  0.83676200  0.82072100  0.21810100  1
  H  H13  1  0.01020900  0.32697400  0.09002200  1
  H  H14  1  0.14381900  0.79285500  0.23192100  1
  H  H15  1  0.14351900  0.58452900  0.12098300  1
  H  H16  1  0.14381000  0.87378200  0.58783600  1
  H  H17  1  0.21317900  0.52074700  0.58836700  1
  H  H18  1  0.18780600  0.30828000  0.46945100  1
  H  H19  1  0.30853600  0.01491900  0.47510700  1
  H  H20  1  0.49415400  0.26365400  0.48940200  1
  H  H21  1  0.39178100  0.19926900  0.40775600  1
  H  H22  1  0.57376800  0.42366300  0.84880000  1
  H  H23  1  0.61142500  0.06633900  0.79588600  1
  H  H24  1  0.49841100  0.78263500  0.78401300  1
  H  H25  1  0.63556100  0.85345900  0.86273800  1
  H  H26  1  0.81379700  0.83016400  0.78781400  1
  N  N27  1  0.47340800  0.04744700  0.14202200  1
  N  N28  1  0.77983200  0.74979100  0.50268000  1
  N  N29  1  0.99306200  0.46713600  0.12715600  1
  N  N30  1  0.34437600  0.19748700  0.46101900  1
  N  N31  1  0.63833000  0.87913900  0.80818600  1
  F  F32  1  0.49192000  0.50706000  0.09396200  1
  F  F33  1  0.31260200  0.72690000  0.23916700  1
  F  F34  1  0.58125800  0.96048400  0.33688800  1
  F  F35  1  0.58055900  0.47366400  0.33388700  1
  F  F36  1  0.84224200  0.22240000  0.42737200  1
  F  F37  1  0.63920200  0.30344600  0.57131900  1
  F  F38  1  0.98327000  0.97353400  0.08702900  1
  F  F39  1  0.86652400  0.60890200  0.68307300  1
  F  F40  1  0.85694900  0.22214900  0.24458700  1
  F  F41  1  0.88842600  0.13514900  0.68630600  1
  F  F42  1  0.09799500  0.96446900  0.33556600  1
  F  F43  1  0.14829100  0.85725300  0.76384700  1
  F  F44  1  0.09641500  0.47196400  0.33445800  1
  F  F45  1  0.99213800  0.98024100  0.90214600  1
  F  F46  1  0.31070600  0.70499500  0.43801600  1
  F  F47  1  0.24532800  0.23881600  0.99372400  1
  F  F48  1  0.12215100  0.37581200  0.57633800  1
  F  F49  1  0.24281500  0.72402800  0.99238900  1
  F  F50  1  0.40748900  0.61408500  0.67057900  1
  F  F51  1  0.40931700  0.13957900  0.68529000  1
  F  F52  1  0.61369900  0.37227300  0.79132100  1
  F  F53  1  0.50155200  0.49507800  0.90231700  1
  F  F54  1  0.73840900  0.23866700  0.99450400  1
  F  F55  1  0.74148800  0.72736900  0.99160000  1
