# generated using pymatgen
data_Ca19Si6S6(ClO24)2
_symmetry_space_group_name_H-M   'P 1'
_cell_length_a   13.78476200
_cell_length_b   9.72076200
_cell_length_c   9.75081759
_cell_angle_alpha   60.17154545
_cell_angle_beta   90.00000000
_cell_angle_gamma   90.00000000
_symmetry_Int_Tables_number   1
_chemical_formula_structural   Ca19Si6S6(ClO24)2
_chemical_formula_sum   'Ca19 Si6 S6 Cl2 O48'
_cell_volume   1133.49439630
_cell_formula_units_Z   1
loop_
 _symmetry_equiv_pos_site_id
 _symmetry_equiv_pos_as_xyz
  1  'x, y, z'
loop_
 _atom_site_type_symbol
 _atom_site_label
 _atom_site_symmetry_multiplicity
 _atom_site_fract_x
 _atom_site_fract_y
 _atom_site_fract_z
 _atom_site_occupancy
  Ca  Ca0  1  0.00000000  0.02021500  0.72559600  1
  Ca  Ca1  1  0.50000000  0.02072400  0.73985700  1
  Ca  Ca2  1  0.00000000  0.29272900  0.95688700  1
  Ca  Ca3  1  0.50000000  0.27811400  0.95771400  1
  Ca  Ca4  1  0.87672300  0.67152400  0.67094200  1
  Ca  Ca5  1  0.12327700  0.67152400  0.67094200  1
  Ca  Ca6  1  0.63144300  0.65763900  0.68561800  1
  Ca  Ca7  1  0.36855700  0.65763900  0.68561800  1
  Ca  Ca8  1  0.74899500  0.25771400  0.74821600  1
  Ca  Ca9  1  0.25100500  0.25771400  0.74821600  1
  Ca  Ca10  1  0.50000000  0.73182300  0.25922900  1
  Ca  Ca11  1  0.87213300  0.34084900  0.34739100  1
  Ca  Ca12  1  0.63012100  0.32625800  0.35497400  1
  Ca  Ca13  1  0.36987900  0.32625800  0.35497400  1
  Ca  Ca14  1  0.12786700  0.34084900  0.34739100  1
  Ca  Ca15  1  0.75133600  0.74786000  0.97500500  1
  Ca  Ca16  1  0.24866400  0.74786000  0.97500500  1
  Ca  Ca17  1  0.75026800  0.02407900  0.26817500  1
  Ca  Ca18  1  0.24973200  0.02407900  0.26817500  1
  Si  Si19  1  0.74942800  0.39094000  0.97770800  1
  Si  Si20  1  0.25057200  0.39094000  0.97770800  1
  Si  Si21  1  0.74938100  0.96697000  0.63100700  1
  Si  Si22  1  0.25061900  0.96697000  0.63100700  1
  Si  Si23  1  0.00000000  0.36800700  0.60721100  1
  Si  Si24  1  0.50000000  0.38630600  0.58521300  1
  S  S25  1  0.25232500  0.64464200  0.39047700  1
  S  S26  1  0.74767500  0.64464200  0.39047700  1
  S  S27  1  0.00000000  0.02572600  0.36294600  1
  S  S28  1  0.50000000  0.03155200  0.37415400  1
  S  S29  1  0.00000000  0.59976200  0.03402500  1
  S  S30  1  0.50000000  0.58093700  0.03860700  1
  Cl  Cl31  1  0.64762900  0.98980700  0.01459500  1
  Cl  Cl32  1  0.35237100  0.98980700  0.01459500  1
  O  O33  1  0.84158200  0.91448300  0.75624300  1
  O  O34  1  0.64922600  0.89743900  0.73800700  1
  O  O35  1  0.35077400  0.89743900  0.73800700  1
  O  O36  1  0.15841800  0.91448300  0.75624300  1
  O  O37  1  0.00000000  0.65524000  0.85944200  1
  O  O38  1  0.50000000  0.63954100  0.86586300  1
  O  O39  1  0.76583900  0.58538300  0.87333500  1
  O  O40  1  0.23416100  0.58538300  0.87333500  1
  O  O41  1  0.83468400  0.29829400  0.93743400  1
  O  O42  1  0.34978300  0.36871000  0.89628600  1
  O  O43  1  0.65021700  0.36871000  0.89628600  1
  O  O44  1  0.16531600  0.29829400  0.93743400  1
  O  O45  1  0.24184900  0.86667700  0.53437200  1
  O  O46  1  0.75815100  0.86667700  0.53437200  1
  O  O47  1  0.00000000  0.49239400  0.67835600  1
  O  O48  1  0.50000000  0.51492900  0.64744300  1
  O  O49  1  0.00000000  0.85827100  0.49179200  1
  O  O50  1  0.50000000  0.85810200  0.48210200  1
  O  O51  1  0.76527300  0.54654900  0.56651500  1
  O  O52  1  0.23472700  0.54654900  0.56651500  1
  O  O53  1  0.90638400  0.24448100  0.67678100  1
  O  O54  1  0.40526000  0.26680000  0.64314600  1
  O  O55  1  0.09361600  0.24448100  0.67678100  1
  O  O56  1  0.59474000  0.26680000  0.64314600  1
  O  O57  1  0.65111600  0.72192900  0.37026300  1
  O  O58  1  0.17779800  0.76667300  0.31261800  1
  O  O59  1  0.82220200  0.76667300  0.31261800  1
  O  O60  1  0.34888400  0.72192900  0.37026300  1
  O  O61  1  0.00000000  0.44484000  0.41532100  1
  O  O62  1  0.50000000  0.47079200  0.38935800  1
  O  O63  1  0.75113100  0.15815400  0.50605400  1
  O  O64  1  0.24886900  0.15815400  0.50605400  1
  O  O65  1  0.74594200  0.53541200  0.32307700  1
  O  O66  1  0.25405800  0.53541200  0.32307700  1
  O  O67  1  0.00000000  0.12848000  0.43963600  1
  O  O68  1  0.50000000  0.11976500  0.46450100  1
  O  O69  1  0.08841600  0.65384400  0.07775300  1
  O  O70  1  0.91158400  0.65384400  0.07775300  1
  O  O71  1  0.58720600  0.63931700  0.08439600  1
  O  O72  1  0.41279400  0.63931700  0.08439600  1
  O  O73  1  0.00000000  0.41967100  0.12030500  1
  O  O74  1  0.50000000  0.40362000  0.12712600  1
  O  O75  1  0.74589300  0.32248900  0.16989500  1
  O  O76  1  0.25410700  0.32248900  0.16989500  1
  O  O77  1  0.08565600  0.06771200  0.25854200  1
  O  O78  1  0.91434400  0.06771200  0.25854200  1
  O  O79  1  0.58649900  0.08400200  0.27013500  1
  O  O80  1  0.41350100  0.08400200  0.27013500  1
