# generated using pymatgen
data_Ca14La6Mg3Ti17O60
_symmetry_space_group_name_H-M   'P 1'
_cell_length_a   5.48077900
_cell_length_b   5.54818228
_cell_length_c   38.92920874
_cell_angle_alpha   89.90334671
_cell_angle_beta   89.97609954
_cell_angle_gamma   89.91380095
_symmetry_Int_Tables_number   1
_chemical_formula_structural   Ca14La6Mg3Ti17O60
_chemical_formula_sum   'Ca14 La6 Mg3 Ti17 O60'
_cell_volume   1183.77030392
_cell_formula_units_Z   1
loop_
 _symmetry_equiv_pos_site_id
 _symmetry_equiv_pos_as_xyz
  1  'x, y, z'
loop_
 _atom_site_type_symbol
 _atom_site_label
 _atom_site_symmetry_multiplicity
 _atom_site_fract_x
 _atom_site_fract_y
 _atom_site_fract_z
 _atom_site_occupancy
  Ca  Ca0  1  0.98761800  0.03926200  0.14865800  1
  Ca  Ca1  1  0.98918500  0.03897700  0.94983200  1
  Ca  Ca2  1  0.51106500  0.53976600  0.14869100  1
  Ca  Ca3  1  0.51370500  0.54100000  0.94973800  1
  Ca  Ca4  1  0.48814000  0.45985400  0.04922800  1
  Ca  Ca5  1  0.48926000  0.45968800  0.24747200  1
  Ca  Ca6  1  0.48494300  0.45629700  0.64857000  1
  Ca  Ca7  1  0.48492000  0.45620700  0.44830700  1
  Ca  Ca8  1  0.48338600  0.45668700  0.85004200  1
  Ca  Ca9  1  0.01224600  0.96047300  0.04932600  1
  Ca  Ca10  1  0.00800600  0.96121000  0.24738100  1
  Ca  Ca11  1  0.01230800  0.96358300  0.64900900  1
  Ca  Ca12  1  0.01203200  0.96346600  0.44875100  1
  Ca  Ca13  1  0.01639000  0.96173200  0.85046100  1
  La  La14  1  0.99225400  0.03003700  0.35164000  1
  La  La15  1  0.99424600  0.02918500  0.55219800  1
  La  La16  1  0.99440100  0.02887400  0.75264500  1
  La  La17  1  0.50880500  0.53269100  0.35152000  1
  La  La18  1  0.51059200  0.53392000  0.55204900  1
  La  La19  1  0.51108600  0.53380300  0.75249100  1
  Mg  Mg20  1  0.50056800  0.00055300  0.60160600  1
  Mg  Mg21  1  0.50051600  0.00008000  0.40157300  1
  Mg  Mg22  1  0.50063900  0.00093600  0.80196600  1
  Ti  Ti23  1  0.00897600  0.50174600  0.99932400  1
  Ti  Ti24  1  0.99600600  0.49893600  0.09845500  1
  Ti  Ti25  1  0.99467400  0.49809800  0.19751800  1
  Ti  Ti26  1  0.99990200  0.50395800  0.29706100  1
  Ti  Ti27  1  0.00076900  0.49998700  0.40267800  1
  Ti  Ti28  1  0.00046700  0.50013200  0.60338800  1
  Ti  Ti29  1  0.00322800  0.50007100  0.69919300  1
  Ti  Ti30  1  0.00067000  0.50016700  0.80417100  1
  Ti  Ti31  1  0.50221100  0.99858200  0.09819900  1
  Ti  Ti32  1  0.49623300  0.00402700  0.29763600  1
  Ti  Ti33  1  0.50084700  0.00011000  0.49757500  1
  Ti  Ti34  1  0.50221700  0.00391300  0.99798700  1
  Ti  Ti35  1  0.50243600  0.00032600  0.69784200  1
  Ti  Ti36  1  0.50871000  0.99279500  0.89844200  1
  Ti  Ti37  1  0.48985200  0.99532600  0.19846800  1
  Ti  Ti38  1  0.00153900  0.50031600  0.49884700  1
  Ti  Ti39  1  0.99836500  0.49313500  0.90056600  1
  O  O40  1  0.91579000  0.52072400  0.05090400  1
  O  O41  1  0.91627300  0.52083700  0.24975400  1
  O  O42  1  0.90857100  0.52548800  0.45063000  1
  O  O43  1  0.90813800  0.52553500  0.65103600  1
  O  O44  1  0.91008100  0.52623300  0.85213600  1
  O  O45  1  0.78178600  0.78086900  0.10931200  1
  O  O46  1  0.77733700  0.77463600  0.30797600  1
  O  O47  1  0.77861600  0.77627000  0.70925200  1
  O  O48  1  0.77890100  0.77611200  0.50894200  1
  O  O49  1  0.78630200  0.78363800  0.19115100  1
  O  O50  1  0.78227400  0.78396900  0.91056100  1
  O  O51  1  0.78470400  0.77245000  0.39037900  1
  O  O52  1  0.78555800  0.77231900  0.59086300  1
  O  O53  1  0.78546200  0.77185500  0.79138700  1
  O  O54  1  0.78083800  0.78199900  0.99184400  1
  O  O55  1  0.71982000  0.28184100  0.10928600  1
  O  O56  1  0.72058900  0.28599100  0.19119400  1
  O  O57  1  0.72374000  0.27584100  0.30801500  1
  O  O58  1  0.72579000  0.28670600  0.39061000  1
  O  O59  1  0.72709200  0.28737000  0.59105100  1
  O  O60  1  0.72609600  0.27953000  0.50933600  1
  O  O61  1  0.72174100  0.28601400  0.91064900  1
  O  O62  1  0.71496300  0.28157500  0.99178500  1
  O  O63  1  0.72564300  0.27930600  0.70963700  1
  O  O64  1  0.72749800  0.28723400  0.79160800  1
  O  O65  1  0.58302400  0.02051200  0.05120100  1
  O  O66  1  0.58466900  0.02147300  0.24956400  1
  O  O67  1  0.59139500  0.02824600  0.65255000  1
  O  O68  1  0.59193900  0.02867100  0.45232300  1
  O  O69  1  0.59126000  0.02769100  0.85343800  1
  O  O70  1  0.42404200  0.98653900  0.34691200  1
  O  O71  1  0.41762100  0.98010900  0.15073700  1
  O  O72  1  0.42254900  0.98570500  0.54781600  1
  O  O73  1  0.42220700  0.98558700  0.74818200  1
  O  O74  1  0.41445800  0.97969800  0.95182700  1
  O  O75  1  0.27800300  0.71679100  0.00960700  1
  O  O76  1  0.28306300  0.71766500  0.09157400  1
  O  O77  1  0.27939100  0.71745700  0.29020700  1
  O  O78  1  0.28434600  0.72096300  0.20898300  1
  O  O79  1  0.27381800  0.70935400  0.60843600  1
  O  O80  1  0.27940400  0.71826000  0.49022500  1
  O  O81  1  0.27397300  0.70904700  0.40793700  1
  O  O82  1  0.27896800  0.71808900  0.69052000  1
  O  O83  1  0.27397700  0.70943800  0.80903500  1
  O  O84  1  0.28426000  0.72027300  0.89189300  1
  O  O85  1  0.21598500  0.21929300  0.00965300  1
  O  O86  1  0.22100100  0.21985500  0.20895700  1
  O  O87  1  0.21711700  0.21787600  0.09155900  1
  O  O88  1  0.20488200  0.22209500  0.40821300  1
  O  O89  1  0.20537700  0.22286100  0.60856500  1
  O  O90  1  0.21729300  0.22211200  0.69082700  1
  O  O91  1  0.21923900  0.21826500  0.29023600  1
  O  O92  1  0.21761500  0.22194100  0.49057700  1
  O  O93  1  0.20542700  0.22289800  0.80921800  1
  O  O94  1  0.21519900  0.22276500  0.89203300  1
  O  O95  1  0.08501200  0.47931400  0.15053000  1
  O  O96  1  0.07620200  0.48651400  0.34818800  1
  O  O97  1  0.07780200  0.48895700  0.54852000  1
  O  O98  1  0.07767100  0.48892300  0.74893700  1
  O  O99  1  0.08479600  0.48050900  0.95121400  1
