# generated using pymatgen
data_Ca5Si2HO9F
_symmetry_space_group_name_H-M   'P 1'
_cell_length_a   8.87109900
_cell_length_b   7.14504300
_cell_length_c   7.46755723
_cell_angle_alpha   70.78447738
_cell_angle_beta   90.00000000
_cell_angle_gamma   90.00000000
_symmetry_Int_Tables_number   1
_chemical_formula_structural   Ca5Si2HO9F
_chemical_formula_sum   'Ca10 Si4 H2 O18 F2'
_cell_volume   446.95618676
_cell_formula_units_Z   2
loop_
 _symmetry_equiv_pos_site_id
 _symmetry_equiv_pos_as_xyz
  1  'x, y, z'
loop_
 _atom_site_type_symbol
 _atom_site_label
 _atom_site_symmetry_multiplicity
 _atom_site_fract_x
 _atom_site_fract_y
 _atom_site_fract_z
 _atom_site_occupancy
  Ca  Ca0  1  0.25221700  0.94858100  0.33649900  1
  Ca  Ca1  1  0.56334800  0.18679500  0.11521300  1
  Ca  Ca2  1  0.85960700  0.92355000  0.28930600  1
  Ca  Ca3  1  0.39470000  0.60091500  0.24825400  1
  Ca  Ca4  1  0.56338800  0.61269900  0.65789900  1
  Ca  Ca5  1  0.75221700  0.05141900  0.66350100  1
  Ca  Ca6  1  0.06334800  0.81320500  0.88478700  1
  Ca  Ca7  1  0.35960700  0.07645000  0.71069400  1
  Ca  Ca8  1  0.89470000  0.39908500  0.75174600  1
  Ca  Ca9  1  0.06338800  0.38730100  0.34210100  1
  Si  Si10  1  0.75967500  0.45978200  0.33082100  1
  Si  Si11  1  0.73178500  0.63434500  0.96554100  1
  Si  Si12  1  0.25967500  0.54021800  0.66917900  1
  Si  Si13  1  0.23178500  0.36565500  0.03445900  1
  H  H14  1  0.59624500  0.76880200  0.88204800  1
  H  H15  1  0.09624500  0.23119800  0.11795200  1
  O  O16  1  0.37435700  0.39936000  0.86870600  1
  O  O17  1  0.23880200  0.00662900  0.00191100  1
  O  O18  1  0.78476700  0.22708000  0.33684300  1
  O  O19  1  0.11602300  0.45829800  0.81798600  1
  O  O20  1  0.55174400  0.94845100  0.52854300  1
  O  O21  1  0.89938900  0.06128700  0.97058700  1
  O  O22  1  0.69870400  0.42866500  0.91274200  1
  O  O23  1  0.04872100  0.13379800  0.63208900  1
  O  O24  1  0.33918700  0.26028100  0.23587300  1
  O  O25  1  0.87435700  0.60064000  0.13129400  1
  O  O26  1  0.73880200  0.99337100  0.99808900  1
  O  O27  1  0.28476700  0.77292000  0.66315700  1
  O  O28  1  0.61602300  0.54170200  0.18201400  1
  O  O29  1  0.05174400  0.05154900  0.47145700  1
  O  O30  1  0.39938900  0.93871300  0.02941300  1
  O  O31  1  0.19870400  0.57133500  0.08725800  1
  O  O32  1  0.54872100  0.86620200  0.36791100  1
  O  O33  1  0.83918700  0.73971900  0.76412700  1
  F  F34  1  0.05834100  0.70724200  0.38368500  1
  F  F35  1  0.55834100  0.29275800  0.61631500  1
