# generated using pymatgen
data_Li25Ca5La7Nb8O48
_symmetry_space_group_name_H-M   'P 1'
_cell_length_a   11.32710251
_cell_length_b   11.32551535
_cell_length_c   11.12980281
_cell_angle_alpha   108.33855955
_cell_angle_beta   109.54211594
_cell_angle_gamma   110.22389805
_symmetry_Int_Tables_number   1
_chemical_formula_structural   Li25Ca5La7Nb8O48
_chemical_formula_sum   'Li25 Ca5 La7 Nb8 O48'
_cell_volume   1103.05629567
_cell_formula_units_Z   1
loop_
 _symmetry_equiv_pos_site_id
 _symmetry_equiv_pos_as_xyz
  1  'x, y, z'
loop_
 _atom_site_type_symbol
 _atom_site_label
 _atom_site_symmetry_multiplicity
 _atom_site_fract_x
 _atom_site_fract_y
 _atom_site_fract_z
 _atom_site_occupancy
  Li  Li0  1  0.25058500  0.62822400  0.38458800  1
  Li  Li1  1  0.36468500  0.23056100  0.61916200  1
  Li  Li2  1  0.53585800  0.72640300  0.38160800  1
  Li  Li3  1  0.68498500  0.64918300  0.29532100  1
  Li  Li4  1  0.72817600  0.90479400  0.32250400  1
  Li  Li5  1  0.29565900  0.14033800  0.90068400  1
  Li  Li6  1  0.48333200  0.41586400  0.15775100  1
  Li  Li7  1  0.81445400  0.88494300  0.14127100  1
  Li  Li8  1  0.84825100  0.48374500  0.68070500  1
  Li  Li9  1  0.65198900  0.35430900  0.24321800  1
  Li  Li10  1  0.83693200  0.27947000  0.70575000  1
  Li  Li11  1  0.58527400  0.32896900  0.46316700  1
  Li  Li12  1  0.60697700  0.31623900  0.66769200  1
  Li  Li13  1  0.88409900  0.43124800  0.25691000  1
  Li  Li14  1  0.06627700  0.08886900  0.80569000  1
  Li  Li15  1  0.77202800  0.96780800  0.56110400  1
  Li  Li16  1  0.13622800  0.75318500  0.87757700  1
  Li  Li17  1  0.65889000  0.52273900  0.43098700  1
  Li  Li18  1  0.48305000  0.70972600  0.86540400  1
  Li  Li19  1  0.89960100  0.14433200  0.78010000  1
  Li  Li20  1  0.84779100  0.13197800  0.94652900  1
  Li  Li21  1  0.14503400  0.88902200  0.26860800  1
  Li  Li22  1  0.57215200  0.72176000  0.10016300  1
  Li  Li23  1  0.84553400  0.15288400  0.16387000  1
  Li  Li24  1  0.00673300  0.36867500  0.14624000  1
  Ca  Ca25  1  0.13267000  0.24908500  0.37903100  1
  Ca  Ca26  1  0.63189900  0.24148800  0.89849800  1
  Ca  Ca27  1  0.76744800  0.63648900  0.87662700  1
  Ca  Ca28  1  0.76396800  0.17079600  0.39338500  1
  Ca  Ca29  1  0.89828900  0.65228400  0.24469500  1
  La  La30  1  0.15345400  0.38568400  0.76238300  1
  La  La31  1  0.26253500  0.88033300  0.63474300  1
  La  La32  1  0.61434700  0.85907100  0.73013500  1
  La  La33  1  0.23198600  0.37050900  0.12160200  1
  La  La34  1  0.36422800  0.75915700  0.13995800  1
  La  La35  1  0.35622500  0.10260600  0.21074100  1
  La  La36  1  0.90005100  0.76672100  0.62802000  1
  Nb  Nb37  1  0.02206600  0.01864700  0.50719800  1
  Nb  Nb38  1  0.99729100  0.98360700  0.99939100  1
  Nb  Nb39  1  0.48106400  0.49999500  0.52404900  1
  Nb  Nb40  1  0.51493500  0.01378200  0.50991700  1
  Nb  Nb41  1  0.51540600  0.47413700  0.96522400  1
  Nb  Nb42  1  0.51266500  0.99525300  0.00375500  1
  Nb  Nb43  1  0.04043400  0.51063400  0.52940900  1
  Nb  Nb44  1  0.00125600  0.52433400  0.00628400  1
  O  O45  1  0.11080700  0.98085800  0.68239000  1
  O  O46  1  0.02034300  0.33026100  0.92386900  1
  O  O47  1  0.13158300  0.60005500  0.93115900  1
  O  O48  1  0.08476100  0.69904900  0.67607800  1
  O  O49  1  0.08555400  0.89538400  0.41545800  1
  O  O50  1  0.08976800  0.61124600  0.42028200  1
  O  O51  1  0.19446000  0.48312400  0.60380400  1
  O  O52  1  0.43259000  0.83227400  0.80268600  1
  O  O53  1  0.32605800  0.33251700  0.93997300  1
  O  O54  1  0.40706800  0.57210000  0.91428200  1
  O  O55  1  0.01252000  0.19608800  0.12284800  1
  O  O56  1  0.34537000  0.93233300  0.30956600  1
  O  O57  1  0.18216200  0.21012000  0.58442000  1
  O  O58  1  0.18636600  0.57048300  0.17996400  1
  O  O59  1  0.41893900  0.83121400  0.52370900  1
  O  O60  1  0.30000800  0.46799400  0.38258500  1
  O  O61  1  0.33288400  0.90700700  0.02587700  1
  O  O62  1  0.11875500  0.02219700  0.19452200  1
  O  O63  1  0.42411700  0.07762900  0.89072800  1
  O  O64  1  0.52630700  0.61973600  0.71245400  1
  O  O65  1  0.54379400  0.38956800  0.81163900  1
  O  O66  1  0.40066900  0.30326200  0.48876500  1
  O  O67  1  0.60115100  0.92066200  0.39581200  1
  O  O68  1  0.18445700  0.11866600  0.00914100  1
  O  O69  1  0.80216700  0.87879900  0.96721800  1
  O  O70  1  0.44780700  0.10430000  0.63139900  1
  O  O71  1  0.61495900  0.67945000  0.52182900  1
  O  O72  1  0.49093400  0.60782900  0.19067600  1
  O  O73  1  0.48237800  0.36141000  0.29805500  1
  O  O74  1  0.58496700  0.88910100  0.10386100  1
  O  O75  1  0.88627500  0.98505400  0.80412900  1
  O  O76  1  0.68884300  0.09004900  0.98284200  1
  O  O77  1  0.69121600  0.51530800  0.61197400  1
  O  O78  1  0.61678400  0.19235700  0.49953000  1
  O  O79  1  0.81896500  0.43271800  0.82077300  1
  O  O80  1  0.82775100  0.84275100  0.44136700  1
  O  O81  1  0.69977200  0.08232600  0.69785900  1
  O  O82  1  0.98153800  0.80540300  0.88077300  1
  O  O83  1  0.70502600  0.67007100  0.08077500  1
  O  O84  1  0.61857300  0.42150400  0.09956000  1
  O  O85  1  0.59102300  0.16117700  0.20090100  1
  O  O86  1  0.81223700  0.55902900  0.39633200  1
  O  O87  1  0.93570000  0.39189400  0.60677000  1
  O  O88  1  0.96084200  0.13474900  0.64283400  1
  O  O89  1  0.91903400  0.32156900  0.33966300  1
  O  O90  1  0.87717200  0.42506600  0.08451500  1
  O  O91  1  0.99246000  0.69241200  0.09769900  1
  O  O92  1  0.90439300  0.03946600  0.34000300  1
