# generated using pymatgen
data_Na5Ca6Nd5Zr16O48
_symmetry_space_group_name_H-M   'P 1'
_cell_length_a   32.66822200
_cell_length_b   5.67136300
_cell_length_c   5.85752517
_cell_angle_alpha   89.88318844
_cell_angle_beta   90.00000000
_cell_angle_gamma   90.00000000
_symmetry_Int_Tables_number   1
_chemical_formula_structural   Na5Ca6Nd5Zr16O48
_chemical_formula_sum   'Na5 Ca6 Nd5 Zr16 O48'
_cell_volume   1085.24102998
_cell_formula_units_Z   1
loop_
 _symmetry_equiv_pos_site_id
 _symmetry_equiv_pos_as_xyz
  1  'x, y, z'
loop_
 _atom_site_type_symbol
 _atom_site_label
 _atom_site_symmetry_multiplicity
 _atom_site_fract_x
 _atom_site_fract_y
 _atom_site_fract_z
 _atom_site_occupancy
  Na  Na0  1  0.25038100  0.98779500  0.02826600  1
  Na  Na1  1  0.74961900  0.98779500  0.02826600  1
  Na  Na2  1  0.00000000  0.51202200  0.52836200  1
  Na  Na3  1  0.63034500  0.49602800  0.47663300  1
  Na  Na4  1  0.36965500  0.49602800  0.47663300  1
  Ca  Ca5  1  0.87378400  0.48736700  0.45220500  1
  Ca  Ca6  1  0.12621600  0.48736700  0.45220500  1
  Ca  Ca7  1  0.37036300  0.01141700  0.94786400  1
  Ca  Ca8  1  0.87636900  0.01511900  0.95163100  1
  Ca  Ca9  1  0.12363100  0.01511900  0.95163100  1
  Ca  Ca10  1  0.62963700  0.01141700  0.94786400  1
  Nd  Nd11  1  0.50000000  0.98941100  0.05010500  1
  Nd  Nd12  1  0.00000000  0.98810400  0.06077000  1
  Nd  Nd13  1  0.24984500  0.51551300  0.56425900  1
  Nd  Nd14  1  0.50000000  0.51141700  0.55745500  1
  Nd  Nd15  1  0.75015500  0.51551300  0.56425900  1
  Zr  Zr16  1  0.31167600  0.49782600  0.01285600  1
  Zr  Zr17  1  0.56588200  0.49883000  0.00413300  1
  Zr  Zr18  1  0.81300000  0.50056900  0.00575300  1
  Zr  Zr19  1  0.06299500  0.50197000  0.99448700  1
  Zr  Zr20  1  0.18700000  0.50056900  0.00575300  1
  Zr  Zr21  1  0.43411800  0.49883000  0.00413300  1
  Zr  Zr22  1  0.93700500  0.50197000  0.99448700  1
  Zr  Zr23  1  0.68832400  0.49782600  0.01285600  1
  Zr  Zr24  1  0.31190400  0.00471300  0.49525700  1
  Zr  Zr25  1  0.56594900  0.00442700  0.49659900  1
  Zr  Zr26  1  0.81336200  0.99980400  0.49523500  1
  Zr  Zr27  1  0.06264900  0.00106800  0.50430100  1
  Zr  Zr28  1  0.18663800  0.99980400  0.49523500  1
  Zr  Zr29  1  0.43405100  0.00442700  0.49659900  1
  Zr  Zr30  1  0.93735100  0.00106800  0.50430100  1
  Zr  Zr31  1  0.68809600  0.00471300  0.49525700  1
  O  O32  1  0.37535400  0.91130600  0.54431800  1
  O  O33  1  0.87530000  0.89161200  0.54114700  1
  O  O34  1  0.12470000  0.89161200  0.54114700  1
  O  O35  1  0.62464600  0.91130600  0.54431800  1
  O  O36  1  0.29976300  0.77878900  0.78378800  1
  O  O37  1  0.20129800  0.78321100  0.78479900  1
  O  O38  1  0.54610500  0.79077200  0.78408500  1
  O  O39  1  0.79870200  0.78321100  0.78479900  1
  O  O40  1  0.45389500  0.79077200  0.78408500  1
  O  O41  1  0.70023700  0.77878900  0.78378800  1
  O  O42  1  0.04979500  0.81640600  0.81029500  1
  O  O43  1  0.95020500  0.81640600  0.81029500  1
  O  O44  1  0.29784200  0.69251700  0.30768400  1
  O  O45  1  0.19960600  0.68510600  0.31194600  1
  O  O46  1  0.54520800  0.70638400  0.28550800  1
  O  O47  1  0.80039400  0.68510600  0.31194600  1
  O  O48  1  0.45479200  0.70638400  0.28550800  1
  O  O49  1  0.70215800  0.69251700  0.30768400  1
  O  O50  1  0.04883300  0.71818700  0.28404800  1
  O  O51  1  0.95116700  0.71818700  0.28404800  1
  O  O52  1  0.62465800  0.61039600  0.03235200  1
  O  O53  1  0.87503900  0.61007100  0.04015700  1
  O  O54  1  0.37534200  0.61039600  0.03235200  1
  O  O55  1  0.12496100  0.61007100  0.04015700  1
  O  O56  1  0.24947200  0.40713000  0.96927200  1
  O  O57  1  0.50000000  0.39738400  0.96363100  1
  O  O58  1  0.00000000  0.39456700  0.96665800  1
  O  O59  1  0.75052800  0.40713000  0.96927200  1
  O  O60  1  0.32291100  0.28532500  0.71724100  1
  O  O61  1  0.42874900  0.30899100  0.68919300  1
  O  O62  1  0.57125100  0.30899100  0.68919300  1
  O  O63  1  0.67708900  0.28532500  0.71724100  1
  O  O64  1  0.82487800  0.29730400  0.70291200  1
  O  O65  1  0.92045000  0.30052200  0.70539400  1
  O  O66  1  0.17512200  0.29730400  0.70291200  1
  O  O67  1  0.07955000  0.30052200  0.70539400  1
  O  O68  1  0.42784700  0.17482600  0.17216900  1
  O  O69  1  0.32779200  0.19573500  0.20341400  1
  O  O70  1  0.92550400  0.20368000  0.20109300  1
  O  O71  1  0.67220800  0.19573500  0.20341400  1
  O  O72  1  0.07449600  0.20368000  0.20109300  1
  O  O73  1  0.57215300  0.17482600  0.17216900  1
  O  O74  1  0.82995900  0.20072500  0.20608200  1
  O  O75  1  0.17004100  0.20072500  0.20608200  1
  O  O76  1  0.24938400  0.11018900  0.46946400  1
  O  O77  1  0.50000000  0.10862100  0.45577900  1
  O  O78  1  0.75061600  0.11018900  0.46946400  1
  O  O79  1  0.00000000  0.09521600  0.46557300  1
