# generated using pymatgen
data_Na13Ca7S12Cl2O48F
_symmetry_space_group_name_H-M   'P 1'
_cell_length_a   9.68839500
_cell_length_b   9.70031377
_cell_length_c   13.90301573
_cell_angle_alpha   89.94385112
_cell_angle_beta   90.24721758
_cell_angle_gamma   119.67458836
_symmetry_Int_Tables_number   1
_chemical_formula_structural   Na13Ca7S12Cl2O48F
_chemical_formula_sum   'Na13 Ca7 S12 Cl2 O48 F1'
_cell_volume   1135.23977239
_cell_formula_units_Z   1
loop_
 _symmetry_equiv_pos_site_id
 _symmetry_equiv_pos_as_xyz
  1  'x, y, z'
loop_
 _atom_site_type_symbol
 _atom_site_label
 _atom_site_symmetry_multiplicity
 _atom_site_fract_x
 _atom_site_fract_y
 _atom_site_fract_z
 _atom_site_occupancy
  Na  Na0  1  0.23224600  0.22836300  0.38888700  1
  Na  Na1  1  0.01099300  0.74136200  0.87105200  1
  Na  Na2  1  0.00109400  0.76925400  0.38362900  1
  Na  Na3  1  0.32257200  0.66924500  0.74734200  1
  Na  Na4  1  0.33166300  0.67140500  0.98427700  1
  Na  Na5  1  0.31764900  0.65921600  0.50502900  1
  Na  Na6  1  0.28024200  0.00513800  0.62587500  1
  Na  Na7  1  0.73141800  0.99362100  0.87074100  1
  Na  Na8  1  0.67484100  0.32798300  0.74617800  1
  Na  Na9  1  0.66074600  0.33321500  0.26081000  1
  Na  Na10  1  0.67460500  0.33737100  0.99386600  1
  Na  Na11  1  0.66415600  0.32946900  0.50478000  1
  Na  Na12  1  0.99418800  0.27324200  0.63008800  1
  Ca  Ca13  1  0.25515300  0.26066500  0.87011100  1
  Ca  Ca14  1  0.32744900  0.66243500  0.25589100  1
  Ca  Ca15  1  0.27509100  0.01039600  0.12446300  1
  Ca  Ca16  1  0.76732300  0.00271400  0.38037200  1
  Ca  Ca17  1  0.98975800  0.26408300  0.12291300  1
  Ca  Ca18  1  0.73389900  0.72270300  0.62872900  1
  Ca  Ca19  1  0.73790800  0.72275000  0.12279600  1
  S  S20  1  0.02705800  0.64456900  0.62356100  1
  S  S21  1  0.03980900  0.64454500  0.12779200  1
  S  S22  1  0.36517500  0.39107800  0.62451000  1
  S  S23  1  0.35794500  0.39550700  0.12601500  1
  S  S24  1  0.39847700  0.03354500  0.87876300  1
  S  S25  1  0.40585800  0.02452600  0.37263200  1
  S  S26  1  0.61474200  0.96778500  0.62258600  1
  S  S27  1  0.60608000  0.96245300  0.12853300  1
  S  S28  1  0.62619300  0.60073100  0.87754200  1
  S  S29  1  0.62289900  0.60044800  0.37381200  1
  S  S30  1  0.97090000  0.36695200  0.87884300  1
  S  S31  1  0.96963600  0.37349200  0.37236700  1
  Cl  Cl32  1  0.99968800  0.99959200  0.16679200  1
  Cl  Cl33  1  0.99557200  0.99612100  0.81714200  1
  O  O34  1  0.26988600  0.34753900  0.71493100  1
  O  O35  1  0.25299200  0.33192500  0.54262300  1
  O  O36  1  0.25895500  0.36593600  0.21351200  1
  O  O37  1  0.24727300  0.33089100  0.04185900  1
  O  O38  1  0.14944400  0.46059100  0.87613900  1
  O  O39  1  0.14554800  0.48131400  0.36951100  1
  O  O40  1  0.10275700  0.54293300  0.61979600  1
  O  O41  1  0.11540600  0.54125100  0.11801300  1
  O  O42  1  0.08080000  0.74386200  0.71160700  1
  O  O43  1  0.10652100  0.73790300  0.21809200  1
  O  O44  1  0.07567700  0.75215300  0.53901300  1
  O  O45  1  0.08934800  0.75735100  0.04604800  1
  O  O46  1  0.45976400  0.57036300  0.62068500  1
  O  O47  1  0.45828900  0.57299500  0.11636700  1
  O  O48  1  0.32279700  0.85809900  0.87599200  1
  O  O49  1  0.33917500  0.84844800  0.36999700  1
  O  O50  1  0.52185700  0.67216200  0.87580100  1
  O  O51  1  0.51624300  0.67225900  0.37046400  1
  O  O52  1  0.42779900  0.88403200  0.11906700  1
  O  O53  1  0.43857400  0.88520100  0.61762200  1
  O  O54  1  0.33280000  0.08359900  0.96289100  1
  O  O55  1  0.36339400  0.09820600  0.79101000  1
  O  O56  1  0.36185700  0.07798900  0.28177100  1
  O  O57  1  0.34505900  0.07139600  0.45551200  1
  O  O58  1  0.67799500  0.91825800  0.53763800  1
  O  O59  1  0.66542100  0.91047400  0.70822400  1
  O  O60  1  0.66972400  0.91061700  0.04820600  1
  O  O61  1  0.63654300  0.89992600  0.22029300  1
  O  O62  1  0.57317900  0.10853400  0.89191300  1
  O  O63  1  0.58397000  0.10587400  0.37659300  1
  O  O64  1  0.45984600  0.32106400  0.13123100  1
  O  O65  1  0.47570300  0.32618300  0.62426800  1
  O  O66  1  0.68307000  0.14221600  0.62352700  1
  O  O67  1  0.67893100  0.13788100  0.13045100  1
  O  O68  1  0.52939400  0.42364000  0.88869600  1
  O  O69  1  0.52952200  0.42529000  0.37565900  1
  O  O70  1  0.92242100  0.25530500  0.96371600  1
  O  O71  1  0.90675100  0.27275700  0.79029300  1
  O  O72  1  0.92444400  0.26574400  0.45658400  1
  O  O73  1  0.91786700  0.26692900  0.28419400  1
  O  O74  1  0.90262400  0.47289100  0.89227300  1
  O  O75  1  0.88523900  0.46534500  0.37283500  1
  O  O76  1  0.84809000  0.54170100  0.62403700  1
  O  O77  1  0.86362700  0.54441900  0.13079300  1
  O  O78  1  0.73882600  0.66186500  0.96130200  1
  O  O79  1  0.71912000  0.63424700  0.78771900  1
  O  O80  1  0.72786000  0.66266200  0.45967600  1
  O  O81  1  0.72651200  0.65278800  0.28605100  1
  F  F82  1  0.98806900  0.99901600  0.40078700  1
