# generated using pymatgen
data_Mg21FeSi12(HO16)3
_symmetry_space_group_name_H-M   'P 1'
_cell_length_a   5.81648950
_cell_length_b   7.76464125
_cell_length_c   23.51574718
_cell_angle_alpha   98.96165587
_cell_angle_beta   109.91718332
_cell_angle_gamma   112.08895369
_symmetry_Int_Tables_number   1
_chemical_formula_structural   Mg21FeSi12(HO16)3
_chemical_formula_sum   'Mg21 Fe1 Si12 H3 O48'
_cell_volume   874.72669223
_cell_formula_units_Z   1
loop_
 _symmetry_equiv_pos_site_id
 _symmetry_equiv_pos_as_xyz
  1  'x, y, z'
loop_
 _atom_site_type_symbol
 _atom_site_label
 _atom_site_symmetry_multiplicity
 _atom_site_fract_x
 _atom_site_fract_y
 _atom_site_fract_z
 _atom_site_occupancy
  Mg  Mg0  1  0.86879600  0.87496100  0.65928300  1
  Mg  Mg1  1  0.04626400  0.31792300  0.76147000  1
  Mg  Mg2  1  0.00095600  0.71846900  0.41550100  1
  Mg  Mg3  1  0.54271000  0.94160900  0.70948200  1
  Mg  Mg4  1  0.48277400  0.12063800  0.96030900  1
  Mg  Mg5  1  0.98647400  0.23420600  0.40970400  1
  Mg  Mg6  1  0.98318200  0.88305500  0.04493200  1
  Mg  Mg7  1  0.97897500  0.73645600  0.91259500  1
  Mg  Mg8  1  0.48215600  0.13007800  0.61969700  1
  Mg  Mg9  1  0.97353000  0.49604700  0.99509900  1
  Mg  Mg10  1  0.98343000  0.26601000  0.08542600  1
  Mg  Mg11  1  0.98991900  0.11920400  0.95997900  1
  Mg  Mg12  1  0.99430900  0.70040800  0.57116900  1
  Mg  Mg13  1  0.00823900  0.01821400  0.83120500  1
  Mg  Mg14  1  0.01556000  0.54363600  0.67469100  1
  Mg  Mg15  1  0.53415600  0.08970500  0.27252500  1
  Mg  Mg16  1  0.48576500  0.87371400  0.04025900  1
  Mg  Mg17  1  0.98858500  0.18866800  0.61210100  1
  Mg  Mg18  1  0.93298100  0.71717800  0.22367700  1
  Mg  Mg19  1  0.98219000  0.00185100  0.49741100  1
  Mg  Mg20  1  0.97407200  0.11508400  0.20637800  1
  Fe  Fe21  1  0.96574500  0.48772300  0.31185400  1
  Si  Si22  1  0.41657800  0.79174600  0.84951700  1
  Si  Si23  1  0.37221300  0.50273600  0.92095600  1
  Si  Si24  1  0.43091500  0.76836000  0.52312200  1
  Si  Si25  1  0.36326500  0.49839200  0.57998500  1
  Si  Si26  1  0.54753800  0.13496500  0.82564700  1
  Si  Si27  1  0.63704400  0.55911200  0.74519400  1
  Si  Si28  1  0.34801700  0.75951100  0.15589700  1
  Si  Si29  1  0.56119300  0.72823200  0.31135000  1
  Si  Si30  1  0.49765500  0.06312500  0.47089400  1
  Si  Si31  1  0.46995400  0.39316400  0.36006500  1
  Si  Si32  1  0.57023300  0.24088000  0.15427400  1
  Si  Si33  1  0.57415300  0.49011600  0.06840400  1
  H  H34  1  0.55900700  0.48166500  0.82521300  1
  H  H35  1  0.48177700  0.44695300  0.45890000  1
  H  H36  1  0.40375500  0.50532000  0.17265200  1
  O  O37  1  0.20766300  0.97136400  0.99308200  1
  O  O38  1  0.23067200  0.61115900  0.95366800  1
  O  O39  1  0.24957800  0.88067600  0.87874200  1
  O  O40  1  0.45654000  0.76557900  0.59902200  1
  O  O41  1  0.35839500  0.86237400  0.78433000  1
  O  O42  1  0.24429200  0.26865600  0.91522800  1
  O  O43  1  0.29597800  0.55423000  0.84800300  1
  O  O44  1  0.10816900  0.49046600  0.60240400  1
  O  O45  1  0.12291900  0.78933600  0.50858800  1
  O  O46  1  0.29970000  0.45833300  0.71861700  1
  O  O47  1  0.28701600  0.18023500  0.79918200  1
  O  O48  1  0.71251600  0.60731100  0.95251300  1
  O  O49  1  0.75398400  0.88390200  0.87938200  1
  O  O50  1  0.69065600  0.96518200  0.32859600  1
  O  O51  1  0.39826900  0.81073100  0.44972700  1
  O  O52  1  0.22453000  0.95572000  0.65398900  1
  O  O53  1  0.30256500  0.50838600  0.50221000  1
  O  O54  1  0.73164300  0.54710900  0.82119500  1
  O  O55  1  0.75256800  0.78773900  0.74182100  1
  O  O56  1  0.70717700  0.21633800  0.90526200  1
  O  O57  1  0.21404700  0.62813200  0.27743200  1
  O  O58  1  0.22592800  0.86050600  0.19672000  1
  O  O59  1  0.18613200  0.04805500  0.43712300  1
  O  O60  1  0.15567500  0.37047800  0.35385900  1
  O  O61  1  0.71325600  0.57958700  0.61635200  1
  O  O62  1  0.78321400  0.86821600  0.54975100  1
  O  O63  1  0.76845300  0.16183600  0.79494500  1
  O  O64  1  0.78325700  0.44491600  0.71843600  1
  O  O65  1  0.22257200  0.74823800  0.08052800  1
  O  O66  1  0.30888800  0.21213100  0.28768800  1
  O  O67  1  0.23904200  0.52486000  0.15729300  1
  O  O68  1  0.57256200  0.39644200  0.43748500  1
  O  O69  1  0.60847900  0.64966200  0.37373100  1
  O  O70  1  0.60792500  0.13023600  0.54933000  1
  O  O71  1  0.82077200  0.11534100  0.67585900  1
  O  O72  1  0.23856900  0.14467000  0.12913800  1
  O  O73  1  0.23327300  0.37546500  0.03653000  1
  O  O74  1  0.74909100  0.64568500  0.28311600  1
  O  O75  1  0.68534400  0.85640400  0.19452100  1
  O  O76  1  0.26002000  0.25157800  0.57499100  1
  O  O77  1  0.79543200  0.41133100  0.36629800  1
  O  O78  1  0.67078200  0.46746600  0.14496700  1
  O  O79  1  0.69659200  0.71817000  0.07272500  1
  O  O80  1  0.72893900  0.25677900  0.23005900  1
  O  O81  1  0.76167700  0.13212700  0.45467800  1
  O  O82  1  0.71844700  0.13438300  0.12378500  1
  O  O83  1  0.71390900  0.37546600  0.03708700  1
  O  O84  1  0.75783000  0.02340400  0.00803200  1
