# generated using pymatgen
data_Li2MnP2O7
_symmetry_space_group_name_H-M   'P 1'
_cell_length_a   8.59704273
_cell_length_b   8.76790581
_cell_length_c   8.72532953
_cell_angle_alpha   71.45465965
_cell_angle_beta   111.92896999
_cell_angle_gamma   110.22214480
_symmetry_Int_Tables_number   1
_chemical_formula_structural   Li2MnP2O7
_chemical_formula_sum   'Li8 Mn4 P8 O28'
_cell_volume   558.85196649
_cell_formula_units_Z   4
loop_
 _symmetry_equiv_pos_site_id
 _symmetry_equiv_pos_as_xyz
  1  'x, y, z'
loop_
 _atom_site_type_symbol
 _atom_site_label
 _atom_site_symmetry_multiplicity
 _atom_site_fract_x
 _atom_site_fract_y
 _atom_site_fract_z
 _atom_site_occupancy
  Li  Li0  1  0.56938700  0.80976300  0.57252500  1
  Li  Li1  1  0.56939800  0.30980200  0.07251900  1
  Li  Li2  1  0.43060100  0.69019800  0.92748700  1
  Li  Li3  1  0.43060100  0.19023200  0.42746200  1
  Li  Li4  1  0.99477100  0.06604300  0.77244500  1
  Li  Li5  1  0.99477900  0.56605400  0.27241100  1
  Li  Li6  1  0.00522600  0.43395100  0.72758600  1
  Li  Li7  1  0.00522600  0.93395500  0.22755900  1
  Mn  Mn8  1  0.28327000  0.40301500  0.63487300  1
  Mn  Mn9  1  0.71671800  0.59696800  0.36512400  1
  Mn  Mn10  1  0.28330100  0.90294700  0.13489800  1
  Mn  Mn11  1  0.71671800  0.09705800  0.86504900  1
  P  P12  1  0.82007600  0.24176500  0.46135300  1
  P  P13  1  0.82006700  0.74178000  0.96134200  1
  P  P14  1  0.17993000  0.25822600  0.03866200  1
  P  P15  1  0.17993000  0.75822300  0.53865900  1
  P  P16  1  0.30003800  0.51359500  0.23462000  1
  P  P17  1  0.30000600  0.01357900  0.73460800  1
  P  P18  1  0.69999800  0.98642000  0.26538700  1
  P  P19  1  0.69995600  0.48640900  0.76538300  1
  O  O20  1  0.78690300  0.99098600  0.13906200  1
  O  O21  1  0.78689600  0.49096500  0.63907700  1
  O  O22  1  0.21310500  0.50903200  0.36093300  1
  O  O23  1  0.21310100  0.00903800  0.86092300  1
  O  O24  1  0.84702100  0.10897000  0.38591500  1
  O  O25  1  0.84698600  0.60895900  0.88590100  1
  O  O26  1  0.15300800  0.39105000  0.11410200  1
  O  O27  1  0.15297800  0.89100800  0.61410800  1
  O  O28  1  0.66390100  0.81489700  0.38423600  1
  O  O29  1  0.66389600  0.31487500  0.88423800  1
  O  O30  1  0.33609000  0.68513100  0.11576300  1
  O  O31  1  0.33610000  0.18509400  0.61574700  1
  O  O32  1  0.78219600  0.89013300  0.81266700  1
  O  O33  1  0.78222000  0.39012700  0.31268400  1
  O  O34  1  0.21778600  0.60985900  0.68732200  1
  O  O35  1  0.21779500  0.10987200  0.18733500  1
  O  O36  1  0.67519200  0.65622300  0.04561800  1
  O  O37  1  0.67518200  0.15622300  0.54559900  1
  O  O38  1  0.32482500  0.84378300  0.45441600  1
  O  O39  1  0.32481100  0.34377800  0.95439600  1
  O  O40  1  0.99991100  0.78693100  0.09054500  1
  O  O41  1  0.99990200  0.28691200  0.59058700  1
  O  O42  1  0.00010400  0.71307700  0.40942200  1
  O  O43  1  0.00009100  0.21308100  0.90945100  1
  O  O44  1  0.54230800  0.06031500  0.18315100  1
  O  O45  1  0.54227000  0.56027200  0.68314700  1
  O  O46  1  0.45772700  0.43973700  0.31684600  1
  O  O47  1  0.45769700  0.93968800  0.81686100  1
