# generated using pymatgen
data_SbHCSO3F8
_symmetry_space_group_name_H-M   'P 1'
_cell_length_a   9.70855000
_cell_length_b   8.84389700
_cell_length_c   10.82824612
_cell_angle_alpha   70.79173535
_cell_angle_beta   90.00000000
_cell_angle_gamma   90.00000000
_symmetry_Int_Tables_number   1
_chemical_formula_structural   SbHCSO3F8
_chemical_formula_sum   'Sb4 H4 C4 S4 O12 F32'
_cell_volume   877.96955781
_cell_formula_units_Z   4
loop_
 _symmetry_equiv_pos_site_id
 _symmetry_equiv_pos_as_xyz
  1  'x, y, z'
loop_
 _atom_site_type_symbol
 _atom_site_label
 _atom_site_symmetry_multiplicity
 _atom_site_fract_x
 _atom_site_fract_y
 _atom_site_fract_z
 _atom_site_occupancy
  Sb  Sb0  1  0.67172900  0.74132100  0.91977200  1
  Sb  Sb1  1  0.17172900  0.25867900  0.58022800  1
  Sb  Sb2  1  0.32827100  0.25867900  0.08022800  1
  Sb  Sb3  1  0.82827100  0.74132100  0.41977200  1
  H  H4  1  0.00332200  0.43412900  0.78601700  1
  H  H5  1  0.50332200  0.56587100  0.71398300  1
  H  H6  1  0.99667800  0.56587100  0.21398300  1
  H  H7  1  0.49667800  0.43412900  0.28601700  1
  C  C8  1  0.83706100  0.20190300  0.01432900  1
  C  C9  1  0.33706100  0.79809700  0.48567100  1
  C  C10  1  0.16293900  0.79809700  0.98567100  1
  C  C11  1  0.66293900  0.20190300  0.51432900  1
  S  S12  1  0.81007200  0.40802200  0.88853300  1
  S  S13  1  0.31007200  0.59197800  0.61146700  1
  S  S14  1  0.18992800  0.59197800  0.11146700  1
  S  S15  1  0.68992800  0.40802200  0.38853300  1
  O  O16  1  0.95898700  0.47116600  0.85522700  1
  O  O17  1  0.45898700  0.52883400  0.64477300  1
  O  O18  1  0.04101300  0.52883400  0.14477300  1
  O  O19  1  0.54101300  0.47116600  0.35522700  1
  O  O20  1  0.75306400  0.49977000  0.96933200  1
  O  O21  1  0.25306400  0.50023000  0.53066800  1
  O  O22  1  0.24693600  0.50023000  0.03066800  1
  O  O23  1  0.74693600  0.49977000  0.46933200  1
  O  O24  1  0.73263300  0.39658500  0.77977900  1
  O  O25  1  0.23263300  0.60341500  0.72022100  1
  O  O26  1  0.26736700  0.60341500  0.22022100  1
  O  O27  1  0.76736700  0.39658500  0.27977900  1
  F  F28  1  0.80155100  0.79731500  0.78097500  1
  F  F29  1  0.30155100  0.20268500  0.71902500  1
  F  F30  1  0.19844900  0.20268500  0.21902500  1
  F  F31  1  0.69844900  0.79731500  0.28097500  1
  F  F32  1  0.80788600  0.76405100  0.03835000  1
  F  F33  1  0.30788600  0.23594900  0.46165000  1
  F  F34  1  0.19211400  0.23594900  0.96165000  1
  F  F35  1  0.69211400  0.76405100  0.53835000  1
  F  F36  1  0.59964300  0.95051100  0.87827600  1
  F  F37  1  0.09964300  0.04948900  0.62172400  1
  F  F38  1  0.40035700  0.04948900  0.12172400  1
  F  F39  1  0.90035700  0.95051100  0.37827600  1
  F  F40  1  0.54764800  0.64872400  0.06002700  1
  F  F41  1  0.04764800  0.35127600  0.43997300  1
  F  F42  1  0.45235200  0.35127600  0.93997300  1
  F  F43  1  0.95235200  0.64872400  0.56002700  1
  F  F44  1  0.54261000  0.68366800  0.80561100  1
  F  F45  1  0.04261000  0.31633200  0.69438900  1
  F  F46  1  0.45739000  0.31633200  0.19438900  1
  F  F47  1  0.95739000  0.68366800  0.30561100  1
  F  F48  1  0.71765900  0.14845600  0.07394700  1
  F  F49  1  0.21765900  0.85154400  0.42605300  1
  F  F50  1  0.28234100  0.85154400  0.92605300  1
  F  F51  1  0.78234100  0.14845600  0.57394700  1
  F  F52  1  0.88112700  0.10862700  0.94638700  1
  F  F53  1  0.38112700  0.89137300  0.55361300  1
  F  F54  1  0.11887300  0.89137300  0.05361300  1
  F  F55  1  0.61887300  0.10862700  0.44638700  1
  F  F56  1  0.93165100  0.20954300  0.10151900  1
  F  F57  1  0.43165100  0.79045700  0.39848100  1
  F  F58  1  0.06834900  0.79045700  0.89848100  1
  F  F59  1  0.56834900  0.20954300  0.60151900  1
