# generated using pymatgen
data_Fe2Mo
_symmetry_space_group_name_H-M   'P 1'
_cell_length_a   4.67535591
_cell_length_b   4.67535591
_cell_length_c   7.78128600
_cell_angle_alpha   90.00000000
_cell_angle_beta   90.00000000
_cell_angle_gamma   119.97681852
_symmetry_Int_Tables_number   1
_chemical_formula_structural   Fe2Mo
_chemical_formula_sum   'Fe8 Mo4'
_cell_volume   147.33731916
_cell_formula_units_Z   4
loop_
 _symmetry_equiv_pos_site_id
 _symmetry_equiv_pos_as_xyz
  1  'x, y, z'
loop_
 _atom_site_type_symbol
 _atom_site_label
 _atom_site_symmetry_multiplicity
 _atom_site_fract_x
 _atom_site_fract_y
 _atom_site_fract_z
 _atom_site_occupancy
  Fe  Fe0  1  0.82930400  0.65879800  0.75000000  1
  Fe  Fe1  1  0.82934500  0.17065500  0.75000000  1
  Fe  Fe2  1  0.34120200  0.17069600  0.75000000  1
  Fe  Fe3  1  0.17069600  0.34120200  0.25000000  1
  Fe  Fe4  1  0.17065500  0.82934500  0.25000000  1
  Fe  Fe5  1  0.65879800  0.82930400  0.25000000  1
  Fe  Fe6  1  0.00000000  0.00000000  0.50000000  1
  Fe  Fe7  1  0.00000000  0.00000000  0.00000000  1
  Mo  Mo8  1  0.66671500  0.33328500  0.06821700  1
  Mo  Mo9  1  0.33328500  0.66671500  0.93178300  1
  Mo  Mo10  1  0.33328500  0.66671500  0.56821700  1
  Mo  Mo11  1  0.66671500  0.33328500  0.43178300  1
