# generated using pymatgen
data_K2H4PtC6S6(N3O)2
_symmetry_space_group_name_H-M   'P 1'
_cell_length_a   11.32209100
_cell_length_b   7.41415200
_cell_length_c   11.46663285
_cell_angle_alpha   80.16007995
_cell_angle_beta   90.00000000
_cell_angle_gamma   90.00000000
_symmetry_Int_Tables_number   1
_chemical_formula_structural   K2H4PtC6S6(N3O)2
_chemical_formula_sum   'K4 H8 Pt2 C12 S12 N12 O4'
_cell_volume   948.39159856
_cell_formula_units_Z   2
loop_
 _symmetry_equiv_pos_site_id
 _symmetry_equiv_pos_as_xyz
  1  'x, y, z'
loop_
 _atom_site_type_symbol
 _atom_site_label
 _atom_site_symmetry_multiplicity
 _atom_site_fract_x
 _atom_site_fract_y
 _atom_site_fract_z
 _atom_site_occupancy
  K  K0  1  0.34685700  0.89365400  0.49999300  1
  K  K1  1  0.84685700  0.60634600  0.50000700  1
  K  K2  1  0.65314300  0.10634600  0.50000700  1
  K  K3  1  0.15314300  0.39365400  0.49999300  1
  H  H4  1  0.40877100  0.37796500  0.45042800  1
  H  H5  1  0.90877100  0.12203500  0.54957200  1
  H  H6  1  0.59122900  0.62203500  0.54957200  1
  H  H7  1  0.09122900  0.87796500  0.45042800  1
  H  H8  1  0.42334600  0.30088100  0.58426300  1
  H  H9  1  0.92334600  0.19911900  0.41573700  1
  H  H10  1  0.57665400  0.69911900  0.41573700  1
  H  H11  1  0.07665400  0.80088100  0.58426300  1
  Pt  Pt12  1  0.50000000  0.50000000  0.00000000  1
  Pt  Pt13  1  0.00000000  0.00000000  0.00000000  1
  C  C14  1  0.32456300  0.56376900  0.76622400  1
  C  C15  1  0.82456300  0.93623100  0.23377600  1
  C  C16  1  0.67543700  0.43623100  0.23377600  1
  C  C17  1  0.17543700  0.06376900  0.76622400  1
  C  C18  1  0.40650800  0.65463700  0.23857200  1
  C  C19  1  0.90650800  0.84536300  0.76142800  1
  C  C20  1  0.59349200  0.34536300  0.76142800  1
  C  C21  1  0.09349200  0.15463700  0.23857200  1
  C  C22  1  0.44053700  0.16905500  0.22052400  1
  C  C23  1  0.94053700  0.33094500  0.77947600  1
  C  C24  1  0.55946300  0.83094500  0.77947600  1
  C  C25  1  0.05946300  0.66905500  0.22052400  1
  S  S26  1  0.32096200  0.62448600  0.89869600  1
  S  S27  1  0.82096200  0.87551400  0.10130400  1
  S  S28  1  0.67903800  0.37551400  0.10130400  1
  S  S29  1  0.17903800  0.12448600  0.89869600  1
  S  S30  1  0.47924000  0.74374600  0.11700300  1
  S  S31  1  0.97924000  0.75625400  0.88299700  1
  S  S32  1  0.52076000  0.25625400  0.88299700  1
  S  S33  1  0.02076000  0.24374600  0.11700300  1
  S  S34  1  0.36117700  0.29239800  0.11408700  1
  S  S35  1  0.86117700  0.20760200  0.88591300  1
  S  S36  1  0.63882300  0.70760200  0.88591300  1
  S  S37  1  0.13882300  0.79239800  0.11408700  1
  N  N38  1  0.32046200  0.53004200  0.66959500  1
  N  N39  1  0.82046200  0.96995800  0.33040500  1
  N  N40  1  0.67953800  0.46995800  0.33040500  1
  N  N41  1  0.17953800  0.03004200  0.66959500  1
  N  N42  1  0.35682700  0.60139600  0.32848500  1
  N  N43  1  0.85682700  0.89860400  0.67151500  1
  N  N44  1  0.64317300  0.39860400  0.67151500  1
  N  N45  1  0.14317300  0.10139600  0.32848500  1
  N  N46  1  0.49000000  0.07517400  0.29900100  1
  N  N47  1  0.99000000  0.42482600  0.70099900  1
  N  N48  1  0.51000000  0.92482600  0.70099900  1
  N  N49  1  0.01000000  0.57517400  0.29900100  1
  O  O50  1  0.41343900  0.26297800  0.50742500  1
  O  O51  1  0.91343900  0.23702200  0.49257500  1
  O  O52  1  0.58656100  0.73702200  0.49257500  1
  O  O53  1  0.08656100  0.76297800  0.50742500  1
