# generated using pymatgen
data_ZnH20S2(NO7)2
_symmetry_space_group_name_H-M   'P 1'
_cell_length_a   13.81414900
_cell_length_b   6.22558600
_cell_length_c   8.71513039
_cell_angle_alpha   76.52876529
_cell_angle_beta   90.00000000
_cell_angle_gamma   90.00000000
_symmetry_Int_Tables_number   1
_chemical_formula_structural   ZnH20S2(NO7)2
_chemical_formula_sum   'Zn2 H40 S4 N4 O28'
_cell_volume   728.89012433
_cell_formula_units_Z   2
loop_
 _symmetry_equiv_pos_site_id
 _symmetry_equiv_pos_as_xyz
  1  'x, y, z'
loop_
 _atom_site_type_symbol
 _atom_site_label
 _atom_site_symmetry_multiplicity
 _atom_site_fract_x
 _atom_site_fract_y
 _atom_site_fract_z
 _atom_site_occupancy
  Zn  Zn0  1  0.50000000  0.00000000  0.50000000  1
  Zn  Zn1  1  0.00000000  0.00000000  0.00000000  1
  H  H2  1  0.16997600  0.77640300  0.54956900  1
  H  H3  1  0.66997600  0.22359700  0.95043100  1
  H  H4  1  0.83002400  0.22359700  0.45043100  1
  H  H5  1  0.33002400  0.77640300  0.04956900  1
  H  H6  1  0.25917500  0.63738900  0.66348600  1
  H  H7  1  0.75917500  0.36261100  0.83651400  1
  H  H8  1  0.74082500  0.36261100  0.33651400  1
  H  H9  1  0.24082500  0.63738900  0.16348600  1
  H  H10  1  0.16430500  0.49356800  0.61620100  1
  H  H11  1  0.66430500  0.50643200  0.88379900  1
  H  H12  1  0.83569500  0.50643200  0.38379900  1
  H  H13  1  0.33569500  0.49356800  0.11620100  1
  H  H14  1  0.02036100  0.81540700  0.76506200  1
  H  H15  1  0.52036100  0.18459300  0.73493800  1
  H  H16  1  0.97963900  0.18459300  0.23493800  1
  H  H17  1  0.47963900  0.81540700  0.26506200  1
  H  H18  1  0.42465300  0.65686700  0.72881000  1
  H  H19  1  0.92465300  0.34313300  0.77119000  1
  H  H20  1  0.57534700  0.34313300  0.27119000  1
  H  H21  1  0.07534700  0.65686700  0.22881000  1
  H  H22  1  0.38330500  0.88518300  0.75159400  1
  H  H23  1  0.88330500  0.11481700  0.74840600  1
  H  H24  1  0.61669500  0.11481700  0.24840600  1
  H  H25  1  0.11669500  0.88518300  0.25159400  1
  H  H26  1  0.34811200  0.66152600  0.24283300  1
  H  H27  1  0.84811200  0.33847400  0.25716700  1
  H  H28  1  0.65188800  0.33847400  0.75716700  1
  H  H29  1  0.15188800  0.66152600  0.74283300  1
  H  H30  1  0.41682200  0.03393400  0.22132700  1
  H  H31  1  0.91682200  0.96606600  0.27867300  1
  H  H32  1  0.58317800  0.96606600  0.77867300  1
  H  H33  1  0.08317800  0.03393400  0.72132700  1
  H  H34  1  0.58576000  0.65423000  0.42499400  1
  H  H35  1  0.08576000  0.34577000  0.07500600  1
  H  H36  1  0.41424000  0.34577000  0.57500600  1
  H  H37  1  0.91424000  0.65423000  0.92499400  1
  H  H38  1  0.65953400  0.70881300  0.54889900  1
  H  H39  1  0.15953400  0.29118700  0.95110100  1
  H  H40  1  0.34046600  0.29118700  0.45110100  1
  H  H41  1  0.84046600  0.70881300  0.04889900  1
  S  S42  1  0.36659500  0.23934000  0.91415700  1
  S  S43  1  0.86659500  0.76066000  0.58584300  1
  S  S44  1  0.63340500  0.76066000  0.08584300  1
  S  S45  1  0.13340500  0.23934000  0.41415700  1
  N  N46  1  0.18610900  0.64065500  0.64224600  1
  N  N47  1  0.68610900  0.35934500  0.85775400  1
  N  N48  1  0.81389100  0.35934500  0.35775400  1
  N  N49  1  0.31389100  0.64065500  0.14224600  1
  O  O50  1  0.27550200  0.36974300  0.89235500  1
  O  O51  1  0.77550200  0.63025700  0.60764500  1
  O  O52  1  0.72449800  0.63025700  0.10764500  1
  O  O53  1  0.22449800  0.36974300  0.39235500  1
  O  O54  1  0.40565900  0.23313300  0.07413400  1
  O  O55  1  0.90565900  0.76686700  0.42586600  1
  O  O56  1  0.59434100  0.76686700  0.92586600  1
  O  O57  1  0.09434100  0.23313300  0.57413400  1
  O  O58  1  0.43908200  0.35287800  0.79184300  1
  O  O59  1  0.93908200  0.64712200  0.70815700  1
  O  O60  1  0.56091800  0.64712200  0.20815700  1
  O  O61  1  0.06091800  0.35287800  0.29184300  1
  O  O62  1  0.35048200  0.01107700  0.89286200  1
  O  O63  1  0.85048200  0.98892300  0.60713800  1
  O  O64  1  0.64951800  0.98892300  0.10713800  1
  O  O65  1  0.14951800  0.01107700  0.39286200  1
  O  O66  1  0.39772300  0.80026600  0.66982000  1
  O  O67  1  0.89772300  0.19973400  0.83018000  1
  O  O68  1  0.60227700  0.19973400  0.33018000  1
  O  O69  1  0.10227700  0.80026600  0.16982000  1
  O  O70  1  0.43155600  0.90323100  0.31190000  1
  O  O71  1  0.93155600  0.09676900  0.18810000  1
  O  O72  1  0.56844400  0.09676900  0.68810000  1
  O  O73  1  0.06844400  0.90323100  0.81190000  1
  O  O74  1  0.58909700  0.70604200  0.52397400  1
  O  O75  1  0.08909700  0.29395800  0.97602600  1
  O  O76  1  0.41090300  0.29395800  0.47602600  1
  O  O77  1  0.91090300  0.70604200  0.02397400  1
