# generated using pymatgen
data_Na4P2H4CO9
_symmetry_space_group_name_H-M   'P 1'
_cell_length_a   8.53862900
_cell_length_b   8.53862900
_cell_length_c   6.50524900
_cell_angle_alpha   90.00000000
_cell_angle_beta   90.00000000
_cell_angle_gamma   90.00000000
_symmetry_Int_Tables_number   1
_chemical_formula_structural   Na4P2H4CO9
_chemical_formula_sum   'Na8 P4 H8 C2 O18'
_cell_volume   474.28589886
_cell_formula_units_Z   2
loop_
 _symmetry_equiv_pos_site_id
 _symmetry_equiv_pos_as_xyz
  1  'x, y, z'
loop_
 _atom_site_type_symbol
 _atom_site_label
 _atom_site_symmetry_multiplicity
 _atom_site_fract_x
 _atom_site_fract_y
 _atom_site_fract_z
 _atom_site_occupancy
  Na  Na0  1  0.07072100  0.81874700  0.70110400  1
  Na  Na1  1  0.92927900  0.18125300  0.70110400  1
  Na  Na2  1  0.81874700  0.92927900  0.29889600  1
  Na  Na3  1  0.18125300  0.07072100  0.29889600  1
  Na  Na4  1  0.46092200  0.79995000  0.13712400  1
  Na  Na5  1  0.53907800  0.20005000  0.13712400  1
  Na  Na6  1  0.79995000  0.53907800  0.86287600  1
  Na  Na7  1  0.20005000  0.46092200  0.86287600  1
  P  P8  1  0.33142400  0.09028300  0.79310000  1
  P  P9  1  0.66857600  0.90971700  0.79310000  1
  P  P10  1  0.09028300  0.66857600  0.20690000  1
  P  P11  1  0.90971700  0.33142400  0.20690000  1
  H  H12  1  0.42206200  0.67848800  0.71089500  1
  H  H13  1  0.57793800  0.32151200  0.71089500  1
  H  H14  1  0.67848800  0.57793800  0.28910500  1
  H  H15  1  0.32151200  0.42206200  0.28910500  1
  H  H16  1  0.31046100  0.64422300  0.52017400  1
  H  H17  1  0.68953900  0.35577700  0.52017400  1
  H  H18  1  0.64422300  0.68953900  0.47982600  1
  H  H19  1  0.35577700  0.31046100  0.47982600  1
  C  C20  1  0.50000000  0.00000000  0.64823100  1
  C  C21  1  0.00000000  0.50000000  0.35176900  1
  O  O22  1  0.50000000  0.00000000  0.45596100  1
  O  O23  1  0.00000000  0.50000000  0.54403900  1
  O  O24  1  0.38877600  0.26338900  0.80524200  1
  O  O25  1  0.61122400  0.73661100  0.80524200  1
  O  O26  1  0.26338900  0.61122400  0.19475800  1
  O  O27  1  0.73661100  0.38877600  0.19475800  1
  O  O28  1  0.18403900  0.07007000  0.66281100  1
  O  O29  1  0.81596100  0.92993000  0.66281100  1
  O  O30  1  0.07007000  0.81596100  0.33718900  1
  O  O31  1  0.92993000  0.18403900  0.33718900  1
  O  O32  1  0.32418200  0.01114200  0.00405600  1
  O  O33  1  0.67581800  0.98885800  0.00405600  1
  O  O34  1  0.01114200  0.67581800  0.99594500  1
  O  O35  1  0.98885800  0.32418200  0.99594500  1
  O  O36  1  0.31285900  0.65251100  0.67075500  1
  O  O37  1  0.68714100  0.34748900  0.67075500  1
  O  O38  1  0.65251100  0.68714100  0.32924500  1
  O  O39  1  0.34748900  0.31285900  0.32924500  1
