# generated using pymatgen
data_Na2Cr2O7
_symmetry_space_group_name_H-M   'P 1'
_cell_length_a   7.04896300
_cell_length_b   7.11592053
_cell_length_c   7.34070506
_cell_angle_alpha   113.99301127
_cell_angle_beta   89.38114371
_cell_angle_gamma   94.92434913
_symmetry_Int_Tables_number   1
_chemical_formula_structural   Na2Cr2O7
_chemical_formula_sum   'Na4 Cr4 O14'
_cell_volume   335.03449255
_cell_formula_units_Z   2
loop_
 _symmetry_equiv_pos_site_id
 _symmetry_equiv_pos_as_xyz
  1  'x, y, z'
loop_
 _atom_site_type_symbol
 _atom_site_label
 _atom_site_symmetry_multiplicity
 _atom_site_fract_x
 _atom_site_fract_y
 _atom_site_fract_z
 _atom_site_occupancy
  Na  Na0  1  0.61612900  0.26817900  0.33884800  1
  Na  Na1  1  0.38387100  0.73182100  0.66115200  1
  Na  Na2  1  0.84474800  0.13272100  0.76470200  1
  Na  Na3  1  0.15525200  0.86727900  0.23529800  1
  Cr  Cr4  1  0.88173800  0.65576800  0.81553300  1
  Cr  Cr5  1  0.11826200  0.34423200  0.18446700  1
  Cr  Cr6  1  0.66073000  0.76288200  0.24080000  1
  Cr  Cr7  1  0.33927000  0.23711800  0.75920000  1
  O  O8  1  0.86578000  0.42021100  0.64333000  1
  O  O9  1  0.13422000  0.57978900  0.35667000  1
  O  O10  1  0.73692600  0.79611100  0.76448400  1
  O  O11  1  0.26307400  0.20388900  0.23551600  1
  O  O12  1  0.09959000  0.76567400  0.84620300  1
  O  O13  1  0.90041000  0.23432600  0.15379700  1
  O  O14  1  0.57675800  0.60146500  0.33492100  1
  O  O15  1  0.42324200  0.39853500  0.66507900  1
  O  O16  1  0.77733500  0.96498300  0.41333700  1
  O  O17  1  0.22266500  0.03501700  0.58666300  1
  O  O18  1  0.48694200  0.84132900  0.15219600  1
  O  O19  1  0.51305800  0.15867100  0.84780400  1
  O  O20  1  0.82279100  0.64298400  0.04874000  1
  O  O21  1  0.17720900  0.35701600  0.95126000  1
