# generated using pymatgen
data_NaSi3BO8
_symmetry_space_group_name_H-M   'P 1'
_cell_length_a   7.27912866
_cell_length_b   7.52057776
_cell_length_c   6.89281532
_cell_angle_alpha   79.21181953
_cell_angle_beta   106.89073922
_cell_angle_gamma   64.76080648
_symmetry_Int_Tables_number   1
_chemical_formula_structural   NaSi3BO8
_chemical_formula_sum   'Na2 Si6 B2 O16'
_cell_volume   304.76725079
_cell_formula_units_Z   2
loop_
 _symmetry_equiv_pos_site_id
 _symmetry_equiv_pos_as_xyz
  1  'x, y, z'
loop_
 _atom_site_type_symbol
 _atom_site_label
 _atom_site_symmetry_multiplicity
 _atom_site_fract_x
 _atom_site_fract_y
 _atom_site_fract_z
 _atom_site_occupancy
  Na  Na0  1  0.73541300  0.24983500  0.86735000  1
  Na  Na1  1  0.26458700  0.75016500  0.13265000  1
  Si  Si2  1  0.18407200  0.19642700  0.79040200  1
  Si  Si3  1  0.81592800  0.80357300  0.20959800  1
  Si  Si4  1  0.19462000  0.60186100  0.67883800  1
  Si  Si5  1  0.80538000  0.39813900  0.32116200  1
  Si  Si6  1  0.45045100  0.82130100  0.64506400  1
  Si  Si7  1  0.54954900  0.17869900  0.35493600  1
  B  B8  1  0.82552800  0.85066000  0.77816800  1
  B  B9  1  0.17447200  0.14934000  0.22183200  1
  O  O10  1  0.85628000  0.87089000  0.99574100  1
  O  O11  1  0.14372000  0.12911000  0.00425900  1
  O  O12  1  0.42509600  0.61258100  0.72309400  1
  O  O13  1  0.57490400  0.38741900  0.27690600  1
  O  O14  1  0.05485300  0.74650700  0.78820200  1
  O  O15  1  0.94514700  0.25349300  0.21179800  1
  O  O16  1  0.34807700  0.98149800  0.76638900  1
  O  O17  1  0.65192300  0.01850200  0.23361100  1
  O  O18  1  0.71690900  0.73062300  0.72816900  1
  O  O19  1  0.28309100  0.26937700  0.27183100  1
  O  O20  1  0.29091200  0.34962800  0.79288600  1
  O  O21  1  0.70908800  0.65037200  0.20711400  1
  O  O22  1  0.69071100  0.07099400  0.61773000  1
  O  O23  1  0.30928900  0.92900600  0.38227000  1
  O  O24  1  0.93912400  0.32390400  0.58348700  1
  O  O25  1  0.06087600  0.67609600  0.41651300  1
