# generated using pymatgen
data_B5H9
_symmetry_space_group_name_H-M   'P 1'
_cell_length_a   5.81015185
_cell_length_b   5.81015185
_cell_length_c   5.81015185
_cell_angle_alpha   102.15931241
_cell_angle_beta   102.15931241
_cell_angle_gamma   125.36187854
_symmetry_Int_Tables_number   1
_chemical_formula_structural   B5H9
_chemical_formula_sum   'B5 H9'
_cell_volume   142.11289544
_cell_formula_units_Z   1
loop_
 _symmetry_equiv_pos_site_id
 _symmetry_equiv_pos_as_xyz
  1  'x, y, z'
loop_
 _atom_site_type_symbol
 _atom_site_label
 _atom_site_symmetry_multiplicity
 _atom_site_fract_x
 _atom_site_fract_y
 _atom_site_fract_z
 _atom_site_occupancy
  B  B0  1  0.77006600  0.77006600  0.00000000  1
  B  B1  1  0.98220200  0.80913800  0.82693600  1
  B  B2  1  0.98220200  0.15526600  0.17306400  1
  B  B3  1  0.15526600  0.98220200  0.17306400  1
  B  B4  1  0.80913800  0.98220200  0.82693600  1
  H  H5  1  0.54743200  0.54743200  0.00000000  1
  H  H6  1  0.95463600  0.62017500  0.66554000  1
  H  H7  1  0.95463600  0.28909600  0.33446000  1
  H  H8  1  0.28909600  0.95463600  0.33446000  1
  H  H9  1  0.62017500  0.95463600  0.66554000  1
  H  H10  1  0.01599900  0.01599900  0.73292300  1
  H  H11  1  0.28307600  0.28307600  0.26707700  1
  H  H12  1  0.01599900  0.28307600  0.00000000  1
  H  H13  1  0.28307600  0.01599900  0.00000000  1
