# generated using pymatgen
data_CaB2(H2O3)2
_symmetry_space_group_name_H-M   'P 1'
_cell_length_a   7.03804848
_cell_length_b   7.03804848
_cell_length_c   4.42759006
_cell_angle_alpha   89.23664584
_cell_angle_beta   89.23664584
_cell_angle_gamma   87.89291382
_symmetry_Int_Tables_number   1
_chemical_formula_structural   CaB2(H2O3)2
_chemical_formula_sum   'Ca2 B4 H8 O12'
_cell_volume   219.13099113
_cell_formula_units_Z   2
loop_
 _symmetry_equiv_pos_site_id
 _symmetry_equiv_pos_as_xyz
  1  'x, y, z'
loop_
 _atom_site_type_symbol
 _atom_site_label
 _atom_site_symmetry_multiplicity
 _atom_site_fract_x
 _atom_site_fract_y
 _atom_site_fract_z
 _atom_site_occupancy
  Ca  Ca0  1  0.79216300  0.20783700  0.75000000  1
  Ca  Ca1  1  0.20783700  0.79216300  0.25000000  1
  B  B2  1  0.72345600  0.85869500  0.31107400  1
  B  B3  1  0.14130500  0.27654400  0.18892600  1
  B  B4  1  0.27654400  0.14130500  0.68892600  1
  B  B5  1  0.85869500  0.72345600  0.81107400  1
  H  H6  1  0.40932800  0.36029600  0.87042400  1
  H  H7  1  0.63970400  0.59067200  0.62957600  1
  H  H8  1  0.59067200  0.63970400  0.12957600  1
  H  H9  1  0.36029600  0.40932800  0.37042400  1
  H  H10  1  0.07151200  0.52219800  0.71617500  1
  H  H11  1  0.47780200  0.92848800  0.78382500  1
  H  H12  1  0.92848800  0.47780200  0.28382500  1
  H  H13  1  0.52219800  0.07151200  0.21617500  1
  O  O14  1  0.78382700  0.88142000  0.62415000  1
  O  O15  1  0.11858000  0.21617300  0.87585000  1
  O  O16  1  0.21617300  0.11858000  0.37585000  1
  O  O17  1  0.88142000  0.78382700  0.12415000  1
  O  O18  1  0.55900100  0.72496800  0.30162300  1
  O  O19  1  0.27503200  0.44099900  0.19837700  1
  O  O20  1  0.44099900  0.27503200  0.69837700  1
  O  O21  1  0.72496800  0.55900100  0.80162300  1
  O  O22  1  0.66049100  0.05340100  0.20167400  1
  O  O23  1  0.94659900  0.33950900  0.29832600  1
  O  O24  1  0.33950900  0.94659900  0.79832600  1
  O  O25  1  0.05340100  0.66049100  0.70167400  1
