# generated using pymatgen
data_LaAlO3
_symmetry_space_group_name_H-M   'P 1'
_cell_length_a   3.79585000
_cell_length_b   5.85690421
_cell_length_c   6.19603272
_cell_angle_alpha   107.34941884
_cell_angle_beta   94.25969343
_cell_angle_gamma   107.05926869
_symmetry_Int_Tables_number   1
_chemical_formula_structural   LaAlO3
_chemical_formula_sum   'La2 Al2 O6'
_cell_volume   123.70700827
_cell_formula_units_Z   2
loop_
 _symmetry_equiv_pos_site_id
 _symmetry_equiv_pos_as_xyz
  1  'x, y, z'
loop_
 _atom_site_type_symbol
 _atom_site_label
 _atom_site_symmetry_multiplicity
 _atom_site_fract_x
 _atom_site_fract_y
 _atom_site_fract_z
 _atom_site_occupancy
  La  La0  1  0.06273500  0.78854200  0.39881800  1
  La  La1  1  0.80808300  0.38921700  0.70544100  1
  Al  Al2  1  0.62487400  0.96343600  0.09163100  1
  Al  Al3  1  0.30732600  0.31700100  0.08412300  1
  O  O4  1  0.22244900  0.14552500  0.74187400  1
  O  O5  1  0.44726300  0.61848100  0.99416200  1
  O  O6  1  0.12888300  0.97631000  0.08082300  1
  O  O7  1  0.79291000  0.28824100  0.07316700  1
  O  O8  1  0.43274900  0.50367000  0.41301200  1
  O  O9  1  0.66899800  0.02894400  0.39454200  1
