# generated using pymatgen
data_BaH4(BrO)2
_symmetry_space_group_name_H-M   'P 1'
_cell_length_a   6.41772452
_cell_length_b   6.41772452
_cell_length_c   8.49201228
_cell_angle_alpha   70.71361645
_cell_angle_beta   70.71361645
_cell_angle_gamma   68.98129913
_symmetry_Int_Tables_number   1
_chemical_formula_structural   BaH4(BrO)2
_chemical_formula_sum   'Ba2 H8 Br4 O4'
_cell_volume   299.12884598
_cell_formula_units_Z   2
loop_
 _symmetry_equiv_pos_site_id
 _symmetry_equiv_pos_as_xyz
  1  'x, y, z'
loop_
 _atom_site_type_symbol
 _atom_site_label
 _atom_site_symmetry_multiplicity
 _atom_site_fract_x
 _atom_site_fract_y
 _atom_site_fract_z
 _atom_site_occupancy
  Ba  Ba0  1  0.10085500  0.89914500  0.75000000  1
  Ba  Ba1  1  0.89914500  0.10085500  0.25000000  1
  H  H2  1  0.59420800  0.22608700  0.95466700  1
  H  H3  1  0.77391300  0.40579200  0.54533300  1
  H  H4  1  0.40579200  0.77391300  0.04533300  1
  H  H5  1  0.22608700  0.59420800  0.45466700  1
  H  H6  1  0.75741000  0.38534700  0.87203000  1
  H  H7  1  0.61465300  0.24259000  0.62797000  1
  H  H8  1  0.24259000  0.61465300  0.12797000  1
  H  H9  1  0.38534700  0.75741000  0.37203000  1
  Br  Br10  1  0.25691800  0.31106500  0.84887000  1
  Br  Br11  1  0.68893500  0.74308200  0.65113000  1
  Br  Br12  1  0.74308200  0.68893500  0.15113000  1
  Br  Br13  1  0.31106500  0.25691800  0.34887000  1
  O  O14  1  0.75152300  0.22991300  0.94268900  1
  O  O15  1  0.77008700  0.24847700  0.55731100  1
  O  O16  1  0.24847700  0.77008700  0.05731100  1
  O  O17  1  0.22991300  0.75152300  0.44268900  1
