# generated using pymatgen
data_NaPH3C2N3O4
_symmetry_space_group_name_H-M   'P 1'
_cell_length_a   12.66488900
_cell_length_b   7.26385300
_cell_length_c   9.46023321
_cell_angle_alpha   49.90078192
_cell_angle_beta   90.00000000
_cell_angle_gamma   90.00000000
_symmetry_Int_Tables_number   1
_chemical_formula_structural   NaPH3C2N3O4
_chemical_formula_sum   'Na4 P4 H12 C8 N12 O16'
_cell_volume   665.72072849
_cell_formula_units_Z   4
loop_
 _symmetry_equiv_pos_site_id
 _symmetry_equiv_pos_as_xyz
  1  'x, y, z'
loop_
 _atom_site_type_symbol
 _atom_site_label
 _atom_site_symmetry_multiplicity
 _atom_site_fract_x
 _atom_site_fract_y
 _atom_site_fract_z
 _atom_site_occupancy
  Na  Na0  1  0.96569700  0.30092100  0.38274700  1
  Na  Na1  1  0.53430300  0.30092100  0.88274700  1
  Na  Na2  1  0.03430300  0.69907900  0.61725300  1
  Na  Na3  1  0.46569700  0.69907900  0.11725300  1
  P  P4  1  0.57581300  0.84339400  0.39365300  1
  P  P5  1  0.92418700  0.84339400  0.89365300  1
  P  P6  1  0.42418700  0.15660600  0.60634700  1
  P  P7  1  0.07581300  0.15660600  0.10634700  1
  H  H8  1  0.71804500  0.79828400  0.13466200  1
  H  H9  1  0.78195500  0.79828400  0.63466200  1
  H  H10  1  0.28195500  0.20171600  0.86533800  1
  H  H11  1  0.21804500  0.20171600  0.36533800  1
  H  H12  1  0.59039100  0.17195900  0.39877200  1
  H  H13  1  0.90960900  0.17195900  0.89877200  1
  H  H14  1  0.40960900  0.82804100  0.60122800  1
  H  H15  1  0.09039100  0.82804100  0.10122800  1
  H  H16  1  0.76588600  0.67160300  0.68153200  1
  H  H17  1  0.73411400  0.67160300  0.18153200  1
  H  H18  1  0.23411400  0.32839700  0.31846800  1
  H  H19  1  0.26588600  0.32839700  0.81846800  1
  C  C20  1  0.80094500  0.72266300  0.43331200  1
  C  C21  1  0.69905500  0.72266300  0.93331200  1
  C  C22  1  0.19905500  0.27733700  0.56668800  1
  C  C23  1  0.30094500  0.27733700  0.06668800  1
  C  C24  1  0.73609100  0.11502900  0.33018600  1
  C  C25  1  0.76390900  0.11502900  0.83018600  1
  C  C26  1  0.26390900  0.88497100  0.66981400  1
  C  C27  1  0.23609100  0.88497100  0.16981400  1
  N  N28  1  0.69770200  0.73001600  0.40089300  1
  N  N29  1  0.80229800  0.73001600  0.90089300  1
  N  N30  1  0.30229800  0.26998400  0.59910700  1
  N  N31  1  0.19770200  0.26998400  0.09910700  1
  N  N32  1  0.63238000  0.07318400  0.37390500  1
  N  N33  1  0.86762000  0.07318400  0.87390500  1
  N  N34  1  0.36762000  0.92681600  0.62609500  1
  N  N35  1  0.13238000  0.92681600  0.12609500  1
  N  N36  1  0.77482500  0.96701700  0.28763000  1
  N  N37  1  0.72517500  0.96701700  0.78763000  1
  N  N38  1  0.22517500  0.03298300  0.71237000  1
  N  N39  1  0.27482500  0.03298300  0.21237000  1
  O  O40  1  0.52722600  0.93569900  0.21372600  1
  O  O41  1  0.97277400  0.93569900  0.71372600  1
  O  O42  1  0.47277400  0.06430100  0.78627400  1
  O  O43  1  0.02722600  0.06430100  0.28627400  1
  O  O44  1  0.48268800  0.32095900  0.42723900  1
  O  O45  1  0.01731200  0.32095900  0.92723900  1
  O  O46  1  0.51731200  0.67904100  0.57276100  1
  O  O47  1  0.98268800  0.67904100  0.07276100  1
  O  O48  1  0.87774900  0.59225300  0.50343500  1
  O  O49  1  0.62225100  0.59225300  0.00343500  1
  O  O50  1  0.12225100  0.40774700  0.49656500  1
  O  O51  1  0.37774900  0.40774700  0.99656500  1
  O  O52  1  0.79399000  0.26605700  0.31076300  1
  O  O53  1  0.70601000  0.26605700  0.81076300  1
  O  O54  1  0.20601000  0.73394300  0.68923700  1
  O  O55  1  0.29399000  0.73394300  0.18923700  1
