# generated using pymatgen
data_AgP2H8SN7O2
_symmetry_space_group_name_H-M   'P 1'
_cell_length_a   9.10362500
_cell_length_b   10.30309700
_cell_length_c   11.97031608
_cell_angle_alpha   63.32819148
_cell_angle_beta   90.00000000
_cell_angle_gamma   90.00000000
_symmetry_Int_Tables_number   1
_chemical_formula_structural   AgP2H8SN7O2
_chemical_formula_sum   'Ag4 P8 H32 S4 N28 O8'
_cell_volume   1003.29168693
_cell_formula_units_Z   4
loop_
 _symmetry_equiv_pos_site_id
 _symmetry_equiv_pos_as_xyz
  1  'x, y, z'
loop_
 _atom_site_type_symbol
 _atom_site_label
 _atom_site_symmetry_multiplicity
 _atom_site_fract_x
 _atom_site_fract_y
 _atom_site_fract_z
 _atom_site_occupancy
  Ag  Ag0  1  0.80828700  0.31354600  0.21633300  1
  Ag  Ag1  1  0.69171300  0.31354600  0.71633300  1
  Ag  Ag2  1  0.19171300  0.68645400  0.78366700  1
  Ag  Ag3  1  0.30828700  0.68645400  0.28366700  1
  P  P4  1  0.10074800  0.27179600  0.05517200  1
  P  P5  1  0.39925200  0.27179600  0.55517200  1
  P  P6  1  0.89925200  0.72820400  0.94482800  1
  P  P7  1  0.60074800  0.72820400  0.44482800  1
  P  P8  1  0.00355000  0.32227900  0.78908900  1
  P  P9  1  0.49645000  0.32227900  0.28908900  1
  P  P10  1  0.99645000  0.67772100  0.21091100  1
  P  P11  1  0.50355000  0.67772100  0.71091100  1
  H  H12  1  0.28274400  0.39170800  0.11601600  1
  H  H13  1  0.21725600  0.39170800  0.61601600  1
  H  H14  1  0.71725600  0.60829200  0.88398400  1
  H  H15  1  0.78274400  0.60829200  0.38398400  1
  H  H16  1  0.11475800  0.47254000  0.09140900  1
  H  H17  1  0.38524200  0.47254000  0.59140900  1
  H  H18  1  0.88524200  0.52746000  0.90859100  1
  H  H19  1  0.61475800  0.52746000  0.40859100  1
  H  H20  1  0.03701900  0.54681700  0.62478300  1
  H  H21  1  0.46298100  0.54681700  0.12478300  1
  H  H22  1  0.96298100  0.45318300  0.37521700  1
  H  H23  1  0.53701900  0.45318300  0.87521700  1
  H  H24  1  0.73072200  0.68703500  0.62206300  1
  H  H25  1  0.76927800  0.68703500  0.12206300  1
  H  H26  1  0.26927800  0.31296500  0.37793700  1
  H  H27  1  0.23072200  0.31296500  0.87793700  1
  H  H28  1  0.04702300  0.17302800  0.70059600  1
  H  H29  1  0.45297700  0.17302800  0.20059600  1
  H  H30  1  0.95297700  0.82697200  0.29940400  1
  H  H31  1  0.54702300  0.82697200  0.79940400  1
  H  H32  1  0.04189200  0.07220600  0.86088600  1
  H  H33  1  0.45810800  0.07220600  0.36088600  1
  H  H34  1  0.95810800  0.92779400  0.13911400  1
  H  H35  1  0.54189200  0.92779400  0.63911400  1
  H  H36  1  0.19510600  0.04877000  0.09086300  1
  H  H37  1  0.30489400  0.04877000  0.59086300  1
  H  H38  1  0.80489400  0.95123000  0.90913700  1
  H  H39  1  0.69510600  0.95123000  0.40913700  1
  H  H40  1  0.20729900  0.07638600  0.22050600  1
  H  H41  1  0.29270100  0.07638600  0.72050600  1
  H  H42  1  0.79270100  0.92361400  0.77949400  1
  H  H43  1  0.70729900  0.92361400  0.27949400  1
  S  S44  1  0.80949700  0.22197600  0.99460700  1
  S  S45  1  0.69050300  0.22197600  0.49460700  1
  S  S46  1  0.19050300  0.77802400  0.00539300  1
  S  S47  1  0.30949700  0.77802400  0.50539300  1
  N  N48  1  0.92280600  0.27150300  0.07614700  1
  N  N49  1  0.57719400  0.27150300  0.57614700  1
  N  N50  1  0.07719400  0.72849700  0.92385300  1
  N  N51  1  0.42280600  0.72849700  0.42385300  1
  N  N52  1  0.84204600  0.33496100  0.84978400  1
  N  N53  1  0.65795400  0.33496100  0.34978400  1
  N  N54  1  0.15795400  0.66503900  0.15021600  1
  N  N55  1  0.34204600  0.66503900  0.65021600  1
  N  N56  1  0.12406900  0.31540300  0.90389100  1
  N  N57  1  0.37593100  0.31540300  0.40389100  1
  N  N58  1  0.87593100  0.68459700  0.09610900  1
  N  N59  1  0.62406900  0.68459700  0.59610900  1
  N  N60  1  0.16828300  0.37835100  0.10838900  1
  N  N61  1  0.33171700  0.37835100  0.60838900  1
  N  N62  1  0.83171700  0.62164900  0.89161100  1
  N  N63  1  0.66828300  0.62164900  0.39161100  1
  N  N64  1  0.04092200  0.43764400  0.65390400  1
  N  N65  1  0.45907800  0.43764400  0.15390400  1
  N  N66  1  0.95907800  0.56235600  0.34609600  1
  N  N67  1  0.54092200  0.56235600  0.84609600  1
  N  N68  1  0.01228400  0.16520700  0.78425800  1
  N  N69  1  0.48771600  0.16520700  0.28425800  1
  N  N70  1  0.98771600  0.83479300  0.21574200  1
  N  N71  1  0.51228400  0.83479300  0.71574200  1
  N  N72  1  0.20081500  0.12336400  0.12535400  1
  N  N73  1  0.29918500  0.12336400  0.62535400  1
  N  N74  1  0.79918500  0.87663600  0.87464600  1
  N  N75  1  0.70081500  0.87663600  0.37464600  1
  O  O76  1  0.84159700  0.07084600  0.02103200  1
  O  O77  1  0.65840300  0.07084600  0.52103200  1
  O  O78  1  0.15840300  0.92915400  0.97896800  1
  O  O79  1  0.34159700  0.92915400  0.47896800  1
  O  O80  1  0.66131600  0.24534700  0.02604600  1
  O  O81  1  0.83868400  0.24534700  0.52604600  1
  O  O82  1  0.33868400  0.75465300  0.97395400  1
  O  O83  1  0.16131600  0.75465300  0.47395400  1
