# generated using pymatgen
data_K3HPdS2(ClO3)2
_symmetry_space_group_name_H-M   'P 1'
_cell_length_a   9.31997925
_cell_length_b   9.31997925
_cell_length_c   7.14402800
_cell_angle_alpha   90.00000000
_cell_angle_beta   90.00000000
_cell_angle_gamma   110.50808048
_symmetry_Int_Tables_number   1
_chemical_formula_structural   K3HPdS2(ClO3)2
_chemical_formula_sum   'K6 H2 Pd2 S4 Cl4 O12'
_cell_volume   581.21626605
_cell_formula_units_Z   2
loop_
 _symmetry_equiv_pos_site_id
 _symmetry_equiv_pos_as_xyz
  1  'x, y, z'
loop_
 _atom_site_type_symbol
 _atom_site_label
 _atom_site_symmetry_multiplicity
 _atom_site_fract_x
 _atom_site_fract_y
 _atom_site_fract_z
 _atom_site_occupancy
  K  K0  1  0.41850000  0.86361700  0.09527300  1
  K  K1  1  0.86361700  0.41850000  0.09527300  1
  K  K2  1  0.58150000  0.13638300  0.59527300  1
  K  K3  1  0.13638300  0.58150000  0.59527300  1
  K  K4  1  0.87888200  0.87888200  0.27317600  1
  K  K5  1  0.12111800  0.12111800  0.77317600  1
  H  H6  1  0.51124700  0.51124700  0.52177200  1
  H  H7  1  0.48875300  0.48875300  0.02177200  1
  Pd  Pd8  1  0.75198300  0.75198300  0.74997200  1
  Pd  Pd9  1  0.24801700  0.24801700  0.24997200  1
  S  S10  1  0.53903500  0.75724200  0.59194600  1
  S  S11  1  0.75724200  0.53903500  0.59194600  1
  S  S12  1  0.46096500  0.24275800  0.09194600  1
  S  S13  1  0.24275800  0.46096500  0.09194600  1
  Cl  Cl14  1  0.76896200  0.99101600  0.89917500  1
  Cl  Cl15  1  0.99101600  0.76896200  0.89917500  1
  Cl  Cl16  1  0.23103800  0.00898400  0.39917500  1
  Cl  Cl17  1  0.00898400  0.23103800  0.39917500  1
  O  O18  1  0.43726800  0.81670100  0.70250900  1
  O  O19  1  0.81670100  0.43726800  0.70250900  1
  O  O20  1  0.56273200  0.18329900  0.20250900  1
  O  O21  1  0.18329900  0.56273200  0.20250900  1
  O  O22  1  0.59740000  0.85422000  0.42274900  1
  O  O23  1  0.85422000  0.59740000  0.42274900  1
  O  O24  1  0.40260000  0.14578000  0.92274900  1
  O  O25  1  0.14578000  0.40260000  0.92274900  1
  O  O26  1  0.43766400  0.59467300  0.52803800  1
  O  O27  1  0.59467300  0.43766400  0.52803800  1
  O  O28  1  0.56233600  0.40532700  0.02803800  1
  O  O29  1  0.40532700  0.56233600  0.02803800  1
