# generated using pymatgen
data_K4Hf3Mn(PO4)6
_symmetry_space_group_name_H-M   'P 1'
_cell_length_a   10.28287900
_cell_length_b   10.30264500
_cell_length_c   10.30312721
_cell_angle_alpha   89.98854988
_cell_angle_beta   90.00000000
_cell_angle_gamma   90.00000000
_symmetry_Int_Tables_number   1
_chemical_formula_structural   K4Hf3Mn(PO4)6
_chemical_formula_sum   'K8 Hf6 Mn2 P12 O48'
_cell_volume   1091.52205177
_cell_formula_units_Z   2
loop_
 _symmetry_equiv_pos_site_id
 _symmetry_equiv_pos_as_xyz
  1  'x, y, z'
loop_
 _atom_site_type_symbol
 _atom_site_label
 _atom_site_symmetry_multiplicity
 _atom_site_fract_x
 _atom_site_fract_y
 _atom_site_fract_z
 _atom_site_occupancy
  K  K0  1  0.56842100  0.17747600  0.42892700  1
  K  K1  1  0.29956600  0.04226900  0.81058700  1
  K  K2  1  0.79956600  0.95773100  0.18941300  1
  K  K3  1  0.06842100  0.82252400  0.57107300  1
  K  K4  1  0.43746900  0.69210500  0.06011000  1
  K  K5  1  0.70083900  0.55705400  0.71088000  1
  K  K6  1  0.20083900  0.44294600  0.28912000  1
  K  K7  1  0.93746900  0.30789500  0.93989000  1
  Hf  Hf8  1  0.91262000  0.16078100  0.58661200  1
  Hf  Hf9  1  0.41262000  0.83921900  0.41338800  1
  Hf  Hf10  1  0.08428300  0.66758600  0.91458300  1
  Hf  Hf11  1  0.85694400  0.60686800  0.35470800  1
  Hf  Hf12  1  0.35694400  0.39313200  0.64529200  1
  Hf  Hf13  1  0.58428300  0.33241400  0.08541700  1
  Mn  Mn14  1  0.14759500  0.10165100  0.14564200  1
  Mn  Mn15  1  0.64759500  0.89834900  0.85435800  1
  P  P16  1  0.62370800  0.21050200  0.76781600  1
  P  P17  1  0.23109700  0.12781700  0.46071900  1
  P  P18  1  0.46117600  0.01748500  0.12366300  1
  P  P19  1  0.96117600  0.98251500  0.87633700  1
  P  P20  1  0.73109700  0.87218300  0.53928100  1
  P  P21  1  0.12370800  0.78949800  0.23218400  1
  P  P22  1  0.37301600  0.71226300  0.72876600  1
  P  P23  1  0.76981100  0.62134100  0.03788700  1
  P  P24  1  0.53846300  0.52086800  0.37340800  1
  P  P25  1  0.03846300  0.47913200  0.62659200  1
  P  P26  1  0.26981100  0.37865900  0.96211300  1
  P  P27  1  0.87301600  0.28773700  0.27123400  1
  O  O28  1  0.85024800  0.24489300  0.41448500  1
  O  O29  1  0.75416800  0.22857100  0.69249000  1
  O  O30  1  0.29805500  0.22511900  0.55677100  1
  O  O31  1  0.97175700  0.20561900  0.20124900  1
  O  O32  1  0.23975600  0.18042800  0.32385600  1
  O  O33  1  0.50513100  0.16224400  0.14796400  1
  O  O34  1  0.08898800  0.10529300  0.50735100  1
  O  O35  1  0.57033800  0.07399200  0.75834900  1
  O  O36  1  0.97272200  0.05169000  0.73983100  1
  O  O37  1  0.05693100  0.05060100  0.96547100  1
  O  O38  1  0.32166300  0.01155400  0.07465400  1
  O  O39  1  0.80545800  0.00309300  0.52026200  1
  O  O40  1  0.30545800  0.99690700  0.47973800  1
  O  O41  1  0.82166300  0.98844600  0.92534600  1
  O  O42  1  0.55693100  0.94939900  0.03452900  1
  O  O43  1  0.47272200  0.94831000  0.26016900  1
  O  O44  1  0.07033800  0.92600800  0.24165100  1
  O  O45  1  0.58898800  0.89470700  0.49264900  1
  O  O46  1  0.00513100  0.83775600  0.85203600  1
  O  O47  1  0.73975600  0.81957200  0.67614400  1
  O  O48  1  0.47175700  0.79438100  0.79875100  1
  O  O49  1  0.79805500  0.77488100  0.44322900  1
  O  O50  1  0.25416800  0.77142900  0.30751000  1
  O  O51  1  0.35024800  0.75510700  0.58551500  1
  O  O52  1  0.14623000  0.74288900  0.09006800  1
  O  O53  1  0.24004100  0.72440000  0.80055500  1
  O  O54  1  0.70043400  0.71832600  0.95340500  1
  O  O55  1  0.02730900  0.69168400  0.29827200  1
  O  O56  1  0.77069400  0.66428800  0.18370700  1
  O  O57  1  0.49319600  0.66215000  0.35265500  1
  O  O58  1  0.91377200  0.59884800  0.99539000  1
  O  O59  1  0.41478000  0.56641100  0.72750000  1
  O  O60  1  0.02092100  0.55630900  0.75397400  1
  O  O61  1  0.95270200  0.54767000  0.52353900  1
  O  O62  1  0.68218900  0.51921000  0.41905700  1
  O  O63  1  0.19750800  0.51106800  0.97266300  1
  O  O64  1  0.69750800  0.48893200  0.02733700  1
  O  O65  1  0.18218900  0.48079000  0.58094300  1
  O  O66  1  0.45270200  0.45233000  0.47646100  1
  O  O67  1  0.52092100  0.44369100  0.24602600  1
  O  O68  1  0.91478000  0.43358900  0.27250000  1
  O  O69  1  0.41377200  0.40115200  0.00461000  1
  O  O70  1  0.99319600  0.33785000  0.64734500  1
  O  O71  1  0.27069400  0.33571200  0.81629300  1
  O  O72  1  0.52730900  0.30831600  0.70172800  1
  O  O73  1  0.20043400  0.28167400  0.04659500  1
  O  O74  1  0.74004100  0.27560000  0.19944500  1
  O  O75  1  0.64623000  0.25711100  0.90993200  1
