# generated using pymatgen
data_Ca4MgB4H6(CO9)2
_symmetry_space_group_name_H-M   'P 1'
_cell_length_a   9.96588739
_cell_length_b   9.96588739
_cell_length_c   4.52442074
_cell_angle_alpha   79.23569119
_cell_angle_beta   79.23569119
_cell_angle_gamma   51.82980457
_symmetry_Int_Tables_number   1
_chemical_formula_structural   Ca4MgB4H6(CO9)2
_chemical_formula_sum   'Ca4 Mg1 B4 H6 C2 O18'
_cell_volume   345.57727744
_cell_formula_units_Z   1
loop_
 _symmetry_equiv_pos_site_id
 _symmetry_equiv_pos_as_xyz
  1  'x, y, z'
loop_
 _atom_site_type_symbol
 _atom_site_label
 _atom_site_symmetry_multiplicity
 _atom_site_fract_x
 _atom_site_fract_y
 _atom_site_fract_z
 _atom_site_occupancy
  Ca  Ca0  1  0.92520000  0.38658200  0.84145200  1
  Ca  Ca1  1  0.38658200  0.92520000  0.84145200  1
  Ca  Ca2  1  0.07480000  0.61341800  0.15854800  1
  Ca  Ca3  1  0.61341800  0.07480000  0.15854800  1
  Mg  Mg4  1  0.00000000  0.00000000  0.00000000  1
  B  B5  1  0.77582000  0.22418000  0.50000000  1
  B  B6  1  0.22418000  0.77582000  0.50000000  1
  B  B7  1  0.09682300  0.09682300  0.38141800  1
  B  B8  1  0.90317700  0.90317700  0.61858200  1
  H  H9  1  0.61947400  0.39330800  0.79448000  1
  H  H10  1  0.39330800  0.61947400  0.79448000  1
  H  H11  1  0.38052600  0.60669200  0.20552000  1
  H  H12  1  0.60669200  0.38052600  0.20552000  1
  H  H13  1  0.21337400  0.21337400  0.30087500  1
  H  H14  1  0.78662600  0.78662600  0.69912500  1
  C  C15  1  0.30499900  0.30499900  0.75133500  1
  C  C16  1  0.69500100  0.69500100  0.24866500  1
  O  O17  1  0.10109800  0.10109800  0.68943700  1
  O  O18  1  0.89890200  0.89890200  0.31056300  1
  O  O19  1  0.91980400  0.19175700  0.27981100  1
  O  O20  1  0.19175700  0.91980400  0.27981100  1
  O  O21  1  0.08019600  0.80824300  0.72018900  1
  O  O22  1  0.80824300  0.08019600  0.72018900  1
  O  O23  1  0.72307500  0.36525500  0.67394000  1
  O  O24  1  0.36525500  0.72307500  0.67394000  1
  O  O25  1  0.27692500  0.63474500  0.32606000  1
  O  O26  1  0.63474500  0.27692500  0.32606000  1
  O  O27  1  0.84605100  0.58480200  0.35085200  1
  O  O28  1  0.58480200  0.84605100  0.35085200  1
  O  O29  1  0.15394900  0.41519800  0.64914800  1
  O  O30  1  0.41519800  0.15394900  0.64914800  1
  O  O31  1  0.17509500  0.17509500  0.17586700  1
  O  O32  1  0.82490500  0.82490500  0.82413300  1
  O  O33  1  0.34342100  0.34342100  0.96470000  1
  O  O34  1  0.65657900  0.65658000  0.03530000  1
