# generated using pymatgen
data_Cr2CdH14(NO2)4
_symmetry_space_group_name_H-M   'P 1'
_cell_length_a   7.03145654
_cell_length_b   7.03145654
_cell_length_c   7.67058476
_cell_angle_alpha   72.69594095
_cell_angle_beta   72.69594095
_cell_angle_gamma   51.97788597
_symmetry_Int_Tables_number   1
_chemical_formula_structural   Cr2CdH14(NO2)4
_chemical_formula_sum   'Cr2 Cd1 H14 N4 O8'
_cell_volume   281.92772328
_cell_formula_units_Z   1
loop_
 _symmetry_equiv_pos_site_id
 _symmetry_equiv_pos_as_xyz
  1  'x, y, z'
loop_
 _atom_site_type_symbol
 _atom_site_label
 _atom_site_symmetry_multiplicity
 _atom_site_fract_x
 _atom_site_fract_y
 _atom_site_fract_z
 _atom_site_occupancy
  Cr  Cr0  1  0.65903000  0.65903000  0.77958400  1
  Cr  Cr1  1  0.34097000  0.34097000  0.22041600  1
  Cd  Cd2  1  0.00000000  0.00000000  0.00000000  1
  H  H3  1  0.92418500  0.92418500  0.69341600  1
  H  H4  1  0.07581500  0.07581500  0.30658500  1
  H  H5  1  0.91105200  0.17966400  0.64129800  1
  H  H6  1  0.17966400  0.91105200  0.64129800  1
  H  H7  1  0.08894800  0.82033600  0.35870200  1
  H  H8  1  0.82033600  0.08894800  0.35870200  1
  H  H9  1  0.40062100  0.40062100  0.77147600  1
  H  H10  1  0.59937900  0.59937900  0.22852400  1
  H  H11  1  0.35334400  0.35334400  0.59139800  1
  H  H12  1  0.64665600  0.64665600  0.40860200  1
  H  H13  1  0.14458600  0.41317000  0.79071700  1
  H  H14  1  0.41317000  0.14458600  0.79071700  1
  H  H15  1  0.85541400  0.58683000  0.20928300  1
  H  H16  1  0.58683000  0.85541400  0.20928300  1
  N  N17  1  0.00271000  0.00271000  0.70689200  1
  N  N18  1  0.99729000  0.99729000  0.29310800  1
  N  N19  1  0.32858200  0.32858200  0.73541000  1
  N  N20  1  0.67141800  0.67141800  0.26459000  1
  O  O21  1  0.86439000  0.41914700  0.91171000  1
  O  O22  1  0.41914700  0.86439000  0.91171000  1
  O  O23  1  0.13561000  0.58085300  0.08829000  1
  O  O24  1  0.58085300  0.13561000  0.08829000  1
  O  O25  1  0.56864900  0.56864900  0.66178500  1
  O  O26  1  0.43135100  0.43135100  0.33821500  1
  O  O27  1  0.78836900  0.78836900  0.63274700  1
  O  O28  1  0.21163100  0.21163100  0.36725300  1
