# generated using pymatgen
data_Ca10V5Fe15(BiO24)2
_symmetry_space_group_name_H-M   'P 1'
_cell_length_a   10.90077500
_cell_length_b   10.90036263
_cell_length_c   10.90518979
_cell_angle_alpha   109.24939368
_cell_angle_beta   109.59280546
_cell_angle_gamma   109.52195587
_symmetry_Int_Tables_number   1
_chemical_formula_structural   Ca10V5Fe15(BiO24)2
_chemical_formula_sum   'Ca10 V5 Fe15 Bi2 O48'
_cell_volume   998.09403835
_cell_formula_units_Z   1
loop_
 _symmetry_equiv_pos_site_id
 _symmetry_equiv_pos_as_xyz
  1  'x, y, z'
loop_
 _atom_site_type_symbol
 _atom_site_label
 _atom_site_symmetry_multiplicity
 _atom_site_fract_x
 _atom_site_fract_y
 _atom_site_fract_z
 _atom_site_occupancy
  Ca  Ca0  1  0.62552400  0.87168000  0.24777500  1
  Ca  Ca1  1  0.12505500  0.74567200  0.37331800  1
  Ca  Ca2  1  0.74983500  0.87507800  0.62515900  1
  Ca  Ca3  1  0.12435600  0.37935000  0.25178400  1
  Ca  Ca4  1  0.62385300  0.74749700  0.87563300  1
  Ca  Ca5  1  0.37614700  0.25250300  0.12436700  1
  Ca  Ca6  1  0.87564400  0.62065000  0.74821600  1
  Ca  Ca7  1  0.25016500  0.12492200  0.37484100  1
  Ca  Ca8  1  0.37447600  0.12832000  0.75222500  1
  Ca  Ca9  1  0.87494500  0.25432800  0.62668200  1
  V  V10  1  0.00000000  0.00000000  0.50000000  1
  V  V11  1  0.50000000  0.00000000  0.50000000  1
  V  V12  1  0.50000000  0.00000000  0.00000000  1
  V  V13  1  0.00000000  0.00000000  0.00000000  1
  V  V14  1  0.50000000  0.50000000  0.50000000  1
  Fe  Fe15  1  0.25083700  0.87715000  0.12626200  1
  Fe  Fe16  1  0.12473500  0.87512500  0.75140700  1
  Fe  Fe17  1  0.37364700  0.62578500  0.25125600  1
  Fe  Fe18  1  0.87454900  0.75139800  0.12678500  1
  Fe  Fe19  1  0.37431400  0.74909100  0.62346700  1
  Fe  Fe20  1  0.00000000  0.50000000  0.50000000  1
  Fe  Fe21  1  0.74966200  0.62703100  0.37705400  1
  Fe  Fe22  1  0.25033800  0.37296900  0.62294600  1
  Fe  Fe23  1  0.50000000  0.50000000  0.00000000  1
  Fe  Fe24  1  0.62635300  0.37421500  0.74874400  1
  Fe  Fe25  1  0.62568600  0.25090900  0.37653300  1
  Fe  Fe26  1  0.12545100  0.24860200  0.87321500  1
  Fe  Fe27  1  0.00000000  0.50000000  0.00000000  1
  Fe  Fe28  1  0.87526500  0.12487500  0.24859300  1
  Fe  Fe29  1  0.74916300  0.12285000  0.87373800  1
  Bi  Bi30  1  0.24331600  0.61390300  0.87337000  1
  Bi  Bi31  1  0.75668400  0.38609700  0.12663000  1
  O  O32  1  0.01839100  0.90680900  0.33010700  1
  O  O33  1  0.67146800  0.98334500  0.09504800  1
  O  O34  1  0.40761600  0.89131900  0.08018000  1
  O  O35  1  0.30894100  0.92415300  0.32801800  1
  O  O36  1  0.11234200  0.92345300  0.59643200  1
  O  O37  1  0.38996600  0.90725900  0.57870300  1
  O  O38  1  0.51854600  0.82987000  0.40722500  1
  O  O39  1  0.17808400  0.58051900  0.20189300  1
  O  O40  1  0.41802100  0.62303300  0.09765500  1
  O  O41  1  0.67868300  0.70535500  0.08138500  1
  O  O42  1  0.08127100  0.67997600  0.70269200  1
  O  O43  1  0.80833300  0.97997400  0.88533100  1
  O  O44  1  0.80896100  0.82954600  0.42472600  1
  O  O45  1  0.42474000  0.81217800  0.82821500  1
  O  O46  1  0.18011500  0.59852300  0.47784600  1
  O  O47  1  0.51814600  0.69006100  0.61311600  1
  O  O48  1  0.09820500  0.68160600  0.97876500  1
  O  O49  1  0.98197700  0.88938800  0.81083000  1
  O  O50  1  0.38951700  0.48270700  0.31186800  1
  O  O51  1  0.91516600  0.59510100  0.12241900  1
  O  O52  1  0.59634100  0.47556700  0.17987100  1
  O  O53  1  0.69022400  0.61564300  0.51999700  1
  O  O54  1  0.09736100  0.41754400  0.62208600  1
  O  O55  1  0.88956100  0.81225400  0.98347200  1
  O  O56  1  0.11043900  0.18774600  0.01652800  1
  O  O57  1  0.90263900  0.58245600  0.37791400  1
  O  O58  1  0.30977600  0.38435700  0.48000300  1
  O  O59  1  0.40365900  0.52443300  0.82012900  1
  O  O60  1  0.08483400  0.40489900  0.87758100  1
  O  O61  1  0.61048300  0.51729300  0.68813200  1
  O  O62  1  0.01802300  0.11061200  0.18917000  1
  O  O63  1  0.90179500  0.31839400  0.02123500  1
  O  O64  1  0.48185400  0.30993900  0.38688400  1
  O  O65  1  0.81988500  0.40147700  0.52215400  1
  O  O66  1  0.57526000  0.18782200  0.17178500  1
  O  O67  1  0.19103900  0.17045400  0.57527400  1
  O  O68  1  0.19166700  0.02002600  0.11466900  1
  O  O69  1  0.91872900  0.32002400  0.29730800  1
  O  O70  1  0.32131700  0.29464500  0.91861500  1
  O  O71  1  0.58197900  0.37696700  0.90234500  1
  O  O72  1  0.82191600  0.41948100  0.79810700  1
  O  O73  1  0.48145400  0.17013000  0.59277500  1
  O  O74  1  0.61003400  0.09274100  0.42129700  1
  O  O75  1  0.88765800  0.07654700  0.40356800  1
  O  O76  1  0.69105900  0.07584700  0.67198200  1
  O  O77  1  0.59238400  0.10868100  0.91982000  1
  O  O78  1  0.32853200  0.01665500  0.90495200  1
  O  O79  1  0.98160900  0.09319100  0.66989300  1
