# generated using pymatgen
data_Yb3H8
_symmetry_space_group_name_H-M   'P 1'
_cell_length_a   6.60439487
_cell_length_b   6.60439487
_cell_length_c   9.38094983
_cell_angle_alpha   89.91748609
_cell_angle_beta   89.91748609
_cell_angle_gamma   119.92953315
_symmetry_Int_Tables_number   1
_chemical_formula_structural   Yb3H8
_chemical_formula_sum   'Yb9 H24'
_cell_volume   354.60891681
_cell_formula_units_Z   3
loop_
 _symmetry_equiv_pos_site_id
 _symmetry_equiv_pos_as_xyz
  1  'x, y, z'
loop_
 _atom_site_type_symbol
 _atom_site_label
 _atom_site_symmetry_multiplicity
 _atom_site_fract_x
 _atom_site_fract_y
 _atom_site_fract_z
 _atom_site_occupancy
  Yb  Yb0  1  0.00000000  0.00000000  0.00000000  1
  Yb  Yb1  1  0.63663300  0.36336700  0.00000000  1
  Yb  Yb2  1  0.36336700  0.63663300  0.00000000  1
  Yb  Yb3  1  0.66789500  0.99048200  0.66504100  1
  Yb  Yb4  1  0.99048200  0.66789500  0.66504100  1
  Yb  Yb5  1  0.33925300  0.33925300  0.67007800  1
  Yb  Yb6  1  0.33210500  0.00951800  0.33495900  1
  Yb  Yb7  1  0.00951800  0.33210500  0.33495900  1
  Yb  Yb8  1  0.66074700  0.66074700  0.32992200  1
  H  H9  1  0.99067800  0.99067800  0.24912200  1
  H  H10  1  0.00932200  0.00932200  0.75087800  1
  H  H11  1  0.67082900  0.31897600  0.75932000  1
  H  H12  1  0.31897600  0.67082900  0.75932000  1
  H  H13  1  0.32917100  0.68102400  0.24068000  1
  H  H14  1  0.68102400  0.32917100  0.24068000  1
  H  H15  1  0.66647600  0.99885400  0.41964800  1
  H  H16  1  0.99885400  0.66647600  0.41964800  1
  H  H17  1  0.33492300  0.33492300  0.42116500  1
  H  H18  1  0.33352400  0.00114600  0.58035200  1
  H  H19  1  0.00114600  0.33352400  0.58035200  1
  H  H20  1  0.66507700  0.66507700  0.57883500  1
  H  H21  1  0.67260500  0.01430300  0.96048900  1
  H  H22  1  0.01430300  0.67260500  0.96048900  1
  H  H23  1  0.31207000  0.31207000  0.90379000  1
  H  H24  1  0.32739500  0.98569700  0.03951100  1
  H  H25  1  0.98569700  0.32739500  0.03951100  1
  H  H26  1  0.68793000  0.68793000  0.09621000  1
  H  H27  1  0.67349000  0.01519500  0.05264400  1
  H  H28  1  0.01519500  0.67349000  0.05264400  1
  H  H29  1  0.31282900  0.31282900  0.13253000  1
  H  H30  1  0.32651000  0.98480500  0.94735600  1
  H  H31  1  0.98480500  0.32651000  0.94735600  1
  H  H32  1  0.68717100  0.68717100  0.86747000  1
