# generated using pymatgen
data_Mn(FeO2)2
_symmetry_space_group_name_H-M   'P 1'
_cell_length_a   6.15049360
_cell_length_b   6.10071695
_cell_length_c   30.39600540
_cell_angle_alpha   60.27972333
_cell_angle_beta   59.99807905
_cell_angle_gamma   59.83729374
_symmetry_Int_Tables_number   1
_chemical_formula_structural   Mn(FeO2)2
_chemical_formula_sum   'Mn10 Fe20 O40'
_cell_volume   807.15436970
_cell_formula_units_Z   10
loop_
 _symmetry_equiv_pos_site_id
 _symmetry_equiv_pos_as_xyz
  1  'x, y, z'
loop_
 _atom_site_type_symbol
 _atom_site_label
 _atom_site_symmetry_multiplicity
 _atom_site_fract_x
 _atom_site_fract_y
 _atom_site_fract_z
 _atom_site_occupancy
  Mn  Mn0  1  0.12558500  0.12847000  0.02481000  1
  Mn  Mn1  1  0.00238100  0.50014300  0.09951400  1
  Mn  Mn2  1  0.12866900  0.12728400  0.22431200  1
  Mn  Mn3  1  0.12835200  0.12243600  0.42541500  1
  Mn  Mn4  1  0.00068200  0.49755300  0.50056000  1
  Mn  Mn5  1  0.12062000  0.12434900  0.62715800  1
  Mn  Mn6  1  0.00258800  0.50143900  0.29968300  1
  Mn  Mn7  1  0.12223700  0.12715200  0.82525300  1
  Mn  Mn8  1  0.99834600  0.50235900  0.70017700  1
  Mn  Mn9  1  0.87881500  0.87443800  0.97380000  1
  Fe  Fe10  1  0.50229900  0.00146600  0.09934100  1
  Fe  Fe11  1  0.50002900  0.50354100  0.99943400  1
  Fe  Fe12  1  0.50088200  0.49962600  0.09937100  1
  Fe  Fe13  1  0.49712200  0.00526700  0.29920300  1
  Fe  Fe14  1  0.50183700  0.49867800  0.19932600  1
  Fe  Fe15  1  0.49896200  0.50055200  0.29878900  1
  Fe  Fe16  1  0.87756900  0.87531800  0.17502500  1
  Fe  Fe17  1  0.49889900  0.00119500  0.50052400  1
  Fe  Fe18  1  0.49735000  0.49689000  0.40120800  1
  Fe  Fe19  1  0.49902900  0.49570700  0.50069000  1
  Fe  Fe20  1  0.86926900  0.87680100  0.37478400  1
  Fe  Fe21  1  0.49978900  0.50258500  0.60043300  1
  Fe  Fe22  1  0.49763900  0.50121500  0.69999000  1
  Fe  Fe23  1  0.87527300  0.87254300  0.57548200  1
  Fe  Fe24  1  0.50028300  0.49708400  0.80010100  1
  Fe  Fe25  1  0.49727700  0.00128300  0.70033700  1
  Fe  Fe26  1  0.50053200  0.49956500  0.90013400  1
  Fe  Fe27  1  0.86771200  0.87819200  0.77595100  1
  Fe  Fe28  1  0.49961300  0.99952100  0.90044300  1
  Fe  Fe29  1  0.99893700  0.50057000  0.89993700  1
  O  O30  1  0.26187000  0.27476400  0.05188800  1
  O  O31  1  0.26124100  0.26658000  0.14138100  1
  O  O32  1  0.28436700  0.71653000  0.04898100  1
  O  O33  1  0.70942500  0.26392000  0.05069400  1
  O  O34  1  0.27217500  0.25795800  0.25175900  1
  O  O35  1  0.28493000  0.74158400  0.14749200  1
  O  O36  1  0.73997600  0.73396800  0.05784200  1
  O  O37  1  0.27088200  0.25871900  0.34289900  1
  O  O38  1  0.28372600  0.71621300  0.25010300  1
  O  O39  1  0.72135700  0.27818100  0.14944200  1
  O  O40  1  0.71343800  0.25691100  0.25276200  1
  O  O41  1  0.74838600  0.73030900  0.14620800  1
  O  O42  1  0.26000700  0.26600700  0.45350700  1
  O  O43  1  0.26514000  0.74414300  0.34997800  1
  O  O44  1  0.72450200  0.73957400  0.25875900  1
  O  O45  1  0.72286200  0.26474900  0.35143900  1
  O  O46  1  0.28233700  0.25085000  0.54403000  1
  O  O47  1  0.26246600  0.70738900  0.45322400  1
  O  O48  1  0.71194500  0.26172500  0.45176900  1
  O  O49  1  0.72982300  0.74604000  0.35079300  1
  O  O50  1  0.28807600  0.74096800  0.54675800  1
  O  O51  1  0.25918200  0.26864800  0.65304000  1
  O  O52  1  0.72748300  0.75456400  0.45177100  1
  O  O53  1  0.73758700  0.28932700  0.54689100  1
  O  O54  1  0.28028800  0.71773000  0.65048900  1
  O  O55  1  0.26186900  0.26268900  0.74264200  1
  O  O56  1  0.71316200  0.25892300  0.65228600  1
  O  O57  1  0.74394100  0.73704900  0.54581000  1
  O  O58  1  0.28473700  0.73970600  0.74840600  1
  O  O59  1  0.26382700  0.26019000  0.85328100  1
  O  O60  1  0.72327000  0.27827700  0.74915600  1
  O  O61  1  0.73648000  0.74139800  0.65675100  1
  O  O62  1  0.26777300  0.26854000  0.94179500  1
  O  O63  1  0.26683600  0.70703200  0.85420400  1
  O  O64  1  0.70830800  0.26321500  0.85370400  1
  O  O65  1  0.74154800  0.73212400  0.74756900  1
  O  O66  1  0.29574400  0.73267700  0.94723000  1
  O  O67  1  0.72810800  0.29509000  0.94725400  1
  O  O68  1  0.73896300  0.72850500  0.85695500  1
  O  O69  1  0.73338900  0.73401100  0.94787100  1
