# generated using pymatgen
data_KCo2H3(SeO5)2
_symmetry_space_group_name_H-M   'P 1'
_cell_length_a   7.79949609
_cell_length_b   7.79949609
_cell_length_c   7.08282900
_cell_angle_alpha   67.68745464
_cell_angle_beta   67.68745464
_cell_angle_gamma   54.50178796
_symmetry_Int_Tables_number   1
_chemical_formula_structural   KCo2H3(SeO5)2
_chemical_formula_sum   'K1 Co2 H3 Se2 O10'
_cell_volume   317.18432294
_cell_formula_units_Z   1
loop_
 _symmetry_equiv_pos_site_id
 _symmetry_equiv_pos_as_xyz
  1  'x, y, z'
loop_
 _atom_site_type_symbol
 _atom_site_label
 _atom_site_symmetry_multiplicity
 _atom_site_fract_x
 _atom_site_fract_y
 _atom_site_fract_z
 _atom_site_occupancy
  K  K0  1  0.48339200  0.48339200  0.42023400  1
  Co  Co1  1  0.50145700  0.95682300  0.58746800  1
  Co  Co2  1  0.95682300  0.50145700  0.58746800  1
  H  H3  1  0.02745900  0.02745900  0.49761500  1
  H  H4  1  0.50640700  0.50640700  0.91455700  1
  H  H5  1  0.98186500  0.98186500  0.46699400  1
  Se  Se6  1  0.11789900  0.11789900  0.88041300  1
  Se  Se7  1  0.82355300  0.82355300  0.22323900  1
  O  O8  1  0.72506800  0.72506800  0.75915100  1
  O  O9  1  0.37063900  0.37063900  0.91930800  1
  O  O10  1  0.69011500  0.69011500  0.41514400  1
  O  O11  1  0.05334900  0.67022700  0.32627700  1
  O  O12  1  0.27285600  0.88751500  0.78219600  1
  O  O13  1  0.67022700  0.05334900  0.32627700  1
  O  O14  1  0.88751500  0.27285600  0.78219600  1
  O  O15  1  0.25225200  0.25225200  0.68228100  1
  O  O16  1  0.69099100  0.69099100  0.96633100  1
  O  O17  1  0.43213400  0.43213400  0.02285300  1
