# generated using pymatgen
data_KGd2Cu(MoO4)4
_symmetry_space_group_name_H-M   'P 1'
_cell_length_a   6.95626025
_cell_length_b   6.95626025
_cell_length_c   19.79059988
_cell_angle_alpha   88.71479472
_cell_angle_beta   88.71479472
_cell_angle_gamma   134.79907706
_symmetry_Int_Tables_number   1
_chemical_formula_structural   KGd2Cu(MoO4)4
_chemical_formula_sum   'K2 Gd4 Cu2 Mo8 O32'
_cell_volume   678.37887963
_cell_formula_units_Z   2
loop_
 _symmetry_equiv_pos_site_id
 _symmetry_equiv_pos_as_xyz
  1  'x, y, z'
loop_
 _atom_site_type_symbol
 _atom_site_label
 _atom_site_symmetry_multiplicity
 _atom_site_fract_x
 _atom_site_fract_y
 _atom_site_fract_z
 _atom_site_occupancy
  K  K0  1  0.02977500  0.97022500  0.25000000  1
  K  K1  1  0.97022500  0.02977500  0.75000000  1
  Gd  Gd2  1  0.14780100  0.85368900  0.03265200  1
  Gd  Gd3  1  0.85219900  0.14631100  0.96734800  1
  Gd  Gd4  1  0.14631100  0.85219900  0.46734800  1
  Gd  Gd5  1  0.85368900  0.14780100  0.53265200  1
  Cu  Cu6  1  0.30921000  0.69079000  0.25000000  1
  Cu  Cu7  1  0.69079000  0.30921000  0.75000000  1
  Mo  Mo8  1  0.54711900  0.42303500  0.59161200  1
  Mo  Mo9  1  0.73088200  0.24627900  0.14723700  1
  Mo  Mo10  1  0.45288100  0.57696500  0.40838800  1
  Mo  Mo11  1  0.75372100  0.26911800  0.35276300  1
  Mo  Mo12  1  0.24627900  0.73088200  0.64723700  1
  Mo  Mo13  1  0.26911800  0.75372100  0.85276300  1
  Mo  Mo14  1  0.57696500  0.45288100  0.90838800  1
  Mo  Mo15  1  0.42303500  0.54711900  0.09161200  1
  O  O16  1  0.73905400  0.01721800  0.32780700  1
  O  O17  1  0.30638300  0.49243900  0.32824600  1
  O  O18  1  0.21720900  0.25732400  0.46146600  1
  O  O19  1  0.69361700  0.50756100  0.67175400  1
  O  O20  1  0.93735800  0.41559300  0.43293900  1
  O  O21  1  0.77045600  0.67735000  0.39952500  1
  O  O22  1  0.90078600  0.59594300  0.13110900  1
  O  O23  1  0.49243900  0.30638300  0.82824600  1
  O  O24  1  0.06264200  0.58440700  0.56706100  1
  O  O25  1  0.50876500  0.17333200  0.54212900  1
  O  O26  1  0.26094600  0.98278200  0.67219300  1
  O  O27  1  0.78279100  0.74267600  0.53853400  1
  O  O28  1  0.25732400  0.21720900  0.96146600  1
  O  O29  1  0.50756100  0.69361700  0.17175400  1
  O  O30  1  0.06143300  0.46961400  0.71343600  1
  O  O31  1  0.67735000  0.77045600  0.89952500  1
  O  O32  1  0.59594300  0.90078600  0.63110900  1
  O  O33  1  0.22954400  0.32265000  0.60047500  1
  O  O34  1  0.40405700  0.09921400  0.36889100  1
  O  O35  1  0.98278200  0.26094600  0.17219300  1
  O  O36  1  0.82666800  0.49123500  0.95787100  1
  O  O37  1  0.46961400  0.06143300  0.21343600  1
  O  O38  1  0.17333200  0.50876500  0.04212900  1
  O  O39  1  0.01721800  0.73905400  0.82780700  1
  O  O40  1  0.32265000  0.22954400  0.10047500  1
  O  O41  1  0.53038600  0.93856700  0.78656400  1
  O  O42  1  0.49123500  0.82666800  0.45787100  1
  O  O43  1  0.09921400  0.40405700  0.86889100  1
  O  O44  1  0.58440700  0.06264200  0.06706100  1
  O  O45  1  0.74267600  0.78279100  0.03853400  1
  O  O46  1  0.41559300  0.93735800  0.93293900  1
  O  O47  1  0.93856700  0.53038600  0.28656400  1
