# generated using pymatgen
data_NpH16C4N8ClO6
_symmetry_space_group_name_H-M   'P 1'
_cell_length_a   8.10593265
_cell_length_b   8.10593265
_cell_length_c   11.79594828
_cell_angle_alpha   84.10904480
_cell_angle_beta   84.10904480
_cell_angle_gamma   97.92648324
_symmetry_Int_Tables_number   1
_chemical_formula_structural   NpH16C4N8ClO6
_chemical_formula_sum   'Np2 H32 C8 N16 Cl2 O12'
_cell_volume   758.22302125
_cell_formula_units_Z   2
loop_
 _symmetry_equiv_pos_site_id
 _symmetry_equiv_pos_as_xyz
  1  'x, y, z'
loop_
 _atom_site_type_symbol
 _atom_site_label
 _atom_site_symmetry_multiplicity
 _atom_site_fract_x
 _atom_site_fract_y
 _atom_site_fract_z
 _atom_site_occupancy
  Np  Np0  1  0.22028300  0.77971700  0.75000000  1
  Np  Np1  1  0.77971700  0.22028300  0.25000000  1
  H  H2  1  0.83674900  0.81999400  0.83535900  1
  H  H3  1  0.18000600  0.16325100  0.66464100  1
  H  H4  1  0.16325100  0.18000600  0.16464100  1
  H  H5  1  0.81999400  0.83674900  0.33535900  1
  H  H6  1  0.64705900  0.87544600  0.79418500  1
  H  H7  1  0.12455400  0.35294100  0.70581500  1
  H  H8  1  0.35294100  0.12455400  0.20581500  1
  H  H9  1  0.87544600  0.64705900  0.29418500  1
  H  H10  1  0.82627600  0.01253500  0.50710200  1
  H  H11  1  0.98746500  0.17372400  0.99289800  1
  H  H12  1  0.17372400  0.98746500  0.49289800  1
  H  H13  1  0.01253500  0.82627600  0.00710200  1
  H  H14  1  0.64119000  0.98530400  0.60590100  1
  H  H15  1  0.01469600  0.35881000  0.89409900  1
  H  H16  1  0.35881000  0.01469600  0.39409900  1
  H  H17  1  0.98530400  0.64119000  0.10590100  1
  H  H18  1  0.08462400  0.42048100  0.44004400  1
  H  H19  1  0.57951900  0.91537600  0.05995600  1
  H  H20  1  0.91537600  0.57951900  0.55995600  1
  H  H21  1  0.42048100  0.08462400  0.94004400  1
  H  H22  1  0.28352700  0.45594100  0.35798100  1
  H  H23  1  0.54405900  0.71647300  0.14201900  1
  H  H24  1  0.71647300  0.54405900  0.64201900  1
  H  H25  1  0.45594100  0.28352700  0.85798100  1
  H  H26  1  0.46240100  0.76500800  0.51294100  1
  H  H27  1  0.23499200  0.53759900  0.98705900  1
  H  H28  1  0.53759900  0.23499200  0.48705900  1
  H  H29  1  0.76500800  0.46240100  0.01294100  1
  H  H30  1  0.49050400  0.65223800  0.39353300  1
  H  H31  1  0.34776200  0.50949600  0.10646700  1
  H  H32  1  0.50949600  0.34776200  0.60646700  1
  H  H33  1  0.65223800  0.49050400  0.89353300  1
  C  C34  1  0.85028500  0.90924100  0.66765800  1
  C  C35  1  0.09075900  0.14971500  0.83234200  1
  C  C36  1  0.14971500  0.09075900  0.33234200  1
  C  C37  1  0.90924100  0.85028500  0.16765800  1
  C  C38  1  0.26243100  0.59387500  0.49351200  1
  C  C39  1  0.40612500  0.73756900  0.00648800  1
  C  C40  1  0.73756900  0.40612500  0.50648800  1
  C  C41  1  0.59387500  0.26243100  0.99351200  1
  N  N42  1  0.77160100  0.87071700  0.77548900  1
  N  N43  1  0.12928300  0.22839900  0.72451100  1
  N  N44  1  0.22839900  0.12928300  0.22451100  1
  N  N45  1  0.87071700  0.77160100  0.27548900  1
  N  N46  1  0.76220100  0.96655200  0.58536000  1
  N  N47  1  0.03344800  0.23779900  0.91464000  1
  N  N48  1  0.23779900  0.03344800  0.41464000  1
  N  N49  1  0.96655200  0.76220100  0.08536000  1
  N  N50  1  0.20664600  0.47663300  0.42760800  1
  N  N51  1  0.52336700  0.79335400  0.07239200  1
  N  N52  1  0.79335400  0.52336700  0.57239200  1
  N  N53  1  0.47663300  0.20664600  0.92760800  1
  N  N54  1  0.41551100  0.68374700  0.46028200  1
  N  N55  1  0.31625300  0.58448900  0.03971800  1
  N  N56  1  0.58448900  0.31625300  0.53971800  1
  N  N57  1  0.68374700  0.41551100  0.96028200  1
  Cl  Cl58  1  0.45683100  0.54316900  0.75000000  1
  Cl  Cl59  1  0.54316900  0.45683100  0.25000000  1
  O  O60  1  0.06207100  0.62186300  0.84225600  1
  O  O61  1  0.37813700  0.93792900  0.65774400  1
  O  O62  1  0.93792900  0.37813700  0.15774400  1
  O  O63  1  0.62186300  0.06207100  0.34225600  1
  O  O64  1  0.00335100  0.89136800  0.64377200  1
  O  O65  1  0.10863200  0.99664900  0.85622800  1
  O  O66  1  0.99664900  0.10863200  0.35622800  1
  O  O67  1  0.89136800  0.00335100  0.14377200  1
  O  O68  1  0.17221500  0.61841900  0.58373400  1
  O  O69  1  0.38158100  0.82778500  0.91626600  1
  O  O70  1  0.82778500  0.38158100  0.41626600  1
  O  O71  1  0.61841900  0.17221500  0.08373400  1
