# generated using pymatgen
data_Na2PH5O6
_symmetry_space_group_name_H-M   'P 1'
_cell_length_a   7.19623700
_cell_length_b   11.20502000
_cell_length_c   15.43184000
_cell_angle_alpha   90.00000000
_cell_angle_beta   90.00000000
_cell_angle_gamma   90.00000000
_symmetry_Int_Tables_number   1
_chemical_formula_structural   Na2PH5O6
_chemical_formula_sum   'Na16 P8 H40 O48'
_cell_volume   1244.33067036
_cell_formula_units_Z   8
loop_
 _symmetry_equiv_pos_site_id
 _symmetry_equiv_pos_as_xyz
  1  'x, y, z'
loop_
 _atom_site_type_symbol
 _atom_site_label
 _atom_site_symmetry_multiplicity
 _atom_site_fract_x
 _atom_site_fract_y
 _atom_site_fract_z
 _atom_site_occupancy
  Na  Na0  1  0.65292100  0.21701200  0.19964100  1
  Na  Na1  1  0.84707900  0.71701200  0.80035900  1
  Na  Na2  1  0.15292100  0.78298800  0.30035900  1
  Na  Na3  1  0.34707900  0.28298800  0.69964100  1
  Na  Na4  1  0.34707900  0.78298800  0.80035900  1
  Na  Na5  1  0.15292100  0.28298800  0.19964100  1
  Na  Na6  1  0.84707900  0.21701200  0.69964100  1
  Na  Na7  1  0.65292100  0.71701200  0.30035900  1
  Na  Na8  1  0.72058900  0.07794000  0.47759200  1
  Na  Na9  1  0.77941100  0.57794000  0.52240800  1
  Na  Na10  1  0.22058900  0.92206000  0.02240800  1
  Na  Na11  1  0.27941100  0.42206000  0.97759200  1
  Na  Na12  1  0.27941100  0.92206000  0.52240800  1
  Na  Na13  1  0.22058900  0.42206000  0.47759200  1
  Na  Na14  1  0.77941100  0.07794000  0.97759200  1
  Na  Na15  1  0.72058900  0.57794000  0.02240800  1
  P  P16  1  0.86045800  0.46790700  0.32833300  1
  P  P17  1  0.63954200  0.96790700  0.67166700  1
  P  P18  1  0.36045800  0.53209300  0.17166700  1
  P  P19  1  0.13954200  0.03209300  0.82833300  1
  P  P20  1  0.13954200  0.53209300  0.67166700  1
  P  P21  1  0.36045800  0.03209300  0.32833300  1
  P  P22  1  0.63954200  0.46790700  0.82833300  1
  P  P23  1  0.86045800  0.96790700  0.17166700  1
  H  H24  1  0.05182900  0.12567800  0.39940600  1
  H  H25  1  0.44817100  0.62567800  0.60059400  1
  H  H26  1  0.55182900  0.87432200  0.10059400  1
  H  H27  1  0.94817100  0.37432200  0.89940600  1
  H  H28  1  0.94817100  0.87432200  0.60059400  1
  H  H29  1  0.55182900  0.37432200  0.39940600  1
  H  H30  1  0.44817100  0.12567800  0.89940600  1
  H  H31  1  0.05182900  0.62567800  0.10059400  1
  H  H32  1  0.93918200  0.24560100  0.37693700  1
  H  H33  1  0.56081800  0.74560100  0.62306300  1
  H  H34  1  0.43918200  0.75439900  0.12306300  1
  H  H35  1  0.06081800  0.25439900  0.87693700  1
  H  H36  1  0.06081800  0.75439900  0.62306300  1
  H  H37  1  0.43918200  0.25439900  0.37693700  1
  H  H38  1  0.56081800  0.24560100  0.87693700  1
  H  H39  1  0.93918200  0.74560100  0.12306300  1
  H  H40  1  0.49841500  0.53585500  0.70989800  1
  H  H41  1  0.00158500  0.03585500  0.29010200  1
  H  H42  1  0.99841500  0.46414500  0.79010200  1
  H  H43  1  0.50158500  0.96414500  0.20989800  1
  H  H44  1  0.50158500  0.46414500  0.29010200  1
  H  H45  1  0.99841500  0.96414500  0.70989800  1
  H  H46  1  0.00158500  0.53585500  0.20989800  1
  H  H47  1  0.49841500  0.03585500  0.79010200  1
  H  H48  1  0.53625200  0.65329600  0.91258100  1
  H  H49  1  0.96374800  0.15329600  0.08741900  1
  H  H50  1  0.03625200  0.34670400  0.58741900  1
  H  H51  1  0.46374800  0.84670400  0.41258100  1
  H  H52  1  0.46374800  0.34670400  0.08741900  1
  H  H53  1  0.03625200  0.84670400  0.91258100  1
  H  H54  1  0.96374800  0.65329600  0.41258100  1
  H  H55  1  0.53625200  0.15329600  0.58741900  1
  H  H56  1  0.54234400  0.76845300  0.97364000  1
  H  H57  1  0.95765600  0.26845300  0.02636000  1
  H  H58  1  0.04234400  0.23154700  0.52636000  1
  H  H59  1  0.45765600  0.73154700  0.47364000  1
  H  H60  1  0.45765600  0.23154700  0.02636000  1
  H  H61  1  0.04234400  0.73154700  0.97364000  1
  H  H62  1  0.95765600  0.76845300  0.47364000  1
  H  H63  1  0.54234400  0.26845300  0.52636000  1
  O  O64  1  0.65611700  0.49459100  0.35590400  1
  O  O65  1  0.84388300  0.99459100  0.64409600  1
  O  O66  1  0.15611700  0.50540900  0.14409600  1
  O  O67  1  0.34388300  0.00540900  0.85590400  1
  O  O68  1  0.34388300  0.50540900  0.64409600  1
  O  O69  1  0.15611700  0.00540900  0.35590400  1
  O  O70  1  0.84388300  0.49459100  0.85590400  1
  O  O71  1  0.65611700  0.99459100  0.14409600  1
  O  O72  1  0.89035200  0.33965800  0.29588800  1
  O  O73  1  0.60964800  0.83965800  0.70411200  1
  O  O74  1  0.39035200  0.66034200  0.20411200  1
  O  O75  1  0.10964800  0.16034200  0.79588800  1
  O  O76  1  0.10964800  0.66034200  0.70411200  1
  O  O77  1  0.39035200  0.16034200  0.29588800  1
  O  O78  1  0.60964800  0.33965800  0.79588800  1
  O  O79  1  0.89035200  0.83965800  0.20411200  1
  O  O80  1  0.98922900  0.50454300  0.40305100  1
  O  O81  1  0.51077100  0.00454300  0.59694900  1
  O  O82  1  0.48922900  0.49545700  0.09694900  1
  O  O83  1  0.01077100  0.99545700  0.90305100  1
  O  O84  1  0.01077100  0.49545700  0.59694900  1
  O  O85  1  0.48922900  0.99545700  0.40305100  1
  O  O86  1  0.51077100  0.50454300  0.90305100  1
  O  O87  1  0.98922900  0.00454300  0.09694900  1
  O  O88  1  0.89322500  0.55994000  0.24974000  1
  O  O89  1  0.60677500  0.05994000  0.75026000  1
  O  O90  1  0.39322500  0.44006000  0.25026000  1
  O  O91  1  0.10677500  0.94006000  0.74974000  1
  O  O92  1  0.10677500  0.44006000  0.75026000  1
  O  O93  1  0.39322500  0.94006000  0.24974000  1
  O  O94  1  0.60677500  0.55994000  0.74974000  1
  O  O95  1  0.89322500  0.05994000  0.25026000  1
  O  O96  1  0.97005700  0.18838400  0.42546500  1
  O  O97  1  0.52994300  0.68838400  0.57453500  1
  O  O98  1  0.47005700  0.81161600  0.07453500  1
  O  O99  1  0.02994300  0.31161600  0.92546500  1
  O  O100  1  0.02994300  0.81161600  0.57453500  1
  O  O101  1  0.47005700  0.31161600  0.42546500  1
  O  O102  1  0.52994300  0.18838400  0.92546500  1
  O  O103  1  0.97005700  0.68838400  0.07453500  1
  O  O104  1  0.91634900  0.23725700  0.08412900  1
  O  O105  1  0.58365100  0.73725700  0.91587100  1
  O  O106  1  0.41634900  0.76274300  0.41587100  1
  O  O107  1  0.08365100  0.26274300  0.58412900  1
  O  O108  1  0.08365100  0.76274300  0.91587100  1
  O  O109  1  0.41634900  0.26274300  0.08412900  1
  O  O110  1  0.58365100  0.23725700  0.58412900  1
  O  O111  1  0.91634900  0.73725700  0.41587100  1
