# generated using pymatgen
data_LaH13C3S3O11
_symmetry_space_group_name_H-M   'P 1'
_cell_length_a   5.28868700
_cell_length_b   10.23386888
_cell_length_c   13.17964987
_cell_angle_alpha   98.59634653
_cell_angle_beta   91.44868926
_cell_angle_gamma   104.01709749
_symmetry_Int_Tables_number   1
_chemical_formula_structural   LaH13C3S3O11
_chemical_formula_sum   'La2 H26 C6 S6 O22'
_cell_volume   682.90927289
_cell_formula_units_Z   2
loop_
 _symmetry_equiv_pos_site_id
 _symmetry_equiv_pos_as_xyz
  1  'x, y, z'
loop_
 _atom_site_type_symbol
 _atom_site_label
 _atom_site_symmetry_multiplicity
 _atom_site_fract_x
 _atom_site_fract_y
 _atom_site_fract_z
 _atom_site_occupancy
  La  La0  1  0.97107500  0.42483100  0.25631800  1
  La  La1  1  0.02892500  0.57516900  0.74368200  1
  H  H2  1  0.52100100  0.55334400  0.39060300  1
  H  H3  1  0.47899900  0.44665600  0.60939700  1
  H  H4  1  0.47075300  0.39844000  0.39562600  1
  H  H5  1  0.52924700  0.60156000  0.60437400  1
  H  H6  1  0.76941000  0.33301300  0.01932300  1
  H  H7  1  0.23059000  0.66698700  0.98067700  1
  H  H8  1  0.07079800  0.33711600  0.02494800  1
  H  H9  1  0.92920200  0.66288400  0.97505200  1
  H  H10  1  0.68091100  0.88922300  0.95643200  1
  H  H11  1  0.31908900  0.11077700  0.04356800  1
  H  H12  1  0.91579600  0.02459500  0.91063300  1
  H  H13  1  0.08420400  0.97540500  0.08936700  1
  H  H14  1  0.57895000  0.02625400  0.90848100  1
  H  H15  1  0.42105000  0.97374600  0.09151900  1
  H  H16  1  0.63804700  0.75697900  0.32463200  1
  H  H17  1  0.36195300  0.24302100  0.67536800  1
  H  H18  1  0.88100700  0.84524400  0.24895500  1
  H  H19  1  0.11899300  0.15475600  0.75104500  1
  H  H20  1  0.55162400  0.86668200  0.24427200  1
  H  H21  1  0.44837600  0.13331800  0.75572800  1
  H  H22  1  0.28150000  0.92544700  0.58411800  1
  H  H23  1  0.71850000  0.07455300  0.41588200  1
  H  H24  1  0.24946500  0.92576500  0.44705400  1
  H  H25  1  0.75053500  0.07423500  0.55294600  1
  H  H26  1  0.96251800  0.87734000  0.51871600  1
  H  H27  1  0.03748200  0.12266000  0.48128400  1
  C  C28  1  0.71547600  0.96073600  0.90110400  1
  C  C29  1  0.28452400  0.03926400  0.09889600  1
  C  C30  1  0.67348500  0.79559200  0.25177500  1
  C  C31  1  0.32651500  0.20440800  0.74822500  1
  C  C32  1  0.16849800  0.87696700  0.51166900  1
  C  C33  1  0.83150200  0.12303300  0.48833100  1
  S  S34  1  0.66799900  0.86462400  0.77528700  1
  S  S35  1  0.33200100  0.13537600  0.22471300  1
  S  S36  1  0.57960100  0.65378000  0.15116600  1
  S  S37  1  0.42039900  0.34622000  0.84883400  1
  S  S38  1  0.18452500  0.70449500  0.48870300  1
  S  S39  1  0.81547500  0.29550500  0.51129700  1
  O  O40  1  0.70900700  0.96105700  0.70259100  1
  O  O41  1  0.29099300  0.03894300  0.29740900  1
  O  O42  1  0.60211500  0.22183700  0.23306500  1
  O  O43  1  0.39788500  0.77816300  0.76693500  1
  O  O44  1  0.13990100  0.21942400  0.22888600  1
  O  O45  1  0.86009900  0.78057600  0.77111400  1
  O  O46  1  0.30835600  0.58340100  0.16714400  1
  O  O47  1  0.69164400  0.41659900  0.83285600  1
  O  O48  1  0.76304400  0.56783700  0.16201200  1
  O  O49  1  0.23695600  0.43216300  0.83798800  1
  O  O50  1  0.59835400  0.70498500  0.05211900  1
  O  O51  1  0.40164600  0.29501500  0.94788100  1
  O  O52  1  0.03649100  0.63970400  0.56938800  1
  O  O53  1  0.96350900  0.36029600  0.43061200  1
  O  O54  1  0.46113200  0.69926400  0.49465500  1
  O  O55  1  0.53886800  0.30073600  0.50534500  1
  O  O56  1  0.05666300  0.64735000  0.38473300  1
  O  O57  1  0.94333700  0.35265000  0.61526700  1
  O  O58  1  0.48803800  0.46344600  0.34616200  1
  O  O59  1  0.51196200  0.53655400  0.65383800  1
  O  O60  1  0.91344200  0.32351800  0.06370800  1
  O  O61  1  0.08655800  0.67648200  0.93629200  1
