# generated using pymatgen
data_MnP2H36C12N6(ClO)2
_symmetry_space_group_name_H-M   'P 1'
_cell_length_a   12.66337726
_cell_length_b   12.66337726
_cell_length_c   16.07455217
_cell_angle_alpha   54.87215435
_cell_angle_beta   54.87215435
_cell_angle_gamma   38.48551725
_symmetry_Int_Tables_number   1
_chemical_formula_structural   MnP2H36C12N6(ClO)2
_chemical_formula_sum   'Mn2 P4 H72 C24 N12 Cl4 O4'
_cell_volume   1271.81958576
_cell_formula_units_Z   2
loop_
 _symmetry_equiv_pos_site_id
 _symmetry_equiv_pos_as_xyz
  1  'x, y, z'
loop_
 _atom_site_type_symbol
 _atom_site_label
 _atom_site_symmetry_multiplicity
 _atom_site_fract_x
 _atom_site_fract_y
 _atom_site_fract_z
 _atom_site_occupancy
  Mn  Mn0  1  0.69944300  0.30055700  0.75000000  1
  Mn  Mn1  1  0.30055700  0.69944300  0.25000000  1
  P  P2  1  0.33608400  0.46292600  0.95584800  1
  P  P3  1  0.53707400  0.66391600  0.54415200  1
  P  P4  1  0.66391600  0.53707400  0.04415200  1
  P  P5  1  0.46292600  0.33608400  0.45584800  1
  H  H6  1  0.21213500  0.84985800  0.91688700  1
  H  H7  1  0.15014200  0.78786500  0.58311300  1
  H  H8  1  0.78786500  0.15014200  0.08311300  1
  H  H9  1  0.84985800  0.21213500  0.41688700  1
  H  H10  1  0.41518200  0.62835800  0.93283500  1
  H  H11  1  0.37164200  0.58481800  0.56716500  1
  H  H12  1  0.58481800  0.37164200  0.06716500  1
  H  H13  1  0.62835800  0.41518200  0.43283500  1
  H  H14  1  0.24294400  0.71096300  0.04575100  1
  H  H15  1  0.28903700  0.75705600  0.45424900  1
  H  H16  1  0.75705600  0.28903700  0.95424900  1
  H  H17  1  0.71096300  0.24294400  0.54575100  1
  H  H18  1  0.96069400  0.78754400  0.07544000  1
  H  H19  1  0.21245600  0.03930600  0.42456000  1
  H  H20  1  0.03930600  0.21245600  0.92456000  1
  H  H21  1  0.78754400  0.96069400  0.57544000  1
  H  H22  1  0.96617400  0.75697400  0.97652300  1
  H  H23  1  0.24302600  0.03382600  0.52347700  1
  H  H24  1  0.03382600  0.24302600  0.02347700  1
  H  H25  1  0.75697400  0.96617400  0.47652300  1
  H  H26  1  0.96211500  0.91984300  0.94445800  1
  H  H27  1  0.08015700  0.03788500  0.55554200  1
  H  H28  1  0.03788500  0.08015700  0.05554200  1
  H  H29  1  0.91984300  0.96211500  0.44445800  1
  H  H30  1  0.29823600  0.50191600  0.75979400  1
  H  H31  1  0.49808400  0.70176400  0.74020600  1
  H  H32  1  0.70176400  0.49808400  0.24020600  1
  H  H33  1  0.50191600  0.29823600  0.25979400  1
  H  H34  1  0.17128200  0.69259900  0.79529400  1
  H  H35  1  0.30740100  0.82871800  0.70470600  1
  H  H36  1  0.82871800  0.30740100  0.20470600  1
  H  H37  1  0.69259900  0.17128200  0.29529400  1
  H  H38  1  0.06785000  0.63037800  0.82012300  1
  H  H39  1  0.36962200  0.93215000  0.67987700  1
  H  H40  1  0.93215000  0.36962200  0.17987700  1
  H  H41  1  0.63037800  0.06785000  0.32012300  1
  H  H42  1  0.14006700  0.36194600  0.95230200  1
  H  H43  1  0.63805400  0.85993300  0.54769800  1
  H  H44  1  0.85993300  0.63805400  0.04769800  1
  H  H45  1  0.36194600  0.14006700  0.45230200  1
  H  H46  1  0.26095200  0.25158400  0.03978500  1
  H  H47  1  0.74841600  0.73904800  0.46021500  1
  H  H48  1  0.73904800  0.74841600  0.96021500  1
  H  H49  1  0.25158400  0.26095200  0.53978500  1
  H  H50  1  0.37319300  0.22495300  0.90855900  1
  H  H51  1  0.77504700  0.62680700  0.59144100  1
  H  H52  1  0.62680700  0.77504700  0.09144100  1
  H  H53  1  0.22495300  0.37319300  0.40855900  1
  H  H54  1  0.18139500  0.31138900  0.19360900  1
  H  H55  1  0.68861100  0.81860500  0.30639100  1
  H  H56  1  0.81860500  0.68861100  0.80639100  1
  H  H57  1  0.31138900  0.18139500  0.69360900  1
  H  H58  1  0.12837200  0.50943700  0.15777200  1
  H  H59  1  0.49056300  0.87162800  0.34222800  1
  H  H60  1  0.87162800  0.49056300  0.84222800  1
  H  H61  1  0.50943700  0.12837200  0.65777200  1
  H  H62  1  0.28647500  0.31455200  0.23161400  1
  H  H63  1  0.68544800  0.71352500  0.26838600  1
  H  H64  1  0.71352500  0.68544800  0.76838600  1
  H  H65  1  0.31455200  0.28647500  0.73161400  1
  H  H66  1  0.58785800  0.08922700  0.14059100  1
  H  H67  1  0.91077300  0.41214200  0.35940900  1
  H  H68  1  0.41214200  0.91077300  0.85940900  1
  H  H69  1  0.08922700  0.58785800  0.64059100  1
  H  H70  1  0.62743900  0.11292200  0.00731100  1
  H  H71  1  0.88707800  0.37256100  0.49268900  1
  H  H72  1  0.37256100  0.88707800  0.99268900  1
  H  H73  1  0.11292200  0.62743900  0.50731100  1
  H  H74  1  0.49804600  0.05968600  0.10988100  1
  H  H75  1  0.94031400  0.50195400  0.39011900  1
  H  H76  1  0.50195400  0.94031400  0.89011900  1
  H  H77  1  0.05968600  0.49804600  0.60988100  1
  C  C78  1  0.27313400  0.71497000  0.96504700  1
  C  C79  1  0.28503000  0.72686600  0.53495300  1
  C  C80  1  0.72686600  0.28503000  0.03495300  1
  C  C81  1  0.71497000  0.27313400  0.46504700  1
  C  C82  1  0.01309400  0.78739200  0.99181300  1
  C  C83  1  0.21260800  0.98690600  0.50818700  1
  C  C84  1  0.98690600  0.21260800  0.00818700  1
  C  C85  1  0.78739200  0.01309400  0.49181300  1
  C  C86  1  0.18921600  0.57986600  0.81879600  1
  C  C87  1  0.42013400  0.81078400  0.68120400  1
  C  C88  1  0.81078400  0.42013400  0.18120400  1
  C  C89  1  0.57986600  0.18921600  0.31879600  1
  C  C90  1  0.25265400  0.31893000  0.95776000  1
  C  C91  1  0.68107000  0.74734600  0.54224000  1
  C  C92  1  0.74734600  0.68107000  0.04224000  1
  C  C93  1  0.31893000  0.25265400  0.45776000  1
  C  C94  1  0.23500000  0.36705100  0.16820500  1
  C  C95  1  0.63294900  0.76500000  0.33179500  1
  C  C96  1  0.76500000  0.63294900  0.83179500  1
  C  C97  1  0.36705100  0.23500000  0.66820500  1
  C  C98  1  0.53015700  0.13617100  0.08280500  1
  C  C99  1  0.86382900  0.46984300  0.41719500  1
  C  C100  1  0.46984300  0.86382900  0.91719500  1
  C  C101  1  0.13617100  0.53015700  0.58280500  1
  N  N102  1  0.20408100  0.66413800  0.96175200  1
  N  N103  1  0.33586200  0.79591900  0.53824800  1
  N  N104  1  0.79591900  0.33586200  0.03824800  1
  N  N105  1  0.66413800  0.20408100  0.46175200  1
  N  N106  1  0.22371700  0.47380900  0.92352900  1
  N  N107  1  0.52619100  0.77628300  0.57647100  1
  N  N108  1  0.77628300  0.52619100  0.07647100  1
  N  N109  1  0.47380900  0.22371700  0.42352900  1
  N  N110  1  0.37437200  0.32326900  0.07221500  1
  N  N111  1  0.67673100  0.62562800  0.42778500  1
  N  N112  1  0.62562800  0.67673100  0.92778500  1
  N  N113  1  0.32326900  0.37437200  0.57221500  1
  Cl  Cl114  1  0.93475900  0.25427100  0.72813500  1
  Cl  Cl115  1  0.74572900  0.06524100  0.77186500  1
  Cl  Cl116  1  0.06524100  0.74572900  0.27186500  1
  Cl  Cl117  1  0.25427100  0.93475900  0.22813500  1
  O  O118  1  0.51069600  0.40418200  0.87998800  1
  O  O119  1  0.59581800  0.48930400  0.62001200  1
  O  O120  1  0.48930400  0.59581800  0.12001200  1
  O  O121  1  0.40418200  0.51069600  0.37998800  1
