# generated using pymatgen
data_FeH4(CO3)2
_symmetry_space_group_name_H-M   'P 1'
_cell_length_a   6.90208182
_cell_length_b   10.57043513
_cell_length_c   8.14319807
_cell_angle_alpha   105.61370145
_cell_angle_beta   99.05745127
_cell_angle_gamma   102.34751391
_symmetry_Int_Tables_number   1
_chemical_formula_structural   FeH4(CO3)2
_chemical_formula_sum   'Fe4 H16 C8 O24'
_cell_volume   544.16419035
_cell_formula_units_Z   4
loop_
 _symmetry_equiv_pos_site_id
 _symmetry_equiv_pos_as_xyz
  1  'x, y, z'
loop_
 _atom_site_type_symbol
 _atom_site_label
 _atom_site_symmetry_multiplicity
 _atom_site_fract_x
 _atom_site_fract_y
 _atom_site_fract_z
 _atom_site_occupancy
  Fe  Fe0  1  0.54078800  0.29146100  0.75003400  1
  Fe  Fe1  1  0.45869000  0.70844700  0.24999300  1
  Fe  Fe2  1  0.04183100  0.79130500  0.74982500  1
  Fe  Fe3  1  0.95868400  0.20852600  0.24995200  1
  H  H4  1  0.41490800  0.74945800  0.85604500  1
  H  H5  1  0.91369600  0.24993100  0.85660400  1
  H  H6  1  0.23926700  0.40367400  0.64360700  1
  H  H7  1  0.73882500  0.90396900  0.64375400  1
  H  H8  1  0.58645000  0.25050300  0.14431400  1
  H  H9  1  0.08533200  0.75014700  0.14321900  1
  H  H10  1  0.76131500  0.59599000  0.35687000  1
  H  H11  1  0.26039900  0.09646200  0.35568400  1
  H  H12  1  0.33846900  0.67438600  0.64567100  1
  H  H13  1  0.83848800  0.17481200  0.64613000  1
  H  H14  1  0.26935200  0.43380700  0.85416700  1
  H  H15  1  0.77009600  0.93349900  0.85418200  1
  H  H16  1  0.66055300  0.32598200  0.35464800  1
  H  H17  1  0.16190600  0.82497500  0.35367300  1
  H  H18  1  0.73028600  0.56653800  0.14635700  1
  H  H19  1  0.23080800  0.06581600  0.14517300  1
  C  C20  1  0.81669900  0.56783900  0.85242000  1
  C  C21  1  0.31721300  0.06728400  0.85188500  1
  C  C22  1  0.76642400  0.51647900  0.64809200  1
  C  C23  1  0.26700800  0.01601000  0.64746100  1
  C  C24  1  0.18329600  0.43231200  0.14779500  1
  C  C25  1  0.68314600  0.93251900  0.14794700  1
  C  C26  1  0.23326300  0.48376400  0.35218500  1
  C  C27  1  0.73288500  0.98396000  0.35229200  1
  O  O28  1  0.93524100  0.68633100  0.92767800  1
  O  O29  1  0.43482300  0.18597100  0.92755000  1
  O  O30  1  0.84772400  0.59703400  0.57260900  1
  O  O31  1  0.34801800  0.09673900  0.57200300  1
  O  O32  1  0.06541500  0.31364100  0.07236100  1
  O  O33  1  0.56491000  0.81401400  0.07249000  1
  O  O34  1  0.15156900  0.40327500  0.42762100  1
  O  O35  1  0.65217700  0.90313200  0.42770000  1
  O  O36  1  0.73509700  0.48760200  0.92870600  1
  O  O37  1  0.23620500  0.98661700  0.92795700  1
  O  O38  1  0.64819200  0.39760700  0.57185600  1
  O  O39  1  0.14901800  0.89708100  0.57124200  1
  O  O40  1  0.26447500  0.51277600  0.07156200  1
  O  O41  1  0.76490500  0.01281300  0.07180000  1
  O  O42  1  0.35173300  0.60254400  0.42837100  1
  O  O43  1  0.85032300  0.10311400  0.42847800  1
  O  O44  1  0.29436100  0.70652300  0.75648300  1
  O  O45  1  0.79371500  0.20734900  0.75646200  1
  O  O46  1  0.28470600  0.37224400  0.74374600  1
  O  O47  1  0.78527100  0.87229600  0.74342500  1
  O  O48  1  0.70609600  0.29360000  0.24462400  1
  O  O49  1  0.20587600  0.79255900  0.24286700  1
  O  O50  1  0.71529800  0.62778800  0.25722400  1
  O  O51  1  0.21477700  0.12749200  0.25520800  1
