# generated using pymatgen
data_NiH14C10(N4O)2
_symmetry_space_group_name_H-M   'P 1'
_cell_length_a   7.67951098
_cell_length_b   7.67951098
_cell_length_c   8.24109084
_cell_angle_alpha   70.19997936
_cell_angle_beta   70.19997936
_cell_angle_gamma   57.27987044
_symmetry_Int_Tables_number   1
_chemical_formula_structural   NiH14C10(N4O)2
_chemical_formula_sum   'Ni1 H14 C10 N8 O2'
_cell_volume   377.21332294
_cell_formula_units_Z   1
loop_
 _symmetry_equiv_pos_site_id
 _symmetry_equiv_pos_as_xyz
  1  'x, y, z'
loop_
 _atom_site_type_symbol
 _atom_site_label
 _atom_site_symmetry_multiplicity
 _atom_site_fract_x
 _atom_site_fract_y
 _atom_site_fract_z
 _atom_site_occupancy
  Ni  Ni0  1  0.00000000  0.00000000  0.50000000  1
  H  H1  1  0.22875300  0.22875300  0.23588600  1
  H  H2  1  0.77124700  0.77124700  0.76411400  1
  H  H3  1  0.08897600  0.33072300  0.77052100  1
  H  H4  1  0.33072300  0.08897600  0.77052100  1
  H  H5  1  0.91102400  0.66927700  0.22947900  1
  H  H6  1  0.66927700  0.91102400  0.22947900  1
  H  H7  1  0.09740600  0.09740600  0.92394800  1
  H  H8  1  0.90259400  0.90259400  0.07605200  1
  H  H9  1  0.26280200  0.50479900  0.82473600  1
  H  H10  1  0.50479900  0.26280200  0.82473600  1
  H  H11  1  0.73719800  0.49520100  0.17526400  1
  H  H12  1  0.49520100  0.73719800  0.17526400  1
  H  H13  1  0.38325100  0.38325100  0.01399400  1
  H  H14  1  0.61674900  0.61674900  0.98600600  1
  C  C15  1  0.18035700  0.18035700  0.15427600  1
  C  C16  1  0.81964300  0.81964300  0.84572400  1
  C  C17  1  0.18485100  0.18485100  0.85476700  1
  C  C18  1  0.81514900  0.81514900  0.14523300  1
  C  C19  1  0.35380500  0.35380500  0.90723000  1
  C  C20  1  0.64619500  0.64619500  0.09277000  1
  C  C21  1  0.76668200  0.45927400  0.57826800  1
  C  C22  1  0.45927400  0.76668200  0.57826800  1
  C  C23  1  0.23331800  0.54072600  0.42173200  1
  C  C24  1  0.54072600  0.23331800  0.42173200  1
  N  N25  1  0.89642000  0.30110300  0.52902000  1
  N  N26  1  0.30110300  0.89642000  0.52902000  1
  N  N27  1  0.10358000  0.69889700  0.47098000  1
  N  N28  1  0.69889700  0.10358000  0.47098000  1
  N  N29  1  0.63134700  0.63134700  0.63896000  1
  N  N30  1  0.36865300  0.36865300  0.36104000  1
  N  N31  1  0.23670500  0.23670500  0.98050600  1
  N  N32  1  0.76329500  0.76329500  0.01949400  1
  O  O33  1  0.07952900  0.07952900  0.22373900  1
  O  O34  1  0.92047100  0.92047100  0.77626100  1
