# generated using pymatgen
data_CuSi2H18C9O2
_symmetry_space_group_name_H-M   'P 1'
_cell_length_a   9.24944832
_cell_length_b   9.24944832
_cell_length_c   18.82422757
_cell_angle_alpha   81.59547170
_cell_angle_beta   81.59547170
_cell_angle_gamma   64.06554925
_symmetry_Int_Tables_number   1
_chemical_formula_structural   CuSi2H18C9O2
_chemical_formula_sum   'Cu4 Si8 H72 C36 O8'
_cell_volume   1426.58688756
_cell_formula_units_Z   4
loop_
 _symmetry_equiv_pos_site_id
 _symmetry_equiv_pos_as_xyz
  1  'x, y, z'
loop_
 _atom_site_type_symbol
 _atom_site_label
 _atom_site_symmetry_multiplicity
 _atom_site_fract_x
 _atom_site_fract_y
 _atom_site_fract_z
 _atom_site_occupancy
  Cu  Cu0  1  0.37443500  0.31960100  0.08439800  1
  Cu  Cu1  1  0.68039900  0.62556500  0.41560200  1
  Cu  Cu2  1  0.62556500  0.68039900  0.91560200  1
  Cu  Cu3  1  0.31960100  0.37443500  0.58439800  1
  Si  Si4  1  0.41687300  0.20426000  0.25689800  1
  Si  Si5  1  0.79574000  0.58312700  0.24310200  1
  Si  Si6  1  0.58312700  0.79574000  0.74310200  1
  Si  Si7  1  0.20426000  0.41687300  0.75689800  1
  Si  Si8  1  0.16300900  0.09860800  0.07188500  1
  Si  Si9  1  0.90139200  0.83699100  0.42811500  1
  Si  Si10  1  0.83699100  0.90139200  0.92811500  1
  Si  Si11  1  0.09860800  0.16300900  0.57188500  1
  H  H12  1  0.42587500  0.94455600  0.31879900  1
  H  H13  1  0.05544400  0.57412500  0.18120100  1
  H  H14  1  0.57412500  0.05544400  0.68120100  1
  H  H15  1  0.94455600  0.42587500  0.81879900  1
  H  H16  1  0.24050800  0.10981300  0.34383800  1
  H  H17  1  0.89018700  0.75949200  0.15616200  1
  H  H18  1  0.75949200  0.89018700  0.65616200  1
  H  H19  1  0.10981300  0.24050800  0.84383800  1
  H  H20  1  0.41963100  0.07286900  0.38194400  1
  H  H21  1  0.92713100  0.58036900  0.11805600  1
  H  H22  1  0.58036900  0.92713100  0.61805600  1
  H  H23  1  0.07286900  0.41963100  0.88194400  1
  H  H24  1  0.68956200  0.00197700  0.21632500  1
  H  H25  1  0.99802300  0.31043800  0.28367500  1
  H  H26  1  0.31043800  0.99802300  0.78367500  1
  H  H27  1  0.00197700  0.68956200  0.71632500  1
  H  H28  1  0.70324100  0.12366400  0.27733600  1
  H  H29  1  0.87633600  0.29675900  0.22266400  1
  H  H30  1  0.29675900  0.87633600  0.72266400  1
  H  H31  1  0.12366400  0.70324100  0.77733600  1
  H  H32  1  0.66571100  0.20260500  0.18649100  1
  H  H33  1  0.79739500  0.33428900  0.31350900  1
  H  H34  1  0.33428900  0.79739500  0.81350900  1
  H  H35  1  0.20260500  0.66571100  0.68649100  1
  H  H36  1  0.19546100  0.45780200  0.29788800  1
  H  H37  1  0.54219900  0.80453900  0.20211200  1
  H  H38  1  0.80453900  0.54219800  0.70211200  1
  H  H39  1  0.45780200  0.19546100  0.79788800  1
  H  H40  1  0.34078800  0.49799500  0.23526600  1
  H  H41  1  0.50200500  0.65921200  0.26473400  1
  H  H42  1  0.65921200  0.50200500  0.76473400  1
  H  H43  1  0.49799500  0.34078800  0.73526600  1
  H  H44  1  0.38266700  0.42668200  0.32644900  1
  H  H45  1  0.57331800  0.61733300  0.17355100  1
  H  H46  1  0.61733300  0.57331800  0.67355100  1
  H  H47  1  0.42668200  0.38266700  0.82644900  1
  H  H48  1  0.06163100  0.97183500  0.18059000  1
  H  H49  1  0.02816500  0.93836900  0.31941000  1
  H  H50  1  0.93836900  0.02816500  0.81941000  1
  H  H51  1  0.97183500  0.06163100  0.68059000  1
  H  H52  1  0.24991600  0.83063300  0.14217300  1
  H  H53  1  0.16936700  0.75008400  0.35782700  1
  H  H54  1  0.75008400  0.16936700  0.85782700  1
  H  H55  1  0.83063300  0.24991600  0.64217300  1
  H  H56  1  0.06890800  0.88118400  0.10241300  1
  H  H57  1  0.11881600  0.93109200  0.39758700  1
  H  H58  1  0.93109200  0.11881600  0.89758700  1
  H  H59  1  0.88118400  0.06890800  0.60241300  1
  H  H60  1  0.98222600  0.37069000  0.01930000  1
  H  H61  1  0.62931000  0.01777400  0.48070000  1
  H  H62  1  0.01777400  0.62931000  0.98070000  1
  H  H63  1  0.37069000  0.98222600  0.51930000  1
  H  H64  1  0.88325200  0.30890800  0.09755200  1
  H  H65  1  0.69109200  0.11674800  0.40244800  1
  H  H66  1  0.11674800  0.69109200  0.90244800  1
  H  H67  1  0.30890800  0.88325200  0.59755200  1
  H  H68  1  0.90372600  0.22899800  0.01471100  1
  H  H69  1  0.77100200  0.09627400  0.48528900  1
  H  H70  1  0.09627400  0.77100200  0.98528900  1
  H  H71  1  0.22899800  0.90372600  0.51471100  1
  H  H72  1  0.32114800  0.11906400  0.95598900  1
  H  H73  1  0.88093600  0.67885200  0.54401100  1
  H  H74  1  0.67885200  0.88093600  0.04401100  1
  H  H75  1  0.11906400  0.32114800  0.45598900  1
  H  H76  1  0.23233600  0.98395500  0.95379800  1
  H  H77  1  0.01604500  0.76766400  0.54620200  1
  H  H78  1  0.76766400  0.01604500  0.04620200  1
  H  H79  1  0.98395500  0.23233600  0.45379800  1
  H  H80  1  0.40720300  0.92005700  0.00039200  1
  H  H81  1  0.07994300  0.59279700  0.49960800  1
  H  H82  1  0.59279700  0.07994300  0.99960800  1
  H  H83  1  0.92005700  0.40720300  0.50039200  1
  C  C84  1  0.32902000  0.20043900  0.17407600  1
  C  C85  1  0.79956100  0.67098000  0.32592400  1
  C  C86  1  0.67098000  0.79956100  0.82592400  1
  C  C87  1  0.20043900  0.32902000  0.67407600  1
  C  C88  1  0.26754200  0.17586200  0.12384000  1
  C  C89  1  0.82413800  0.73245800  0.37616000  1
  C  C90  1  0.73245800  0.82413800  0.87616000  1
  C  C91  1  0.17586200  0.26754200  0.62384000  1
  C  C92  1  0.37131100  0.06987300  0.33243800  1
  C  C93  1  0.93012700  0.62868900  0.16756200  1
  C  C94  1  0.62868900  0.93012700  0.66756200  1
  C  C95  1  0.06987300  0.37131100  0.83243800  1
  C  C96  1  0.64018200  0.12564500  0.23185800  1
  C  C97  1  0.87435500  0.35981800  0.26814200  1
  C  C98  1  0.35981800  0.87435500  0.76814200  1
  C  C99  1  0.12564500  0.64018200  0.73185800  1
  C  C100  1  0.32506700  0.41706600  0.28131400  1
  C  C101  1  0.58293400  0.67493300  0.21868600  1
  C  C102  1  0.67493300  0.58293400  0.71868600  1
  C  C103  1  0.41706600  0.32506700  0.78131400  1
  C  C104  1  0.13310500  0.92958000  0.12979400  1
  C  C105  1  0.07042000  0.86689500  0.37020600  1
  C  C106  1  0.86689500  0.07042000  0.87020600  1
  C  C107  1  0.92958000  0.13310500  0.62979400  1
  C  C108  1  0.96485000  0.26737200  0.04896000  1
  C  C109  1  0.73262800  0.03515000  0.45104000  1
  C  C110  1  0.03515000  0.73262800  0.95104000  1
  C  C111  1  0.26737200  0.96485000  0.54896000  1
  C  C112  1  0.29348200  0.02335900  0.98754000  1
  C  C113  1  0.97664100  0.70651800  0.51246000  1
  C  C114  1  0.70651800  0.97664100  0.01246000  1
  C  C115  1  0.02335900  0.29348200  0.48754000  1
  C  C116  1  0.53120900  0.51499500  0.03325200  1
  C  C117  1  0.48500500  0.46879100  0.46674800  1
  C  C118  1  0.46879100  0.48500500  0.96674800  1
  C  C119  1  0.51499500  0.53120900  0.53325200  1
  O  O120  1  0.50040300  0.44922900  0.09397800  1
  O  O121  1  0.55077100  0.49959700  0.40602200  1
  O  O122  1  0.49959700  0.55077100  0.90602200  1
  O  O123  1  0.44922900  0.50040300  0.59397800  1
  O  O124  1  0.39229600  0.39755200  0.97827300  1
  O  O125  1  0.60244800  0.60770400  0.52172700  1
  O  O126  1  0.60770400  0.60244800  0.02172700  1
  O  O127  1  0.39755200  0.39229600  0.47827300  1
