# generated using pymatgen
data_Na3CrH10C6O17
_symmetry_space_group_name_H-M   'P 1'
_cell_length_a   10.86942706
_cell_length_b   10.86942706
_cell_length_c   15.31092701
_cell_angle_alpha   81.71951235
_cell_angle_beta   81.71951235
_cell_angle_gamma   71.69771613
_symmetry_Int_Tables_number   1
_chemical_formula_structural   Na3CrH10C6O17
_chemical_formula_sum   'Na12 Cr4 H40 C24 O68'
_cell_volume   1690.06813511
_cell_formula_units_Z   4
loop_
 _symmetry_equiv_pos_site_id
 _symmetry_equiv_pos_as_xyz
  1  'x, y, z'
loop_
 _atom_site_type_symbol
 _atom_site_label
 _atom_site_symmetry_multiplicity
 _atom_site_fract_x
 _atom_site_fract_y
 _atom_site_fract_z
 _atom_site_occupancy
  Na  Na0  1  0.49738300  0.50261800  0.75000000  1
  Na  Na1  1  0.50261800  0.49738200  0.25000000  1
  Na  Na2  1  0.77049300  0.22950700  0.75000000  1
  Na  Na3  1  0.22950700  0.77049300  0.25000000  1
  Na  Na4  1  0.15785100  0.92804600  0.00014600  1
  Na  Na5  1  0.07195400  0.84214900  0.49985400  1
  Na  Na6  1  0.84214900  0.07195400  0.99985400  1
  Na  Na7  1  0.92804600  0.15785100  0.50014600  1
  Na  Na8  1  0.49101100  0.74615200  0.98581900  1
  Na  Na9  1  0.25384800  0.50898900  0.51418100  1
  Na  Na10  1  0.50898900  0.25384800  0.01418100  1
  Na  Na11  1  0.74615200  0.49101100  0.48581900  1
  Cr  Cr12  1  0.32626700  0.05820300  0.76827400  1
  Cr  Cr13  1  0.94179700  0.67373300  0.73172600  1
  Cr  Cr14  1  0.67373300  0.94179700  0.23172600  1
  Cr  Cr15  1  0.05820300  0.32626700  0.26827400  1
  H  H16  1  0.72707100  0.35401300  0.94500800  1
  H  H17  1  0.64598700  0.27292900  0.55499200  1
  H  H18  1  0.27292900  0.64598700  0.05499200  1
  H  H19  1  0.35401300  0.72707100  0.44500800  1
  H  H20  1  0.71809000  0.34883800  0.05021400  1
  H  H21  1  0.65116200  0.28191000  0.44978600  1
  H  H22  1  0.28191000  0.65116200  0.94978600  1
  H  H23  1  0.34883800  0.71809000  0.55021400  1
  H  H24  1  0.99066900  0.18827500  0.09246300  1
  H  H25  1  0.81172500  0.00933100  0.40753700  1
  H  H26  1  0.00933100  0.81172500  0.90753700  1
  H  H27  1  0.18827500  0.99066900  0.59246300  1
  H  H28  1  0.03152900  0.22440500  0.99369900  1
  H  H29  1  0.77559500  0.96847100  0.50630100  1
  H  H30  1  0.96847100  0.77559500  0.00630100  1
  H  H31  1  0.22440500  0.03152900  0.49369900  1
  H  H32  1  0.34264200  0.98524400  0.08251900  1
  H  H33  1  0.01475600  0.65735800  0.41748100  1
  H  H34  1  0.65735800  0.01475600  0.91748100  1
  H  H35  1  0.98524400  0.34264200  0.58251900  1
  H  H36  1  0.38103700  0.04468300  0.98677700  1
  H  H37  1  0.95531700  0.61896300  0.51322300  1
  H  H38  1  0.61896300  0.95531700  0.01322300  1
  H  H39  1  0.04468300  0.38103700  0.48677700  1
  H  H40  1  0.21886100  0.32102100  0.99677500  1
  H  H41  1  0.67897900  0.78113900  0.50322500  1
  H  H42  1  0.78113900  0.67897900  0.00322500  1
  H  H43  1  0.32102100  0.21886100  0.49677500  1
  H  H44  1  0.25537900  0.26577300  0.09349800  1
  H  H45  1  0.73422700  0.74462100  0.40650200  1
  H  H46  1  0.74462100  0.73422700  0.90650200  1
  H  H47  1  0.26577300  0.25537900  0.59349800  1
  H  H48  1  0.01827100  0.42284600  0.89045000  1
  H  H49  1  0.57715400  0.98172900  0.60955000  1
  H  H50  1  0.98172900  0.57715400  0.10955000  1
  H  H51  1  0.42284600  0.01827100  0.39045000  1
  H  H52  1  0.14150000  0.30278200  0.87246000  1
  H  H53  1  0.69721800  0.85850000  0.62754000  1
  H  H54  1  0.85850000  0.69721800  0.12754000  1
  H  H55  1  0.30278200  0.14150000  0.37246000  1
  C  C56  1  0.45316800  0.22636000  0.81189900  1
  C  C57  1  0.77364000  0.54683200  0.68810100  1
  C  C58  1  0.54683200  0.77364000  0.18810100  1
  C  C59  1  0.22636000  0.45316800  0.31189900  1
  C  C60  1  0.50836700  0.19649700  0.71481800  1
  C  C61  1  0.80350300  0.49163300  0.78518200  1
  C  C62  1  0.49163300  0.80350300  0.28518200  1
  C  C63  1  0.19649700  0.50836700  0.21481800  1
  C  C64  1  0.39081900  0.81460900  0.70293500  1
  C  C65  1  0.18539100  0.60918100  0.79706500  1
  C  C66  1  0.60918100  0.18539100  0.29706500  1
  C  C67  1  0.81460900  0.39081900  0.20293500  1
  C  C68  1  0.46037000  0.79200300  0.78889000  1
  C  C69  1  0.20799700  0.53963000  0.71111000  1
  C  C70  1  0.53963000  0.20799700  0.21111000  1
  C  C71  1  0.79200300  0.46037000  0.28889000  1
  C  C72  1  0.07344500  0.20738400  0.73073000  1
  C  C73  1  0.79261600  0.92655500  0.76927000  1
  C  C74  1  0.92655500  0.79261600  0.26927000  1
  C  C75  1  0.20738400  0.07344500  0.23073000  1
  C  C76  1  0.05454000  0.11481000  0.81593200  1
  C  C77  1  0.88519000  0.94546000  0.68406800  1
  C  C78  1  0.94546000  0.88519000  0.18406800  1
  C  C79  1  0.11481000  0.05454000  0.31593200  1
  O  O80  1  0.36297700  0.17374700  0.84630600  1
  O  O81  1  0.82625300  0.63702300  0.65369400  1
  O  O82  1  0.63702300  0.82625300  0.15369400  1
  O  O83  1  0.17374700  0.36297700  0.34630600  1
  O  O84  1  0.47097600  0.10793100  0.68724200  1
  O  O85  1  0.89206900  0.52902400  0.81275800  1
  O  O86  1  0.52902400  0.89206900  0.31275800  1
  O  O87  1  0.10793100  0.47097600  0.18724200  1
  O  O88  1  0.49847700  0.29330800  0.85012600  1
  O  O89  1  0.70669200  0.50152300  0.64987400  1
  O  O90  1  0.50152300  0.70669200  0.14987400  1
  O  O91  1  0.29330800  0.49847700  0.35012600  1
  O  O92  1  0.58389000  0.25381000  0.67192700  1
  O  O93  1  0.74619000  0.41611000  0.82807300  1
  O  O94  1  0.41611000  0.74619000  0.32807300  1
  O  O95  1  0.25381000  0.58389000  0.17192700  1
  O  O96  1  0.31684100  0.93320700  0.68586900  1
  O  O97  1  0.06679300  0.68315900  0.81413100  1
  O  O98  1  0.68315900  0.06679300  0.31413100  1
  O  O99  1  0.93320700  0.31684100  0.18586900  1
  O  O100  1  0.44220500  0.89637400  0.82710300  1
  O  O101  1  0.10362600  0.55779500  0.67289700  1
  O  O102  1  0.55779500  0.10362600  0.17289700  1
  O  O103  1  0.89637400  0.44220500  0.32710300  1
  O  O104  1  0.40678100  0.72294000  0.65856000  1
  O  O105  1  0.27706000  0.59321900  0.84144000  1
  O  O106  1  0.59321900  0.27706000  0.34144000  1
  O  O107  1  0.72294000  0.40678100  0.15856000  1
  O  O108  1  0.52442600  0.68156700  0.81791600  1
  O  O109  1  0.31843300  0.47557400  0.68208400  1
  O  O110  1  0.47557400  0.31843300  0.18208400  1
  O  O111  1  0.68156700  0.52442600  0.31791600  1
  O  O112  1  0.19298300  0.20503900  0.70627800  1
  O  O113  1  0.79496100  0.80701700  0.79372200  1
  O  O114  1  0.80701700  0.79496100  0.29372200  1
  O  O115  1  0.20503900  0.19298300  0.20627800  1
  O  O116  1  0.16249900  0.04149900  0.84602300  1
  O  O117  1  0.95850100  0.83750100  0.65397700  1
  O  O118  1  0.83750100  0.95850100  0.15397700  1
  O  O119  1  0.04149900  0.16249900  0.34602300  1
  O  O120  1  0.97749800  0.27718600  0.69337500  1
  O  O121  1  0.72281400  0.02250200  0.80662500  1
  O  O122  1  0.02250200  0.72281400  0.30662500  1
  O  O123  1  0.27718600  0.97749800  0.19337500  1
  O  O124  1  0.94306300  0.11775900  0.84972300  1
  O  O125  1  0.88224100  0.05693700  0.65027700  1
  O  O126  1  0.05693700  0.88224100  0.15027700  1
  O  O127  1  0.11775900  0.94306300  0.34972300  1
  O  O128  1  0.70461500  0.30541200  0.00153100  1
  O  O129  1  0.69458800  0.29538500  0.49846900  1
  O  O130  1  0.29538500  0.69458800  0.99846900  1
  O  O131  1  0.30541200  0.70461500  0.50153100  1
  O  O132  1  0.01845600  0.15045300  0.03580400  1
  O  O133  1  0.84954700  0.98154400  0.46419600  1
  O  O134  1  0.98154400  0.84954700  0.96419600  1
  O  O135  1  0.15045300  0.01845600  0.53580400  1
  O  O136  1  0.36772200  0.96529500  0.02007400  1
  O  O137  1  0.03470500  0.63227800  0.47992600  1
  O  O138  1  0.63227800  0.03470500  0.97992600  1
  O  O139  1  0.96529500  0.36772200  0.52007400  1
  O  O140  1  0.29159900  0.28927700  0.03343700  1
  O  O141  1  0.71072300  0.70840100  0.46656300  1
  O  O142  1  0.70840100  0.71072300  0.96656300  1
  O  O143  1  0.28927700  0.29159900  0.53343700  1
  O  O144  1  0.08487500  0.35064900  0.91963500  1
  O  O145  1  0.64935100  0.91512500  0.58036500  1
  O  O146  1  0.91512500  0.64935100  0.08036500  1
  O  O147  1  0.35064900  0.08487500  0.41963500  1
