# generated using pymatgen
data_CuH12C5S4N
_symmetry_space_group_name_H-M   'P 1'
_cell_length_a   14.16832800
_cell_length_b   14.16832800
_cell_length_c   11.49021200
_cell_angle_alpha   90.00000000
_cell_angle_beta   90.00000000
_cell_angle_gamma   90.00000000
_symmetry_Int_Tables_number   1
_chemical_formula_structural   CuH12C5S4N
_chemical_formula_sum   'Cu8 H96 C40 S32 N8'
_cell_volume   2306.56260265
_cell_formula_units_Z   8
loop_
 _symmetry_equiv_pos_site_id
 _symmetry_equiv_pos_as_xyz
  1  'x, y, z'
loop_
 _atom_site_type_symbol
 _atom_site_label
 _atom_site_symmetry_multiplicity
 _atom_site_fract_x
 _atom_site_fract_y
 _atom_site_fract_z
 _atom_site_occupancy
  Cu  Cu0  1  0.41497000  0.43994900  0.41657500  1
  Cu  Cu1  1  0.91497000  0.06005100  0.08342500  1
  Cu  Cu2  1  0.58503000  0.56005100  0.41657500  1
  Cu  Cu3  1  0.08503000  0.93994900  0.08342500  1
  Cu  Cu4  1  0.43994900  0.58503000  0.58342500  1
  Cu  Cu5  1  0.06005100  0.08503000  0.91657500  1
  Cu  Cu6  1  0.56005100  0.41497000  0.58342500  1
  Cu  Cu7  1  0.93994900  0.91497000  0.91657500  1
  H  H8  1  0.03882800  0.76610000  0.36382200  1
  H  H9  1  0.53882800  0.73390000  0.13617800  1
  H  H10  1  0.96117200  0.23390000  0.36382200  1
  H  H11  1  0.46117200  0.26610000  0.13617800  1
  H  H12  1  0.76610000  0.96117200  0.63617800  1
  H  H13  1  0.73390000  0.46117200  0.86382200  1
  H  H14  1  0.23390000  0.03882800  0.63617800  1
  H  H15  1  0.26610000  0.53882800  0.86382200  1
  H  H16  1  0.94360000  0.85055100  0.36454000  1
  H  H17  1  0.44360000  0.64944900  0.13546000  1
  H  H18  1  0.05640000  0.14944900  0.36454000  1
  H  H19  1  0.55640000  0.35055100  0.13546000  1
  H  H20  1  0.85055100  0.05640000  0.63546000  1
  H  H21  1  0.64944900  0.55640000  0.86454000  1
  H  H22  1  0.14944900  0.94360000  0.63546000  1
  H  H23  1  0.35055100  0.44360000  0.86454000  1
  H  H24  1  0.00318300  0.82048400  0.49892100  1
  H  H25  1  0.50318300  0.67951600  0.00107900  1
  H  H26  1  0.99681700  0.17951600  0.49892100  1
  H  H27  1  0.49681700  0.32048400  0.00107900  1
  H  H28  1  0.82048400  0.99681700  0.50107900  1
  H  H29  1  0.67951600  0.49681700  0.99892100  1
  H  H30  1  0.17951600  0.00318300  0.50107900  1
  H  H31  1  0.32048400  0.50318300  0.99892100  1
  H  H32  1  0.97895400  0.66946900  0.58875100  1
  H  H33  1  0.47895400  0.83053100  0.91124900  1
  H  H34  1  0.02104600  0.33053100  0.58875100  1
  H  H35  1  0.52104600  0.16946900  0.91124900  1
  H  H36  1  0.66946900  0.02104600  0.41124900  1
  H  H37  1  0.83053100  0.52104600  0.08875100  1
  H  H38  1  0.33053100  0.97895400  0.41124900  1
  H  H39  1  0.16946900  0.47895400  0.08875100  1
  H  H40  1  0.91047300  0.58040200  0.51317000  1
  H  H41  1  0.41047300  0.91959800  0.98683000  1
  H  H42  1  0.08952700  0.41959800  0.51317000  1
  H  H43  1  0.58952700  0.08040200  0.98683000  1
  H  H44  1  0.58040200  0.08952700  0.48683000  1
  H  H45  1  0.91959800  0.58952700  0.01317000  1
  H  H46  1  0.41959800  0.91047300  0.48683000  1
  H  H47  1  0.08040200  0.41047300  0.01317000  1
  H  H48  1  0.02324100  0.61902400  0.45689700  1
  H  H49  1  0.52324100  0.88097600  0.04310300  1
  H  H50  1  0.97675900  0.38097600  0.45689700  1
  H  H51  1  0.47675900  0.11902400  0.04310300  1
  H  H52  1  0.61902400  0.97675900  0.54310300  1
  H  H53  1  0.88097600  0.47675900  0.95689700  1
  H  H54  1  0.38097600  0.02324100  0.54310300  1
  H  H55  1  0.11902400  0.52324100  0.95689700  1
  H  H56  1  0.79340900  0.80812500  0.45653600  1
  H  H57  1  0.29340900  0.69187500  0.04346400  1
  H  H58  1  0.20659100  0.19187500  0.45653600  1
  H  H59  1  0.70659100  0.30812500  0.04346400  1
  H  H60  1  0.80812500  0.20659100  0.54346400  1
  H  H61  1  0.69187500  0.70659100  0.95653600  1
  H  H62  1  0.19187500  0.79340900  0.54346400  1
  H  H63  1  0.30812500  0.29340900  0.95653600  1
  H  H64  1  0.77834300  0.69207700  0.51541900  1
  H  H65  1  0.27834300  0.80792300  0.98458100  1
  H  H66  1  0.22165700  0.30792300  0.51541900  1
  H  H67  1  0.72165700  0.19207700  0.98458100  1
  H  H68  1  0.69207700  0.22165700  0.48458100  1
  H  H69  1  0.80792300  0.72165700  0.01541900  1
  H  H70  1  0.30792300  0.77834300  0.48458100  1
  H  H71  1  0.19207700  0.27834300  0.01541900  1
  H  H72  1  0.85380800  0.77484100  0.58956700  1
  H  H73  1  0.35380800  0.72515900  0.91043300  1
  H  H74  1  0.14619200  0.22515900  0.58956700  1
  H  H75  1  0.64619200  0.27484100  0.91043300  1
  H  H76  1  0.77484100  0.14619200  0.41043300  1
  H  H77  1  0.72515900  0.64619200  0.08956700  1
  H  H78  1  0.22515900  0.85380800  0.41043300  1
  H  H79  1  0.27484100  0.35380800  0.08956700  1
  H  H80  1  0.93418400  0.64223100  0.27708900  1
  H  H81  1  0.43418400  0.85776900  0.22291100  1
  H  H82  1  0.06581600  0.35776900  0.27708900  1
  H  H83  1  0.56581600  0.14223100  0.22291100  1
  H  H84  1  0.64223100  0.06581600  0.72291100  1
  H  H85  1  0.85776900  0.56581600  0.77708900  1
  H  H86  1  0.35776900  0.93418400  0.72291100  1
  H  H87  1  0.14223100  0.43418400  0.77708900  1
  H  H88  1  0.81872200  0.62668200  0.34019700  1
  H  H89  1  0.31872200  0.87331800  0.15980300  1
  H  H90  1  0.18127800  0.37331800  0.34019700  1
  H  H91  1  0.68127800  0.12668200  0.15980300  1
  H  H92  1  0.62668200  0.18127800  0.65980300  1
  H  H93  1  0.87331800  0.68127800  0.84019700  1
  H  H94  1  0.37331800  0.81872200  0.65980300  1
  H  H95  1  0.12668200  0.31872200  0.84019700  1
  H  H96  1  0.84824600  0.73566400  0.26932200  1
  H  H97  1  0.34824600  0.76433600  0.23067800  1
  H  H98  1  0.15175400  0.26433600  0.26932200  1
  H  H99  1  0.65175400  0.23566400  0.23067800  1
  H  H100  1  0.73566400  0.15175400  0.73067800  1
  H  H101  1  0.76433600  0.65175400  0.76932200  1
  H  H102  1  0.26433600  0.84824600  0.73067800  1
  H  H103  1  0.23566400  0.34824600  0.76932200  1
  C  C104  1  0.24927700  0.56911900  0.32197300  1
  C  C105  1  0.74927700  0.93088100  0.17802700  1
  C  C106  1  0.75072300  0.43088100  0.32197300  1
  C  C107  1  0.25072300  0.06911900  0.17802700  1
  C  C108  1  0.56911900  0.75072300  0.67802700  1
  C  C109  1  0.93088100  0.25072300  0.82197300  1
  C  C110  1  0.43088100  0.24927700  0.67802700  1
  C  C111  1  0.06911900  0.74927700  0.82197300  1
  C  C112  1  0.97935100  0.79468200  0.41381800  1
  C  C113  1  0.47935100  0.70531800  0.08618200  1
  C  C114  1  0.02064900  0.20531800  0.41381800  1
  C  C115  1  0.52064900  0.29468200  0.08618200  1
  C  C116  1  0.79468200  0.02064900  0.58618200  1
  C  C117  1  0.70531800  0.52064900  0.91381800  1
  C  C118  1  0.20531800  0.97935100  0.58618200  1
  C  C119  1  0.29468200  0.47935100  0.91381800  1
  C  C120  1  0.95929900  0.63995400  0.50369700  1
  C  C121  1  0.45929900  0.86004600  0.99630300  1
  C  C122  1  0.04070100  0.36004600  0.50369700  1
  C  C123  1  0.54070100  0.13995400  0.99630300  1
  C  C124  1  0.63995400  0.04070100  0.49630300  1
  C  C125  1  0.86004600  0.54070100  0.00369700  1
  C  C126  1  0.36004600  0.95929900  0.49630300  1
  C  C127  1  0.13995400  0.45929900  0.00369700  1
  C  C128  1  0.82780900  0.75100600  0.50477000  1
  C  C129  1  0.32780900  0.74899400  0.99523000  1
  C  C130  1  0.17219100  0.24899400  0.50477000  1
  C  C131  1  0.67219100  0.25100600  0.99523000  1
  C  C132  1  0.75100600  0.17219100  0.49523000  1
  C  C133  1  0.74899400  0.67219100  0.00477000  1
  C  C134  1  0.24899400  0.82780900  0.49523000  1
  C  C135  1  0.25100600  0.32780900  0.00477000  1
  C  C136  1  0.87550000  0.67684800  0.32147400  1
  C  C137  1  0.37550000  0.82315200  0.17852600  1
  C  C138  1  0.12450000  0.32315200  0.32147400  1
  C  C139  1  0.62450000  0.17684800  0.17852600  1
  C  C140  1  0.67684800  0.12450000  0.67852600  1
  C  C141  1  0.82315200  0.62450000  0.82147400  1
  C  C142  1  0.32315200  0.87550000  0.67852600  1
  C  C143  1  0.17684800  0.37550000  0.82147400  1
  S  S144  1  0.34347200  0.50893200  0.26589100  1
  S  S145  1  0.84347200  0.99106800  0.23410900  1
  S  S146  1  0.65652800  0.49106800  0.26589100  1
  S  S147  1  0.15652800  0.00893200  0.23410900  1
  S  S148  1  0.50893200  0.65652800  0.73410900  1
  S  S149  1  0.99106800  0.15652800  0.76589100  1
  S  S150  1  0.49106800  0.34347200  0.73410900  1
  S  S151  1  0.00893200  0.84347200  0.76589100  1
  S  S152  1  0.31750800  0.48741900  0.56274900  1
  S  S153  1  0.81750800  0.01258100  0.93725100  1
  S  S154  1  0.68249200  0.51258100  0.56274900  1
  S  S155  1  0.18249200  0.98741900  0.93725100  1
  S  S156  1  0.48741900  0.68249200  0.43725100  1
  S  S157  1  0.01258100  0.18249200  0.06274900  1
  S  S158  1  0.51258100  0.31750800  0.43725100  1
  S  S159  1  0.98741900  0.81750800  0.06274900  1
  S  S160  1  0.22138800  0.56913800  0.47019400  1
  S  S161  1  0.72138800  0.93086200  0.02980600  1
  S  S162  1  0.77861200  0.43086200  0.47019400  1
  S  S163  1  0.27861200  0.06913800  0.02980600  1
  S  S164  1  0.56913800  0.77861200  0.52980600  1
  S  S165  1  0.93086200  0.27861200  0.97019400  1
  S  S166  1  0.43086200  0.22138800  0.52980600  1
  S  S167  1  0.06913800  0.72138800  0.97019400  1
  S  S168  1  0.17256000  0.63635400  0.24554000  1
  S  S169  1  0.67256000  0.86364600  0.25446000  1
  S  S170  1  0.82744000  0.36364600  0.24554000  1
  S  S171  1  0.32744000  0.13635400  0.25446000  1
  S  S172  1  0.63635400  0.82744000  0.75446000  1
  S  S173  1  0.86364600  0.32744000  0.74554000  1
  S  S174  1  0.36364600  0.17256000  0.75446000  1
  S  S175  1  0.13635400  0.67256000  0.74554000  1
  N  N176  1  0.91057000  0.71589800  0.43547900  1
  N  N177  1  0.41057000  0.78410200  0.06452100  1
  N  N178  1  0.08943000  0.28410200  0.43547900  1
  N  N179  1  0.58943000  0.21589800  0.06452100  1
  N  N180  1  0.71589800  0.08943000  0.56452100  1
  N  N181  1  0.78410200  0.58943000  0.93547900  1
  N  N182  1  0.28410200  0.91057000  0.56452100  1
  N  N183  1  0.21589800  0.41057000  0.93547900  1
