# generated using pymatgen
data_CdH9C3NCl3
_symmetry_space_group_name_H-M   'P 1'
_cell_length_a   9.29711991
_cell_length_b   9.29711991
_cell_length_c   6.82666900
_cell_angle_alpha   90.00000000
_cell_angle_beta   90.00000000
_cell_angle_gamma   119.99999937
_symmetry_Int_Tables_number   1
_chemical_formula_structural   CdH9C3NCl3
_chemical_formula_sum   'Cd2 H18 C6 N2 Cl6'
_cell_volume   511.01817340
_cell_formula_units_Z   2
loop_
 _symmetry_equiv_pos_site_id
 _symmetry_equiv_pos_as_xyz
  1  'x, y, z'
loop_
 _atom_site_type_symbol
 _atom_site_label
 _atom_site_symmetry_multiplicity
 _atom_site_fract_x
 _atom_site_fract_y
 _atom_site_fract_z
 _atom_site_occupancy
  Cd  Cd0  1  0.00000000  0.00000000  0.50000000  1
  Cd  Cd1  1  0.00000000  0.00000000  0.00000000  1
  H  H2  1  0.27068800  0.85438100  0.25000000  1
  H  H3  1  0.58369300  0.72931200  0.25000000  1
  H  H4  1  0.14561900  0.41630700  0.25000000  1
  H  H5  1  0.72931200  0.14561900  0.75000000  1
  H  H6  1  0.41630700  0.27068800  0.75000000  1
  H  H7  1  0.85438100  0.58369300  0.75000000  1
  H  H8  1  0.45948400  0.89958500  0.37827300  1
  H  H9  1  0.44010100  0.54051600  0.37827300  1
  H  H10  1  0.10041500  0.55989900  0.37827300  1
  H  H11  1  0.54051600  0.10041500  0.87827300  1
  H  H12  1  0.55989900  0.45948400  0.87827300  1
  H  H13  1  0.89958500  0.44010100  0.87827300  1
  H  H14  1  0.54051600  0.10041500  0.62172700  1
  H  H15  1  0.55989900  0.45948400  0.62172700  1
  H  H16  1  0.89958500  0.44010100  0.62172700  1
  H  H17  1  0.45948400  0.89958500  0.12172700  1
  H  H18  1  0.44010100  0.54051600  0.12172700  1
  H  H19  1  0.10041500  0.55989900  0.12172700  1
  C  C20  1  0.37992700  0.83904400  0.25000000  1
  C  C21  1  0.45911700  0.62007300  0.25000000  1
  C  C22  1  0.16095600  0.54088300  0.25000000  1
  C  C23  1  0.62007300  0.16095600  0.75000000  1
  C  C24  1  0.54088300  0.37992700  0.75000000  1
  C  C25  1  0.83904400  0.45911700  0.75000000  1
  N  N26  1  0.33333300  0.66666700  0.25000000  1
  N  N27  1  0.66666700  0.33333300  0.75000000  1
  Cl  Cl28  1  0.84814100  0.10472800  0.25000000  1
  Cl  Cl29  1  0.25658700  0.15185900  0.25000000  1
  Cl  Cl30  1  0.89527200  0.74341300  0.25000000  1
  Cl  Cl31  1  0.15185900  0.89527200  0.75000000  1
  Cl  Cl32  1  0.74341300  0.84814100  0.75000000  1
  Cl  Cl33  1  0.10472800  0.25658700  0.75000000  1
