# generated using pymatgen
data_CrH9C6(S2O)3
_symmetry_space_group_name_H-M   'P 1'
_cell_length_a   14.07020100
_cell_length_b   9.77934700
_cell_length_c   12.75531790
_cell_angle_alpha   59.91663332
_cell_angle_beta   90.00000000
_cell_angle_gamma   90.00000000
_symmetry_Int_Tables_number   1
_chemical_formula_structural   CrH9C6(S2O)3
_chemical_formula_sum   'Cr4 H36 C24 S24 O12'
_cell_volume   1518.68124875
_cell_formula_units_Z   4
loop_
 _symmetry_equiv_pos_site_id
 _symmetry_equiv_pos_as_xyz
  1  'x, y, z'
loop_
 _atom_site_type_symbol
 _atom_site_label
 _atom_site_symmetry_multiplicity
 _atom_site_fract_x
 _atom_site_fract_y
 _atom_site_fract_z
 _atom_site_occupancy
  Cr  Cr0  1  0.98434000  0.59078600  0.23164000  1
  Cr  Cr1  1  0.51566000  0.59078600  0.73164000  1
  Cr  Cr2  1  0.01566000  0.40921400  0.76836000  1
  Cr  Cr3  1  0.48434000  0.40921400  0.26836000  1
  H  H4  1  0.03386800  0.93857500  0.30048900  1
  H  H5  1  0.46613200  0.93857500  0.80048900  1
  H  H6  1  0.96613200  0.06142500  0.69951100  1
  H  H7  1  0.53386800  0.06142500  0.19951100  1
  H  H8  1  0.02582900  0.12375500  0.16110300  1
  H  H9  1  0.47417100  0.12375500  0.66110300  1
  H  H10  1  0.97417100  0.87624500  0.83889700  1
  H  H11  1  0.52582900  0.87624500  0.33889700  1
  H  H12  1  0.12163400  0.09062300  0.26430600  1
  H  H13  1  0.37836600  0.09062300  0.76430600  1
  H  H14  1  0.87836600  0.90937700  0.73569400  1
  H  H15  1  0.62163400  0.90937700  0.23569400  1
  H  H16  1  0.63067600  0.95765800  0.98662200  1
  H  H17  1  0.86932400  0.95765800  0.48662200  1
  H  H18  1  0.36932400  0.04234200  0.01337800  1
  H  H19  1  0.13067600  0.04234200  0.51337800  1
  H  H20  1  0.73822500  0.92885400  0.92522500  1
  H  H21  1  0.76177500  0.92885400  0.42522500  1
  H  H22  1  0.26177500  0.07114600  0.07477500  1
  H  H23  1  0.23822500  0.07114600  0.57477500  1
  H  H24  1  0.66427300  0.76155300  0.02083700  1
  H  H25  1  0.83572700  0.76155300  0.52083700  1
  H  H26  1  0.33572700  0.23844700  0.97916300  1
  H  H27  1  0.16427300  0.23844700  0.47916300  1
  H  H28  1  0.33267400  0.82873700  0.36475500  1
  H  H29  1  0.16732600  0.82873700  0.86475500  1
  H  H30  1  0.66732600  0.17126300  0.63524500  1
  H  H31  1  0.83267400  0.17126300  0.13524500  1
  H  H32  1  0.30110200  0.62723000  0.41127600  1
  H  H33  1  0.19889800  0.62723000  0.91127600  1
  H  H34  1  0.69889800  0.37277000  0.58872400  1
  H  H35  1  0.80110200  0.37277000  0.08872400  1
  H  H36  1  0.22469200  0.74592800  0.44700200  1
  H  H37  1  0.27530800  0.74592800  0.94700200  1
  H  H38  1  0.77530800  0.25407200  0.55299800  1
  H  H39  1  0.72469200  0.25407200  0.05299800  1
  C  C40  1  0.04678700  0.06573100  0.25665000  1
  C  C41  1  0.45321300  0.06573100  0.75665000  1
  C  C42  1  0.95321300  0.93426900  0.74335000  1
  C  C43  1  0.54678700  0.93426900  0.24335000  1
  C  C44  1  0.68992300  0.87718200  0.00296100  1
  C  C45  1  0.81007700  0.87718200  0.50296100  1
  C  C46  1  0.31007700  0.12281800  0.99703900  1
  C  C47  1  0.18992300  0.12281800  0.49703900  1
  C  C48  1  0.27431100  0.74685600  0.38041600  1
  C  C49  1  0.22568900  0.74685600  0.88041600  1
  C  C50  1  0.72568900  0.25314400  0.61958400  1
  C  C51  1  0.77431100  0.25314400  0.11958400  1
  C  C52  1  0.98893100  0.27305200  0.28883100  1
  C  C53  1  0.51106900  0.27305200  0.78883100  1
  C  C54  1  0.01106900  0.72694800  0.71116900  1
  C  C55  1  0.48893100  0.72694800  0.21116900  1
  C  C56  1  0.81621900  0.76932600  0.14742700  1
  C  C57  1  0.68378100  0.76932600  0.64742700  1
  C  C58  1  0.18378100  0.23067400  0.85257300  1
  C  C59  1  0.31621900  0.23067400  0.35257300  1
  C  C60  1  0.15079900  0.73253800  0.25676200  1
  C  C61  1  0.34920100  0.73253800  0.75676200  1
  C  C62  1  0.84920100  0.26746200  0.74323800  1
  C  C63  1  0.65079900  0.26746200  0.24323800  1
  S  S64  1  0.05920400  0.40869100  0.17723000  1
  S  S65  1  0.44079600  0.40869100  0.67723000  1
  S  S66  1  0.94079600  0.59130900  0.82277000  1
  S  S67  1  0.55920400  0.59130900  0.32277000  1
  S  S68  1  0.91631000  0.33061200  0.36581000  1
  S  S69  1  0.58369000  0.33061200  0.86581000  1
  S  S70  1  0.08369000  0.66938800  0.63419000  1
  S  S71  1  0.41631000  0.66938800  0.13419000  1
  S  S72  1  0.86401300  0.68250200  0.07314400  1
  S  S73  1  0.63598700  0.68250200  0.57314400  1
  S  S74  1  0.13598700  0.31749800  0.92685600  1
  S  S75  1  0.36401300  0.31749800  0.42685600  1
  S  S76  1  0.86911200  0.74177400  0.27614500  1
  S  S77  1  0.63088800  0.74177400  0.77614500  1
  S  S78  1  0.13088800  0.25822600  0.72385500  1
  S  S79  1  0.36911200  0.25822600  0.22385500  1
  S  S80  1  0.09708400  0.80738200  0.11959100  1
  S  S81  1  0.40291600  0.80738200  0.61959100  1
  S  S82  1  0.90291600  0.19261800  0.88040900  1
  S  S83  1  0.59708400  0.19261800  0.38040900  1
  S  S84  1  0.10352400  0.57102700  0.37767200  1
  S  S85  1  0.39647600  0.57102700  0.87767200  1
  S  S86  1  0.89647600  0.42897300  0.62232800  1
  S  S87  1  0.60352400  0.42897300  0.12232800  1
  O  O88  1  0.98719200  0.12018600  0.32137700  1
  O  O89  1  0.51280800  0.12018600  0.82137700  1
  O  O90  1  0.01280800  0.87981400  0.67862300  1
  O  O91  1  0.48719200  0.87981400  0.17862300  1
  O  O92  1  0.73846300  0.85906600  0.10988100  1
  O  O93  1  0.76153700  0.85906600  0.60988100  1
  O  O94  1  0.26153700  0.14093400  0.89011900  1
  O  O95  1  0.23846300  0.14093400  0.39011900  1
  O  O96  1  0.22748800  0.80774400  0.26383900  1
  O  O97  1  0.27251200  0.80774400  0.76383900  1
  O  O98  1  0.77251200  0.19225600  0.73616100  1
  O  O99  1  0.72748800  0.19225600  0.23616100  1
