# generated using pymatgen
data_SnH24C6N2(OF3)2
_symmetry_space_group_name_H-M   'P 1'
_cell_length_a   8.30893373
_cell_length_b   8.30893373
_cell_length_c   8.26588869
_cell_angle_alpha   63.54232743
_cell_angle_beta   63.54232743
_cell_angle_gamma   52.48915297
_symmetry_Int_Tables_number   1
_chemical_formula_structural   SnH24C6N2(OF3)2
_chemical_formula_sum   'Sn1 H24 C6 N2 O2 F6'
_cell_volume   392.87289300
_cell_formula_units_Z   1
loop_
 _symmetry_equiv_pos_site_id
 _symmetry_equiv_pos_as_xyz
  1  'x, y, z'
loop_
 _atom_site_type_symbol
 _atom_site_label
 _atom_site_symmetry_multiplicity
 _atom_site_fract_x
 _atom_site_fract_y
 _atom_site_fract_z
 _atom_site_occupancy
  Sn  Sn0  1  0.00000000  0.00000000  0.00000000  1
  H  H1  1  0.29941300  0.29941300  0.29856700  1
  H  H2  1  0.70058700  0.70058700  0.70143300  1
  H  H3  1  0.35551200  0.57019000  0.22354900  1
  H  H4  1  0.57019000  0.35551200  0.22354900  1
  H  H5  1  0.64448800  0.42981000  0.77645100  1
  H  H6  1  0.42981000  0.64448800  0.77645100  1
  H  H7  1  0.93295500  0.50710800  0.29986200  1
  H  H8  1  0.50710800  0.93295500  0.29986200  1
  H  H9  1  0.06704500  0.49289200  0.70013800  1
  H  H10  1  0.49289200  0.06704500  0.70013800  1
  H  H11  1  0.93589600  0.27061500  0.35496900  1
  H  H12  1  0.27061500  0.93589600  0.35496900  1
  H  H13  1  0.06410400  0.72938500  0.64503100  1
  H  H14  1  0.72938500  0.06410400  0.64503100  1
  H  H15  1  0.98282000  0.31810200  0.51768600  1
  H  H16  1  0.31810200  0.98282000  0.51768600  1
  H  H17  1  0.01718000  0.68189800  0.48231400  1
  H  H18  1  0.68189800  0.01718000  0.48231400  1
  H  H19  1  0.20312700  0.44634900  0.01651400  1
  H  H20  1  0.44634900  0.20312700  0.01651400  1
  H  H21  1  0.79687300  0.55365100  0.98348600  1
  H  H22  1  0.55365100  0.79687300  0.98348600  1
  H  H23  1  0.21311400  0.21311400  0.04403500  1
  H  H24  1  0.78688600  0.78688600  0.95596500  1
  C  C25  1  0.00435500  0.34011500  0.37004400  1
  C  C26  1  0.34011500  0.00435500  0.37004400  1
  C  C27  1  0.99564500  0.65988500  0.62995600  1
  C  C28  1  0.65988500  0.99564500  0.62995600  1
  C  C29  1  0.27649000  0.27649000  0.07479100  1
  C  C30  1  0.72351000  0.72351000  0.92520900  1
  N  N31  1  0.23365700  0.23365700  0.28092200  1
  N  N32  1  0.76634300  0.76634300  0.71907800  1
  O  O33  1  0.41878700  0.41878700  0.28449400  1
  O  O34  1  0.58121300  0.58121300  0.71550600  1
  F  F35  1  0.83743500  0.22332000  0.13983300  1
  F  F36  1  0.22332000  0.83743500  0.13983300  1
  F  F37  1  0.16256500  0.77668000  0.86016700  1
  F  F38  1  0.77668000  0.16256500  0.86016700  1
  F  F39  1  0.14853600  0.14853600  0.80245200  1
  F  F40  1  0.85146400  0.85146400  0.19754800  1
