# generated using pymatgen
data_PH12C2N6O3F
_symmetry_space_group_name_H-M   'P 1'
_cell_length_a   7.62016989
_cell_length_b   7.62016989
_cell_length_c   11.86778689
_cell_angle_alpha   64.20401915
_cell_angle_beta   64.20401915
_cell_angle_gamma   57.71095823
_symmetry_Int_Tables_number   1
_chemical_formula_structural   PH12C2N6O3F
_chemical_formula_sum   'P2 H24 C4 N12 O6 F2'
_cell_volume   505.56664435
_cell_formula_units_Z   2
loop_
 _symmetry_equiv_pos_site_id
 _symmetry_equiv_pos_as_xyz
  1  'x, y, z'
loop_
 _atom_site_type_symbol
 _atom_site_label
 _atom_site_symmetry_multiplicity
 _atom_site_fract_x
 _atom_site_fract_y
 _atom_site_fract_z
 _atom_site_occupancy
  P  P0  1  0.80156600  0.80156600  0.12705300  1
  P  P1  1  0.27466100  0.27466100  0.69534400  1
  H  H2  1  0.30230000  0.86115100  0.86929200  1
  H  H3  1  0.86115100  0.30230000  0.86929200  1
  H  H4  1  0.29589600  0.62930400  0.99070400  1
  H  H5  1  0.62930400  0.29589600  0.99070400  1
  H  H6  1  0.86192900  0.62265700  0.71276400  1
  H  H7  1  0.62265700  0.86192900  0.71276400  1
  H  H8  1  0.13925900  0.37807300  0.15376600  1
  H  H9  1  0.37807300  0.13925900  0.15376600  1
  H  H10  1  0.83433000  0.15246900  0.14722200  1
  H  H11  1  0.15246900  0.83433000  0.14722200  1
  H  H12  1  0.82839200  0.38735600  0.14714700  1
  H  H13  1  0.38735600  0.82839200  0.14714700  1
  H  H14  1  0.02364700  0.53381300  0.34524800  1
  H  H15  1  0.53381300  0.02364700  0.34524800  1
  H  H16  1  0.05284800  0.48553100  0.49860700  1
  H  H17  1  0.48553100  0.05284800  0.49860700  1
  H  H18  1  0.77491700  0.44201600  0.34053300  1
  H  H19  1  0.44201600  0.77491700  0.34053300  1
  H  H20  1  0.67655800  0.27442900  0.48501200  1
  H  H21  1  0.27442900  0.67655800  0.48501200  1
  H  H22  1  0.91690600  0.24918400  0.68224400  1
  H  H23  1  0.24918400  0.91690600  0.68224400  1
  H  H24  1  0.72634500  0.20033300  0.66927200  1
  H  H25  1  0.20033300  0.72634500  0.66927200  1
  C  C26  1  0.59504900  0.59504900  0.85936000  1
  C  C27  1  0.11950100  0.11950100  0.15046300  1
  C  C28  1  0.86908400  0.36208700  0.50079700  1
  C  C29  1  0.36208700  0.86908400  0.50079700  1
  N  N30  1  0.38422200  0.70109300  0.91129400  1
  N  N31  1  0.70109300  0.38422200  0.91129400  1
  N  N32  1  0.70090500  0.70090500  0.75542500  1
  N  N33  1  0.21890900  0.21890900  0.15282000  1
  N  N34  1  0.91171200  0.22660900  0.15016400  1
  N  N35  1  0.22660900  0.91171200  0.15016400  1
  N  N36  1  0.99744500  0.46351600  0.44311000  1
  N  N37  1  0.46351600  0.99744500  0.44311000  1
  N  N38  1  0.78505100  0.34164000  0.43142100  1
  N  N39  1  0.34164000  0.78505100  0.43142100  1
  N  N40  1  0.82322600  0.27758600  0.62998500  1
  N  N41  1  0.27758600  0.82322600  0.62998500  1
  O  O42  1  0.67048900  0.67048900  0.18332400  1
  O  O43  1  0.67142800  0.02244700  0.15534100  1
  O  O44  1  0.02244700  0.67142800  0.15534100  1
  O  O45  1  0.14252500  0.14252500  0.77182500  1
  O  O46  1  0.15057600  0.50118600  0.61873000  1
  O  O47  1  0.50118600  0.15057600  0.61873000  1
  F  F48  1  0.85666600  0.85666600  0.97073700  1
  F  F49  1  0.31398600  0.31398600  0.80434300  1
