# generated using pymatgen
data_VPO5
_symmetry_space_group_name_H-M   'P 1'
_cell_length_a   5.11378902
_cell_length_b   10.67795955
_cell_length_c   7.47450169
_cell_angle_alpha   65.66088381
_cell_angle_beta   69.97305742
_cell_angle_gamma   76.17459220
_symmetry_Int_Tables_number   1
_chemical_formula_structural   VPO5
_chemical_formula_sum   'V4 P4 O20'
_cell_volume   347.09388764
_cell_formula_units_Z   4
loop_
 _symmetry_equiv_pos_site_id
 _symmetry_equiv_pos_as_xyz
  1  'x, y, z'
loop_
 _atom_site_type_symbol
 _atom_site_label
 _atom_site_symmetry_multiplicity
 _atom_site_fract_x
 _atom_site_fract_y
 _atom_site_fract_z
 _atom_site_occupancy
  V  V0  1  0.00263900  0.52749000  0.00872800  1
  V  V1  1  0.01375800  0.75930800  0.27720100  1
  V  V2  1  0.45088300  0.25924100  0.77726000  1
  V  V3  1  0.96223900  0.02763300  0.50834800  1
  P  P4  1  0.61559100  0.04788000  0.18997200  1
  P  P5  1  0.37860500  0.44945000  0.30937000  1
  P  P6  1  0.36285600  0.94946100  0.80909800  1
  P  P7  1  0.64840800  0.54779900  0.69033400  1
  O  O8  1  0.29860700  0.05897600  0.29215800  1
  O  O9  1  0.20489700  0.41760100  0.20118200  1
  O  O10  1  0.07678900  0.81934400  0.42094300  1
  O  O11  1  0.28922600  0.84090300  0.02536700  1
  O  O12  1  0.27738300  0.59585100  0.31645900  1
  O  O13  1  0.31110600  0.09579900  0.81631500  1
  O  O14  1  0.34561300  0.34102800  0.52560500  1
  O  O15  1  0.18430600  0.31903600  0.92146600  1
  O  O16  1  0.76946500  0.08567800  0.30147800  1
  O  O17  1  0.18597600  0.93531500  0.68868000  1
  O  O18  1  0.68964600  0.43549700  0.18773000  1
  O  O19  1  0.34569400  0.58525700  0.80316300  1
  O  O20  1  0.86089100  0.16711600  0.55804000  1
  O  O21  1  0.66451800  0.14885800  0.96560900  1
  O  O22  1  0.68099600  0.39983700  0.68603000  1
  O  O23  1  0.73449400  0.89980000  0.18601400  1
  O  O24  1  0.72163000  0.64907300  0.46604400  1
  O  O25  1  0.91463300  0.66701200  0.05832400  1
  O  O26  1  0.67620900  0.91791000  0.69964500  1
  O  O27  1  0.85356600  0.55885600  0.79137300  1
