# generated using pymatgen
data_SbH3C2(O2F3)2
_symmetry_space_group_name_H-M   'P 1'
_cell_length_a   7.94533917
_cell_length_b   7.94533917
_cell_length_c   8.60192270
_cell_angle_alpha   57.47243205
_cell_angle_beta   57.47243205
_cell_angle_gamma   70.27816881
_symmetry_Int_Tables_number   1
_chemical_formula_structural   SbH3C2(O2F3)2
_chemical_formula_sum   'Sb2 H6 C4 O8 F12'
_cell_volume   385.12926020
_cell_formula_units_Z   2
loop_
 _symmetry_equiv_pos_site_id
 _symmetry_equiv_pos_as_xyz
  1  'x, y, z'
loop_
 _atom_site_type_symbol
 _atom_site_label
 _atom_site_symmetry_multiplicity
 _atom_site_fract_x
 _atom_site_fract_y
 _atom_site_fract_z
 _atom_site_occupancy
  Sb  Sb0  1  0.14516500  0.85636400  0.50028400  1
  Sb  Sb1  1  0.85636400  0.14516500  0.00028400  1
  H  H2  1  0.43431500  0.92863600  0.61285200  1
  H  H3  1  0.92863600  0.43431500  0.11285200  1
  H  H4  1  0.62468100  0.90128900  0.95562600  1
  H  H5  1  0.90128900  0.62468100  0.45562600  1
  H  H6  1  0.38532300  0.39410400  0.53197700  1
  H  H7  1  0.39410400  0.38532300  0.03197700  1
  C  C8  1  0.52487000  0.93182200  0.78088900  1
  C  C9  1  0.93182200  0.52487000  0.28088900  1
  C  C10  1  0.48977200  0.16103000  0.70582500  1
  C  C11  1  0.16103000  0.48977200  0.20582500  1
  O  O12  1  0.48719100  0.84066100  0.71851000  1
  O  O13  1  0.84066100  0.48719100  0.21851000  1
  O  O14  1  0.59396000  0.82311700  0.91251200  1
  O  O15  1  0.82311700  0.59396000  0.41251200  1
  O  O16  1  0.41420500  0.24709200  0.57346800  1
  O  O17  1  0.24709200  0.41420500  0.07346800  1
  O  O18  1  0.53134900  0.23676000  0.77106300  1
  O  O19  1  0.23676000  0.53134900  0.27106300  1
  F  F20  1  0.04396600  0.75774200  0.78946000  1
  F  F21  1  0.75774200  0.04396600  0.28946000  1
  F  F22  1  0.25055400  0.95956000  0.21072800  1
  F  F23  1  0.95956000  0.25055400  0.71072800  1
  F  F24  1  0.33057200  0.00338400  0.45716200  1
  F  F25  1  0.00338400  0.33057200  0.95716200  1
  F  F26  1  0.95446900  0.70370700  0.55878600  1
  F  F27  1  0.70370700  0.95446900  0.05878600  1
  F  F28  1  0.94743300  0.07568600  0.49572500  1
  F  F29  1  0.07568600  0.94743300  0.99572500  1
  F  F30  1  0.34072800  0.63289200  0.50633600  1
  F  F31  1  0.63289200  0.34072800  0.00633600  1
