# generated using pymatgen
data_SiHC3O
_symmetry_space_group_name_H-M   'P 1'
_cell_length_a   16.11862300
_cell_length_b   9.41526100
_cell_length_c   11.83515213
_cell_angle_alpha   76.61677414
_cell_angle_beta   90.00000000
_cell_angle_gamma   90.00000000
_symmetry_Int_Tables_number   1
_chemical_formula_structural   SiHC3O
_chemical_formula_sum   'Si12 H12 C36 O12'
_cell_volume   1747.33915843
_cell_formula_units_Z   12
loop_
 _symmetry_equiv_pos_site_id
 _symmetry_equiv_pos_as_xyz
  1  'x, y, z'
loop_
 _atom_site_type_symbol
 _atom_site_label
 _atom_site_symmetry_multiplicity
 _atom_site_fract_x
 _atom_site_fract_y
 _atom_site_fract_z
 _atom_site_occupancy
  Si  Si0  1  0.66534500  0.11198200  0.59454900  1
  Si  Si1  1  0.16534500  0.88801800  0.90545100  1
  Si  Si2  1  0.33465500  0.88801800  0.40545100  1
  Si  Si3  1  0.83465500  0.11198200  0.09454900  1
  Si  Si4  1  0.30926000  0.48411800  0.62150900  1
  Si  Si5  1  0.80926000  0.51588200  0.87849100  1
  Si  Si6  1  0.69074000  0.51588200  0.37849100  1
  Si  Si7  1  0.19074000  0.48411800  0.12150900  1
  Si  Si8  1  0.91823800  0.22868900  0.61254700  1
  Si  Si9  1  0.41823800  0.77131100  0.88745300  1
  Si  Si10  1  0.08176200  0.77131100  0.38745300  1
  Si  Si11  1  0.58176200  0.22868900  0.11254700  1
  H  H12  1  0.68062500  0.36712900  0.35857100  1
  H  H13  1  0.18062500  0.63287100  0.14142900  1
  H  H14  1  0.31937500  0.63287100  0.64142900  1
  H  H15  1  0.81937500  0.36712900  0.85857100  1
  H  H16  1  0.33690600  0.72000400  0.85374000  1
  H  H17  1  0.83690600  0.27999600  0.64626000  1
  H  H18  1  0.66309400  0.27999600  0.14626000  1
  H  H19  1  0.16309400  0.72000400  0.35374000  1
  H  H20  1  0.72407700  0.22648600  0.52831100  1
  H  H21  1  0.22407700  0.77351400  0.97168900  1
  H  H22  1  0.27592300  0.77351400  0.47168900  1
  H  H23  1  0.77592300  0.22648600  0.02831100  1
  C  C24  1  0.55437200  0.14996700  0.62877900  1
  C  C25  1  0.05437200  0.85003300  0.87122100  1
  C  C26  1  0.44562800  0.85003300  0.37122100  1
  C  C27  1  0.94562800  0.14996700  0.12877900  1
  C  C28  1  0.71204800  0.05768300  0.74119400  1
  C  C29  1  0.21204800  0.94231700  0.75880600  1
  C  C30  1  0.28795200  0.94231700  0.25880600  1
  C  C31  1  0.78795200  0.05768300  0.24119400  1
  C  C32  1  0.62517000  0.94103300  0.56040500  1
  C  C33  1  0.12517000  0.05896700  0.93959500  1
  C  C34  1  0.37483000  0.05896700  0.43959500  1
  C  C35  1  0.87483000  0.94103300  0.06040500  1
  C  C36  1  0.24326200  0.32279100  0.68471000  1
  C  C37  1  0.74326200  0.67720900  0.81529000  1
  C  C38  1  0.75673800  0.67720900  0.31529000  1
  C  C39  1  0.25673800  0.32279100  0.18471000  1
  C  C40  1  0.31883700  0.30794100  0.72100000  1
  C  C41  1  0.81883700  0.69205900  0.77900000  1
  C  C42  1  0.68116300  0.69205900  0.27900000  1
  C  C43  1  0.18116300  0.30794100  0.22100000  1
  C  C44  1  0.33174500  0.50934600  0.46607500  1
  C  C45  1  0.83174500  0.49065400  0.03392500  1
  C  C46  1  0.66825500  0.49065400  0.53392500  1
  C  C47  1  0.16825500  0.50934600  0.96607500  1
  C  C48  1  0.95624400  0.09898400  0.53018600  1
  C  C49  1  0.45624400  0.90101600  0.96981400  1
  C  C50  1  0.04375600  0.90101600  0.46981400  1
  C  C51  1  0.54375600  0.09898400  0.03018600  1
  C  C52  1  0.95172800  0.22931200  0.46461500  1
  C  C53  1  0.45172800  0.77068800  0.03538500  1
  C  C54  1  0.04827200  0.77068800  0.53538500  1
  C  C55  1  0.54827200  0.22931200  0.96461500  1
  C  C56  1  0.97743700  0.31606500  0.71149800  1
  C  C57  1  0.47743700  0.68393500  0.78850200  1
  C  C58  1  0.02256300  0.68393500  0.28850200  1
  C  C59  1  0.52256300  0.31606500  0.21149800  1
  O  O60  1  0.73112000  0.01268400  0.83689600  1
  O  O61  1  0.23112000  0.98731600  0.66310400  1
  O  O62  1  0.26888000  0.98731600  0.16310400  1
  O  O63  1  0.76888000  0.01268400  0.33689600  1
  O  O64  1  0.33915300  0.50798600  0.36835100  1
  O  O65  1  0.83915300  0.49201400  0.13164900  1
  O  O66  1  0.66084700  0.49201400  0.63164900  1
  O  O67  1  0.16084700  0.50798600  0.86835100  1
  O  O68  1  0.00552500  0.35843100  0.78801800  1
  O  O69  1  0.50552500  0.64156900  0.71198200  1
  O  O70  1  0.99447500  0.64156900  0.21198200  1
  O  O71  1  0.49447500  0.35843100  0.28801800  1
