# generated using pymatgen
data_MnNb2Re
_symmetry_space_group_name_H-M   'P 1'
_cell_length_a   10.58175829
_cell_length_b   10.58175829
_cell_length_c   10.58175829
_cell_angle_alpha   124.41457617
_cell_angle_beta   118.82377974
_cell_angle_gamma   87.28922925
_symmetry_Int_Tables_number   1
_chemical_formula_structural   MnNb2Re
_chemical_formula_sum   'Mn1 Nb2 Re1'
_cell_volume   813.75722642
_cell_formula_units_Z   1
loop_
 _symmetry_equiv_pos_site_id
 _symmetry_equiv_pos_as_xyz
  1  'x, y, z'
loop_
 _atom_site_type_symbol
 _atom_site_label
 _atom_site_symmetry_multiplicity
 _atom_site_fract_x
 _atom_site_fract_y
 _atom_site_fract_z
 _atom_site_occupancy
  Mn  Mn0  1  0.00000000  0.00000000  0.00000000  1
  Nb  Nb1  1  0.00000000  0.27174800  0.27174800  1
  Nb  Nb2  1  0.00000000  0.72825200  0.72825200  1
  Re  Re3  1  0.00000000  0.50000000  0.50000000  1
