# generated using pymatgen
data_Sm2Mo2O7
_symmetry_space_group_name_H-M   'P 1'
_cell_length_a   7.61149602
_cell_length_b   14.81006002
_cell_length_c   12.91996279
_cell_angle_alpha   29.25556075
_cell_angle_beta   53.87417227
_cell_angle_gamma   59.04474890
_symmetry_Int_Tables_number   1
_chemical_formula_structural   Sm2Mo2O7
_chemical_formula_sum   'Sm8 Mo8 O28'
_cell_volume   574.90859476
_cell_formula_units_Z   4
loop_
 _symmetry_equiv_pos_site_id
 _symmetry_equiv_pos_as_xyz
  1  'x, y, z'
loop_
 _atom_site_type_symbol
 _atom_site_label
 _atom_site_symmetry_multiplicity
 _atom_site_fract_x
 _atom_site_fract_y
 _atom_site_fract_z
 _atom_site_occupancy
  Sm  Sm0  1  0.50394400  0.00006600  0.50428300  1
  Sm  Sm1  1  0.98920900  0.50025700  0.50392100  1
  Sm  Sm2  1  0.50206800  0.24958300  0.50080100  1
  Sm  Sm3  1  0.49782900  0.50017700  0.49711500  1
  Sm  Sm4  1  0.00895000  0.00023100  0.49715200  1
  Sm  Sm5  1  0.50030400  0.24974200  0.00026200  1
  Sm  Sm6  1  0.49997500  0.75132000  0.49840700  1
  Sm  Sm7  1  0.50008900  0.74837700  0.00189400  1
  Mo  Mo8  1  0.00526500  0.00042900  0.98126900  1
  Mo  Mo9  1  0.99921800  0.25000900  0.99971300  1
  Mo  Mo10  1  0.99708600  0.50040500  0.01718000  1
  Mo  Mo11  1  0.46839600  0.00083600  0.01677800  1
  Mo  Mo12  1  0.00503700  0.25207400  0.49645300  1
  Mo  Mo13  1  0.00125000  0.75065600  0.99907500  1
  Mo  Mo14  1  0.53098400  0.50079200  0.98111000  1
  Mo  Mo15  1  0.99975800  0.75113900  0.49831500  1
  O  O16  1  0.15081000  0.00082400  0.13758900  1
  O  O17  1  0.10501500  0.29751900  0.08333100  1
  O  O18  1  0.62871000  0.00038300  0.09788700  1
  O  O19  1  0.93843400  0.00280700  0.85469800  1
  O  O20  1  0.36576900  0.29612300  0.32565700  1
  O  O21  1  0.12249500  0.25130000  0.61950600  1
  O  O22  1  0.11768400  0.74967000  0.12070300  1
  O  O23  1  0.63961200  0.24930500  0.12164500  1
  O  O24  1  0.89420900  0.00016700  0.36886300  1
  O  O25  1  0.67554000  0.49700400  0.10182300  1
  O  O26  1  0.11011100  0.50022600  0.62834800  1
  O  O27  1  0.35731100  0.24916100  0.88283100  1
  O  O28  1  0.35719300  0.75162700  0.37971500  1
  O  O29  1  0.10635900  0.70341700  0.67663300  1
  O  O30  1  0.88309500  0.25195400  0.37985900  1
  O  O31  1  0.63592800  0.79685700  0.08343200  1
  O  O32  1  0.63230300  0.20288400  0.67788500  1
  O  O33  1  0.07616500  0.50280200  0.13421400  1
  O  O34  1  0.86967600  0.49850800  0.36982500  1
  O  O35  1  0.37771200  0.50030000  0.89649500  1
  O  O36  1  0.13430500  0.99841200  0.62964100  1
  O  O37  1  0.36898500  0.70339800  0.91794000  1
  O  O38  1  0.89047600  0.20391900  0.91791300  1
  O  O39  1  0.89174300  0.79700600  0.32406200  1
  O  O40  1  0.63940300  0.75155000  0.61876600  1
  O  O41  1  0.84664500  0.50078500  0.85729800  1
  O  O42  1  0.32862000  0.99702700  0.90104400  1
  O  O43  1  0.87848600  0.74880000  0.88264200  1
