# generated using pymatgen
data_NaCoP2HO7
_symmetry_space_group_name_H-M   'P 1'
_cell_length_a   6.58094200
_cell_length_b   6.58973097
_cell_length_c   18.65000203
_cell_angle_alpha   84.53203916
_cell_angle_beta   85.91900820
_cell_angle_gamma   88.01032073
_symmetry_Int_Tables_number   1
_chemical_formula_structural   NaCoP2HO7
_chemical_formula_sum   'Na6 Co6 P12 H6 O42'
_cell_volume   802.74824811
_cell_formula_units_Z   6
loop_
 _symmetry_equiv_pos_site_id
 _symmetry_equiv_pos_as_xyz
  1  'x, y, z'
loop_
 _atom_site_type_symbol
 _atom_site_label
 _atom_site_symmetry_multiplicity
 _atom_site_fract_x
 _atom_site_fract_y
 _atom_site_fract_z
 _atom_site_occupancy
  Na  Na0  1  0.31244400  0.61297100  0.08574300  1
  Na  Na1  1  0.64582000  0.61294800  0.41896800  1
  Na  Na2  1  0.94830900  0.34358000  0.25393200  1
  Na  Na3  1  0.05043900  0.65571300  0.74665800  1
  Na  Na4  1  0.28132800  0.34310700  0.58728000  1
  Na  Na5  1  0.61625500  0.34459700  0.92014100  1
  Co  Co6  1  0.49030300  0.14377200  0.20519800  1
  Co  Co7  1  0.83752400  0.85538400  0.12784200  1
  Co  Co8  1  0.82313500  0.14520300  0.53897800  1
  Co  Co9  1  0.17046100  0.85478900  0.46062600  1
  Co  Co10  1  0.15685300  0.14505200  0.87180800  1
  Co  Co11  1  0.50939900  0.85462000  0.79513500  1
  P  P12  1  0.20760100  0.11700400  0.04529900  1
  P  P13  1  0.49925900  0.64199700  0.23950700  1
  P  P14  1  0.54128500  0.11759800  0.37840000  1
  P  P15  1  0.83370600  0.35753300  0.09332100  1
  P  P16  1  0.83316300  0.64275400  0.57301700  1
  P  P17  1  0.87383200  0.11948800  0.71184000  1
  P  P18  1  0.12647800  0.88116900  0.28817700  1
  P  P19  1  0.16673900  0.35713900  0.42664600  1
  P  P20  1  0.16636600  0.64132000  0.90641300  1
  P  P21  1  0.45922600  0.88037200  0.62147400  1
  P  P22  1  0.50026900  0.35850700  0.76007900  1
  P  P23  1  0.79243200  0.88090000  0.95514600  1
  H  H24  1  0.49505300  0.28249700  0.06687000  1
  H  H25  1  0.82851700  0.28237200  0.40028200  1
  H  H26  1  0.84153400  0.71700700  0.26708700  1
  H  H27  1  0.15901700  0.28361500  0.73385500  1
  H  H28  1  0.17452000  0.71645100  0.59937400  1
  H  H29  1  0.50817700  0.71707100  0.93389200  1
  O  O30  1  0.12687100  0.92128200  0.08411800  1
  O  O31  1  0.30944000  0.71290500  0.29268700  1
  O  O32  1  0.36445400  0.20631000  0.09406600  1
  O  O33  1  0.42846600  0.46372400  0.20219200  1
  O  O34  1  0.46016500  0.92099200  0.41754300  1
  O  O35  1  0.54744700  0.82890700  0.18442000  1
  O  O36  1  0.63463000  0.11386100  0.30233300  1
  O  O37  1  0.65905800  0.40482800  0.04368600  1
  O  O38  1  0.67245900  0.59146000  0.28973100  1
  O  O39  1  0.70097800  0.88871700  0.03102300  1
  O  O40  1  0.64308800  0.71326200  0.62597100  1
  O  O41  1  0.69768400  0.20622000  0.42755700  1
  O  O42  1  0.78482600  0.17344500  0.14982000  1
  O  O43  1  0.76224000  0.46426800  0.53579900  1
  O  O44  1  0.79522700  0.92128600  0.75048500  1
  O  O45  1  0.90853400  0.53610800  0.12988400  1
  O  O46  1  0.88213200  0.82948400  0.51792200  1
  O  O47  1  0.96716300  0.79536800  0.23953100  1
  O  O48  1  0.02449100  0.28644500  0.04064800  1
  O  O49  1  0.96771700  0.11475000  0.63562100  1
  O  O50  1  0.99232400  0.40488500  0.37710000  1
  O  O51  1  0.00740100  0.59263700  0.62283600  1
  O  O52  1  0.03456400  0.88922100  0.36454200  1
  O  O53  1  0.97604900  0.71273800  0.95930900  1
  O  O54  1  0.03242600  0.20397200  0.76098700  1
  O  O55  1  0.11754500  0.17290500  0.48306700  1
  O  O56  1  0.09657300  0.46361200  0.86857000  1
  O  O57  1  0.20451800  0.07843900  0.24905300  1
  O  O58  1  0.24200600  0.53536000  0.46332600  1
  O  O59  1  0.21526200  0.82741000  0.85064100  1
  O  O60  1  0.30125600  0.79518200  0.57228000  1
  O  O61  1  0.35779800  0.28617100  0.37402200  1
  O  O62  1  0.30119100  0.11372800  0.96874700  1
  O  O63  1  0.32607300  0.40653600  0.71013600  1
  O  O64  1  0.33899300  0.59218200  0.95671600  1
  O  O65  1  0.36558700  0.88572600  0.69778900  1
  O  O66  1  0.45170400  0.17231500  0.81585400  1
  O  O67  1  0.53732400  0.07873200  0.58290700  1
  O  O68  1  0.56965400  0.53653900  0.79765600  1
  O  O69  1  0.63377700  0.79546300  0.90625600  1
  O  O70  1  0.69058600  0.28709100  0.70731200  1
  O  O71  1  0.87154200  0.07860400  0.91553700  1
