# generated using pymatgen
data_MnV2P2(H4O7)2
_symmetry_space_group_name_H-M   'P 1'
_cell_length_a   6.55543900
_cell_length_b   6.68415971
_cell_length_c   8.40474252
_cell_angle_alpha   104.32271308
_cell_angle_beta   95.00574429
_cell_angle_gamma   90.66018611
_symmetry_Int_Tables_number   1
_chemical_formula_structural   MnV2P2(H4O7)2
_chemical_formula_sum   'Mn1 V2 P2 H8 O14'
_cell_volume   355.25868431
_cell_formula_units_Z   1
loop_
 _symmetry_equiv_pos_site_id
 _symmetry_equiv_pos_as_xyz
  1  'x, y, z'
loop_
 _atom_site_type_symbol
 _atom_site_label
 _atom_site_symmetry_multiplicity
 _atom_site_fract_x
 _atom_site_fract_y
 _atom_site_fract_z
 _atom_site_occupancy
  Mn  Mn0  1  0.00000000  0.00000000  0.00000000  1
  V  V1  1  0.75506600  0.61114800  0.89176800  1
  V  V2  1  0.24493400  0.38885200  0.10823200  1
  P  P3  1  0.37002900  0.84062200  0.09488000  1
  P  P4  1  0.62997100  0.15937800  0.90512000  1
  H  H5  1  0.45211100  0.87750500  0.78486500  1
  H  H6  1  0.14853800  0.25983400  0.79461000  1
  H  H7  1  0.54224700  0.66370000  0.36427100  1
  H  H8  1  0.20579500  0.09866600  0.53038500  1
  H  H9  1  0.79420500  0.90133400  0.46961500  1
  H  H10  1  0.45775300  0.33630000  0.63572900  1
  H  H11  1  0.54788900  0.12249500  0.21513500  1
  H  H12  1  0.85146200  0.74016600  0.20539000  1
  O  O13  1  0.49571600  0.73104700  0.94264500  1
  O  O14  1  0.65343000  0.64050300  0.44542900  1
  O  O15  1  0.46350300  0.01739400  0.76574400  1
  O  O16  1  0.82498500  0.76026200  0.41099900  1
  O  O17  1  0.90911900  0.70432400  0.09631100  1
  O  O18  1  0.12274700  0.23899500  0.20800800  1
  O  O19  1  0.66218400  0.33312400  0.80731400  1
  O  O20  1  0.87725300  0.76100500  0.79199200  1
  O  O21  1  0.17501500  0.23973800  0.58900100  1
  O  O22  1  0.53649700  0.98260600  0.23425600  1
  O  O23  1  0.34657000  0.35949700  0.55457100  1
  O  O24  1  0.33781600  0.66687600  0.19268600  1
  O  O25  1  0.09088100  0.29567600  0.90368900  1
  O  O26  1  0.50428400  0.26895300  0.05735500  1
