# generated using pymatgen
data_Sr6Mg7H26
_symmetry_space_group_name_H-M   'P 1'
_cell_length_a   9.55491849
_cell_length_b   9.55491849
_cell_length_c   11.56862421
_cell_angle_alpha   53.59571916
_cell_angle_beta   53.59571916
_cell_angle_gamma   34.30708007
_symmetry_Int_Tables_number   1
_chemical_formula_structural   Sr6Mg7H26
_chemical_formula_sum   'Sr6 Mg7 H26'
_cell_volume   466.54375427
_cell_formula_units_Z   1
loop_
 _symmetry_equiv_pos_site_id
 _symmetry_equiv_pos_as_xyz
  1  'x, y, z'
loop_
 _atom_site_type_symbol
 _atom_site_label
 _atom_site_symmetry_multiplicity
 _atom_site_fract_x
 _atom_site_fract_y
 _atom_site_fract_z
 _atom_site_occupancy
  Sr  Sr0  1  0.64446600  0.64446600  0.09273100  1
  Sr  Sr1  1  0.35553400  0.35553400  0.90726900  1
  Sr  Sr2  1  0.34208800  0.34208800  0.40215200  1
  Sr  Sr3  1  0.65791200  0.65791200  0.59784800  1
  Sr  Sr4  1  0.15022000  0.15022000  0.34683600  1
  Sr  Sr5  1  0.84978000  0.84978000  0.65316400  1
  Mg  Mg6  1  0.77873500  0.77873500  0.20859400  1
  Mg  Mg7  1  0.22126500  0.22126500  0.79140600  1
  Mg  Mg8  1  0.01312100  0.01312100  0.72383700  1
  Mg  Mg9  1  0.98687900  0.98687900  0.27616300  1
  Mg  Mg10  1  0.74307700  0.25692300  0.00000000  1
  Mg  Mg11  1  0.25692300  0.74307700  0.00000000  1
  Mg  Mg12  1  0.50000000  0.50000000  0.50000000  1
  H  H13  1  0.51124700  0.99986100  0.11913300  1
  H  H14  1  0.00013900  0.48875300  0.88086700  1
  H  H15  1  0.48875300  0.00013900  0.88086700  1
  H  H16  1  0.99986100  0.51124700  0.11913300  1
  H  H17  1  0.01258300  0.48220500  0.64685200  1
  H  H18  1  0.51779500  0.98741700  0.35314800  1
  H  H19  1  0.98741700  0.51779500  0.35314800  1
  H  H20  1  0.48220500  0.01258300  0.64685200  1
  H  H21  1  0.77911900  0.28058300  0.58171800  1
  H  H22  1  0.71941700  0.22088100  0.41828200  1
  H  H23  1  0.22088100  0.71941700  0.41828200  1
  H  H24  1  0.28058300  0.77911900  0.58171800  1
  H  H25  1  0.73175300  0.28624800  0.82347000  1
  H  H26  1  0.71375200  0.26824700  0.17653000  1
  H  H27  1  0.26824700  0.71375200  0.17653000  1
  H  H28  1  0.28624800  0.73175300  0.82347000  1
  H  H29  1  0.88264100  0.88264100  0.83053300  1
  H  H30  1  0.11735900  0.11735900  0.16946700  1
  H  H31  1  0.14652200  0.14652200  0.57725800  1
  H  H32  1  0.85347800  0.85347800  0.42274200  1
  H  H33  1  0.40654900  0.40654900  0.08049400  1
  H  H34  1  0.59345100  0.59345100  0.91950600  1
  H  H35  1  0.91218400  0.91218400  0.08237400  1
  H  H36  1  0.08781600  0.08781600  0.91762600  1
  H  H37  1  0.62931800  0.62931800  0.32809800  1
  H  H38  1  0.37068200  0.37068200  0.67190200  1
