# generated using pymatgen
data_VH10SO10
_symmetry_space_group_name_H-M   'P 1'
_cell_length_a   6.26493600
_cell_length_b   7.48730000
_cell_length_c   9.24174100
_cell_angle_alpha   90.00000000
_cell_angle_beta   90.00000000
_cell_angle_gamma   90.00000000
_symmetry_Int_Tables_number   1
_chemical_formula_structural   VH10SO10
_chemical_formula_sum   'V2 H20 S2 O20'
_cell_volume   433.50655297
_cell_formula_units_Z   2
loop_
 _symmetry_equiv_pos_site_id
 _symmetry_equiv_pos_as_xyz
  1  'x, y, z'
loop_
 _atom_site_type_symbol
 _atom_site_label
 _atom_site_symmetry_multiplicity
 _atom_site_fract_x
 _atom_site_fract_y
 _atom_site_fract_z
 _atom_site_occupancy
  V  V0  1  0.50585100  0.50000000  0.71651500  1
  V  V1  1  0.00585100  0.00000000  0.28348500  1
  H  H2  1  0.09777600  0.50000000  0.88676100  1
  H  H3  1  0.59777600  0.00000000  0.11323900  1
  H  H4  1  0.04630100  0.50000000  0.72216100  1
  H  H5  1  0.54630100  0.00000000  0.27783900  1
  H  H6  1  0.51144800  0.67796500  0.97156800  1
  H  H7  1  0.51144800  0.32203500  0.97156800  1
  H  H8  1  0.01144800  0.82203500  0.02843200  1
  H  H9  1  0.01144800  0.17796500  0.02843200  1
  H  H10  1  0.69441500  0.75372600  0.86045100  1
  H  H11  1  0.69441500  0.24627400  0.86045100  1
  H  H12  1  0.19441500  0.74627400  0.13954900  1
  H  H13  1  0.19441500  0.25372600  0.13954900  1
  H  H14  1  0.30275300  0.80001400  0.62919100  1
  H  H15  1  0.30275300  0.19998600  0.62919100  1
  H  H16  1  0.80275300  0.69998600  0.37080900  1
  H  H17  1  0.80275300  0.30001400  0.37080900  1
  H  H18  1  0.32042200  0.65825300  0.49122800  1
  H  H19  1  0.32042200  0.34174700  0.49122800  1
  H  H20  1  0.82042200  0.84174700  0.50877200  1
  H  H21  1  0.82042200  0.15825300  0.50877200  1
  S  S22  1  0.46215100  0.50000000  0.23172400  1
  S  S23  1  0.96215100  0.00000000  0.76827600  1
  O  O24  1  0.75106300  0.50000000  0.65628100  1
  O  O25  1  0.25106300  0.00000000  0.34371900  1
  O  O26  1  0.16538200  0.50000000  0.79206700  1
  O  O27  1  0.66538200  0.00000000  0.20793300  1
  O  O28  1  0.54810900  0.69664200  0.86696100  1
  O  O29  1  0.54810900  0.30335800  0.86696100  1
  O  O30  1  0.04810900  0.80335800  0.13303900  1
  O  O31  1  0.04810900  0.19664200  0.13303900  1
  O  O32  1  0.37883000  0.69597700  0.58661900  1
  O  O33  1  0.37883000  0.30402300  0.58661900  1
  O  O34  1  0.87883000  0.80402300  0.41338100  1
  O  O35  1  0.87883000  0.19597700  0.41338100  1
  O  O36  1  0.42517700  0.66283100  0.13860900  1
  O  O37  1  0.42517700  0.33716900  0.13860900  1
  O  O38  1  0.92517700  0.83716900  0.86139100  1
  O  O39  1  0.92517700  0.16283100  0.86139100  1
  O  O40  1  0.30311200  0.50000000  0.35076000  1
  O  O41  1  0.80311200  0.00000000  0.64924000  1
  O  O42  1  0.68405800  0.50000000  0.28616300  1
  O  O43  1  0.18405800  0.00000000  0.71383700  1
