# generated using pymatgen
data_K2H2C3S2O7F6
_symmetry_space_group_name_H-M   'P 1'
_cell_length_a   11.13459100
_cell_length_b   6.05300000
_cell_length_c   17.94625902
_cell_angle_alpha   79.92692355
_cell_angle_beta   90.00000000
_cell_angle_gamma   90.00000000
_symmetry_Int_Tables_number   1
_chemical_formula_structural   K2H2C3S2O7F6
_chemical_formula_sum   'K8 H8 C12 S8 O28 F24'
_cell_volume   1190.89178691
_cell_formula_units_Z   4
loop_
 _symmetry_equiv_pos_site_id
 _symmetry_equiv_pos_as_xyz
  1  'x, y, z'
loop_
 _atom_site_type_symbol
 _atom_site_label
 _atom_site_symmetry_multiplicity
 _atom_site_fract_x
 _atom_site_fract_y
 _atom_site_fract_z
 _atom_site_occupancy
  K  K0  1  0.59092600  0.86972800  0.84865700  1
  K  K1  1  0.90907400  0.86972800  0.34865700  1
  K  K2  1  0.40907400  0.13027200  0.15134300  1
  K  K3  1  0.09092600  0.13027200  0.65134300  1
  K  K4  1  0.81735000  0.69913200  0.61901600  1
  K  K5  1  0.68265000  0.69913200  0.11901600  1
  K  K6  1  0.18265000  0.30086800  0.38098400  1
  K  K7  1  0.31735000  0.30086800  0.88098400  1
  H  H8  1  0.79950000  0.03054100  0.72312600  1
  H  H9  1  0.70050000  0.03054100  0.22312600  1
  H  H10  1  0.20050000  0.96945900  0.27687400  1
  H  H11  1  0.29950000  0.96945900  0.77687400  1
  H  H12  1  0.67922800  0.14443800  0.69229200  1
  H  H13  1  0.82077200  0.14443800  0.19229200  1
  H  H14  1  0.32077200  0.85556200  0.30770800  1
  H  H15  1  0.17922800  0.85556200  0.80770800  1
  C  C16  1  0.38098100  0.49776700  0.64166100  1
  C  C17  1  0.11901900  0.49776700  0.14166100  1
  C  C18  1  0.61901900  0.50223300  0.35833900  1
  C  C19  1  0.88098100  0.50223300  0.85833900  1
  C  C20  1  0.30467900  0.79232600  0.52186300  1
  C  C21  1  0.19532100  0.79232600  0.02186300  1
  C  C22  1  0.69532100  0.20767400  0.47813700  1
  C  C23  1  0.80467900  0.20767400  0.97813700  1
  C  C24  1  0.37216900  0.74624000  0.59996600  1
  C  C25  1  0.12783100  0.74624000  0.09996600  1
  C  C26  1  0.62783100  0.25376000  0.40003400  1
  C  C27  1  0.87216900  0.25376000  0.90003400  1
  S  S28  1  0.49463200  0.44174400  0.72076900  1
  S  S29  1  0.00536800  0.44174400  0.22076900  1
  S  S30  1  0.50536800  0.55825600  0.27923100  1
  S  S31  1  0.99463200  0.55825600  0.77923100  1
  S  S32  1  0.14602900  0.68978500  0.51362500  1
  S  S33  1  0.35397100  0.68978500  0.01362500  1
  S  S34  1  0.85397100  0.31021500  0.48637500  1
  S  S35  1  0.64602900  0.31021500  0.98637500  1
  O  O36  1  0.46427000  0.60758000  0.76808600  1
  O  O37  1  0.03573000  0.60758000  0.26808600  1
  O  O38  1  0.53573000  0.39242000  0.23191400  1
  O  O39  1  0.96427000  0.39242000  0.73191400  1
  O  O40  1  0.61196800  0.46534800  0.68429600  1
  O  O41  1  0.88803200  0.46534800  0.18429600  1
  O  O42  1  0.38803200  0.53465200  0.31570400  1
  O  O43  1  0.11196800  0.53465200  0.81570400  1
  O  O44  1  0.46520000  0.21053500  0.75599700  1
  O  O45  1  0.03480000  0.21053500  0.25599700  1
  O  O46  1  0.53480000  0.78946500  0.24400300  1
  O  O47  1  0.96520000  0.78946500  0.74400300  1
  O  O48  1  0.15760800  0.44567500  0.52220500  1
  O  O49  1  0.34239200  0.44567500  0.02220500  1
  O  O50  1  0.84239200  0.55432500  0.47779500  1
  O  O51  1  0.65760800  0.55432500  0.97779500  1
  O  O52  1  0.07987300  0.76803800  0.57417600  1
  O  O53  1  0.42012700  0.76803800  0.07417600  1
  O  O54  1  0.92012700  0.23196200  0.42582400  1
  O  O55  1  0.57987300  0.23196200  0.92582400  1
  O  O56  1  0.11568300  0.79961800  0.43671300  1
  O  O57  1  0.38431700  0.79961800  0.93671300  1
  O  O58  1  0.88431700  0.20038200  0.56328700  1
  O  O59  1  0.61568300  0.20038200  0.06328700  1
  O  O60  1  0.71733600  0.99830300  0.70919600  1
  O  O61  1  0.78266400  0.99830300  0.20919600  1
  O  O62  1  0.28266400  0.00169700  0.29080400  1
  O  O63  1  0.21733600  0.00169700  0.79080400  1
  F  F64  1  0.27070400  0.43767000  0.67375900  1
  F  F65  1  0.22929600  0.43767000  0.17375900  1
  F  F66  1  0.72929600  0.56233000  0.32624100  1
  F  F67  1  0.77070400  0.56233000  0.82624100  1
  F  F68  1  0.40624500  0.36087400  0.59103900  1
  F  F69  1  0.09375500  0.36087400  0.09103900  1
  F  F70  1  0.59375500  0.63912600  0.40896100  1
  F  F71  1  0.90624500  0.63912600  0.90896100  1
  F  F72  1  0.31580700  0.86888600  0.64734700  1
  F  F73  1  0.18419300  0.86888600  0.14734700  1
  F  F74  1  0.68419300  0.13111400  0.35265300  1
  F  F75  1  0.81580700  0.13111400  0.85265300  1
  F  F76  1  0.48594600  0.82958500  0.58675300  1
  F  F77  1  0.01405400  0.82958500  0.08675300  1
  F  F78  1  0.51405400  0.17041500  0.41324700  1
  F  F79  1  0.98594600  0.17041500  0.91324700  1
  F  F80  1  0.30058000  0.02367100  0.50201400  1
  F  F81  1  0.19942000  0.02367100  0.00201400  1
  F  F82  1  0.69942000  0.97632900  0.49798600  1
  F  F83  1  0.80058000  0.97632900  0.99798600  1
  F  F84  1  0.37265000  0.71229500  0.46933300  1
  F  F85  1  0.12735000  0.71229500  0.96933300  1
  F  F86  1  0.62735000  0.28770500  0.53066700  1
  F  F87  1  0.87265000  0.28770500  0.03066700  1
