# generated using pymatgen
data_Na3(W2O3)2
_symmetry_space_group_name_H-M   'P 1'
_cell_length_a   6.47914028
_cell_length_b   6.47914028
_cell_length_c   6.47914028
_cell_angle_alpha   118.97949812
_cell_angle_beta   106.66321120
_cell_angle_gamma   103.22395607
_symmetry_Int_Tables_number   1
_chemical_formula_structural   Na3(W2O3)2
_chemical_formula_sum   'Na3 W4 O6'
_cell_volume   204.83328758
_cell_formula_units_Z   1
loop_
 _symmetry_equiv_pos_site_id
 _symmetry_equiv_pos_as_xyz
  1  'x, y, z'
loop_
 _atom_site_type_symbol
 _atom_site_label
 _atom_site_symmetry_multiplicity
 _atom_site_fract_x
 _atom_site_fract_y
 _atom_site_fract_z
 _atom_site_occupancy
  Na  Na0  1  0.50000000  0.99407700  0.49407700  1
  Na  Na1  1  0.00000000  0.48312700  0.48312700  1
  Na  Na2  1  0.50000000  0.53035300  0.03035300  1
  W  W3  1  0.98933900  0.50982600  0.99864800  1
  W  W4  1  0.51117700  0.50982600  0.52048700  1
  W  W5  1  0.01066100  0.00931000  0.52048700  1
  W  W6  1  0.48882300  0.00931000  0.99864800  1
  O  O7  1  0.70754700  0.26744700  0.97499400  1
  O  O8  1  0.29245300  0.26744700  0.55990000  1
  O  O9  1  0.21870500  0.74994500  0.96865000  1
  O  O10  1  0.25790000  0.51659300  0.25869400  1
  O  O11  1  0.74210000  0.00079400  0.25869400  1
  O  O12  1  0.78129500  0.74994500  0.53124000  1
