# generated using pymatgen
data_NaH6RuN(ClO)4
_symmetry_space_group_name_H-M   'P 1'
_cell_length_a   15.32111800
_cell_length_b   8.32480600
_cell_length_c   13.57790659
_cell_angle_alpha   61.23399315
_cell_angle_beta   90.00000000
_cell_angle_gamma   90.00000000
_symmetry_Int_Tables_number   1
_chemical_formula_structural   NaH6RuN(ClO)4
_chemical_formula_sum   'Na4 H24 Ru4 N4 Cl16 O16'
_cell_volume   1518.08143840
_cell_formula_units_Z   4
loop_
 _symmetry_equiv_pos_site_id
 _symmetry_equiv_pos_as_xyz
  1  'x, y, z'
loop_
 _atom_site_type_symbol
 _atom_site_label
 _atom_site_symmetry_multiplicity
 _atom_site_fract_x
 _atom_site_fract_y
 _atom_site_fract_z
 _atom_site_occupancy
  Na  Na0  1  0.10172900  0.90522500  0.88483300  1
  Na  Na1  1  0.39827100  0.90522500  0.38483300  1
  Na  Na2  1  0.89827100  0.09477500  0.11516700  1
  Na  Na3  1  0.60172900  0.09477500  0.61516700  1
  H  H4  1  0.31098100  0.76819100  0.71983000  1
  H  H5  1  0.18901900  0.76819100  0.21983000  1
  H  H6  1  0.68901900  0.23180900  0.28017000  1
  H  H7  1  0.81098100  0.23180900  0.78017000  1
  H  H8  1  0.69951200  0.22915300  0.90277800  1
  H  H9  1  0.80048800  0.22915300  0.40277800  1
  H  H10  1  0.30048800  0.77084700  0.09722200  1
  H  H11  1  0.19951200  0.77084700  0.59722200  1
  H  H12  1  0.70364000  0.14532400  0.89599400  1
  H  H13  1  0.79636000  0.14532400  0.39599400  1
  H  H14  1  0.29636000  0.85467600  0.10400600  1
  H  H15  1  0.20364000  0.85467600  0.60400600  1
  H  H16  1  0.96546300  0.53583600  0.79325200  1
  H  H17  1  0.53453700  0.53583600  0.29325200  1
  H  H18  1  0.03453700  0.46416400  0.20674800  1
  H  H19  1  0.46546300  0.46416400  0.70674800  1
  H  H20  1  0.74616600  0.78260900  0.78420700  1
  H  H21  1  0.75383400  0.78260900  0.28420700  1
  H  H22  1  0.25383400  0.21739100  0.21579300  1
  H  H23  1  0.24616600  0.21739100  0.71579300  1
  H  H24  1  0.50092100  0.97375100  0.98389000  1
  H  H25  1  0.99907900  0.97375100  0.48389000  1
  H  H26  1  0.49907900  0.02624900  0.01611000  1
  H  H27  1  0.00092100  0.02624900  0.51611000  1
  Ru  Ru28  1  0.88647600  0.35082900  0.70103200  1
  Ru  Ru29  1  0.61352400  0.35082900  0.20103200  1
  Ru  Ru30  1  0.11352400  0.64917100  0.29896800  1
  Ru  Ru31  1  0.38647600  0.64917100  0.79896800  1
  N  N32  1  0.96893400  0.18248700  0.69705200  1
  N  N33  1  0.53106600  0.18248700  0.19705200  1
  N  N34  1  0.03106600  0.81751300  0.30294800  1
  N  N35  1  0.46893400  0.81751300  0.80294800  1
  Cl  Cl36  1  0.93743000  0.26569400  0.89202100  1
  Cl  Cl37  1  0.56257000  0.26569400  0.39202100  1
  Cl  Cl38  1  0.06257000  0.73430600  0.10797900  1
  Cl  Cl39  1  0.43743000  0.73430600  0.60797900  1
  Cl  Cl40  1  0.76511800  0.95186100  0.71719600  1
  Cl  Cl41  1  0.73488200  0.95186100  0.21719600  1
  Cl  Cl42  1  0.23488200  0.04813900  0.28280400  1
  Cl  Cl43  1  0.26511800  0.04813900  0.78280400  1
  Cl  Cl44  1  0.79683000  0.41673200  0.55084600  1
  Cl  Cl45  1  0.70317000  0.41673200  0.05084600  1
  Cl  Cl46  1  0.20317000  0.58326800  0.44915400  1
  Cl  Cl47  1  0.29683000  0.58326800  0.94915400  1
  Cl  Cl48  1  0.95924800  0.66753200  0.68709200  1
  Cl  Cl49  1  0.54075200  0.66753200  0.18709200  1
  Cl  Cl50  1  0.04075200  0.33246800  0.31290800  1
  Cl  Cl51  1  0.45924800  0.33246800  0.81290800  1
  O  O52  1  0.14958300  0.21795300  0.91516800  1
  O  O53  1  0.35041700  0.21795300  0.41516800  1
  O  O54  1  0.85041700  0.78204700  0.08483200  1
  O  O55  1  0.64958300  0.78204700  0.58483200  1
  O  O56  1  0.01317900  0.26277600  0.60884100  1
  O  O57  1  0.48682100  0.26277600  0.10884100  1
  O  O58  1  0.98682100  0.73722400  0.39115900  1
  O  O59  1  0.51317900  0.73722400  0.89115900  1
  O  O60  1  0.12569200  0.29666400  0.96832700  1
  O  O61  1  0.37430800  0.29666400  0.46832700  1
  O  O62  1  0.87430800  0.70333600  0.03167300  1
  O  O63  1  0.62569200  0.70333600  0.53167300  1
  O  O64  1  0.51506100  0.02085400  0.27273000  1
  O  O65  1  0.98493900  0.02085400  0.77273000  1
  O  O66  1  0.48493900  0.97914600  0.72727000  1
  O  O67  1  0.01506100  0.97914600  0.22727000  1
