# generated using pymatgen
data_KCu3Ag(MoO4)4
_symmetry_space_group_name_H-M   'P 1'
_cell_length_a   14.75295000
_cell_length_b   5.11432700
_cell_length_c   20.06213917
_cell_angle_alpha   86.43688806
_cell_angle_beta   90.00000000
_cell_angle_gamma   90.00000000
_symmetry_Int_Tables_number   1
_chemical_formula_structural   KCu3Ag(MoO4)4
_chemical_formula_sum   'K4 Cu12 Ag4 Mo16 O64'
_cell_volume   1510.79060434
_cell_formula_units_Z   4
loop_
 _symmetry_equiv_pos_site_id
 _symmetry_equiv_pos_as_xyz
  1  'x, y, z'
loop_
 _atom_site_type_symbol
 _atom_site_label
 _atom_site_symmetry_multiplicity
 _atom_site_fract_x
 _atom_site_fract_y
 _atom_site_fract_z
 _atom_site_occupancy
  K  K0  1  0.02794900  0.80781500  0.09923500  1
  K  K1  1  0.52794900  0.19218500  0.40076500  1
  K  K2  1  0.47205100  0.80781500  0.59923500  1
  K  K3  1  0.97205100  0.19218500  0.90076500  1
  Cu  Cu4  1  0.29428200  0.22639600  0.32749800  1
  Cu  Cu5  1  0.05999600  0.29138800  0.61259600  1
  Cu  Cu6  1  0.79428200  0.77360400  0.17250200  1
  Cu  Cu7  1  0.32459800  0.80683000  0.07194100  1
  Cu  Cu8  1  0.94000400  0.70861200  0.38740400  1
  Cu  Cu9  1  0.20571800  0.22639600  0.82749800  1
  Cu  Cu10  1  0.82459800  0.19317000  0.42805900  1
  Cu  Cu11  1  0.17540200  0.80683000  0.57194100  1
  Cu  Cu12  1  0.44000400  0.29138800  0.11259600  1
  Cu  Cu13  1  0.70571800  0.77360400  0.67250200  1
  Cu  Cu14  1  0.67540200  0.19317000  0.92805900  1
  Cu  Cu15  1  0.55999600  0.70861200  0.88740400  1
  Ag  Ag16  1  0.13814300  0.72504900  0.29106700  1
  Ag  Ag17  1  0.36185700  0.72504900  0.79106700  1
  Ag  Ag18  1  0.63814300  0.27495100  0.20893300  1
  Ag  Ag19  1  0.86185700  0.27495100  0.70893300  1
  Mo  Mo20  1  0.22996500  0.27870100  0.17048700  1
  Mo  Mo21  1  0.90009800  0.24952400  0.27120100  1
  Mo  Mo22  1  0.58438800  0.80670800  0.07035600  1
  Mo  Mo23  1  0.32206300  0.67653500  0.43965600  1
  Mo  Mo24  1  0.40009800  0.75047600  0.22879900  1
  Mo  Mo25  1  0.59990200  0.24952400  0.77120100  1
  Mo  Mo26  1  0.72996500  0.72129900  0.32951300  1
  Mo  Mo27  1  0.82206300  0.32346500  0.06034400  1
  Mo  Mo28  1  0.67793700  0.32346500  0.56034400  1
  Mo  Mo29  1  0.91561200  0.80670800  0.57035600  1
  Mo  Mo30  1  0.08438800  0.19329200  0.42964400  1
  Mo  Mo31  1  0.09990200  0.75047600  0.72879900  1
  Mo  Mo32  1  0.41561200  0.19329200  0.92964400  1
  Mo  Mo33  1  0.17793700  0.67653500  0.93965600  1
  Mo  Mo34  1  0.77003500  0.72129900  0.82951300  1
  Mo  Mo35  1  0.27003500  0.27870100  0.67048700  1
  O  O36  1  0.81098600  0.92495400  0.88974500  1
  O  O37  1  0.35705000  0.50691200  0.68173500  1
  O  O38  1  0.18901400  0.07504600  0.11025500  1
  O  O39  1  0.83543900  0.61840500  0.61834800  1
  O  O40  1  0.62829300  0.01648200  0.84849700  1
  O  O41  1  0.87170700  0.01648200  0.34849700  1
  O  O42  1  0.01562900  0.60760000  0.56213900  1
  O  O43  1  0.75311000  0.37559300  0.48956200  1
  O  O44  1  0.98437100  0.39240000  0.43786100  1
  O  O45  1  0.12829300  0.98351800  0.65150300  1
  O  O46  1  0.23825700  0.06867200  0.24946800  1
  O  O47  1  0.00647400  0.55353000  0.71036200  1
  O  O48  1  0.81216700  0.46469400  0.23293000  1
  O  O49  1  0.76174300  0.93132800  0.75053200  1
  O  O50  1  0.16456100  0.38159500  0.38165200  1
  O  O51  1  0.57587200  0.19171600  0.53209200  1
  O  O52  1  0.92412800  0.19171600  0.03209200  1
  O  O53  1  0.55321800  0.09811900  0.11370900  1
  O  O54  1  0.26847400  0.90475000  0.37954300  1
  O  O55  1  0.76847400  0.09525000  0.12045700  1
  O  O56  1  0.73825700  0.93132800  0.25053200  1
  O  O57  1  0.31098600  0.07504600  0.61025500  1
  O  O58  1  0.67110600  0.51190800  0.86655600  1
  O  O59  1  0.49352600  0.55353000  0.21036200  1
  O  O60  1  0.64428300  0.62509600  0.59833800  1
  O  O61  1  0.82889400  0.51190800  0.36655600  1
  O  O62  1  0.44678200  0.90188100  0.88629100  1
  O  O63  1  0.37170700  0.98351800  0.15150300  1
  O  O64  1  0.85705000  0.49308800  0.81826500  1
  O  O65  1  0.17110600  0.48809200  0.63344400  1
  O  O66  1  0.07587200  0.80828400  0.96790800  1
  O  O67  1  0.42412800  0.80828400  0.46790800  1
  O  O68  1  0.18783300  0.53530600  0.76707000  1
  O  O69  1  0.85571700  0.62509600  0.09833800  1
  O  O70  1  0.05321800  0.90188100  0.38629100  1
  O  O71  1  0.32889400  0.48809200  0.13344400  1
  O  O72  1  0.25311000  0.62440700  0.01043800  1
  O  O73  1  0.94678200  0.09811900  0.61370900  1
  O  O74  1  0.35571700  0.37490400  0.40166200  1
  O  O75  1  0.73152600  0.09525000  0.62045700  1
  O  O76  1  0.06150000  0.95698600  0.78939200  1
  O  O77  1  0.24689000  0.62440700  0.51043800  1
  O  O78  1  0.74689000  0.37559300  0.98956200  1
  O  O79  1  0.93850000  0.04301400  0.21060800  1
  O  O80  1  0.31216700  0.53530600  0.26707000  1
  O  O81  1  0.14428300  0.37490400  0.90166200  1
  O  O82  1  0.33543900  0.38159500  0.88165200  1
  O  O83  1  0.14295000  0.50691200  0.18173500  1
  O  O84  1  0.66456100  0.61840500  0.11834800  1
  O  O85  1  0.99352600  0.44647000  0.28963800  1
  O  O86  1  0.68901400  0.92495400  0.38974500  1
  O  O87  1  0.68783300  0.46469400  0.73293000  1
  O  O88  1  0.56150000  0.04301400  0.71060800  1
  O  O89  1  0.23152600  0.90475000  0.87954300  1
  O  O90  1  0.51562900  0.39240000  0.93786100  1
  O  O91  1  0.12662400  0.09617500  0.51271200  1
  O  O92  1  0.64295000  0.49308800  0.31826500  1
  O  O93  1  0.43850000  0.95698600  0.28939200  1
  O  O94  1  0.50647400  0.44647000  0.78963800  1
  O  O95  1  0.87337600  0.90382500  0.48728800  1
  O  O96  1  0.26174300  0.06867200  0.74946800  1
  O  O97  1  0.48437100  0.60760000  0.06213900  1
  O  O98  1  0.62662400  0.90382500  0.98728800  1
  O  O99  1  0.37337600  0.09617500  0.01271200  1
