# generated using pymatgen
data_CsKMo4(P3O13)2
_symmetry_space_group_name_H-M   'P 1'
_cell_length_a   19.19060700
_cell_length_b   6.49297200
_cell_length_c   19.13622501
_cell_angle_alpha   88.00965471
_cell_angle_beta   90.00000000
_cell_angle_gamma   90.00000000
_symmetry_Int_Tables_number   1
_chemical_formula_structural   CsKMo4(P3O13)2
_chemical_formula_sum   'Cs4 K4 Mo16 P24 O104'
_cell_volume   2383.01304030
_cell_formula_units_Z   4
loop_
 _symmetry_equiv_pos_site_id
 _symmetry_equiv_pos_as_xyz
  1  'x, y, z'
loop_
 _atom_site_type_symbol
 _atom_site_label
 _atom_site_symmetry_multiplicity
 _atom_site_fract_x
 _atom_site_fract_y
 _atom_site_fract_z
 _atom_site_occupancy
  Cs  Cs0  1  0.15577900  0.61253600  0.42583500  1
  Cs  Cs1  1  0.34422100  0.61253600  0.92583500  1
  Cs  Cs2  1  0.65577900  0.38746400  0.07416500  1
  Cs  Cs3  1  0.84422100  0.38746400  0.57416500  1
  K  K4  1  0.50064100  0.80133400  0.72131400  1
  K  K5  1  0.99935900  0.80133400  0.22131400  1
  K  K6  1  0.49935900  0.19866600  0.27868600  1
  K  K7  1  0.00064100  0.19866600  0.77868600  1
  Mo  Mo8  1  0.83364300  0.89539000  0.72161600  1
  Mo  Mo9  1  0.84223600  0.39601700  0.21800900  1
  Mo  Mo10  1  0.37696200  0.12773100  0.06218000  1
  Mo  Mo11  1  0.34223600  0.60398300  0.28199100  1
  Mo  Mo12  1  0.33364300  0.10461000  0.77838400  1
  Mo  Mo13  1  0.87108600  0.37181600  0.94522500  1
  Mo  Mo14  1  0.66635700  0.89539000  0.22161600  1
  Mo  Mo15  1  0.62303800  0.87226900  0.93782000  1
  Mo  Mo16  1  0.87696200  0.87226900  0.43782000  1
  Mo  Mo17  1  0.37108600  0.62818400  0.55477500  1
  Mo  Mo18  1  0.65776400  0.39601700  0.71800900  1
  Mo  Mo19  1  0.16635700  0.10461000  0.27838400  1
  Mo  Mo20  1  0.15776400  0.60398300  0.78199100  1
  Mo  Mo21  1  0.62891400  0.37181600  0.44522500  1
  Mo  Mo22  1  0.12891400  0.62818400  0.05477500  1
  Mo  Mo23  1  0.12303800  0.12773100  0.56218000  1
  P  P24  1  0.41528000  0.62834700  0.10522500  1
  P  P25  1  0.46079800  0.10437600  0.90239600  1
  P  P26  1  0.96079800  0.89562400  0.59760400  1
  P  P27  1  0.53194900  0.39236800  0.59694100  1
  P  P28  1  0.09382200  0.13033200  0.09968900  1
  P  P29  1  0.32070600  0.60968400  0.72848000  1
  P  P30  1  0.58472000  0.37165300  0.89477500  1
  P  P31  1  0.08472000  0.62834700  0.60522500  1
  P  P32  1  0.83076900  0.89065400  0.26639800  1
  P  P33  1  0.40617800  0.13033200  0.59968900  1
  P  P34  1  0.90617800  0.86966800  0.90031100  1
  P  P35  1  0.46805100  0.60763200  0.40305900  1
  P  P36  1  0.66923100  0.89065400  0.76639800  1
  P  P37  1  0.67929400  0.39031600  0.27152000  1
  P  P38  1  0.03920200  0.10437600  0.40239600  1
  P  P39  1  0.53920200  0.89562400  0.09760400  1
  P  P40  1  0.17929400  0.60968400  0.22848000  1
  P  P41  1  0.03194900  0.60763200  0.90305900  1
  P  P42  1  0.91528000  0.37165300  0.39477500  1
  P  P43  1  0.16923100  0.10934600  0.73360200  1
  P  P44  1  0.82070600  0.39031600  0.77152000  1
  P  P45  1  0.96805100  0.39236800  0.09694100  1
  P  P46  1  0.33076900  0.10934600  0.23360200  1
  P  P47  1  0.59382200  0.86966800  0.40031100  1
  O  O48  1  0.98992600  0.92853300  0.42159000  1
  O  O49  1  0.28545200  0.65399900  0.53166800  1
  O  O50  1  0.84397000  0.20940800  0.72567600  1
  O  O51  1  0.98229400  0.42978400  0.91911000  1
  O  O52  1  0.28728500  0.09657800  0.85470600  1
  O  O53  1  0.59894200  0.87042100  0.04545200  1
  O  O54  1  0.36870800  0.30831700  0.56124000  1
  O  O55  1  0.89849100  0.06649200  0.94124800  1
  O  O56  1  0.90060900  0.40003500  0.31751000  1
  O  O57  1  0.64615000  0.08464400  0.72363300  1
  O  O58  1  0.59439300  0.56453200  0.93835700  1
  O  O59  1  0.05973300  0.59297200  0.82746000  1
  O  O60  1  0.51026600  0.82389000  0.40485100  1
  O  O61  1  0.25809800  0.61087200  0.21313500  1
  O  O62  1  0.78728500  0.90342200  0.64529400  1
  O  O63  1  0.48229400  0.57021600  0.58089000  1
  O  O64  1  0.98973400  0.82389000  0.90485100  1
  O  O65  1  0.85385000  0.08464400  0.22363300  1
  O  O66  1  0.56772500  0.91463300  0.17248300  1
  O  O67  1  0.35225500  0.29019400  0.27940600  1
  O  O68  1  0.63129200  0.69168300  0.43876000  1
  O  O69  1  0.34438400  0.41706500  0.77258800  1
  O  O70  1  0.13129200  0.30831700  0.06124000  1
  O  O71  1  0.29013100  0.15598800  0.04619600  1
  O  O72  1  0.70986900  0.84401200  0.95380400  1
  O  O73  1  0.01026600  0.17611000  0.09514900  1
  O  O74  1  0.55973300  0.40702800  0.67254000  1
  O  O75  1  0.12338500  0.80677700  0.56680500  1
  O  O76  1  0.44026700  0.59297200  0.32746000  1
  O  O77  1  0.09894200  0.12957900  0.45454800  1
  O  O78  1  0.40560700  0.43546800  0.06164300  1
  O  O79  1  0.15561600  0.41706500  0.27258800  1
  O  O80  1  0.62342200  0.87556100  0.83275900  1
  O  O81  1  0.35385000  0.91535600  0.27636700  1
  O  O82  1  0.94026700  0.40702800  0.17254000  1
  O  O83  1  0.78545200  0.34600100  0.96833200  1
  O  O84  1  0.48973400  0.17611000  0.59514900  1
  O  O85  1  0.13665100  0.62498400  0.16087600  1
  O  O86  1  0.15603000  0.79059200  0.27432400  1
  O  O87  1  0.12342200  0.12443900  0.66724100  1
  O  O88  1  0.74190200  0.38912800  0.78686500  1
  O  O89  1  0.21454800  0.65399900  0.03166800  1
  O  O90  1  0.93227500  0.91463300  0.67248300  1
  O  O91  1  0.21271500  0.09657800  0.35470600  1
  O  O92  1  0.20822100  0.59750200  0.85560700  1
  O  O93  1  0.87661500  0.19322300  0.43319500  1
  O  O94  1  0.39849100  0.93350800  0.55875200  1
  O  O95  1  0.79177900  0.40249800  0.14439300  1
  O  O96  1  0.63665100  0.37501600  0.33912400  1
  O  O97  1  0.85225500  0.70980600  0.22059400  1
  O  O98  1  0.84438400  0.58293500  0.72741200  1
  O  O99  1  0.90105800  0.87042100  0.54545200  1
  O  O100  1  0.65561600  0.58293500  0.22741200  1
  O  O101  1  0.10150900  0.93350800  0.05875200  1
  O  O102  1  0.00186600  0.67673600  0.59654700  1
  O  O103  1  0.75282100  0.88963800  0.28613000  1
  O  O104  1  0.74717900  0.88963800  0.78613000  1
  O  O105  1  0.40750500  0.62808100  0.45350400  1
  O  O106  1  0.36334900  0.62498400  0.66087600  1
  O  O107  1  0.24717900  0.11036200  0.71387000  1
  O  O108  1  0.01770600  0.57021600  0.08089000  1
  O  O109  1  0.60971600  0.89717500  0.32212700  1
  O  O110  1  0.65603000  0.20940800  0.22567600  1
  O  O111  1  0.24190200  0.61087200  0.71313500  1
  O  O112  1  0.10971600  0.10282500  0.17787300  1
  O  O113  1  0.14615000  0.91535600  0.77636700  1
  O  O114  1  0.43227500  0.08536700  0.82751700  1
  O  O115  1  0.48992600  0.07146700  0.07841000  1
  O  O116  1  0.40105800  0.12957900  0.95454800  1
  O  O117  1  0.51770600  0.42978400  0.41911000  1
  O  O118  1  0.39028400  0.10282500  0.67787300  1
  O  O119  1  0.40060900  0.59996500  0.18249000  1
  O  O120  1  0.86334900  0.37501600  0.83912400  1
  O  O121  1  0.09939100  0.59996500  0.68249000  1
  O  O122  1  0.90560700  0.56453200  0.43835700  1
  O  O123  1  0.90750500  0.37191900  0.04649600  1
  O  O124  1  0.62338500  0.19322300  0.93319500  1
  O  O125  1  0.79013100  0.84401200  0.45380400  1
  O  O126  1  0.71271500  0.90342200  0.14529400  1
  O  O127  1  0.09249500  0.62808100  0.95350400  1
  O  O128  1  0.99813400  0.32326400  0.40345300  1
  O  O129  1  0.29177900  0.59750200  0.35560700  1
  O  O130  1  0.49813400  0.67673600  0.09654700  1
  O  O131  1  0.25282100  0.11036200  0.21387000  1
  O  O132  1  0.75809800  0.38912800  0.28686500  1
  O  O133  1  0.59939100  0.40003500  0.81751000  1
  O  O134  1  0.09439300  0.43546800  0.56164300  1
  O  O135  1  0.64774500  0.70980600  0.72059400  1
  O  O136  1  0.14774500  0.29019400  0.77940600  1
  O  O137  1  0.71454800  0.34600100  0.46833200  1
  O  O138  1  0.37661500  0.80677700  0.06680500  1
  O  O139  1  0.50186600  0.32326400  0.90345300  1
  O  O140  1  0.34397000  0.79059200  0.77432400  1
  O  O141  1  0.89028400  0.89717500  0.82212700  1
  O  O142  1  0.20986900  0.15598800  0.54619600  1
  O  O143  1  0.70822100  0.40249800  0.64439300  1
  O  O144  1  0.60150900  0.06649200  0.44124800  1
  O  O145  1  0.51007400  0.92853300  0.92159000  1
  O  O146  1  0.01007400  0.07146700  0.57841000  1
  O  O147  1  0.06772500  0.08536700  0.32751700  1
  O  O148  1  0.59249500  0.37191900  0.54649600  1
  O  O149  1  0.86870800  0.69168300  0.93876000  1
  O  O150  1  0.37657800  0.12443900  0.16724100  1
  O  O151  1  0.87657800  0.87556100  0.33275900  1
