# generated using pymatgen
data_KHo2Cu(MoO4)4
_symmetry_space_group_name_H-M   'P 1'
_cell_length_a   5.28425800
_cell_length_b   6.87111156
_cell_length_c   19.69633121
_cell_angle_alpha   88.85906198
_cell_angle_beta   93.29246747
_cell_angle_gamma   112.60011711
_symmetry_Int_Tables_number   1
_chemical_formula_structural   KHo2Cu(MoO4)4
_chemical_formula_sum   'K2 Ho4 Cu2 Mo8 O32'
_cell_volume   659.14041886
_cell_formula_units_Z   2
loop_
 _symmetry_equiv_pos_site_id
 _symmetry_equiv_pos_as_xyz
  1  'x, y, z'
loop_
 _atom_site_type_symbol
 _atom_site_label
 _atom_site_symmetry_multiplicity
 _atom_site_fract_x
 _atom_site_fract_y
 _atom_site_fract_z
 _atom_site_occupancy
  K  K0  1  0.97265900  0.94309000  0.75175600  1
  K  K1  1  0.02664600  0.06071300  0.25172800  1
  Ho  Ho2  1  0.85149500  0.70618300  0.53128200  1
  Ho  Ho3  1  0.85458900  0.70591000  0.96925700  1
  Ho  Ho4  1  0.14570600  0.29553200  0.03181000  1
  Ho  Ho5  1  0.15017100  0.29581900  0.46816200  1
  Cu  Cu6  1  0.69009400  0.38246400  0.75049800  1
  Cu  Cu7  1  0.30883400  0.61779800  0.24939700  1
  Mo  Mo8  1  0.54567400  0.12367400  0.90858700  1
  Mo  Mo9  1  0.26794900  0.51801600  0.64645600  1
  Mo  Mo10  1  0.42099300  0.87779000  0.40868900  1
  Mo  Mo11  1  0.25071400  0.51967500  0.85397900  1
  Mo  Mo12  1  0.45409200  0.87736300  0.09161400  1
  Mo  Mo13  1  0.73176600  0.48357000  0.35347200  1
  Mo  Mo14  1  0.57993900  0.12520100  0.59075800  1
  Mo  Mo15  1  0.74961700  0.48416400  0.14735200  1
  O  O16  1  0.21648700  0.96191200  0.03723000  1
  O  O17  1  0.50725800  0.33917100  0.95875400  1
  O  O18  1  0.30322700  0.81981500  0.17195600  1
  O  O19  1  0.90718300  0.30423800  0.36949900  1
  O  O20  1  0.93135500  0.40493100  0.21462300  1
  O  O21  1  0.69636300  0.18045400  0.82809700  1
  O  O22  1  0.77673300  0.09691400  0.10069900  1
  O  O23  1  0.58158800  0.52084600  0.43417700  1
  O  O24  1  0.47107200  0.40382000  0.28636700  1
  O  O25  1  0.06757000  0.59719100  0.78686000  1
  O  O26  1  0.51189800  0.81530600  0.32855400  1
  O  O27  1  0.83957100  0.33990700  0.54211000  1
  O  O28  1  0.48734300  0.18252300  0.67126800  1
  O  O29  1  0.05971700  0.47914200  0.93416000  1
  O  O30  1  0.42280200  0.47719800  0.56677100  1
  O  O31  1  0.26974600  0.28063300  0.82805100  1
  O  O32  1  0.60402600  0.70090000  0.87095100  1
  O  O33  1  0.94278500  0.52363200  0.06747400  1
  O  O34  1  0.01615700  0.27835900  0.67278500  1
  O  O35  1  0.32092600  0.09834200  0.39894800  1
  O  O36  1  0.25922700  0.03994100  0.53570300  1
  O  O37  1  0.49510400  0.66186400  0.04213600  1
  O  O38  1  0.73341800  0.72311100  0.17343600  1
  O  O39  1  0.22294000  0.90437700  0.89983000  1
  O  O40  1  0.74520900  0.96206300  0.46223000  1
  O  O41  1  0.09261900  0.69761800  0.62976700  1
  O  O42  1  0.52898900  0.59974200  0.71369000  1
  O  O43  1  0.67954900  0.90407100  0.59933900  1
  O  O44  1  0.16734800  0.66192600  0.45825800  1
  O  O45  1  0.78365400  0.03999100  0.96304600  1
  O  O46  1  0.98593000  0.72574500  0.32866600  1
  O  O47  1  0.39572900  0.30307900  0.13037000  1
