# generated using pymatgen
data_Mn3(PO4)2
_symmetry_space_group_name_H-M   'P 1'
_cell_length_a   10.19757400
_cell_length_b   9.07919200
_cell_length_c   21.31811255
_cell_angle_alpha   80.88570824
_cell_angle_beta   90.00000000
_cell_angle_gamma   90.00000000
_symmetry_Int_Tables_number   1
_chemical_formula_structural   Mn3(PO4)2
_chemical_formula_sum   'Mn36 P24 O96'
_cell_volume   1948.83309758
_cell_formula_units_Z   12
loop_
 _symmetry_equiv_pos_site_id
 _symmetry_equiv_pos_as_xyz
  1  'x, y, z'
loop_
 _atom_site_type_symbol
 _atom_site_label
 _atom_site_symmetry_multiplicity
 _atom_site_fract_x
 _atom_site_fract_y
 _atom_site_fract_z
 _atom_site_occupancy
  Mn  Mn0  1  0.29568000  0.10064700  0.70355400  1
  Mn  Mn1  1  0.58414600  0.79270400  0.78324100  1
  Mn  Mn2  1  0.89440000  0.59983200  0.60679700  1
  Mn  Mn3  1  0.20432000  0.60064700  0.20355400  1
  Mn  Mn4  1  0.88572900  0.72189800  0.42439400  1
  Mn  Mn5  1  0.77984900  0.73704200  0.14074700  1
  Mn  Mn6  1  0.91585400  0.29270400  0.28324100  1
  Mn  Mn7  1  0.38572900  0.77810200  0.07560600  1
  Mn  Mn8  1  0.21631000  0.95539200  0.54295900  1
  Mn  Mn9  1  0.38740700  0.10563900  0.41674600  1
  Mn  Mn10  1  0.61037700  0.54320200  0.25685400  1
  Mn  Mn11  1  0.39440000  0.90016800  0.89320300  1
  Mn  Mn12  1  0.09427200  0.06484400  0.05958100  1
  Mn  Mn13  1  0.10560000  0.40016800  0.39320300  1
  Mn  Mn14  1  0.61259300  0.89436100  0.58325400  1
  Mn  Mn15  1  0.11037700  0.95679800  0.24314600  1
  Mn  Mn16  1  0.40572800  0.56484400  0.55958100  1
  Mn  Mn17  1  0.71631000  0.54460800  0.95704100  1
  Mn  Mn18  1  0.90572800  0.93515600  0.94041900  1
  Mn  Mn19  1  0.88962300  0.04320200  0.75685400  1
  Mn  Mn20  1  0.11259300  0.60563900  0.91674600  1
  Mn  Mn21  1  0.11427100  0.27810200  0.57560600  1
  Mn  Mn22  1  0.88740700  0.39436100  0.08325400  1
  Mn  Mn23  1  0.70432000  0.89935300  0.29644600  1
  Mn  Mn24  1  0.41585400  0.20729600  0.21675900  1
  Mn  Mn25  1  0.72015100  0.23704200  0.64074700  1
  Mn  Mn26  1  0.38962300  0.45679800  0.74314600  1
  Mn  Mn27  1  0.60560000  0.09983200  0.10679700  1
  Mn  Mn28  1  0.08414600  0.70729600  0.71675900  1
  Mn  Mn29  1  0.59427200  0.43515600  0.44041900  1
  Mn  Mn30  1  0.79568000  0.39935300  0.79644600  1
  Mn  Mn31  1  0.27984900  0.76295800  0.35925300  1
  Mn  Mn32  1  0.78369000  0.04460800  0.45704100  1
  Mn  Mn33  1  0.28369000  0.45539200  0.04295900  1
  Mn  Mn34  1  0.61427100  0.22189800  0.92439400  1
  Mn  Mn35  1  0.22015100  0.26295800  0.85925300  1
  P  P36  1  0.36923900  0.44960700  0.32787000  1
  P  P37  1  0.94324700  0.29983500  0.93907600  1
  P  P38  1  0.85404300  0.37216500  0.49908700  1
  P  P39  1  0.06838400  0.34945100  0.71814100  1
  P  P40  1  0.14595700  0.62783500  0.50091300  1
  P  P41  1  0.56838400  0.15054900  0.78185900  1
  P  P42  1  0.55675300  0.79983500  0.43907600  1
  P  P43  1  0.57538100  0.46698800  0.10556400  1
  P  P44  1  0.05675300  0.70016500  0.06092400  1
  P  P45  1  0.44324700  0.20016500  0.56092400  1
  P  P46  1  0.86923900  0.05039300  0.17213000  1
  P  P47  1  0.92461900  0.96698800  0.60556400  1
  P  P48  1  0.64302500  0.19203800  0.33083200  1
  P  P49  1  0.13076100  0.94960700  0.82787000  1
  P  P50  1  0.35404300  0.12783500  0.00091300  1
  P  P51  1  0.64595700  0.87216500  0.99908700  1
  P  P52  1  0.43161600  0.84945100  0.21814100  1
  P  P53  1  0.07538100  0.03301200  0.39443600  1
  P  P54  1  0.42461900  0.53301200  0.89443600  1
  P  P55  1  0.63076100  0.55039300  0.67213000  1
  P  P56  1  0.85697500  0.69203800  0.83083200  1
  P  P57  1  0.35697500  0.80796200  0.66916800  1
  P  P58  1  0.93161600  0.65054900  0.28185900  1
  P  P59  1  0.14302500  0.30796200  0.16916800  1
  O  O60  1  0.39193500  0.08959900  0.51736200  1
  O  O61  1  0.55152700  0.77725400  0.25664900  1
  O  O62  1  0.50144300  0.84300100  0.98180000  1
  O  O63  1  0.73998500  0.43107900  0.69133700  1
  O  O64  1  0.07851800  0.89845200  0.76632200  1
  O  O65  1  0.05152700  0.72274600  0.24335100  1
  O  O66  1  0.46963900  0.69081300  0.86250800  1
  O  O67  1  0.80225500  0.17776800  0.12526600  1
  O  O68  1  0.26001500  0.56892100  0.30866300  1
  O  O69  1  0.04050000  0.05662600  0.57001000  1
  O  O70  1  0.93472100  0.72478800  0.88971800  1
  O  O71  1  0.10806500  0.58959900  0.01736200  1
  O  O72  1  0.30225500  0.32223200  0.37473400  1
  O  O73  1  0.94847300  0.27725400  0.75664900  1
  O  O74  1  0.18135700  0.37985300  0.76318700  1
  O  O75  1  0.74284100  0.58234200  0.85329000  1
  O  O76  1  0.56677600  0.12618700  0.59708900  1
  O  O77  1  0.94220600  0.61157600  0.78650300  1
  O  O78  1  0.86694900  0.05690800  0.65551300  1
  O  O79  1  0.51471400  0.47529000  0.64226800  1
  O  O80  1  0.55779400  0.11157600  0.28650300  1
  O  O81  1  0.95950000  0.94337400  0.42999000  1
  O  O82  1  0.61616100  0.26501000  0.82396900  1
  O  O83  1  0.42148200  0.39845200  0.26632200  1
  O  O84  1  0.36694900  0.44309200  0.84448700  1
  O  O85  1  0.19774500  0.82223200  0.87473400  1
  O  O86  1  0.66946200  0.77776800  0.39292000  1
  O  O87  1  0.81497100  0.94685000  0.55723300  1
  O  O88  1  0.79213000  0.83789700  0.79537700  1
  O  O89  1  0.48528600  0.52471000  0.35773200  1
  O  O90  1  0.18502900  0.05315000  0.44276700  1
  O  O91  1  0.92148200  0.10154800  0.23367800  1
  O  O92  1  0.68135700  0.12014700  0.73681300  1
  O  O93  1  0.31864300  0.87985300  0.26318700  1
  O  O94  1  0.25715900  0.41765800  0.14671000  1
  O  O95  1  0.97882400  0.14728900  0.97873600  1
  O  O96  1  0.33053800  0.22223200  0.60708000  1
  O  O97  1  0.96624200  0.50006100  0.32444600  1
  O  O98  1  0.29579900  0.98336400  0.04093300  1
  O  O99  1  0.46624200  0.99993900  0.17555400  1
  O  O100  1  0.70420100  0.01663600  0.95906700  1
  O  O101  1  0.25856100  0.24974200  0.01524700  1
  O  O102  1  0.54050000  0.44337400  0.92999000  1
  O  O103  1  0.89193500  0.41040100  0.98263800  1
  O  O104  1  0.88383900  0.76501000  0.32396900  1
  O  O105  1  0.53036100  0.30918700  0.13749200  1
  O  O106  1  0.99855700  0.34300100  0.48180000  1
  O  O107  1  0.06527900  0.27521200  0.11028200  1
  O  O108  1  0.53375800  0.00006100  0.82444600  1
  O  O109  1  0.05779400  0.38842400  0.21349700  1
  O  O110  1  0.79579900  0.51663600  0.45906700  1
  O  O111  1  0.47882400  0.35271100  0.52126400  1
  O  O112  1  0.64955800  0.88162600  0.07214800  1
  O  O113  1  0.00144300  0.65699900  0.51820000  1
  O  O114  1  0.70787000  0.33789700  0.29537700  1
  O  O115  1  0.85044200  0.38162600  0.57214800  1
  O  O116  1  0.93322400  0.62618700  0.09708900  1
  O  O117  1  0.83053800  0.27776800  0.89292000  1
  O  O118  1  0.49855700  0.15699900  0.01820000  1
  O  O119  1  0.44220600  0.88842400  0.71349700  1
  O  O120  1  0.38383900  0.73499000  0.17603100  1
  O  O121  1  0.76001500  0.93107900  0.19133700  1
  O  O122  1  0.57851800  0.60154800  0.73367800  1
  O  O123  1  0.81864300  0.62014700  0.23681300  1
  O  O124  1  0.03036100  0.19081300  0.36250800  1
  O  O125  1  0.16946200  0.72223200  0.10708000  1
  O  O126  1  0.43322400  0.87381300  0.40291100  1
  O  O127  1  0.13305100  0.94309200  0.34448700  1
  O  O128  1  0.56527900  0.22478800  0.38971800  1
  O  O129  1  0.14955800  0.61837400  0.42785200  1
  O  O130  1  0.60806500  0.91040100  0.48263800  1
  O  O131  1  0.75856100  0.25025800  0.48475300  1
  O  O132  1  0.02117600  0.85271100  0.02126400  1
  O  O133  1  0.03375800  0.49993900  0.67555400  1
  O  O134  1  0.74143900  0.75025800  0.98475300  1
  O  O135  1  0.63305100  0.55690800  0.15551300  1
  O  O136  1  0.68502900  0.44685000  0.05723300  1
  O  O137  1  0.20420100  0.48336400  0.54093300  1
  O  O138  1  0.98528600  0.97529000  0.14226800  1
  O  O139  1  0.45950000  0.55662600  0.07001000  1
  O  O140  1  0.96963900  0.80918700  0.63749200  1
  O  O141  1  0.75715900  0.08234200  0.35329000  1
  O  O142  1  0.44847300  0.22274600  0.74335100  1
  O  O143  1  0.11616100  0.23499000  0.67603100  1
  O  O144  1  0.01471400  0.02471000  0.85773200  1
  O  O145  1  0.31497100  0.55315000  0.94276700  1
  O  O146  1  0.24143900  0.74974200  0.51524700  1
  O  O147  1  0.06677600  0.37381300  0.90291100  1
  O  O148  1  0.24284100  0.91765800  0.64671000  1
  O  O149  1  0.43472100  0.77521200  0.61028200  1
  O  O150  1  0.23998500  0.06892100  0.80866300  1
  O  O151  1  0.52117600  0.64728900  0.47873600  1
  O  O152  1  0.35044200  0.11837400  0.92785200  1
  O  O153  1  0.20787000  0.16210300  0.20462300  1
  O  O154  1  0.29213000  0.66210300  0.70462300  1
  O  O155  1  0.69774500  0.67776800  0.62526600  1
