# generated using pymatgen
data_K10Zr3Cd(MoO4)12
_symmetry_space_group_name_H-M   'P 1'
_cell_length_a   14.29875539
_cell_length_b   14.29875539
_cell_length_c   14.29875487
_cell_angle_alpha   44.66522194
_cell_angle_beta   44.66522194
_cell_angle_gamma   44.66522489
_symmetry_Int_Tables_number   1
_chemical_formula_structural   K10Zr3Cd(MoO4)12
_chemical_formula_sum   'K10 Zr3 Cd1 Mo12 O48'
_cell_volume   1313.95349676
_cell_formula_units_Z   1
loop_
 _symmetry_equiv_pos_site_id
 _symmetry_equiv_pos_as_xyz
  1  'x, y, z'
loop_
 _atom_site_type_symbol
 _atom_site_label
 _atom_site_symmetry_multiplicity
 _atom_site_fract_x
 _atom_site_fract_y
 _atom_site_fract_z
 _atom_site_occupancy
  K  K0  1  0.89507900  0.89507900  0.89507900  1
  K  K1  1  0.60095700  0.60095700  0.60095700  1
  K  K2  1  0.11498200  0.87899500  0.50700300  1
  K  K3  1  0.87899500  0.50700300  0.11498200  1
  K  K4  1  0.50700300  0.11498200  0.87899500  1
  K  K5  1  0.39784700  0.39784700  0.39784700  1
  K  K6  1  0.38370000  0.61049800  0.00676000  1
  K  K7  1  0.00676000  0.38370000  0.61049800  1
  K  K8  1  0.61049800  0.00676000  0.38370000  1
  K  K9  1  0.10399300  0.10399300  0.10399300  1
  Zr  Zr10  1  0.00072200  0.00072200  0.00072200  1
  Zr  Zr11  1  0.75107800  0.75107800  0.75107800  1
  Zr  Zr12  1  0.24867700  0.24867700  0.24867700  1
  Cd  Cd13  1  0.50050500  0.50050500  0.50050500  1
  Mo  Mo14  1  0.22992700  0.98834000  0.63133100  1
  Mo  Mo15  1  0.98834000  0.63133100  0.22992700  1
  Mo  Mo16  1  0.51786200  0.87090600  0.26869500  1
  Mo  Mo17  1  0.63133100  0.22992700  0.98834000  1
  Mo  Mo18  1  0.26869500  0.51786200  0.87090600  1
  Mo  Mo19  1  0.87090600  0.26869500  0.51786200  1
  Mo  Mo20  1  0.48509700  0.73250600  0.12876800  1
  Mo  Mo21  1  0.12876800  0.48509700  0.73250600  1
  Mo  Mo22  1  0.01449600  0.77110000  0.36881000  1
  Mo  Mo23  1  0.73250600  0.12876800  0.48509700  1
  Mo  Mo24  1  0.77110000  0.36881000  0.01449600  1
  Mo  Mo25  1  0.36881000  0.01449600  0.77110000  1
  O  O26  1  0.75761500  0.94723900  0.64363800  1
  O  O27  1  0.64363800  0.75761500  0.94723900  1
  O  O28  1  0.94723900  0.64363800  0.75761500  1
  O  O29  1  0.54776900  0.85906900  0.74393300  1
  O  O30  1  0.21511300  0.95679300  0.92561200  1
  O  O31  1  0.95679300  0.92561200  0.21511300  1
  O  O32  1  0.85906900  0.74393300  0.54776900  1
  O  O33  1  0.74393300  0.54776900  0.85906900  1
  O  O34  1  0.39551400  0.86500300  0.65119700  1
  O  O35  1  0.92561200  0.21511300  0.95679300  1
  O  O36  1  0.86500300  0.65119700  0.39551400  1
  O  O37  1  0.60255700  0.87231600  0.31530400  1
  O  O38  1  0.18306600  0.90218600  0.63380200  1
  O  O39  1  0.65119700  0.39551400  0.86500300  1
  O  O40  1  0.31530400  0.60255700  0.87231600  1
  O  O41  1  0.90218600  0.63380200  0.18306600  1
  O  O42  1  0.64300700  0.84214500  0.10651300  1
  O  O43  1  0.87231600  0.31530400  0.60255700  1
  O  O44  1  0.45077200  0.73133200  0.42391900  1
  O  O45  1  0.10651300  0.64300700  0.84214500  1
  O  O46  1  0.63380200  0.18306600  0.90218600  1
  O  O47  1  0.42391900  0.45077200  0.73133200  1
  O  O48  1  0.36184500  0.89675200  0.15311800  1
  O  O49  1  0.73133200  0.42391900  0.45077200  1
  O  O50  1  0.84214500  0.10651300  0.64300700  1
  O  O51  1  0.55277500  0.57944600  0.26838700  1
  O  O52  1  0.26838700  0.55277500  0.57944600  1
  O  O53  1  0.09813500  0.81849700  0.36904500  1
  O  O54  1  0.15311800  0.36184500  0.89675200  1
  O  O55  1  0.57944600  0.26838700  0.55277500  1
  O  O56  1  0.39772400  0.68571000  0.13100600  1
  O  O57  1  0.89675200  0.15311800  0.36184500  1
  O  O58  1  0.81849700  0.36904500  0.09813500  1
  O  O59  1  0.13100600  0.39772400  0.68571000  1
  O  O60  1  0.13944300  0.60745900  0.34454700  1
  O  O61  1  0.36904500  0.09813500  0.81849700  1
  O  O62  1  0.68571000  0.13100600  0.39772400  1
  O  O63  1  0.60745900  0.34454700  0.13944300  1
  O  O64  1  0.04520400  0.78622300  0.07716700  1
  O  O65  1  0.34454700  0.13944300  0.60745900  1
  O  O66  1  0.14410800  0.45209300  0.25481200  1
  O  O67  1  0.45209300  0.25481200  0.14410800  1
  O  O68  1  0.78622300  0.07716700  0.04520400  1
  O  O69  1  0.07716700  0.04520500  0.78622300  1
  O  O70  1  0.25481200  0.14410800  0.45209300  1
  O  O71  1  0.24141800  0.35939000  0.05224500  1
  O  O72  1  0.05224500  0.24141800  0.35939000  1
  O  O73  1  0.35939000  0.05224500  0.24141800  1
