# generated using pymatgen
data_Sb3WC6O6F17
_symmetry_space_group_name_H-M   'P 1'
_cell_length_a   16.91103600
_cell_length_b   8.33028900
_cell_length_c   8.39199068
_cell_angle_alpha   68.53518806
_cell_angle_beta   90.00000000
_cell_angle_gamma   90.00000000
_symmetry_Int_Tables_number   1
_chemical_formula_structural   Sb3WC6O6F17
_chemical_formula_sum   'Sb6 W2 C12 O12 F34'
_cell_volume   1100.21648229
_cell_formula_units_Z   2
loop_
 _symmetry_equiv_pos_site_id
 _symmetry_equiv_pos_as_xyz
  1  'x, y, z'
loop_
 _atom_site_type_symbol
 _atom_site_label
 _atom_site_symmetry_multiplicity
 _atom_site_fract_x
 _atom_site_fract_y
 _atom_site_fract_z
 _atom_site_occupancy
  Sb  Sb0  1  0.68579300  0.86673700  0.11913500  1
  Sb  Sb1  1  0.23617300  0.50722900  0.43001000  1
  Sb  Sb2  1  0.18579300  0.13326300  0.88086500  1
  Sb  Sb3  1  0.73617300  0.49277100  0.56999000  1
  Sb  Sb4  1  0.49399300  0.34786700  0.09997300  1
  Sb  Sb5  1  0.99399300  0.65213300  0.90002700  1
  W  W6  1  0.44824200  0.82011700  0.73640100  1
  W  W7  1  0.94824200  0.17988300  0.26359900  1
  C  C8  1  0.36681700  0.92797900  0.53756100  1
  C  C9  1  0.57042100  0.89891200  0.67707600  1
  C  C10  1  0.97854600  0.28327900  0.45719000  1
  C  C11  1  0.07042100  0.10108800  0.32292400  1
  C  C12  1  0.94836800  0.90983600  0.34135800  1
  C  C13  1  0.83522300  0.30442300  0.17343000  1
  C  C14  1  0.92813200  0.12821800  0.03128900  1
  C  C15  1  0.44836800  0.09016400  0.65864200  1
  C  C16  1  0.33522300  0.69557700  0.82657000  1
  C  C17  1  0.47854600  0.71672100  0.54281000  1
  C  C18  1  0.86681700  0.07202100  0.46243900  1
  C  C19  1  0.42813200  0.87178200  0.96871100  1
  O  O20  1  0.63434400  0.94007800  0.64215800  1
  O  O21  1  0.45217800  0.23685700  0.61980800  1
  O  O22  1  0.27379800  0.64016800  0.86931600  1
  O  O23  1  0.13434400  0.05992200  0.35784200  1
  O  O24  1  0.32160500  0.97682200  0.42846000  1
  O  O25  1  0.41473000  0.90010000  0.08911000  1
  O  O26  1  0.77379800  0.35983200  0.13068400  1
  O  O27  1  0.99632000  0.33830700  0.55825500  1
  O  O28  1  0.95217800  0.76314300  0.38019200  1
  O  O29  1  0.91473000  0.09990000  0.91089000  1
  O  O30  1  0.49632000  0.66169300  0.44174500  1
  O  O31  1  0.82160500  0.02317800  0.57154000  1
  F  F32  1  0.78717900  0.70063600  0.55530800  1
  F  F33  1  0.14229500  0.04234000  0.72230000  1
  F  F34  1  0.28179400  0.63798300  0.21504100  1
  F  F35  1  0.38979400  0.34068400  0.01653000  1
  F  F36  1  0.45461300  0.48631900  0.21982800  1
  F  F37  1  0.32242800  0.55635800  0.55381900  1
  F  F38  1  0.64426700  0.56066400  0.66103900  1
  F  F39  1  0.50232800  0.58158200  0.89286600  1
  F  F40  1  0.67979600  0.07588100  0.92697300  1
  F  F41  1  0.09940500  0.61325600  0.84800600  1
  F  F42  1  0.02980500  0.76051300  0.05082800  1
  F  F43  1  0.68941600  0.63574000  0.32798000  1
  F  F44  1  0.82242800  0.44364200  0.44618100  1
  F  F45  1  0.28717900  0.29936400  0.44469200  1
  F  F46  1  0.59940500  0.38674400  0.15199400  1
  F  F47  1  0.28959200  0.08393400  0.81922900  1
  F  F48  1  0.14426700  0.43933600  0.33896100  1
  F  F49  1  0.18941600  0.36426000  0.67202000  1
  F  F50  1  0.52980500  0.23948700  0.94917200  1
  F  F51  1  0.00232800  0.41841800  0.10713400  1
  F  F52  1  0.17979600  0.92411900  0.07302700  1
  F  F53  1  0.88979400  0.65931600  0.98347000  1
  F  F54  1  0.78179400  0.36201700  0.78495900  1
  F  F55  1  0.64229500  0.95766000  0.27770000  1
  F  F56  1  0.72933500  0.73986600  0.99366100  1
  F  F57  1  0.67906400  0.30807300  0.54326900  1
  F  F58  1  0.08208800  0.20156400  0.92347900  1
  F  F59  1  0.17906400  0.69192700  0.45673100  1
  F  F60  1  0.78959200  0.91606600  0.18077100  1
  F  F61  1  0.48279800  0.13665200  0.29288800  1
  F  F62  1  0.98279800  0.86334800  0.70711200  1
  F  F63  1  0.58208800  0.79843600  0.07652100  1
  F  F64  1  0.95461300  0.51368100  0.78017200  1
  F  F65  1  0.22933500  0.26013400  0.00633900  1
