# generated using pymatgen
data_SiO2
_symmetry_space_group_name_H-M   'P 1'
_cell_length_a   5.08437100
_cell_length_b   5.08437100
_cell_length_c   7.09779800
_cell_angle_alpha   90.00000000
_cell_angle_beta   90.00000000
_cell_angle_gamma   90.00000000
_symmetry_Int_Tables_number   1
_chemical_formula_structural   SiO2
_chemical_formula_sum   'Si4 O8'
_cell_volume   183.48395858
_cell_formula_units_Z   4
loop_
 _symmetry_equiv_pos_site_id
 _symmetry_equiv_pos_as_xyz
  1  'x, y, z'
loop_
 _atom_site_type_symbol
 _atom_site_label
 _atom_site_symmetry_multiplicity
 _atom_site_fract_x
 _atom_site_fract_y
 _atom_site_fract_z
 _atom_site_occupancy
  Si  Si0  1  0.20550000  0.20550000  0.00000000  1
  Si  Si1  1  0.29450000  0.70550000  0.75000000  1
  Si  Si2  1  0.70550000  0.29450000  0.25000000  1
  Si  Si3  1  0.79450000  0.79450000  0.50000000  1
  O  O4  1  0.59420700  0.74100500  0.67440600  1
  O  O5  1  0.40579300  0.25899500  0.17440600  1
  O  O6  1  0.74100500  0.59420700  0.32559400  1
  O  O7  1  0.24100500  0.90579300  0.92440600  1
  O  O8  1  0.25899500  0.40579300  0.82559400  1
  O  O9  1  0.09420700  0.75899500  0.57559400  1
  O  O10  1  0.90579300  0.24100500  0.07559400  1
  O  O11  1  0.75899500  0.09420700  0.42440600  1
