# generated using pymatgen
data_Nd5(Mo16O27)2
_symmetry_space_group_name_H-M   'P 1'
_cell_length_a   9.39951731
_cell_length_b   11.16677484
_cell_length_c   24.84724415
_cell_angle_alpha   100.47656351
_cell_angle_beta   90.00000000
_cell_angle_gamma   90.00000000
_symmetry_Int_Tables_number   1
_chemical_formula_structural   Nd5(Mo16O27)2
_chemical_formula_sum   'Nd10 Mo64 O108'
_cell_volume   2564.54632575
_cell_formula_units_Z   2
loop_
 _symmetry_equiv_pos_site_id
 _symmetry_equiv_pos_as_xyz
  1  'x, y, z'
loop_
 _atom_site_type_symbol
 _atom_site_label
 _atom_site_symmetry_multiplicity
 _atom_site_fract_x
 _atom_site_fract_y
 _atom_site_fract_z
 _atom_site_occupancy
  Nd  Nd0  1  0.51185420  0.86295615  0.40370782  1
  Nd  Nd1  1  0.95568552  0.97978425  0.18396679  1
  Nd  Nd2  1  0.45568552  0.52021575  0.31603321  1
  Nd  Nd3  1  0.98814580  0.36295615  0.90370782  1
  Nd  Nd4  1  0.54431448  0.47978425  0.68396679  1
  Nd  Nd5  1  0.48814580  0.13704385  0.59629218  1
  Nd  Nd6  1  0.04431448  0.02021575  0.81603321  1
  Nd  Nd7  1  0.50000000  0.00000000  0.00000000  1
  Nd  Nd8  1  0.01185420  0.63704385  0.09629218  1
  Nd  Nd9  1  0.00000000  0.50000000  0.50000000  1
  Mo  Mo10  1  0.86153626  0.53546180  0.20188852  1
  Mo  Mo11  1  0.13491448  0.23111272  0.32350163  1
  Mo  Mo12  1  0.62332208  0.98258530  0.14118646  1
  Mo  Mo13  1  0.36072115  0.65199486  0.47907763  1
  Mo  Mo14  1  0.13802662  0.39546510  0.23062040  1
  Mo  Mo15  1  0.14750889  0.62845736  0.69965306  1
  Mo  Mo16  1  0.12332208  0.51741470  0.35881354  1
  Mo  Mo17  1  0.64583090  0.69644421  0.11388146  1
  Mo  Mo18  1  0.87667792  0.48258530  0.64118646  1
  Mo  Mo19  1  0.37728352  0.78001616  0.60693284  1
  Mo  Mo20  1  0.65298848  0.16156263  0.82812829  1
  Mo  Mo21  1  0.34718139  0.36508013  0.44719967  1
  Mo  Mo22  1  0.85759289  0.01229857  0.92457234  1
  Mo  Mo23  1  0.14905126  0.08595761  0.42239884  1
  Mo  Mo24  1  0.85249111  0.37154264  0.30034694  1
  Mo  Mo25  1  0.63743917  0.81434293  0.24280483  1
  Mo  Mo26  1  0.87728352  0.71998384  0.89306716  1
  Mo  Mo27  1  0.87774567  0.96040437  0.35534395  1
  Mo  Mo28  1  0.35416910  0.30355579  0.88611854  1
  Mo  Mo29  1  0.13846374  0.46453820  0.79811148  1
  Mo  Mo30  1  0.62225433  0.46040437  0.85534395  1
  Mo  Mo31  1  0.35094874  0.58595761  0.92239884  1
  Mo  Mo32  1  0.86508552  0.76888728  0.67649837  1
  Mo  Mo33  1  0.63491448  0.26888728  0.17649837  1
  Mo  Mo34  1  0.64790928  0.57859776  0.98549606  1
  Mo  Mo35  1  0.62271648  0.21998384  0.39306716  1
  Mo  Mo36  1  0.86197338  0.60453490  0.76937960  1
  Mo  Mo37  1  0.37774567  0.53959563  0.14465605  1
  Mo  Mo38  1  0.63927885  0.34800514  0.52092237  1
  Mo  Mo39  1  0.86072115  0.84800514  0.02092237  1
  Mo  Mo40  1  0.86256083  0.31434293  0.74280483  1
  Mo  Mo41  1  0.85209072  0.07859776  0.48549606  1
  Mo  Mo42  1  0.86297014  0.78499047  0.45545789  1
  Mo  Mo43  1  0.65281861  0.63491987  0.55280033  1
  Mo  Mo44  1  0.14240711  0.98770143  0.07542766  1
  Mo  Mo45  1  0.64240711  0.51229857  0.42457234  1
  Mo  Mo46  1  0.36153626  0.96453820  0.29811148  1
  Mo  Mo47  1  0.34701152  0.83843737  0.17187171  1
  Mo  Mo48  1  0.35209072  0.42140224  0.01450394  1
  Mo  Mo49  1  0.85416910  0.19644421  0.61388146  1
  Mo  Mo50  1  0.85094874  0.91404239  0.57760116  1
  Mo  Mo51  1  0.84701152  0.66156263  0.32812829  1
  Mo  Mo52  1  0.14790928  0.92140224  0.51450394  1
  Mo  Mo53  1  0.36508552  0.73111272  0.82350163  1
  Mo  Mo54  1  0.36297014  0.71500953  0.04454211  1
  Mo  Mo55  1  0.12271648  0.28001616  0.10693284  1
  Mo  Mo56  1  0.36197338  0.89546510  0.73062040  1
  Mo  Mo57  1  0.15281861  0.86508013  0.94719967  1
  Mo  Mo58  1  0.13927885  0.15199486  0.97907763  1
  Mo  Mo59  1  0.12225433  0.03959563  0.64465605  1
  Mo  Mo60  1  0.63702986  0.28499047  0.95545789  1
  Mo  Mo61  1  0.63846374  0.03546180  0.70188852  1
  Mo  Mo62  1  0.35759289  0.48770143  0.57542766  1
  Mo  Mo63  1  0.14583090  0.80355579  0.38611854  1
  Mo  Mo64  1  0.64905126  0.41404239  0.07760116  1
  Mo  Mo65  1  0.35249111  0.12845736  0.19965306  1
  Mo  Mo66  1  0.63802662  0.10453490  0.26937960  1
  Mo  Mo67  1  0.37667792  0.01741470  0.85881354  1
  Mo  Mo68  1  0.13743917  0.68565707  0.25719517  1
  Mo  Mo69  1  0.13702986  0.21500953  0.54454211  1
  Mo  Mo70  1  0.84718139  0.13491987  0.05280033  1
  Mo  Mo71  1  0.15298848  0.33843737  0.67187171  1
  Mo  Mo72  1  0.36256083  0.18565707  0.75719517  1
  Mo  Mo73  1  0.64750889  0.87154264  0.80034694  1
  O  O74  1  0.25345558  0.93218072  0.59031458  1
  O  O75  1  0.25013486  0.15994455  0.83283109  1
  O  O76  1  0.00406524  0.26273271  0.03766544  1
  O  O77  1  0.49504981  0.38281962  0.38211295  1
  O  O78  1  -0.00063443  0.67845562  0.18878156  1
  O  O79  1  0.24806809  0.88859757  0.80582952  1
  O  O80  1  0.97559985  0.91775145  0.65042793  1
  O  O81  1  0.28492701  0.94751989  0.37597195  1
  O  O82  1  0.49888851  0.13287066  0.13425780  1
  O  O83  1  0.51330505  0.24393489  0.24222485  1
  O  O84  1  0.99593476  0.73726729  0.96233456  1
  O  O85  1  0.73346384  0.65551842  0.25553896  1
  O  O86  1  0.00111149  0.63287066  0.63425780  1
  O  O87  1  0.75927017  0.76980855  0.60652912  1
  O  O88  1  0.74806809  0.61140243  0.69417048  1
  O  O89  1  0.74986514  0.84005545  0.16716891  1
  O  O90  1  0.77907418  0.68954087  0.04332247  1
  O  O91  1  0.00063443  0.32154438  0.81121844  1
  O  O92  1  0.48419687  0.91248121  0.65898969  1
  O  O93  1  0.99907064  0.80604597  0.31839573  1
  O  O94  1  0.50495019  0.61718038  0.61788705  1
  O  O95  1  0.49936557  0.82154438  0.31121844  1
  O  O96  1  0.25687457  0.64402231  0.55515547  1
  O  O97  1  0.24072983  0.23019145  0.39347088  1
  O  O98  1  0.28502914  0.48459036  0.65679075  1
  O  O99  1  0.24654442  0.43218072  0.09031458  1
  O  O100  1  0.21497086  0.98459036  0.15679075  1
  O  O101  1  0.79250583  0.48312283  0.56142517  1
  O  O102  1  0.50111149  0.86712934  0.86574220  1
  O  O103  1  0.74879471  0.39184465  0.22678439  1
  O  O104  1  0.52440015  0.41775145  0.15042793  1
  O  O105  1  0.75377744  0.81330864  0.37956634  1
  O  O106  1  0.77836217  0.95681950  0.27956113  1
  O  O107  1  0.24622256  0.18669136  0.62043366  1
  O  O108  1  0.25377744  0.68669136  0.12043366  1
  O  O109  1  0.27836217  0.54318050  0.22043887  1
  O  O110  1  0.00495019  0.88281962  0.88211295  1
  O  O111  1  0.72163783  0.45681950  0.77956113  1
  O  O112  1  0.74622256  0.31330864  0.87956634  1
  O  O113  1  0.21281464  0.37688370  0.52044135  1
  O  O114  1  0.50406524  0.23726729  0.46233456  1
  O  O115  1  0.75687457  0.85597769  0.94484453  1
  O  O116  1  0.28718536  0.87688370  0.02044135  1
  O  O117  1  0.25120529  0.60815535  0.77321561  1
  O  O118  1  0.00092936  0.19395403  0.68160427  1
  O  O119  1  0.50063443  0.17845562  0.68878156  1
  O  O120  1  0.22092582  0.31045913  0.95667753  1
  O  O121  1  0.21507299  0.44751989  0.87597195  1
  O  O122  1  0.49164978  0.70883710  0.97501076  1
  O  O123  1  0.48669495  0.75606511  0.75777515  1
  O  O124  1  0.72092582  0.18954087  0.54332247  1
  O  O125  1  0.49907064  0.69395403  0.18160427  1
  O  O126  1  0.24785359  0.27010449  0.17329227  1
  O  O127  1  -0.00495019  0.11718038  0.11788705  1
  O  O128  1  0.00500434  0.15079306  0.90564536  1
  O  O129  1  0.00798039  0.33608666  0.60247205  1
  O  O130  1  0.01330505  0.25606511  0.25777515  1
  O  O131  1  0.98669495  0.74393489  0.74222485  1
  O  O132  1  0.27907418  0.81045913  0.45667753  1
  O  O133  1  0.01580313  0.41248121  0.15898969  1
  O  O134  1  0.22163783  0.04318050  0.72043887  1
  O  O135  1  0.24986514  0.65994455  0.33283109  1
  O  O136  1  0.76653616  0.15551842  0.75553896  1
  O  O137  1  0.71507299  0.05248011  0.62402805  1
  O  O138  1  -0.00835022  0.79116290  0.52498924  1
  O  O139  1  0.78492701  0.55248011  0.12402805  1
  O  O140  1  0.50500434  0.34920694  0.59435464  1
  O  O141  1  0.23346384  0.84448158  0.24446104  1
  O  O142  1  0.73906968  0.92382762  0.50230210  1
  O  O143  1  0.71497086  0.51540964  0.34320925  1
  O  O144  1  0.75214641  0.72989551  0.82670773  1
  O  O145  1  0.74072983  0.26980855  0.10652912  1
  O  O146  1  0.25927017  0.73019145  0.89347088  1
  O  O147  1  0.75345558  0.56781928  0.90968542  1
  O  O148  1  0.02440015  0.08224855  0.34957207  1
  O  O149  1  0.75193191  0.11140243  0.19417048  1
  O  O150  1  0.99499566  0.84920694  0.09435464  1
  O  O151  1  0.74785359  0.22989551  0.32670773  1
  O  O152  1  0.74654442  0.06781928  0.40968542  1
  O  O153  1  0.00835022  0.20883710  0.47501076  1
  O  O154  1  0.50835022  0.29116290  0.02498924  1
  O  O155  1  0.78502914  0.01540964  0.84320925  1
  O  O156  1  0.26093032  0.07617238  0.49769790  1
  O  O157  1  -0.00111149  0.36712934  0.36574220  1
  O  O158  1  0.47559985  0.58224855  0.84957207  1
  O  O159  1  0.24879471  0.10815535  0.27321561  1
  O  O160  1  0.99201961  0.66391334  0.39752795  1
  O  O161  1  0.51580313  0.08751879  0.34101031  1
  O  O162  1  0.29250583  0.01687717  0.93857483  1
  O  O163  1  0.20749417  0.51687717  0.43857483  1
  O  O164  1  0.24312543  0.14402231  0.05515547  1
  O  O165  1  0.76093032  0.42382762  0.00230210  1
  O  O166  1  0.75013486  0.34005545  0.66716891  1
  O  O167  1  0.49593476  0.76273271  0.53766544  1
  O  O168  1  0.98419687  0.58751879  0.84101031  1
  O  O169  1  0.49201961  0.83608666  0.10247205  1
  O  O170  1  0.23906968  0.57617238  0.99769790  1
  O  O171  1  0.50092936  0.30604597  0.81839573  1
  O  O172  1  0.74312543  0.35597769  0.44484453  1
  O  O173  1  0.75120529  0.89184465  0.72678439  1
  O  O174  1  0.49499566  0.65079306  0.40564536  1
  O  O175  1  0.26653616  0.34448158  0.74446104  1
  O  O176  1  0.71281464  0.12311630  0.97955865  1
  O  O177  1  0.50798039  0.16391334  0.89752795  1
  O  O178  1  0.70749417  0.98312283  0.06142517  1
  O  O179  1  0.25193191  0.38859757  0.30582952  1
  O  O180  1  0.25214641  0.77010449  0.67329227  1
  O  O181  1  0.78718536  0.62311630  0.47955865  1
