# generated using pymatgen
data_Ba3CuP2Br3O7
_symmetry_space_group_name_H-M   'P 1'
_cell_length_a   7.10247400
_cell_length_b   10.42469836
_cell_length_c   10.54512238
_cell_angle_alpha   118.29840197
_cell_angle_beta   90.37166289
_cell_angle_gamma   90.56750948
_symmetry_Int_Tables_number   1
_chemical_formula_structural   Ba3CuP2Br3O7
_chemical_formula_sum   'Ba6 Cu2 P4 Br6 O14'
_cell_volume   687.37408207
_cell_formula_units_Z   2
loop_
 _symmetry_equiv_pos_site_id
 _symmetry_equiv_pos_as_xyz
  1  'x, y, z'
loop_
 _atom_site_type_symbol
 _atom_site_label
 _atom_site_symmetry_multiplicity
 _atom_site_fract_x
 _atom_site_fract_y
 _atom_site_fract_z
 _atom_site_occupancy
  Ba  Ba0  1  0.75524300  0.60400200  0.93247100  1
  Ba  Ba1  1  0.75761100  0.06331900  0.67314400  1
  Ba  Ba2  1  0.25226300  0.64404000  0.60995200  1
  Ba  Ba3  1  0.73684000  0.33265300  0.39249900  1
  Ba  Ba4  1  0.25768600  0.98437700  0.37613800  1
  Ba  Ba5  1  0.23638600  0.36959900  0.01202600  1
  Cu  Cu6  1  0.25044100  0.00133700  0.00440000  1
  Cu  Cu7  1  0.74650200  0.99331300  0.99023200  1
  P  P8  1  0.02701900  0.31746900  0.64328100  1
  P  P9  1  0.47106800  0.33424200  0.67423300  1
  P  P10  1  0.91081200  0.69248600  0.37287400  1
  P  P11  1  0.59164700  0.68955100  0.36631900  1
  Br  Br12  1  0.25435900  0.01823300  0.78411300  1
  Br  Br13  1  0.24634200  0.76243200  0.97824200  1
  Br  Br14  1  0.74807300  0.79253300  0.75488900  1
  Br  Br15  1  0.25091300  0.21613700  0.23332000  1
  Br  Br16  1  0.73958500  0.23636400  0.02905100  1
  Br  Br17  1  0.74041800  0.96604300  0.19980200  1
  O  O18  1  0.96102200  0.33981200  0.79156900  1
  O  O19  1  0.24431200  0.27559800  0.62774500  1
  O  O20  1  0.55201900  0.18998300  0.54971000  1
  O  O21  1  0.94500200  0.17835800  0.51649400  1
  O  O22  1  0.49488200  0.45865800  0.63070300  1
  O  O23  1  0.99582600  0.45445600  0.62584700  1
  O  O24  1  0.52469800  0.56152100  0.38722300  1
  O  O25  1  0.97219700  0.56262900  0.39064000  1
  O  O26  1  0.52407100  0.84039800  0.47501700  1
  O  O27  1  0.97928700  0.84301600  0.48610100  1
  O  O28  1  0.00001400  0.69448100  0.23204300  1
  O  O29  1  0.50899500  0.68505200  0.21992900  1
  O  O30  1  0.97307600  0.55427200  0.10001800  1
  O  O31  1  0.52539100  0.54163700  0.08897300  1
