# generated using pymatgen
data_K4Ti2H2O5F8
_symmetry_space_group_name_H-M   'P 1'
_cell_length_a   9.29117343
_cell_length_b   9.29117343
_cell_length_c   12.59588411
_cell_angle_alpha   63.32122186
_cell_angle_beta   63.32122186
_cell_angle_gamma   41.67257981
_symmetry_Int_Tables_number   1
_chemical_formula_structural   K4Ti2H2O5F8
_chemical_formula_sum   'K8 Ti4 H4 O10 F16'
_cell_volume   634.06070626
_cell_formula_units_Z   2
loop_
 _symmetry_equiv_pos_site_id
 _symmetry_equiv_pos_as_xyz
  1  'x, y, z'
loop_
 _atom_site_type_symbol
 _atom_site_label
 _atom_site_symmetry_multiplicity
 _atom_site_fract_x
 _atom_site_fract_y
 _atom_site_fract_z
 _atom_site_occupancy
  K  K0  1  0.95632800  0.40973400  0.17115300  1
  K  K1  1  0.59026600  0.04367200  0.32884700  1
  K  K2  1  0.04367200  0.59026600  0.82884700  1
  K  K3  1  0.40973400  0.95632800  0.67115300  1
  K  K4  1  0.82487400  0.31478100  0.86441900  1
  K  K5  1  0.68521900  0.17512600  0.63558100  1
  K  K6  1  0.17512600  0.68521900  0.13558100  1
  K  K7  1  0.31478100  0.82487400  0.36441900  1
  Ti  Ti8  1  0.00066500  0.65926300  0.53194200  1
  Ti  Ti9  1  0.34073700  0.99933500  0.96805800  1
  Ti  Ti10  1  0.99933500  0.34073700  0.46805800  1
  Ti  Ti11  1  0.65926300  0.00066500  0.03194200  1
  H  H12  1  0.45727100  0.59577200  0.67990200  1
  H  H13  1  0.40422800  0.54272900  0.82009800  1
  H  H14  1  0.54272900  0.40422800  0.32009800  1
  H  H15  1  0.59577200  0.45727100  0.17990200  1
  O  O16  1  0.52868900  0.25935400  0.07220400  1
  O  O17  1  0.74064600  0.47131100  0.42779600  1
  O  O18  1  0.47131100  0.74064600  0.92779600  1
  O  O19  1  0.25935400  0.52868900  0.57220400  1
  O  O20  1  0.76473400  0.07683200  0.07615800  1
  O  O21  1  0.92316800  0.23526600  0.42384200  1
  O  O22  1  0.23526600  0.92316800  0.92384200  1
  O  O23  1  0.07683200  0.76473400  0.57615800  1
  O  O24  1  0.34206100  0.65793900  0.75000000  1
  O  O25  1  0.65793900  0.34206100  0.25000000  1
  F  F26  1  0.71843600  0.09467400  0.86184500  1
  F  F27  1  0.90532600  0.28156400  0.63815500  1
  F  F28  1  0.28156400  0.90532600  0.13815500  1
  F  F29  1  0.09467400  0.71843600  0.36184500  1
  F  F30  1  0.96774100  0.71806300  0.02195700  1
  F  F31  1  0.28193700  0.03225900  0.47804300  1
  F  F32  1  0.03225900  0.28193700  0.97804300  1
  F  F33  1  0.71806300  0.96774100  0.52195700  1
  F  F34  1  0.59896400  0.87360600  0.19379500  1
  F  F35  1  0.12639400  0.40103600  0.30620500  1
  F  F36  1  0.40103600  0.12639400  0.80620500  1
  F  F37  1  0.87360600  0.59896400  0.69379500  1
  F  F38  1  0.34601900  0.19192500  0.01467200  1
  F  F39  1  0.80807500  0.65398100  0.48532800  1
  F  F40  1  0.65398100  0.80807500  0.98532800  1
  F  F41  1  0.19192500  0.34601900  0.51467200  1
