# generated using pymatgen
data_CdH8(NO5)2
_symmetry_space_group_name_H-M   'P 1'
_cell_length_a   5.90895100
_cell_length_b   6.32205192
_cell_length_c   13.29029221
_cell_angle_alpha   84.00774738
_cell_angle_beta   77.16475924
_cell_angle_gamma   62.22023838
_symmetry_Int_Tables_number   1
_chemical_formula_structural   CdH8(NO5)2
_chemical_formula_sum   'Cd2 H16 N4 O20'
_cell_volume   428.28372027
_cell_formula_units_Z   2
loop_
 _symmetry_equiv_pos_site_id
 _symmetry_equiv_pos_as_xyz
  1  'x, y, z'
loop_
 _atom_site_type_symbol
 _atom_site_label
 _atom_site_symmetry_multiplicity
 _atom_site_fract_x
 _atom_site_fract_y
 _atom_site_fract_z
 _atom_site_occupancy
  Cd  Cd0  1  0.24608500  0.51221000  0.49949400  1
  Cd  Cd1  1  0.99910400  0.00788900  0.00058800  1
  H  H2  1  0.98971500  0.38316600  0.11416100  1
  H  H3  1  0.62294200  0.37739000  0.88602700  1
  H  H4  1  0.75635700  0.87632100  0.61517000  1
  H  H5  1  0.35739800  0.88553400  0.38585200  1
  H  H6  1  0.05779800  0.43720900  0.99586700  1
  H  H7  1  0.50357200  0.43855000  0.00433600  1
  H  H8  1  0.75684500  0.94278900  0.49698200  1
  H  H9  1  0.30034500  0.94408000  0.50423700  1
  H  H10  1  0.63116000  0.18661300  0.33054000  1
  H  H11  1  0.18071000  0.18653000  0.66829400  1
  H  H12  1  0.10686600  0.68133100  0.83137700  1
  H  H13  1  0.21918600  0.68133300  0.17036400  1
  H  H14  1  0.76925500  0.26624100  0.39626800  1
  H  H15  1  0.96743400  0.26528300  0.60015000  1
  H  H16  1  0.82332800  0.76302300  0.89646200  1
  H  H17  1  0.41914500  0.76272400  0.10244800  1
  N  N18  1  0.01905300  0.49306400  0.32021000  1
  N  N19  1  0.49190200  0.49278700  0.67840400  1
  N  N20  1  0.41981600  0.99249900  0.82062500  1
  N  N21  1  0.59104300  0.99093100  0.17934500  1
  O  O22  1  0.00716900  0.37482000  0.40347900  1
  O  O23  1  0.62192000  0.37450300  0.59503400  1
  O  O24  1  0.46185200  0.87706300  0.90500500  1
  O  O25  1  0.66121600  0.87208600  0.09653800  1
  O  O26  1  0.15108100  0.60922500  0.30939200  1
  O  O27  1  0.24529900  0.61276000  0.68840900  1
  O  O28  1  0.18385500  0.11388800  0.80908300  1
  O  O29  1  0.71067600  0.10948400  0.18887000  1
  O  O30  1  0.90134400  0.49597000  0.25217000  1
  O  O31  1  0.60713700  0.49090900  0.74742200  1
  O  O32  1  0.60663700  0.98686900  0.75266600  1
  O  O33  1  0.40779100  0.99239000  0.24847500  1
  O  O34  1  0.08087900  0.30681800  0.04658000  1
  O  O35  1  0.61650800  0.30608600  0.95511200  1
  O  O36  1  0.81906000  0.80838200  0.54543600  1
  O  O37  1  0.37155900  0.81225600  0.45438700  1
  O  O38  1  0.63596200  0.20928700  0.40266900  1
  O  O39  1  0.15693900  0.20958000  0.59562200  1
  O  O40  1  0.00638100  0.70538500  0.90341000  1
  O  O41  1  0.29253900  0.70426100  0.09748000  1
