# generated using pymatgen
data_VBi(PbO3)2
_symmetry_space_group_name_H-M   'P 1'
_cell_length_a   5.83773700
_cell_length_b   7.88814200
_cell_length_c   30.49561572
_cell_angle_alpha   79.98423943
_cell_angle_beta   90.00000000
_cell_angle_gamma   90.00000000
_symmetry_Int_Tables_number   1
_chemical_formula_structural   VBi(PbO3)2
_chemical_formula_sum   'V8 Bi8 Pb16 O48'
_cell_volume   1382.88806749
_cell_formula_units_Z   8
loop_
 _symmetry_equiv_pos_site_id
 _symmetry_equiv_pos_as_xyz
  1  'x, y, z'
loop_
 _atom_site_type_symbol
 _atom_site_label
 _atom_site_symmetry_multiplicity
 _atom_site_fract_x
 _atom_site_fract_y
 _atom_site_fract_z
 _atom_site_occupancy
  V  V0  1  0.50326400  0.48400200  0.35756000  1
  V  V1  1  0.02739100  0.16994300  0.00226000  1
  V  V2  1  0.49119100  0.42930900  0.09984900  1
  V  V3  1  0.95729800  0.11072000  0.74096000  1
  V  V4  1  0.04270200  0.11072000  0.24096000  1
  V  V5  1  0.50880900  0.42930900  0.59984900  1
  V  V6  1  0.49673600  0.48400200  0.85756000  1
  V  V7  1  0.97260900  0.16994300  0.50226000  1
  Bi  Bi8  1  0.00214200  0.66023500  0.65814100  1
  Bi  Bi9  1  0.48595200  0.93816300  0.44092000  1
  Bi  Bi10  1  0.99785800  0.66023500  0.15814100  1
  Bi  Bi11  1  0.49616800  0.86889500  0.69981600  1
  Bi  Bi12  1  0.98504700  0.72303700  0.40258200  1
  Bi  Bi13  1  0.50383200  0.86889500  0.19981600  1
  Bi  Bi14  1  0.51404800  0.93816300  0.94092000  1
  Bi  Bi15  1  0.01495300  0.72303700  0.90258200  1
  Pb  Pb16  1  0.49953400  0.94640300  0.07596100  1
  Pb  Pb17  1  0.45552700  0.45868300  0.47231600  1
  Pb  Pb18  1  0.04733400  0.61161300  0.27740700  1
  Pb  Pb19  1  0.54308600  0.37920700  0.22551800  1
  Pb  Pb20  1  0.95266600  0.61161300  0.77740700  1
  Pb  Pb21  1  0.99239200  0.13710400  0.12844400  1
  Pb  Pb22  1  0.50046600  0.94640300  0.57596100  1
  Pb  Pb23  1  0.48683400  0.98775300  0.82097400  1
  Pb  Pb24  1  0.02388000  0.21324000  0.37497300  1
  Pb  Pb25  1  0.51316600  0.98775300  0.32097400  1
  Pb  Pb26  1  0.01228500  0.65689900  0.02496400  1
  Pb  Pb27  1  0.97612000  0.21324000  0.87497300  1
  Pb  Pb28  1  0.54447300  0.45868300  0.97231600  1
  Pb  Pb29  1  0.98771500  0.65689900  0.52496400  1
  Pb  Pb30  1  0.45691400  0.37920700  0.72551800  1
  Pb  Pb31  1  0.00760800  0.13710400  0.62844400  1
  O  O32  1  0.31816900  0.12597600  0.00047200  1
  O  O33  1  0.22525600  0.71934300  0.46039300  1
  O  O34  1  0.00081200  0.25196100  0.27738200  1
  O  O35  1  0.72909500  0.61207200  0.71443400  1
  O  O36  1  0.01159400  0.39159700  0.50155800  1
  O  O37  1  0.35995400  0.45822600  0.64832300  1
  O  O38  1  0.74512700  0.44479400  0.39191700  1
  O  O39  1  0.98840600  0.39159700  0.00155800  1
  O  O40  1  0.72025400  0.70660700  0.45889800  1
  O  O41  1  0.26998400  0.48408700  0.39495700  1
  O  O42  1  0.79037000  0.09441600  0.21052100  1
  O  O43  1  0.85948500  0.90811800  0.76798400  1
  O  O44  1  0.24645700  0.97068500  0.88423100  1
  O  O45  1  0.25487300  0.44479400  0.89191700  1
  O  O46  1  0.99918800  0.25196100  0.77738200  1
  O  O47  1  0.68183100  0.12597600  0.50047200  1
  O  O48  1  0.37167400  0.54206400  0.55254400  1
  O  O49  1  0.53487700  0.20983800  0.59743200  1
  O  O50  1  0.26726600  0.93996300  0.37977100  1
  O  O51  1  0.77179200  0.89185200  0.64291200  1
  O  O52  1  0.45793500  0.31753800  0.32842600  1
  O  O53  1  0.20963000  0.09441600  0.71052100  1
  O  O54  1  0.54206500  0.31753800  0.82842600  1
  O  O55  1  0.73273400  0.93996300  0.87977100  1
  O  O56  1  0.78367100  0.51287400  0.60086800  1
  O  O57  1  0.77474400  0.71934300  0.96039300  1
  O  O58  1  0.46758400  0.68057300  0.82165100  1
  O  O59  1  0.91217600  0.04759500  0.05127500  1
  O  O60  1  0.27974600  0.70660700  0.95889800  1
  O  O61  1  0.10342400  0.11482500  0.45486900  1
  O  O62  1  0.22820800  0.89185200  0.14291200  1
  O  O63  1  0.27090500  0.61207200  0.21443400  1
  O  O64  1  0.08782400  0.04759500  0.55127500  1
  O  O65  1  0.72936500  0.88293800  0.14048600  1
  O  O66  1  0.62832600  0.54206400  0.05254400  1
  O  O67  1  0.73001600  0.48408700  0.89495700  1
  O  O68  1  0.89657600  0.11482500  0.95486900  1
  O  O69  1  0.25001900  0.18898800  0.20057100  1
  O  O70  1  0.46512300  0.20983800  0.09743200  1
  O  O71  1  0.21719300  0.65918500  0.72068600  1
  O  O72  1  0.27063500  0.88293800  0.64048600  1
  O  O73  1  0.53241600  0.68057300  0.32165100  1
  O  O74  1  0.75354300  0.97068500  0.38423100  1
  O  O75  1  0.21632900  0.51287400  0.10086800  1
  O  O76  1  0.14051500  0.90811800  0.26798400  1
  O  O77  1  0.78280700  0.65918500  0.22068600  1
  O  O78  1  0.74998100  0.18898800  0.70057100  1
  O  O79  1  0.64004600  0.45822600  0.14832300  1
