# generated using pymatgen
data_KMn2Zn3(Si2O5)6
_symmetry_space_group_name_H-M   'P 1'
_cell_length_a   10.32653060
_cell_length_b   10.32653060
_cell_length_c   14.37569400
_cell_angle_alpha   90.00000000
_cell_angle_beta   90.00000000
_cell_angle_gamma   120.00000381
_symmetry_Int_Tables_number   1
_chemical_formula_structural   KMn2Zn3(Si2O5)6
_chemical_formula_sum   'K2 Mn4 Zn6 Si24 O60'
_cell_volume   1327.60325038
_cell_formula_units_Z   2
loop_
 _symmetry_equiv_pos_site_id
 _symmetry_equiv_pos_as_xyz
  1  'x, y, z'
loop_
 _atom_site_type_symbol
 _atom_site_label
 _atom_site_symmetry_multiplicity
 _atom_site_fract_x
 _atom_site_fract_y
 _atom_site_fract_z
 _atom_site_occupancy
  K  K0  1  0.00000000  0.00000000  0.24717200  1
  K  K1  1  0.00000000  0.00000000  0.74717200  1
  Mn  Mn2  1  0.33333300  0.66666700  0.25037100  1
  Mn  Mn3  1  0.33333300  0.66666700  0.75037100  1
  Mn  Mn4  1  0.66666700  0.33333300  0.25037100  1
  Mn  Mn5  1  0.66666700  0.33333300  0.75037100  1
  Zn  Zn6  1  0.00000000  0.50000000  0.75063400  1
  Zn  Zn7  1  0.50000000  0.00000000  0.25063400  1
  Zn  Zn8  1  0.50000000  0.00000000  0.75063400  1
  Zn  Zn9  1  0.50000000  0.50000000  0.75063400  1
  Zn  Zn10  1  0.00000000  0.50000000  0.25063400  1
  Zn  Zn11  1  0.50000000  0.50000000  0.25063400  1
  Si  Si12  1  0.23526300  0.88713300  0.38925600  1
  Si  Si13  1  0.23529000  0.34809300  0.11192600  1
  Si  Si14  1  0.88713300  0.23526300  0.88925600  1
  Si  Si15  1  0.65187000  0.88713300  0.88925600  1
  Si  Si16  1  0.34813000  0.23526300  0.38925600  1
  Si  Si17  1  0.76471000  0.65190700  0.11192600  1
  Si  Si18  1  0.76473700  0.11286700  0.38925600  1
  Si  Si19  1  0.65190700  0.76471000  0.61192600  1
  Si  Si20  1  0.65190700  0.88719700  0.11192600  1
  Si  Si21  1  0.88719700  0.23529000  0.11192600  1
  Si  Si22  1  0.23529000  0.88719700  0.61192600  1
  Si  Si23  1  0.11286700  0.76473700  0.88925600  1
  Si  Si24  1  0.11286700  0.34813000  0.38925600  1
  Si  Si25  1  0.34813000  0.11286700  0.88925600  1
  Si  Si26  1  0.34809300  0.11280300  0.11192600  1
  Si  Si27  1  0.23526300  0.34813000  0.88925600  1
  Si  Si28  1  0.65187000  0.76473700  0.38925600  1
  Si  Si29  1  0.34809300  0.23529000  0.61192600  1
  Si  Si30  1  0.11280300  0.34809300  0.61192600  1
  Si  Si31  1  0.88719700  0.65190700  0.61192600  1
  Si  Si32  1  0.76473700  0.65187000  0.88925600  1
  Si  Si33  1  0.11280300  0.76471000  0.11192600  1
  Si  Si34  1  0.88713300  0.65187000  0.38925600  1
  Si  Si35  1  0.76471000  0.11280300  0.61192600  1
  O  O36  1  0.87742600  0.62158600  0.50059600  1
  O  O37  1  0.27640600  0.05834100  0.36096100  1
  O  O38  1  0.74416000  0.62158600  0.00059600  1
  O  O39  1  0.50244800  0.65774800  0.67123800  1
  O  O40  1  0.65796400  0.15558800  0.32981400  1
  O  O41  1  0.34203600  0.84441200  0.32981400  1
  O  O42  1  0.21781400  0.94168700  0.14040600  1
  O  O43  1  0.49755200  0.15530000  0.17123800  1
  O  O44  1  0.78218600  0.72387300  0.64040600  1
  O  O45  1  0.37841400  0.12257400  0.00059600  1
  O  O46  1  0.27640600  0.21806400  0.86096100  1
  O  O47  1  0.74416000  0.12257400  0.50059600  1
  O  O48  1  0.25584000  0.87742600  0.50059600  1
  O  O49  1  0.21781400  0.27612700  0.64040600  1
  O  O50  1  0.62158600  0.74416000  0.50059600  1
  O  O51  1  0.21806400  0.94165900  0.86096100  1
  O  O52  1  0.65774800  0.15530000  0.67123800  1
  O  O53  1  0.84470000  0.50244800  0.67123800  1
  O  O54  1  0.15558800  0.49762400  0.32981400  1
  O  O55  1  0.05831300  0.27612700  0.14040600  1
  O  O56  1  0.15530000  0.49755200  0.67123800  1
  O  O57  1  0.62158600  0.87742600  0.00059600  1
  O  O58  1  0.27612700  0.05831300  0.64040600  1
  O  O59  1  0.27612700  0.21781400  0.14040600  1
  O  O60  1  0.72387300  0.78218600  0.14040600  1
  O  O61  1  0.15530000  0.65774800  0.17123800  1
  O  O62  1  0.34225200  0.49755200  0.17123800  1
  O  O63  1  0.84470000  0.34225200  0.17123800  1
  O  O64  1  0.37841400  0.25584000  0.50059600  1
  O  O65  1  0.94165900  0.21806400  0.36096100  1
  O  O66  1  0.21806400  0.27640600  0.36096100  1
  O  O67  1  0.72359400  0.78193600  0.86096100  1
  O  O68  1  0.94168700  0.21781400  0.64040600  1
  O  O69  1  0.94165900  0.72359400  0.86096100  1
  O  O70  1  0.34203600  0.49762400  0.82981400  1
  O  O71  1  0.15558800  0.65796400  0.82981400  1
  O  O72  1  0.72359400  0.94165900  0.36096100  1
  O  O73  1  0.78218600  0.05831300  0.14040600  1
  O  O74  1  0.49762400  0.15558800  0.82981400  1
  O  O75  1  0.25584000  0.37841400  0.00059600  1
  O  O76  1  0.78193600  0.72359400  0.36096100  1
  O  O77  1  0.34225200  0.84470000  0.67123800  1
  O  O78  1  0.05834100  0.78193600  0.36096100  1
  O  O79  1  0.94168700  0.72387300  0.14040600  1
  O  O80  1  0.84441200  0.34203600  0.82981400  1
  O  O81  1  0.50244800  0.84470000  0.17123800  1
  O  O82  1  0.65774800  0.50244800  0.17123800  1
  O  O83  1  0.50237600  0.65796400  0.32981400  1
  O  O84  1  0.78193600  0.05834100  0.86096100  1
  O  O85  1  0.72387300  0.94168700  0.64040600  1
  O  O86  1  0.49755200  0.34225200  0.67123800  1
  O  O87  1  0.05831300  0.78218600  0.64040600  1
  O  O88  1  0.65796400  0.50237600  0.82981400  1
  O  O89  1  0.87742600  0.25584000  0.00059600  1
  O  O90  1  0.50237600  0.84441200  0.82981400  1
  O  O91  1  0.12257400  0.37841400  0.50059600  1
  O  O92  1  0.84441200  0.50237600  0.32981400  1
  O  O93  1  0.05834100  0.27640600  0.86096100  1
  O  O94  1  0.49762400  0.34203600  0.32981400  1
  O  O95  1  0.12257400  0.74416000  0.00059600  1
