# generated using pymatgen
data_Cd13I28
_symmetry_space_group_name_H-M   'P 1'
_cell_length_a   4.33877133
_cell_length_b   4.33877133
_cell_length_c   102.42968500
_cell_angle_alpha   90.00000000
_cell_angle_beta   90.00000000
_cell_angle_gamma   119.99998979
_symmetry_Int_Tables_number   1
_chemical_formula_structural   Cd13I28
_chemical_formula_sum   'Cd13 I28'
_cell_volume   1669.89835568
_cell_formula_units_Z   1
loop_
 _symmetry_equiv_pos_site_id
 _symmetry_equiv_pos_as_xyz
  1  'x, y, z'
loop_
 _atom_site_type_symbol
 _atom_site_label
 _atom_site_symmetry_multiplicity
 _atom_site_fract_x
 _atom_site_fract_y
 _atom_site_fract_z
 _atom_site_occupancy
  Cd  Cd0  1  0.33333300  0.66666700  0.01788200  1
  Cd  Cd1  1  0.00000000  0.00000000  0.08968700  1
  Cd  Cd2  1  0.00000000  0.00000000  0.23169200  1
  Cd  Cd3  1  0.33333300  0.66666700  0.30358600  1
  Cd  Cd4  1  0.00000000  0.00000000  0.37500100  1
  Cd  Cd5  1  0.33333300  0.66666700  0.44637200  1
  Cd  Cd6  1  0.00000000  0.00000000  0.51783600  1
  Cd  Cd7  1  0.33333300  0.66666700  0.58930500  1
  Cd  Cd8  1  0.00000000  0.00000000  0.66073700  1
  Cd  Cd9  1  0.33333300  0.66666700  0.73213300  1
  Cd  Cd10  1  0.00000000  0.00000000  0.80357900  1
  Cd  Cd11  1  0.33333300  0.66666700  0.87498300  1
  Cd  Cd12  1  0.33333300  0.66666700  0.94637500  1
  I  I13  1  0.00000000  0.00000000  0.00100700  1
  I  I14  1  0.66666700  0.33333300  0.03470100  1
  I  I15  1  0.33333300  0.66666700  0.07278000  1
  I  I16  1  0.66666700  0.33333300  0.10651000  1
  I  I17  1  0.00000000  0.00000000  0.14909900  1
  I  I18  1  0.66666700  0.33333300  0.17249500  1
  I  I19  1  0.33333300  0.66666700  0.21484000  1
  I  I20  1  0.66666700  0.33333300  0.24857700  1
  I  I21  1  0.00000000  0.00000000  0.28674200  1
  I  I22  1  0.66666700  0.33333300  0.32040600  1
  I  I23  1  0.33333300  0.66666700  0.35815400  1
  I  I24  1  0.66666700  0.33333300  0.39184000  1
  I  I25  1  0.00000000  0.00000000  0.42960800  1
  I  I26  1  0.66666700  0.33333300  0.46327200  1
  I  I27  1  0.33333300  0.66666700  0.50102100  1
  I  I28  1  0.66666700  0.33333300  0.53470200  1
  I  I29  1  0.00000000  0.00000000  0.57243900  1
  I  I30  1  0.66666700  0.33333300  0.60610600  1
  I  I31  1  0.33333300  0.66666700  0.64385100  1
  I  I32  1  0.66666700  0.33333300  0.67754000  1
  I  I33  1  0.00000000  0.00000000  0.71531000  1
  I  I34  1  0.66666700  0.33333300  0.74899200  1
  I  I35  1  0.33333300  0.66666700  0.78673400  1
  I  I36  1  0.66666700  0.33333300  0.82041700  1
  I  I37  1  0.00000000  0.00000000  0.85822200  1
  I  I38  1  0.66666700  0.33333300  0.89188600  1
  I  I39  1  0.00000000  0.00000000  0.92960700  1
  I  I40  1  0.66666700  0.33333300  0.96326500  1
