# generated using pymatgen
data_GeW2C10(BrO5)2
_symmetry_space_group_name_H-M   'P 1'
_cell_length_a   13.31912900
_cell_length_b   9.66663100
_cell_length_c   17.87001295
_cell_angle_alpha   59.63136897
_cell_angle_beta   90.00000000
_cell_angle_gamma   90.00000000
_symmetry_Int_Tables_number   1
_chemical_formula_structural   GeW2C10(BrO5)2
_chemical_formula_sum   'Ge4 W8 C40 Br8 O40'
_cell_volume   1985.09471261
_cell_formula_units_Z   4
loop_
 _symmetry_equiv_pos_site_id
 _symmetry_equiv_pos_as_xyz
  1  'x, y, z'
loop_
 _atom_site_type_symbol
 _atom_site_label
 _atom_site_symmetry_multiplicity
 _atom_site_fract_x
 _atom_site_fract_y
 _atom_site_fract_z
 _atom_site_occupancy
  Ge  Ge0  1  0.22841000  0.23295600  0.76880500  1
  Ge  Ge1  1  0.72841000  0.76704400  0.73119500  1
  Ge  Ge2  1  0.27159000  0.23295600  0.26880500  1
  Ge  Ge3  1  0.77159000  0.76704400  0.23119500  1
  W  W4  1  0.31293200  0.14660600  0.15162800  1
  W  W5  1  0.18706800  0.14660600  0.65162800  1
  W  W6  1  0.70284200  0.50980500  0.37321500  1
  W  W7  1  0.29715800  0.49019500  0.62678500  1
  W  W8  1  0.79715800  0.50980500  0.87321500  1
  W  W9  1  0.81293200  0.85339400  0.34837200  1
  W  W10  1  0.20284200  0.49019500  0.12678500  1
  W  W11  1  0.68706800  0.85339400  0.84837200  1
  C  C12  1  0.14279600  0.71562400  0.05926000  1
  C  C13  1  0.85720400  0.28437600  0.94074000  1
  C  C14  1  0.17708200  0.94802300  0.77535400  1
  C  C15  1  0.13954400  0.98143300  0.62049100  1
  C  C16  1  0.72981700  0.43692400  0.28354300  1
  C  C17  1  0.17302800  0.30708700  0.51704900  1
  C  C18  1  0.85266300  0.52895500  0.97734400  1
  C  C19  1  0.43492900  0.39277000  0.68455900  1
  C  C20  1  0.64733700  0.52895500  0.47734400  1
  C  C21  1  0.27018300  0.56307600  0.71645700  1
  C  C22  1  0.22981700  0.56307600  0.21645700  1
  C  C23  1  0.64279600  0.28437600  0.44074000  1
  C  C24  1  0.03990700  0.20963200  0.66109000  1
  C  C25  1  0.86045600  0.01856700  0.37950900  1
  C  C26  1  0.82697200  0.69291300  0.48295100  1
  C  C27  1  0.34322500  0.57827800  0.07020300  1
  C  C28  1  0.32291800  0.94802300  0.27535400  1
  C  C29  1  0.53990700  0.79036800  0.83891000  1
  C  C30  1  0.56507100  0.60723000  0.31544100  1
  C  C31  1  0.84322500  0.42172200  0.42979700  1
  C  C32  1  0.46009300  0.20963200  0.16109000  1
  C  C33  1  0.96009300  0.79036800  0.33891000  1
  C  C34  1  0.67708200  0.05197700  0.72464600  1
  C  C35  1  0.16327000  0.09375700  0.14285000  1
  C  C36  1  0.67302800  0.69291300  0.98295100  1
  C  C37  1  0.32697200  0.30708700  0.01704900  1
  C  C38  1  0.33673000  0.09375700  0.64285000  1
  C  C39  1  0.93492900  0.60723000  0.81544100  1
  C  C40  1  0.82291800  0.05197700  0.22464600  1
  C  C41  1  0.15677500  0.57827800  0.57020300  1
  C  C42  1  0.06507100  0.39277000  0.18455900  1
  C  C43  1  0.36045600  0.98143300  0.12049100  1
  C  C44  1  0.35720400  0.71562400  0.55926000  1
  C  C45  1  0.35266300  0.47104500  0.52265600  1
  C  C46  1  0.83673000  0.90624300  0.85715000  1
  C  C47  1  0.77018300  0.43692400  0.78354300  1
  C  C48  1  0.65677500  0.42172200  0.92979700  1
  C  C49  1  0.66327000  0.90624300  0.35715000  1
  C  C50  1  0.63954400  0.01856700  0.87950900  1
  C  C51  1  0.14733700  0.47104500  0.02265600  1
  Br  Br52  1  0.15704300  0.07806100  0.38044500  1
  Br  Br53  1  0.34295700  0.07806100  0.88044500  1
  Br  Br54  1  0.59416300  0.74806800  0.65300700  1
  Br  Br55  1  0.09416300  0.25193200  0.84699300  1
  Br  Br56  1  0.40583700  0.25193200  0.34699300  1
  Br  Br57  1  0.65704300  0.92193900  0.11955500  1
  Br  Br58  1  0.90583700  0.74806800  0.15300700  1
  Br  Br59  1  0.84295700  0.92193900  0.61955500  1
  O  O60  1  0.66856900  0.16980000  0.65837400  1
  O  O61  1  0.34217700  0.38874100  0.94358900  1
  O  O62  1  0.08012900  0.06289300  0.13837300  1
  O  O63  1  0.51221400  0.33953900  0.71548800  1
  O  O64  1  0.89065500  0.15613900  0.97768900  1
  O  O65  1  0.83143100  0.16980000  0.15837400  1
  O  O66  1  0.04228500  0.75588500  0.33442300  1
  O  O67  1  0.45771500  0.75588500  0.83442300  1
  O  O68  1  0.33143100  0.83020000  0.34162600  1
  O  O69  1  0.39065500  0.84386100  0.52231100  1
  O  O70  1  0.91987100  0.93710700  0.86162700  1
  O  O71  1  0.89337500  0.53294800  0.03357700  1
  O  O72  1  0.41987100  0.06289300  0.63837300  1
  O  O73  1  0.48778600  0.66046100  0.28451200  1
  O  O74  1  0.11377300  0.88571000  0.60363800  1
  O  O75  1  0.01221400  0.66046100  0.78451200  1
  O  O76  1  0.15782300  0.38874100  0.44358900  1
  O  O77  1  0.60934500  0.15613900  0.47768900  1
  O  O78  1  0.07915800  0.62884300  0.53871600  1
  O  O79  1  0.10662500  0.46705200  0.96642300  1
  O  O80  1  0.57915800  0.37115700  0.96128400  1
  O  O81  1  0.39337500  0.46705200  0.46642300  1
  O  O82  1  0.25819600  0.61678300  0.76101600  1
  O  O83  1  0.60662500  0.53294800  0.53357700  1
  O  O84  1  0.58012900  0.93710700  0.36162700  1
  O  O85  1  0.98778600  0.33953900  0.21548800  1
  O  O86  1  0.95771500  0.24411500  0.66557700  1
  O  O87  1  0.61377300  0.11429000  0.89636200  1
  O  O88  1  0.38622700  0.88571000  0.10363800  1
  O  O89  1  0.65782300  0.61125900  0.05641100  1
  O  O90  1  0.74180400  0.38321700  0.23898400  1
  O  O91  1  0.42084200  0.62884300  0.03871600  1
  O  O92  1  0.54228500  0.24411500  0.16557700  1
  O  O93  1  0.92084200  0.37115700  0.46128400  1
  O  O94  1  0.24180400  0.61678300  0.26101600  1
  O  O95  1  0.84217700  0.61125900  0.55641100  1
  O  O96  1  0.16856900  0.83020000  0.84162600  1
  O  O97  1  0.88622700  0.11429000  0.39636200  1
  O  O98  1  0.10934500  0.84386100  0.02231100  1
  O  O99  1  0.75819600  0.38321700  0.73898400  1
