# generated using pymatgen
data_Fe3C10SeO10
_symmetry_space_group_name_H-M   'P 1'
_cell_length_a   10.34454200
_cell_length_b   8.88047100
_cell_length_c   17.73989446
_cell_angle_alpha   67.64616844
_cell_angle_beta   90.00000000
_cell_angle_gamma   90.00000000
_symmetry_Int_Tables_number   1
_chemical_formula_structural   Fe3C10SeO10
_chemical_formula_sum   'Fe12 C40 Se4 O40'
_cell_volume   1507.20009710
_cell_formula_units_Z   4
loop_
 _symmetry_equiv_pos_site_id
 _symmetry_equiv_pos_as_xyz
  1  'x, y, z'
loop_
 _atom_site_type_symbol
 _atom_site_label
 _atom_site_symmetry_multiplicity
 _atom_site_fract_x
 _atom_site_fract_y
 _atom_site_fract_z
 _atom_site_occupancy
  Fe  Fe0  1  0.67797800  0.59271600  0.16688900  1
  Fe  Fe1  1  0.24632700  0.28788600  0.98763800  1
  Fe  Fe2  1  0.76643500  0.89725000  0.09828800  1
  Fe  Fe3  1  0.74632700  0.71211400  0.51236200  1
  Fe  Fe4  1  0.82202200  0.59271600  0.66688900  1
  Fe  Fe5  1  0.75367300  0.71211400  0.01236200  1
  Fe  Fe6  1  0.26643500  0.10275000  0.40171200  1
  Fe  Fe7  1  0.17797800  0.40728400  0.33311100  1
  Fe  Fe8  1  0.23356500  0.10275000  0.90171200  1
  Fe  Fe9  1  0.25367300  0.28788600  0.48763800  1
  Fe  Fe10  1  0.32202200  0.40728400  0.83311100  1
  Fe  Fe11  1  0.73356500  0.89725000  0.59828800  1
  C  C12  1  0.79374700  0.84542800  0.41137100  1
  C  C13  1  0.26932700  0.58351700  0.27400200  1
  C  C14  1  0.14706400  0.34940000  0.24898400  1
  C  C15  1  0.41697800  0.06926500  0.36083800  1
  C  C16  1  0.31890400  0.99005300  0.85232000  1
  C  C17  1  0.23067300  0.58351700  0.77400200  1
  C  C18  1  0.28898800  0.94257700  0.49866500  1
  C  C19  1  0.76932700  0.41648300  0.22599800  1
  C  C20  1  0.96234300  0.47019800  0.67002700  1
  C  C21  1  0.81890400  0.00994700  0.64768000  1
  C  C22  1  0.08693000  0.30884500  0.02172200  1
  C  C23  1  0.41307000  0.30884500  0.52172200  1
  C  C24  1  0.78898800  0.05742300  0.00133500  1
  C  C25  1  0.85391300  0.67185600  0.11932200  1
  C  C26  1  0.03765700  0.52980200  0.32997300  1
  C  C27  1  0.58693000  0.69115500  0.47827800  1
  C  C28  1  0.08302200  0.06926500  0.86083800  1
  C  C29  1  0.19300600  0.47485300  0.48767500  1
  C  C30  1  0.91697800  0.93073500  0.13916200  1
  C  C31  1  0.35391300  0.32814400  0.38067800  1
  C  C32  1  0.35293600  0.34940000  0.74898400  1
  C  C33  1  0.85293600  0.65060000  0.75101600  1
  C  C34  1  0.73067300  0.41648300  0.72599800  1
  C  C35  1  0.68109600  0.00994700  0.14768000  1
  C  C36  1  0.30699400  0.47485300  0.98767500  1
  C  C37  1  0.58302200  0.93073500  0.63916200  1
  C  C38  1  0.20625300  0.15457200  0.58862900  1
  C  C39  1  0.91307000  0.69115500  0.97827800  1
  C  C40  1  0.46234300  0.52980200  0.82997300  1
  C  C41  1  0.29374700  0.15457200  0.08862900  1
  C  C42  1  0.18109600  0.99005300  0.35232000  1
  C  C43  1  0.64706400  0.65060000  0.25101600  1
  C  C44  1  0.64608700  0.67185600  0.61932200  1
  C  C45  1  0.80699400  0.52514700  0.51232500  1
  C  C46  1  0.70625300  0.84542800  0.91137100  1
  C  C47  1  0.14608700  0.32814400  0.88067800  1
  C  C48  1  0.69300600  0.52514700  0.01232500  1
  C  C49  1  0.71101200  0.05742300  0.50133500  1
  C  C50  1  0.53765700  0.47019800  0.17002700  1
  C  C51  1  0.21101200  0.94257700  0.99866500  1
  Se  Se52  1  0.57083400  0.80567900  0.06268100  1
  Se  Se53  1  0.07083400  0.19432100  0.43731900  1
  Se  Se54  1  0.42916600  0.19432100  0.93731900  1
  Se  Se55  1  0.92916600  0.80567900  0.56268100  1
  O  O56  1  0.05294900  0.39085300  0.67425700  1
  O  O57  1  0.34457600  0.59585000  0.99036100  1
  O  O58  1  0.62788900  0.68240100  0.30756200  1
  O  O59  1  0.32846100  0.69765600  0.23661200  1
  O  O60  1  0.03763300  0.37523500  0.85984200  1
  O  O61  1  0.44705100  0.39085300  0.17425700  1
  O  O62  1  0.53763300  0.62476500  0.64015800  1
  O  O63  1  0.67588100  0.92704600  0.84577100  1
  O  O64  1  0.62825100  0.08940400  0.17662500  1
  O  O65  1  0.17588100  0.07295400  0.65422900  1
  O  O66  1  0.17153900  0.69765600  0.73661200  1
  O  O67  1  0.32411900  0.07295400  0.15422900  1
  O  O68  1  0.69817600  0.16736700  0.44011200  1
  O  O69  1  0.98679800  0.04653200  0.83405300  1
  O  O70  1  0.94705100  0.60914700  0.32574300  1
  O  O71  1  0.82846100  0.30234400  0.26338800  1
  O  O72  1  0.12825100  0.91059600  0.32337500  1
  O  O73  1  0.48679800  0.95346800  0.66594700  1
  O  O74  1  0.87174900  0.08940400  0.67662500  1
  O  O75  1  0.51678600  0.31757500  0.54381800  1
  O  O76  1  0.19817600  0.83263300  0.05988800  1
  O  O77  1  0.30182400  0.83263300  0.55988800  1
  O  O78  1  0.51320200  0.04653200  0.33405300  1
  O  O79  1  0.82411900  0.92704600  0.34577100  1
  O  O80  1  0.12788900  0.31759900  0.19243800  1
  O  O81  1  0.67153900  0.30234400  0.76338800  1
  O  O82  1  0.37174900  0.91059600  0.82337500  1
  O  O83  1  0.15542400  0.59585000  0.49036100  1
  O  O84  1  0.37211100  0.31759900  0.69243800  1
  O  O85  1  0.80182400  0.16736700  0.94011200  1
  O  O86  1  0.96236700  0.62476500  0.14015800  1
  O  O87  1  0.84457600  0.40415000  0.50963900  1
  O  O88  1  0.46236700  0.37523500  0.35984200  1
  O  O89  1  0.65542400  0.40415000  0.00963900  1
  O  O90  1  0.48321400  0.68242500  0.45618200  1
  O  O91  1  0.98321400  0.31757500  0.04381800  1
  O  O92  1  0.87211100  0.68240100  0.80756200  1
  O  O93  1  0.01678600  0.68242500  0.95618200  1
  O  O94  1  0.55294900  0.60914700  0.82574300  1
  O  O95  1  0.01320200  0.95346800  0.16594700  1
