# generated using pymatgen
data_Cs5CeNi2(NO2)12
_symmetry_space_group_name_H-M   'P 1'
_cell_length_a   11.30679700
_cell_length_b   11.30679700
_cell_length_c   11.30679700
_cell_angle_alpha   90.00000000
_cell_angle_beta   90.00000000
_cell_angle_gamma   90.00000000
_symmetry_Int_Tables_number   1
_chemical_formula_structural   Cs5CeNi2(NO2)12
_chemical_formula_sum   'Cs10 Ce2 Ni4 N24 O48'
_cell_volume   1445.50229326
_cell_formula_units_Z   2
loop_
 _symmetry_equiv_pos_site_id
 _symmetry_equiv_pos_as_xyz
  1  'x, y, z'
loop_
 _atom_site_type_symbol
 _atom_site_label
 _atom_site_symmetry_multiplicity
 _atom_site_fract_x
 _atom_site_fract_y
 _atom_site_fract_z
 _atom_site_occupancy
  Cs  Cs0  1  0.25000000  0.25000000  0.75000000  1
  Cs  Cs1  1  0.25000000  0.75000000  0.25000000  1
  Cs  Cs2  1  0.00000000  0.50000000  0.50000000  1
  Cs  Cs3  1  0.50000000  0.00000000  0.00000000  1
  Cs  Cs4  1  0.50000000  0.00000000  0.50000000  1
  Cs  Cs5  1  0.75000000  0.75000000  0.75000000  1
  Cs  Cs6  1  0.50000000  0.50000000  0.00000000  1
  Cs  Cs7  1  0.00000000  0.50000000  0.00000000  1
  Cs  Cs8  1  0.75000000  0.25000000  0.25000000  1
  Cs  Cs9  1  0.00000000  0.00000000  0.50000000  1
  Ce  Ce10  1  0.00000000  0.00000000  0.00000000  1
  Ce  Ce11  1  0.50000000  0.50000000  0.50000000  1
  Ni  Ni12  1  0.75000000  0.75000000  0.25000000  1
  Ni  Ni13  1  0.25000000  0.75000000  0.75000000  1
  Ni  Ni14  1  0.75000000  0.25000000  0.75000000  1
  Ni  Ni15  1  0.25000000  0.25000000  0.25000000  1
  N  N16  1  0.25784200  0.25669200  0.43524200  1
  N  N17  1  0.56475800  0.74215800  0.25669200  1
  N  N18  1  0.43524200  0.74215800  0.74330800  1
  N  N19  1  0.25669200  0.56475800  0.74215800  1
  N  N20  1  0.74215800  0.74330800  0.43524200  1
  N  N21  1  0.75669200  0.06475800  0.75784200  1
  N  N22  1  0.06475800  0.75784200  0.75669200  1
  N  N23  1  0.56475800  0.25784200  0.74330800  1
  N  N24  1  0.25669200  0.43524200  0.25784200  1
  N  N25  1  0.75784200  0.24330800  0.93524200  1
  N  N26  1  0.74330800  0.56475800  0.25784200  1
  N  N27  1  0.24215800  0.24330800  0.06475800  1
  N  N28  1  0.25784200  0.74330800  0.56475800  1
  N  N29  1  0.75669200  0.93524200  0.24215800  1
  N  N30  1  0.43524200  0.25784200  0.25669200  1
  N  N31  1  0.24330800  0.93524200  0.75784200  1
  N  N32  1  0.24330800  0.06475800  0.24215800  1
  N  N33  1  0.93524200  0.75784200  0.24330800  1
  N  N34  1  0.74330800  0.43524200  0.74215800  1
  N  N35  1  0.74215800  0.25669200  0.56475800  1
  N  N36  1  0.24215800  0.75669200  0.93524200  1
  N  N37  1  0.75784200  0.75669200  0.06475800  1
  N  N38  1  0.93524200  0.24215800  0.75669200  1
  N  N39  1  0.06475800  0.24215800  0.24330800  1
  O  O40  1  0.25344300  0.99045000  0.66217600  1
  O  O41  1  0.75344300  0.49045000  0.83782400  1
  O  O42  1  0.16217600  0.75344300  0.50955000  1
  O  O43  1  0.00955000  0.33782400  0.25344300  1
  O  O44  1  0.66217600  0.25344300  0.99045000  1
  O  O45  1  0.99299000  0.85135300  0.21673600  1
  O  O46  1  0.14864700  0.21673600  0.00701000  1
  O  O47  1  0.71673600  0.50701000  0.35135300  1
  O  O48  1  0.33782400  0.74655700  0.99045000  1
  O  O49  1  0.78326400  0.99299000  0.14864700  1
  O  O50  1  0.83782400  0.75344300  0.49045000  1
  O  O51  1  0.14864700  0.78326400  0.99299000  1
  O  O52  1  0.50955000  0.16217600  0.75344300  1
  O  O53  1  0.64864700  0.71673600  0.49299000  1
  O  O54  1  0.78326400  0.00701000  0.85135300  1
  O  O55  1  0.66217600  0.74655700  0.00955000  1
  O  O56  1  0.64864700  0.28326400  0.50701000  1
  O  O57  1  0.99045000  0.66217600  0.25344300  1
  O  O58  1  0.83782400  0.24655700  0.50955000  1
  O  O59  1  0.85135300  0.78326400  0.00701000  1
  O  O60  1  0.28326400  0.50701000  0.64864700  1
  O  O61  1  0.99045000  0.33782400  0.74655700  1
  O  O62  1  0.99299000  0.14864700  0.78326400  1
  O  O63  1  0.50955000  0.83782400  0.24655700  1
  O  O64  1  0.75344300  0.50955000  0.16217600  1
  O  O65  1  0.00701000  0.14864700  0.21673600  1
  O  O66  1  0.16217600  0.24655700  0.49045000  1
  O  O67  1  0.74655700  0.99045000  0.33782400  1
  O  O68  1  0.33782400  0.25344300  0.00955000  1
  O  O69  1  0.28326400  0.49299000  0.35135300  1
  O  O70  1  0.50701000  0.35135300  0.71673600  1
  O  O71  1  0.35135300  0.71673600  0.50701000  1
  O  O72  1  0.00955000  0.66217600  0.74655700  1
  O  O73  1  0.49299000  0.64864700  0.71673600  1
  O  O74  1  0.49045000  0.83782400  0.75344300  1
  O  O75  1  0.25344300  0.00955000  0.33782400  1
  O  O76  1  0.50701000  0.64864700  0.28326400  1
  O  O77  1  0.49045000  0.16217600  0.24655700  1
  O  O78  1  0.74655700  0.00955000  0.66217600  1
  O  O79  1  0.24655700  0.50955000  0.83782400  1
  O  O80  1  0.85135300  0.21673600  0.99299000  1
  O  O81  1  0.00701000  0.85135300  0.78326400  1
  O  O82  1  0.21673600  0.00701000  0.14864700  1
  O  O83  1  0.35135300  0.28326400  0.49299000  1
  O  O84  1  0.24655700  0.49045000  0.16217600  1
  O  O85  1  0.71673600  0.49299000  0.64864700  1
  O  O86  1  0.49299000  0.35135300  0.28326400  1
  O  O87  1  0.21673600  0.99299000  0.85135300  1
