# generated using pymatgen
data_Fe2P3C8N3(ClO2)4
_symmetry_space_group_name_H-M   'P 1'
_cell_length_a   16.97499700
_cell_length_b   8.24762600
_cell_length_c   15.72523199
_cell_angle_alpha   82.51549591
_cell_angle_beta   90.00000000
_cell_angle_gamma   90.00000000
_symmetry_Int_Tables_number   1
_chemical_formula_structural   Fe2P3C8N3(ClO2)4
_chemical_formula_sum   'Fe8 P12 C32 N12 Cl16 O32'
_cell_volume   2182.82912511
_cell_formula_units_Z   4
loop_
 _symmetry_equiv_pos_site_id
 _symmetry_equiv_pos_as_xyz
  1  'x, y, z'
loop_
 _atom_site_type_symbol
 _atom_site_label
 _atom_site_symmetry_multiplicity
 _atom_site_fract_x
 _atom_site_fract_y
 _atom_site_fract_z
 _atom_site_occupancy
  Fe  Fe0  1  0.49804400  0.89968900  0.89894200  1
  Fe  Fe1  1  0.49043800  0.36175600  0.25509800  1
  Fe  Fe2  1  0.41608200  0.68987700  0.80311700  1
  Fe  Fe3  1  0.91608200  0.31012300  0.19688300  1
  Fe  Fe4  1  0.99043800  0.63824400  0.74490200  1
  Fe  Fe5  1  0.90132600  0.60404800  0.59772400  1
  Fe  Fe6  1  0.40132600  0.39595200  0.40227600  1
  Fe  Fe7  1  0.99804400  0.10031100  0.10105800  1
  P  P8  1  0.73447800  0.95269200  0.08354100  1
  P  P9  1  0.63799000  0.64673300  0.44677500  1
  P  P10  1  0.03397000  0.58043400  0.61580500  1
  P  P11  1  0.23447800  0.04730800  0.91645900  1
  P  P12  1  0.15700200  0.68354300  0.49908400  1
  P  P13  1  0.25838500  0.78576100  0.04160400  1
  P  P14  1  0.86682100  0.15993500  0.09690700  1
  P  P15  1  0.75838500  0.21423900  0.95839600  1
  P  P16  1  0.65700200  0.31645700  0.50091600  1
  P  P17  1  0.13799000  0.35326700  0.55322500  1
  P  P18  1  0.36682100  0.84006500  0.90309300  1
  P  P19  1  0.53397000  0.41956600  0.38419500  1
  C  C20  1  0.48193600  0.57948700  0.22153300  1
  C  C21  1  0.30503200  0.35705900  0.35657400  1
  C  C22  1  0.98193600  0.42051300  0.77846700  1
  C  C23  1  0.49903000  0.02166700  0.98417700  1
  C  C24  1  0.41288600  0.18047800  0.44187000  1
  C  C25  1  0.51936700  0.72242600  0.97541900  1
  C  C26  1  0.89668400  0.56405200  0.48975200  1
  C  C27  1  0.80503200  0.64294100  0.64342600  1
  C  C28  1  0.47721600  0.08200800  0.82466500  1
  C  C29  1  0.40179400  0.86268300  0.72068200  1
  C  C30  1  0.39668400  0.43594800  0.51024800  1
  C  C31  1  0.09603500  0.11744000  0.14701000  1
  C  C32  1  0.07974500  0.64024200  0.80368700  1
  C  C33  1  0.57974500  0.35975800  0.19631300  1
  C  C34  1  0.01936700  0.27757400  0.02458100  1
  C  C35  1  0.88848700  0.38625300  0.62956100  1
  C  C36  1  0.97721600  0.91799200  0.17533500  1
  C  C37  1  0.50248500  0.61769000  0.74991100  1
  C  C38  1  0.33007100  0.59967000  0.76436600  1
  C  C39  1  0.92498600  0.48351500  0.11406100  1
  C  C40  1  0.00248500  0.38231000  0.25008900  1
  C  C41  1  0.50462400  0.14625900  0.29250400  1
  C  C42  1  0.90179400  0.13731700  0.27931800  1
  C  C43  1  0.83007100  0.40033000  0.23563400  1
  C  C44  1  0.90771600  0.67960000  0.81333500  1
  C  C45  1  0.59603500  0.88256000  0.85299000  1
  C  C46  1  0.91288600  0.81952200  0.55813000  1
  C  C47  1  0.42498600  0.51648500  0.88593900  1
  C  C48  1  0.00462400  0.85374100  0.70749600  1
  C  C49  1  0.38848700  0.61374700  0.37043900  1
  C  C50  1  0.99903000  0.97833300  0.01582300  1
  C  C51  1  0.40771600  0.32040000  0.18666500  1
  N  N52  1  0.83404100  0.26479300  0.00782000  1
  N  N53  1  0.70385200  0.06631800  0.99966700  1
  N  N54  1  0.20385200  0.93368200  0.00033300  1
  N  N55  1  0.08598600  0.72290900  0.55821300  1
  N  N56  1  0.81057200  0.00365800  0.13178500  1
  N  N57  1  0.68366600  0.50146600  0.50417900  1
  N  N58  1  0.18366600  0.49853400  0.49582100  1
  N  N59  1  0.33404100  0.73520700  0.99218000  1
  N  N60  1  0.31057200  0.99634200  0.86821500  1
  N  N61  1  0.58598600  0.27709100  0.44178700  1
  N  N62  1  0.06975200  0.39577200  0.61525400  1
  N  N63  1  0.56975200  0.60422800  0.38474600  1
  Cl  Cl64  1  0.24760000  0.27738800  0.94736400  1
  Cl  Cl65  1  0.29048600  0.82877300  0.16121400  1
  Cl  Cl66  1  0.18628300  0.59029100  0.07031500  1
  Cl  Cl67  1  0.79048600  0.17122700  0.83878600  1
  Cl  Cl68  1  0.68628300  0.40970900  0.92968500  1
  Cl  Cl69  1  0.64401800  0.91788000  0.16710000  1
  Cl  Cl70  1  0.09641400  0.19448700  0.47530200  1
  Cl  Cl71  1  0.74760000  0.72261200  0.05263600  1
  Cl  Cl72  1  0.75376600  0.18853300  0.47309200  1
  Cl  Cl73  1  0.59641400  0.80551300  0.52469800  1
  Cl  Cl74  1  0.14401800  0.08212000  0.83290000  1
  Cl  Cl75  1  0.13659400  0.78703100  0.37592100  1
  Cl  Cl76  1  0.22092200  0.21233600  0.61939500  1
  Cl  Cl77  1  0.72092200  0.78766400  0.38060500  1
  Cl  Cl78  1  0.63659400  0.21296900  0.62407900  1
  Cl  Cl79  1  0.25376600  0.81146700  0.52690800  1
  O  O80  1  0.53754600  0.61547600  0.02678700  1
  O  O81  1  0.99920700  0.90102300  0.95938600  1
  O  O82  1  0.13817400  0.64218700  0.84170800  1
  O  O83  1  0.63817400  0.35781300  0.15829200  1
  O  O84  1  0.41719200  0.04560100  0.47236500  1
  O  O85  1  0.88979800  0.03364800  0.33479100  1
  O  O86  1  0.37586100  0.75215800  0.35513400  1
  O  O87  1  0.89550000  0.53543300  0.41944300  1
  O  O88  1  0.46734700  0.20492400  0.78139100  1
  O  O89  1  0.55767100  0.56901300  0.71831800  1
  O  O90  1  0.03754600  0.38452400  0.97321300  1
  O  O91  1  0.47860600  0.71724300  0.19603500  1
  O  O92  1  0.91719200  0.95439900  0.52763500  1
  O  O93  1  0.77463800  0.45814700  0.26240800  1
  O  O94  1  0.96734700  0.79507600  0.21860900  1
  O  O95  1  0.87586100  0.24784200  0.64486600  1
  O  O96  1  0.65742900  0.86801100  0.82318300  1
  O  O97  1  0.97860600  0.28275700  0.80396500  1
  O  O98  1  0.49920700  0.09897700  0.04061400  1
  O  O99  1  0.38979800  0.96635200  0.66520900  1
  O  O100  1  0.05767100  0.43098700  0.28168200  1
  O  O101  1  0.35537600  0.29431800  0.14331600  1
  O  O102  1  0.85537600  0.70568200  0.85668400  1
  O  O103  1  0.51714100  0.00901900  0.31296700  1
  O  O104  1  0.39550000  0.46456700  0.58055700  1
  O  O105  1  0.74513400  0.66866600  0.67383900  1
  O  O106  1  0.01714100  0.99098100  0.68703300  1
  O  O107  1  0.42989800  0.39897200  0.93453500  1
  O  O108  1  0.27463800  0.54185300  0.73759200  1
  O  O109  1  0.24513400  0.33133400  0.32616100  1
  O  O110  1  0.92989800  0.60102800  0.06546500  1
  O  O111  1  0.15742900  0.13198900  0.17681700  1
