# generated using pymatgen
data_TlNi4(PO4)3
_symmetry_space_group_name_H-M   'P 1'
_cell_length_a   8.75270362
_cell_length_b   8.75270362
_cell_length_c   9.76835400
_cell_angle_alpha   90.00000000
_cell_angle_beta   90.00000000
_cell_angle_gamma   137.65100744
_symmetry_Int_Tables_number   1
_chemical_formula_structural   TlNi4(PO4)3
_chemical_formula_sum   'Tl2 Ni8 P6 O24'
_cell_volume   504.12326481
_cell_formula_units_Z   2
loop_
 _symmetry_equiv_pos_site_id
 _symmetry_equiv_pos_as_xyz
  1  'x, y, z'
loop_
 _atom_site_type_symbol
 _atom_site_label
 _atom_site_symmetry_multiplicity
 _atom_site_fract_x
 _atom_site_fract_y
 _atom_site_fract_z
 _atom_site_occupancy
  Tl  Tl0  1  0.97379900  0.02620100  0.46468000  1
  Tl  Tl1  1  0.02620100  0.97379900  0.96468000  1
  Ni  Ni2  1  0.04697500  0.45386100  0.99814400  1
  Ni  Ni3  1  0.95302500  0.54613900  0.49814400  1
  Ni  Ni4  1  0.62178100  0.37821900  0.19755600  1
  Ni  Ni5  1  0.37821900  0.62178100  0.69755600  1
  Ni  Ni6  1  0.45386100  0.04697500  0.49814400  1
  Ni  Ni7  1  0.54613900  0.95302500  0.99814400  1
  Ni  Ni8  1  0.37987400  0.62012600  0.23349500  1
  Ni  Ni9  1  0.62012600  0.37987400  0.73349500  1
  P  P10  1  0.53382900  0.46617100  0.48738700  1
  P  P11  1  0.17981100  0.82018900  0.21166500  1
  P  P12  1  0.82018900  0.17981100  0.71166500  1
  P  P13  1  0.20037700  0.79962300  0.78618300  1
  P  P14  1  0.46617100  0.53382900  0.98738700  1
  P  P15  1  0.79962300  0.20037700  0.28618300  1
  O  O16  1  0.47078900  0.52921100  0.82948900  1
  O  O17  1  0.22518600  0.39349600  0.05257500  1
  O  O18  1  0.77481400  0.60650400  0.55257500  1
  O  O19  1  0.73199100  0.26800900  0.63593000  1
  O  O20  1  0.55499900  0.44500100  0.03171300  1
  O  O21  1  0.21915200  0.78084800  0.62856800  1
  O  O22  1  0.93846300  0.66867200  0.16531600  1
  O  O23  1  0.33132800  0.06153700  0.16531600  1
  O  O24  1  0.60650400  0.77481400  0.05257500  1
  O  O25  1  0.66867200  0.93846300  0.66531600  1
  O  O26  1  0.44500100  0.55499900  0.53171300  1
  O  O27  1  0.63460400  0.95173000  0.33096600  1
  O  O28  1  0.95173000  0.63460400  0.83096600  1
  O  O29  1  0.06153700  0.33132800  0.66531600  1
  O  O30  1  0.36539600  0.04827000  0.83096600  1
  O  O31  1  0.28893700  0.71106300  0.85918600  1
  O  O32  1  0.71106300  0.28893700  0.35918600  1
  O  O33  1  0.39349600  0.22518600  0.55257500  1
  O  O34  1  0.19362700  0.80637300  0.36992600  1
  O  O35  1  0.52921100  0.47078900  0.32948900  1
  O  O36  1  0.80637300  0.19362700  0.86992600  1
  O  O37  1  0.04827000  0.36539600  0.33096600  1
  O  O38  1  0.26800900  0.73199100  0.13593000  1
  O  O39  1  0.78084800  0.21915200  0.12856800  1
