# generated using pymatgen
data_AlGaNi2
_symmetry_space_group_name_H-M   'P 1'
_cell_length_a   9.41271926
_cell_length_b   9.41271926
_cell_length_c   9.41271926
_cell_angle_alpha   119.97540678
_cell_angle_beta   119.94728638
_cell_angle_gamma   90.06696446
_symmetry_Int_Tables_number   1
_chemical_formula_structural   AlGaNi2
_chemical_formula_sum   'Al1 Ga1 Ni2'
_cell_volume   590.04295115
_cell_formula_units_Z   1
loop_
 _symmetry_equiv_pos_site_id
 _symmetry_equiv_pos_as_xyz
  1  'x, y, z'
loop_
 _atom_site_type_symbol
 _atom_site_label
 _atom_site_symmetry_multiplicity
 _atom_site_fract_x
 _atom_site_fract_y
 _atom_site_fract_z
 _atom_site_occupancy
  Al  Al0  1  0.00000000  0.00000000  0.00000000  1
  Ga  Ga1  1  0.50000000  0.00000000  0.50000000  1
  Ni  Ni2  1  0.75058400  0.00000000  0.75058400  1
  Ni  Ni3  1  0.24941600  0.00000000  0.24941600  1
