# generated using pymatgen
data_Li14Mn9(P2O7)8
_symmetry_space_group_name_H-M   'P 1'
_cell_length_a   10.90907266
_cell_length_b   9.80556530
_cell_length_c   13.06488591
_cell_angle_alpha   69.23538144
_cell_angle_beta   116.71550553
_cell_angle_gamma   107.24390614
_symmetry_Int_Tables_number   1
_chemical_formula_structural   Li14Mn9(P2O7)8
_chemical_formula_sum   'Li14 Mn9 P16 O56'
_cell_volume   1151.44722040
_cell_formula_units_Z   1
loop_
 _symmetry_equiv_pos_site_id
 _symmetry_equiv_pos_as_xyz
  1  'x, y, z'
loop_
 _atom_site_type_symbol
 _atom_site_label
 _atom_site_symmetry_multiplicity
 _atom_site_fract_x
 _atom_site_fract_y
 _atom_site_fract_z
 _atom_site_occupancy
  Li  Li0  1  0.37918600  0.54800500  0.41031500  1
  Li  Li1  1  0.62400900  0.95499900  0.08768800  1
  Li  Li2  1  0.37599100  0.04500100  0.91231200  1
  Li  Li3  1  0.86165300  0.06403500  0.40430400  1
  Li  Li4  1  0.13834700  0.93596500  0.59569600  1
  Li  Li5  1  0.49964500  0.63704300  0.18436800  1
  Li  Li6  1  0.51178700  0.13753800  0.67790800  1
  Li  Li7  1  0.98090800  0.85016800  0.10953300  1
  Li  Li8  1  0.48821300  0.86246200  0.32209200  1
  Li  Li9  1  0.14555100  0.43108600  0.10208400  1
  Li  Li10  1  0.50035500  0.36295700  0.81563200  1
  Li  Li11  1  0.85444900  0.56891400  0.89791600  1
  Li  Li12  1  0.62081400  0.45199500  0.58968500  1
  Li  Li13  1  0.01909200  0.14983200  0.89046700  1
  Mn  Mn14  1  0.78767900  0.30532400  0.08261700  1
  Mn  Mn15  1  0.72515000  0.43079300  0.28901100  1
  Mn  Mn16  1  0.21232100  0.69467600  0.91738300  1
  Mn  Mn17  1  0.74190200  0.93833400  0.79917400  1
  Mn  Mn18  1  0.27485000  0.56920700  0.71098900  1
  Mn  Mn19  1  0.25809800  0.06166600  0.20082600  1
  Mn  Mn20  1  0.21172900  0.19372100  0.41746400  1
  Mn  Mn21  1  0.78827100  0.80627900  0.58253600  1
  Mn  Mn22  1  0.00000000  0.50000000  0.50000000  1
  P  P23  1  0.69857900  0.64226000  0.00955200  1
  P  P24  1  0.30142100  0.35774000  0.99044800  1
  P  P25  1  0.05503900  0.47335800  0.27590100  1
  P  P26  1  0.05657300  0.97549300  0.77396300  1
  P  P27  1  0.20678000  0.23391400  0.66121500  1
  P  P28  1  0.29780700  0.85120500  0.49101800  1
  P  P29  1  0.94496100  0.52664300  0.72409900  1
  P  P30  1  0.53371800  0.18148500  0.13399500  1
  P  P31  1  0.53843700  0.68792800  0.63442300  1
  P  P32  1  0.79322000  0.76608600  0.33878500  1
  P  P33  1  0.94342700  0.02450700  0.22603700  1
  P  P34  1  0.79145300  0.27154100  0.83678200  1
  P  P35  1  0.46628200  0.81851500  0.86600500  1
  P  P36  1  0.46156300  0.31207200  0.36557700  1
  P  P37  1  0.70219300  0.14879500  0.50898200  1
  P  P38  1  0.20854700  0.72845900  0.16321800  1
  O  O39  1  0.00499300  0.09149100  0.33238700  1
  O  O40  1  0.54732200  0.68241400  0.91012700  1
  O  O41  1  0.90223900  0.84600700  0.27221600  1
  O  O42  1  0.27596500  0.97823600  0.52147300  1
  O  O43  1  0.69302500  0.10545400  0.62958400  1
  O  O44  1  0.99353600  0.40525400  0.17009300  1
  O  O45  1  0.20102500  0.70622700  0.52087400  1
  O  O46  1  0.95610300  0.96481200  0.82903600  1
  O  O47  1  0.54528900  0.17836300  0.41052600  1
  O  O48  1  0.71597300  0.51563800  0.97596200  1
  O  O49  1  0.90811200  0.34857100  0.77519600  1
  O  O50  1  0.09188800  0.65142900  0.22480400  1
  O  O51  1  0.31162600  0.24828100  0.28984600  1
  O  O52  1  0.72403500  0.02176400  0.47852700  1
  O  O53  1  0.80637300  0.57619300  0.63472200  1
  O  O54  1  0.30697500  0.89454600  0.37041600  1
  O  O55  1  0.68790200  0.59733400  0.12938100  1
  O  O56  1  0.45267800  0.31758600  0.08987300  1
  O  O57  1  0.04715200  0.54562900  0.66752900  1
  O  O58  1  0.19342800  0.92150100  0.86407900  1
  O  O59  1  0.83904000  0.84583100  0.43524300  1
  O  O60  1  0.19579100  0.21749100  0.01133600  1
  O  O61  1  0.46938300  0.55410500  0.70543700  1
  O  O62  1  0.46610000  0.84989900  0.97366400  1
  O  O63  1  0.31627000  0.75401200  0.79130400  1
  O  O64  1  0.45471100  0.82163700  0.58947400  1
  O  O65  1  0.09776100  0.15399300  0.72778400  1
  O  O66  1  0.35367000  0.70334300  0.25730800  1
  O  O67  1  0.46245500  0.05006700  0.20460300  1
  O  O68  1  0.64668000  0.78888000  0.24691500  1
  O  O69  1  0.17872100  0.88610200  0.11219200  1
  O  O70  1  0.28402700  0.48436200  0.02403800  1
  O  O71  1  0.53754500  0.94993300  0.79539700  1
  O  O72  1  0.31209800  0.40266600  0.87061900  1
  O  O73  1  0.81933800  0.60583500  0.38952900  1
  O  O74  1  0.95284800  0.45437100  0.33247100  1
  O  O75  1  0.68373000  0.24598800  0.20869600  1
  O  O76  1  0.46089400  0.34327000  0.47350500  1
  O  O77  1  0.82127900  0.11389800  0.88780800  1
  O  O78  1  0.18066200  0.39416500  0.61047100  1
  O  O79  1  0.00646400  0.59474600  0.82990700  1
  O  O80  1  0.80657200  0.07849900  0.13592100  1
  O  O81  1  0.19362700  0.42380700  0.36527800  1
  O  O82  1  0.35332000  0.21112000  0.75308500  1
  O  O83  1  0.99500700  0.90850900  0.66761300  1
  O  O84  1  0.16651000  0.64694000  0.06884000  1
  O  O85  1  0.68837400  0.75171900  0.71015400  1
  O  O86  1  0.53390000  0.15010100  0.02633600  1
  O  O87  1  0.83349000  0.35306000  0.93116000  1
  O  O88  1  0.04389700  0.03518800  0.17096400  1
  O  O89  1  0.53061700  0.44589500  0.29456300  1
  O  O90  1  0.79897500  0.29377300  0.47912600  1
  O  O91  1  0.53910600  0.65673000  0.52649500  1
  O  O92  1  0.16096000  0.15416900  0.56475700  1
  O  O93  1  0.64633000  0.29665700  0.74269200  1
  O  O94  1  0.80420900  0.78250900  0.98866400  1
