# generated using pymatgen
data_La2ZnHg
_symmetry_space_group_name_H-M   'P 1'
_cell_length_a   12.09426772
_cell_length_b   12.09426772
_cell_length_c   12.09426772
_cell_angle_alpha   119.84825948
_cell_angle_beta   118.52934014
_cell_angle_gamma   91.41458077
_symmetry_Int_Tables_number   1
_chemical_formula_structural   La2ZnHg
_chemical_formula_sum   'La2 Zn1 Hg1'
_cell_volume   1265.62005784
_cell_formula_units_Z   1
loop_
 _symmetry_equiv_pos_site_id
 _symmetry_equiv_pos_as_xyz
  1  'x, y, z'
loop_
 _atom_site_type_symbol
 _atom_site_label
 _atom_site_symmetry_multiplicity
 _atom_site_fract_x
 _atom_site_fract_y
 _atom_site_fract_z
 _atom_site_occupancy
  La  La0  1  0.00000000  0.24265800  0.24265800  1
  La  La1  1  0.00000000  0.75734200  0.75734200  1
  Zn  Zn2  1  0.00000000  0.00000000  0.00000000  1
  Hg  Hg3  1  0.00000000  0.50000000  0.50000000  1
