# generated using pymatgen
data_MnPO4
_symmetry_space_group_name_H-M   'P 1'
_cell_length_a   10.23125365
_cell_length_b   10.23125365
_cell_length_c   17.71742152
_cell_angle_alpha   74.33643761
_cell_angle_beta   74.33643761
_cell_angle_gamma   61.03122919
_symmetry_Int_Tables_number   1
_chemical_formula_structural   MnPO4
_chemical_formula_sum   'Mn16 P16 O64'
_cell_volume   1540.84711232
_cell_formula_units_Z   16
loop_
 _symmetry_equiv_pos_site_id
 _symmetry_equiv_pos_as_xyz
  1  'x, y, z'
loop_
 _atom_site_type_symbol
 _atom_site_label
 _atom_site_symmetry_multiplicity
 _atom_site_fract_x
 _atom_site_fract_y
 _atom_site_fract_z
 _atom_site_occupancy
  Mn  Mn0  1  0.43745500  0.37310000  0.18796200  1
  Mn  Mn1  1  0.69033100  0.25601600  0.93731900  1
  Mn  Mn2  1  0.37310000  0.43745500  0.68796200  1
  Mn  Mn3  1  0.26039400  0.18591800  0.43965600  1
  Mn  Mn4  1  0.61633900  0.75486300  0.93781400  1
  Mn  Mn5  1  0.25601600  0.69033100  0.43731900  1
  Mn  Mn6  1  0.50168600  0.86987100  0.18839900  1
  Mn  Mn7  1  0.86987100  0.50168600  0.68839900  1
  Mn  Mn8  1  0.36850300  0.93746700  0.68756200  1
  Mn  Mn9  1  0.75608100  0.11609800  0.43915900  1
  Mn  Mn10  1  0.00119900  0.86848200  0.18700800  1
  Mn  Mn11  1  0.86848200  0.00119900  0.68700800  1
  Mn  Mn12  1  0.11609800  0.75608100  0.93915900  1
  Mn  Mn13  1  0.75486300  0.61633900  0.43781400  1
  Mn  Mn14  1  0.93746700  0.36850300  0.18756200  1
  Mn  Mn15  1  0.18591800  0.26039400  0.93965600  1
  P  P16  1  0.56337800  0.62583700  0.62680900  1
  P  P17  1  0.68294400  0.06547300  0.12622400  1
  P  P18  1  0.44413600  0.87399000  0.37501900  1
  P  P19  1  0.44689300  0.37298600  0.37652900  1
  P  P20  1  0.12592800  0.56319400  0.12776200  1
  P  P21  1  0.80157500  0.94241900  0.87444400  1
  P  P22  1  0.94241900  0.80157500  0.37444400  1
  P  P23  1  0.37298600  0.44689300  0.87652900  1
  P  P24  1  0.18285900  0.06268500  0.12696400  1
  P  P25  1  0.56319400  0.12592800  0.62776200  1
  P  P26  1  0.94755500  0.30035900  0.37637300  1
  P  P27  1  0.87399000  0.44413600  0.87501900  1
  P  P28  1  0.06268500  0.18285900  0.62696400  1
  P  P29  1  0.06547300  0.68294400  0.62622400  1
  P  P30  1  0.62583700  0.56337800  0.12680900  1
  P  P31  1  0.30035900  0.94755500  0.87637300  1
  O  O32  1  0.75906800  0.11094900  0.86950100  1
  O  O33  1  0.77035900  0.41213500  0.13868900  1
  O  O34  1  0.91478300  0.67099500  0.63969800  1
  O  O35  1  0.65125900  0.08365700  0.69624700  1
  O  O36  1  0.14477600  0.66376400  0.04787700  1
  O  O37  1  0.76217800  0.61478900  0.86921800  1
  O  O38  1  0.39372000  0.89831900  0.29595700  1
  O  O39  1  0.08365700  0.65125900  0.19624700  1
  O  O40  1  0.27272400  0.41362400  0.13926900  1
  O  O41  1  0.52628300  0.49540300  0.62707100  1
  O  O42  1  0.11094900  0.75906800  0.36950100  1
  O  O43  1  0.57492300  0.15675600  0.19281100  1
  O  O44  1  0.61758600  0.26256300  0.37072000  1
  O  O45  1  0.14543200  0.16111100  0.04591500  1
  O  O46  1  0.66155500  0.64625400  0.54629400  1
  O  O47  1  0.16111100  0.14543200  0.54591500  1
  O  O48  1  0.35103200  0.31012200  0.44544300  1
  O  O49  1  0.66376400  0.14477600  0.54787700  1
  O  O50  1  0.02424700  0.84981600  0.62684500  1
  O  O51  1  0.84981600  0.02424700  0.12684500  1
  O  O52  1  0.65089400  0.92965200  0.89454000  1
  O  O53  1  0.11617600  0.25369400  0.37272700  1
  O  O54  1  0.67099500  0.91478300  0.13969800  1
  O  O55  1  0.39436900  0.90655400  0.79472900  1
  O  O56  1  0.31012200  0.35103200  0.94544300  1
  O  O57  1  0.65211100  0.58358000  0.69489800  1
  O  O58  1  0.58358000  0.65211100  0.19489800  1
  O  O59  1  0.02373300  0.42680100  0.89087200  1
  O  O60  1  0.83918400  0.90016600  0.43911800  1
  O  O61  1  0.89831900  0.39372000  0.79595700  1
  O  O62  1  0.49540300  0.52628300  0.12707100  1
  O  O63  1  0.90016600  0.83918400  0.93911800  1
  O  O64  1  0.61478900  0.76217800  0.36921800  1
  O  O65  1  0.15675600  0.57492300  0.69281100  1
  O  O66  1  0.02260500  0.34919800  0.62807000  1
  O  O67  1  0.90655400  0.39436900  0.29472900  1
  O  O68  1  0.34748700  0.81314300  0.44441900  1
  O  O69  1  0.89422800  0.89244600  0.29324600  1
  O  O70  1  0.15237200  0.93008300  0.89494700  1
  O  O71  1  0.25369400  0.11617600  0.87272700  1
  O  O72  1  0.52170900  0.99927400  0.62777500  1
  O  O73  1  0.41362400  0.27272400  0.63926900  1
  O  O74  1  0.64569500  0.16024100  0.04454700  1
  O  O75  1  0.92965200  0.65089400  0.39454000  1
  O  O76  1  0.15248300  0.07198400  0.69399700  1
  O  O77  1  0.91267300  0.17169600  0.63830500  1
  O  O78  1  0.16024100  0.64569500  0.54454700  1
  O  O79  1  0.52393700  0.42575400  0.89232700  1
  O  O80  1  0.26256300  0.61758600  0.87072000  1
  O  O81  1  0.17169600  0.91267300  0.13830500  1
  O  O82  1  0.64625400  0.66155500  0.04629400  1
  O  O83  1  0.84300200  0.39905800  0.44096200  1
  O  O84  1  0.39406400  0.39940800  0.79744200  1
  O  O85  1  0.99927400  0.52170900  0.12777500  1
  O  O86  1  0.93008300  0.15237200  0.39494700  1
  O  O87  1  0.41213500  0.77035900  0.63868900  1
  O  O88  1  0.42680100  0.02373300  0.39087200  1
  O  O89  1  0.39940800  0.39406400  0.29744200  1
  O  O90  1  0.89244600  0.89422800  0.79324600  1
  O  O91  1  0.39905800  0.84300200  0.94096200  1
  O  O92  1  0.42575400  0.52393700  0.39232700  1
  O  O93  1  0.34919800  0.02260500  0.12807000  1
  O  O94  1  0.07198400  0.15248300  0.19399700  1
  O  O95  1  0.81314300  0.34748700  0.94441900  1
