# generated using pymatgen
data_Na3CaAl3Si3CO15
_symmetry_space_group_name_H-M   'P 1'
_cell_length_a   12.55402289
_cell_length_b   12.55402289
_cell_length_c   5.73906100
_cell_angle_alpha   90.00000000
_cell_angle_beta   90.00000000
_cell_angle_gamma   120.00000469
_symmetry_Int_Tables_number   1
_chemical_formula_structural   Na3CaAl3Si3CO15
_chemical_formula_sum   'Na6 Ca2 Al6 Si6 C2 O30'
_cell_volume   783.31651741
_cell_formula_units_Z   2
loop_
 _symmetry_equiv_pos_site_id
 _symmetry_equiv_pos_as_xyz
  1  'x, y, z'
loop_
 _atom_site_type_symbol
 _atom_site_label
 _atom_site_symmetry_multiplicity
 _atom_site_fract_x
 _atom_site_fract_y
 _atom_site_fract_z
 _atom_site_occupancy
  Na  Na0  1  0.96997100  0.48198200  0.69269900  1
  Na  Na1  1  0.03002900  0.51801800  0.19269900  1
  Na  Na2  1  0.51801800  0.48799000  0.69269900  1
  Na  Na3  1  0.48198200  0.51201000  0.19269900  1
  Na  Na4  1  0.48799000  0.96997100  0.19269900  1
  Na  Na5  1  0.51201000  0.03002900  0.69269900  1
  Ca  Ca6  1  0.33333300  0.66666700  0.66431000  1
  Ca  Ca7  1  0.66666700  0.33333300  0.16431000  1
  Al  Al8  1  0.00402400  0.74104400  0.22009900  1
  Al  Al9  1  0.26298000  0.00402400  0.72009900  1
  Al  Al10  1  0.74104400  0.73702000  0.72009900  1
  Al  Al11  1  0.25895600  0.26298000  0.22009900  1
  Al  Al12  1  0.73702000  0.99597600  0.22009900  1
  Al  Al13  1  0.99597600  0.25895600  0.72009900  1
  Si  Si14  1  0.26949400  0.00335900  0.22058000  1
  Si  Si15  1  0.26613400  0.26949400  0.72058000  1
  Si  Si16  1  0.00335900  0.73386600  0.72058000  1
  Si  Si17  1  0.99664100  0.26613400  0.22058000  1
  Si  Si18  1  0.73386600  0.73050600  0.22058000  1
  Si  Si19  1  0.73050600  0.99664100  0.72058000  1
  C  C20  1  0.33333300  0.66666700  0.27745200  1
  C  C21  1  0.66666700  0.33333300  0.77745200  1
  O  O22  1  0.62639500  0.21706400  0.80441600  1
  O  O23  1  0.40933100  0.62639500  0.30441600  1
  O  O24  1  0.64847100  0.99064500  0.95913600  1
  O  O25  1  0.65345000  0.00011600  0.47997400  1
  O  O26  1  0.73301900  0.86980600  0.71603600  1
  O  O27  1  0.74692100  0.86394000  0.22652400  1
  O  O28  1  0.86980600  0.13678700  0.21603600  1
  O  O29  1  0.65333400  0.65345000  0.97997400  1
  O  O30  1  0.65782600  0.64847100  0.45913600  1
  O  O31  1  0.86394000  0.11701900  0.72652400  1
  O  O32  1  0.99064500  0.34217400  0.45913600  1
  O  O33  1  0.00011600  0.34666600  0.97997400  1
  O  O34  1  0.21706400  0.59066900  0.30441600  1
  O  O35  1  0.88298100  0.74692100  0.72652400  1
  O  O36  1  0.86321300  0.73301900  0.21603600  1
  O  O37  1  0.13678700  0.26698100  0.71603600  1
  O  O38  1  0.11701900  0.25307900  0.22652400  1
  O  O39  1  0.78293600  0.40933100  0.80441600  1
  O  O40  1  0.99988400  0.65333400  0.47997400  1
  O  O41  1  0.00935500  0.65782600  0.95913600  1
  O  O42  1  0.13606000  0.88298100  0.22652400  1
  O  O43  1  0.34217400  0.35152900  0.95913600  1
  O  O44  1  0.34666600  0.34655000  0.47997400  1
  O  O45  1  0.13019400  0.86321300  0.71603600  1
  O  O46  1  0.25307900  0.13606000  0.72652400  1
  O  O47  1  0.26698100  0.13019400  0.21603600  1
  O  O48  1  0.34655000  0.99988400  0.97997400  1
  O  O49  1  0.35152900  0.00935500  0.45913600  1
  O  O50  1  0.59066900  0.37360500  0.80441600  1
  O  O51  1  0.37360500  0.78293600  0.30441600  1
