# generated using pymatgen
data_ReH(CO)4
_symmetry_space_group_name_H-M   'P 1'
_cell_length_a   9.70738225
_cell_length_b   9.70738225
_cell_length_c   13.59918726
_cell_angle_alpha   85.88176785
_cell_angle_beta   85.88176785
_cell_angle_gamma   83.00594065
_symmetry_Int_Tables_number   1
_chemical_formula_structural   ReH(CO)4
_chemical_formula_sum   'Re8 H8 C32 O32'
_cell_volume   1266.09859994
_cell_formula_units_Z   8
loop_
 _symmetry_equiv_pos_site_id
 _symmetry_equiv_pos_as_xyz
  1  'x, y, z'
loop_
 _atom_site_type_symbol
 _atom_site_label
 _atom_site_symmetry_multiplicity
 _atom_site_fract_x
 _atom_site_fract_y
 _atom_site_fract_z
 _atom_site_occupancy
  Re  Re0  1  0.81776500  0.38929000  0.42936600  1
  Re  Re1  1  0.61071000  0.18223500  0.07063400  1
  Re  Re2  1  0.18223500  0.61071000  0.57063400  1
  Re  Re3  1  0.38929000  0.81776500  0.92936600  1
  Re  Re4  1  0.84036800  0.71434900  0.51730500  1
  Re  Re5  1  0.28565100  0.15963200  0.98269500  1
  Re  Re6  1  0.15963200  0.28565100  0.48269500  1
  Re  Re7  1  0.71434900  0.84036800  0.01730500  1
  H  H8  1  0.77932100  0.55062600  0.49199400  1
  H  H9  1  0.44937400  0.22067900  0.00800600  1
  H  H10  1  0.22067900  0.44937400  0.50800600  1
  H  H11  1  0.55062600  0.77932100  0.99199400  1
  H  H12  1  0.99272200  0.39580300  0.47196700  1
  H  H13  1  0.60419700  0.00727800  0.02803300  1
  H  H14  1  0.00727800  0.60419700  0.52803300  1
  H  H15  1  0.39580300  0.99272200  0.97196700  1
  C  C16  1  0.62764900  0.43813600  0.39504200  1
  C  C17  1  0.56186400  0.37235100  0.10495800  1
  C  C18  1  0.37235100  0.56186400  0.60495800  1
  C  C19  1  0.43813600  0.62764900  0.89504200  1
  C  C20  1  0.81455500  0.20583000  0.38282100  1
  C  C21  1  0.79417000  0.18544500  0.11717900  1
  C  C22  1  0.18544500  0.79417000  0.61717900  1
  C  C23  1  0.20583000  0.81455500  0.88282100  1
  C  C24  1  0.75669500  0.31865100  0.56708900  1
  C  C25  1  0.68134900  0.24330500  0.93291100  1
  C  C26  1  0.24330500  0.68134900  0.43291100  1
  C  C27  1  0.31865100  0.75669500  0.06708900  1
  C  C28  1  0.88527000  0.46230800  0.29597300  1
  C  C29  1  0.53769200  0.11473000  0.20402700  1
  C  C30  1  0.11473000  0.53769200  0.70402700  1
  C  C31  1  0.46230800  0.88527000  0.79597300  1
  C  C32  1  0.86786800  0.89495400  0.56001900  1
  C  C33  1  0.10504600  0.13213200  0.93998100  1
  C  C34  1  0.13213200  0.10504600  0.43998100  1
  C  C35  1  0.89495400  0.86786800  0.06001900  1
  C  C36  1  0.64927500  0.78195000  0.49102000  1
  C  C37  1  0.21805000  0.35072500  0.00898000  1
  C  C38  1  0.35072500  0.21805000  0.50898000  1
  C  C39  1  0.78195000  0.64927500  0.99102000  1
  C  C40  1  0.90587000  0.77034600  0.37860200  1
  C  C41  1  0.22965400  0.09413000  0.12139800  1
  C  C42  1  0.09413000  0.22965400  0.62139800  1
  C  C43  1  0.77034600  0.90587000  0.87860200  1
  C  C44  1  0.78348900  0.65075700  0.65569300  1
  C  C45  1  0.34924300  0.21651100  0.84430700  1
  C  C46  1  0.21651100  0.34924300  0.34430700  1
  C  C47  1  0.65075700  0.78348900  0.15569300  1
  O  O48  1  0.51276600  0.46838900  0.37482200  1
  O  O49  1  0.53161100  0.48723400  0.12517800  1
  O  O50  1  0.48723400  0.53161100  0.62517800  1
  O  O51  1  0.46838900  0.51276600  0.87482200  1
  O  O52  1  0.80237100  0.09647900  0.35636600  1
  O  O53  1  0.90352100  0.19762900  0.14363400  1
  O  O54  1  0.19762900  0.90352100  0.64363400  1
  O  O55  1  0.09647900  0.80237100  0.85636600  1
  O  O56  1  0.71914200  0.27859900  0.64487500  1
  O  O57  1  0.72140100  0.28085800  0.85512500  1
  O  O58  1  0.28085800  0.72140100  0.35512500  1
  O  O59  1  0.27859900  0.71914200  0.14487500  1
  O  O60  1  0.92113000  0.50433600  0.21756800  1
  O  O61  1  0.49566400  0.07887000  0.28243200  1
  O  O62  1  0.07887000  0.49566400  0.78243200  1
  O  O63  1  0.50433600  0.92113000  0.71756800  1
  O  O64  1  0.87811400  0.00549900  0.58465400  1
  O  O65  1  0.99450100  0.12188600  0.91534600  1
  O  O66  1  0.12188600  0.99450100  0.41534600  1
  O  O67  1  0.00549900  0.87811400  0.08465400  1
  O  O68  1  0.53371600  0.82094200  0.47628200  1
  O  O69  1  0.17905800  0.46628400  0.02371800  1
  O  O70  1  0.46628400  0.17905800  0.52371800  1
  O  O71  1  0.82094200  0.53371600  0.97628200  1
  O  O72  1  0.94139100  0.80420500  0.29858500  1
  O  O73  1  0.19579500  0.05860900  0.20141500  1
  O  O74  1  0.05860900  0.19579500  0.70141500  1
  O  O75  1  0.80420500  0.94139100  0.79858500  1
  O  O76  1  0.74959900  0.61682400  0.73616700  1
  O  O77  1  0.38317600  0.25040100  0.76383300  1
  O  O78  1  0.25040100  0.38317600  0.26383300  1
  O  O79  1  0.61682400  0.74959900  0.23616700  1
