# generated using pymatgen
data_Co29O40
_symmetry_space_group_name_H-M   'P 1'
_cell_length_a   8.33737100
_cell_length_b   10.19918113
_cell_length_c   10.24846200
_cell_angle_alpha   80.16312148
_cell_angle_beta   66.05605714
_cell_angle_gamma   66.06742624
_symmetry_Int_Tables_number   1
_chemical_formula_structural   Co29O40
_chemical_formula_sum   'Co29 O40'
_cell_volume   727.97686021
_cell_formula_units_Z   1
loop_
 _symmetry_equiv_pos_site_id
 _symmetry_equiv_pos_as_xyz
  1  'x, y, z'
loop_
 _atom_site_type_symbol
 _atom_site_label
 _atom_site_symmetry_multiplicity
 _atom_site_fract_x
 _atom_site_fract_y
 _atom_site_fract_z
 _atom_site_occupancy
  Co  Co0  1  0.17122500  0.55057800  0.85832300  1
  Co  Co1  1  0.90012500  0.90511000  0.80195900  1
  Co  Co2  1  0.50182000  0.00060500  0.99734000  1
  Co  Co3  1  0.57263300  0.95508600  0.64863100  1
  Co  Co4  1  0.19932800  0.20587900  0.90017200  1
  Co  Co5  1  0.30026200  0.30043000  0.59805700  1
  Co  Co6  1  0.89789000  0.39533100  0.80519000  1
  Co  Co7  1  0.69753800  0.69789600  0.89749600  1
  Co  Co8  1  0.97792400  0.34510000  0.45044100  1
  Co  Co9  1  0.59667200  0.59957600  0.70127700  1
  Co  Co10  1  0.69439800  0.70052900  0.40088700  1
  Co  Co11  1  0.21885500  0.85718500  0.94926100  1
  Co  Co12  1  0.30600500  0.80113600  0.59799100  1
  Co  Co13  1  0.10227000  0.10383300  0.69744400  1
  Co  Co14  1  0.37556800  0.74816600  0.24710400  1
  Co  Co15  1  0.99892900  0.00106900  0.50009800  1
  Co  Co16  1  0.62588400  0.24913000  0.75068900  1
  Co  Co17  1  0.10203400  0.10007500  0.19930300  1
  Co  Co18  1  0.70306800  0.19685100  0.39983200  1
  Co  Co19  1  0.50360800  0.49908500  0.50164400  1
  Co  Co20  1  0.40546500  0.39246400  0.29559400  1
  Co  Co21  1  0.49859900  0.49358300  0.00380500  1
  Co  Co22  1  0.02771200  0.65067000  0.54697000  1
  Co  Co23  1  0.09566300  0.60048900  0.20175700  1
  Co  Co24  1  0.89958000  0.90461700  0.28934800  1
  Co  Co25  1  0.79696600  0.79998700  0.09599700  1
  Co  Co26  1  0.42986700  0.05100100  0.34390100  1
  Co  Co27  1  0.29840100  0.30017600  0.10225900  1
  Co  Co28  1  0.82852100  0.44838600  0.15088600  1
  O  O29  1  0.92870000  0.71301300  0.91114200  1
  O  O30  1  0.74140400  0.97394600  0.99576000  1
  O  O31  1  0.64974200  0.89989700  0.81163500  1
  O  O32  1  0.42821300  0.20911800  0.91555200  1
  O  O33  1  0.32828300  0.11660100  0.69338400  1
  O  O34  1  0.98115300  0.19808500  0.87097300  1
  O  O35  1  0.14931800  0.39013300  0.79756800  1
  O  O36  1  0.06376100  0.29068900  0.60939900  1
  O  O37  1  0.74288400  0.49941000  0.99151800  1
  O  O38  1  0.64960000  0.41108100  0.80474500  1
  O  O39  1  0.84110800  0.59445800  0.71303900  1
  O  O40  1  0.45965500  0.68899700  0.90282600  1
  O  O41  1  0.73684600  0.50807400  0.50343500  1
  O  O42  1  0.35931500  0.60286000  0.69223000  1
  O  O43  1  0.55281100  0.79045800  0.59465700  1
  O  O44  1  0.45284200  0.69405000  0.41061600  1
  O  O45  1  0.14561300  0.91666000  0.78360700  1
  O  O46  1  0.04366200  0.82092400  0.60366500  1
  O  O47  1  0.23229900  0.00556500  0.51347900  1
  O  O48  1  0.87859900  0.09505900  0.69947100  1
  O  O49  1  0.13799900  0.91433500  0.30042700  1
  O  O50  1  0.76126100  0.01106900  0.48828900  1
  O  O51  1  0.93923100  0.18442700  0.40366300  1
  O  O52  1  0.85134000  0.09922600  0.22704700  1
  O  O53  1  0.54925100  0.29446200  0.58321300  1
  O  O54  1  0.47459300  0.20444700  0.39774700  1
  O  O55  1  0.64724900  0.38541400  0.31433700  1
  O  O56  1  0.27006900  0.48028300  0.49599300  1
  O  O57  1  0.51538300  0.31631600  0.10600100  1
  O  O58  1  0.16766300  0.39126100  0.28682000  1
  O  O59  1  0.33161000  0.59027100  0.20063200  1
  O  O60  1  0.24165800  0.49445800  0.02576600  1
  O  O61  1  0.94823600  0.70780300  0.38083600  1
  O  O62  1  0.85777600  0.61620000  0.19823000  1
  O  O63  1  0.01733900  0.80794700  0.10210000  1
  O  O64  1  0.66752700  0.88470400  0.28226100  1
  O  O65  1  0.57585100  0.79300600  0.08972800  1
  O  O66  1  0.35057800  0.10639700  0.18058000  1
  O  O67  1  0.26133200  0.01402900  0.00113400  1
  O  O68  1  0.07189900  0.28731600  0.09992900  1
