# generated using pymatgen
data_CuH7C3SN3O4
_symmetry_space_group_name_H-M   'P 1'
_cell_length_a   14.11009300
_cell_length_b   6.98530800
_cell_length_c   9.79698413
_cell_angle_alpha   82.11735862
_cell_angle_beta   90.00000000
_cell_angle_gamma   90.00000000
_symmetry_Int_Tables_number   1
_chemical_formula_structural   CuH7C3SN3O4
_chemical_formula_sum   'Cu4 H28 C12 S4 N12 O16'
_cell_volume   956.49941153
_cell_formula_units_Z   4
loop_
 _symmetry_equiv_pos_site_id
 _symmetry_equiv_pos_as_xyz
  1  'x, y, z'
loop_
 _atom_site_type_symbol
 _atom_site_label
 _atom_site_symmetry_multiplicity
 _atom_site_fract_x
 _atom_site_fract_y
 _atom_site_fract_z
 _atom_site_occupancy
  Cu  Cu0  1  0.74146800  0.24149500  0.19378500  1
  Cu  Cu1  1  0.24146800  0.75850500  0.30621500  1
  Cu  Cu2  1  0.25853200  0.75850500  0.80621500  1
  Cu  Cu3  1  0.75853200  0.24149500  0.69378500  1
  H  H4  1  0.66308300  0.55406700  0.85464800  1
  H  H5  1  0.16308300  0.44593300  0.64535200  1
  H  H6  1  0.33691700  0.44593300  0.14535200  1
  H  H7  1  0.83691700  0.55406700  0.35464800  1
  H  H8  1  0.92512200  0.26308800  0.00625800  1
  H  H9  1  0.42512200  0.73691200  0.49374200  1
  H  H10  1  0.07487800  0.73691200  0.99374200  1
  H  H11  1  0.57487800  0.26308800  0.50625800  1
  H  H12  1  0.86312200  0.88396000  0.82668500  1
  H  H13  1  0.36312200  0.11604000  0.67331500  1
  H  H14  1  0.13687800  0.11604000  0.17331500  1
  H  H15  1  0.63687800  0.88396000  0.32668500  1
  H  H16  1  0.95722500  0.88997700  0.94185600  1
  H  H17  1  0.45722500  0.11002300  0.55814400  1
  H  H18  1  0.04277500  0.11002300  0.05814400  1
  H  H19  1  0.54277500  0.88997700  0.44185600  1
  H  H20  1  0.54147600  0.31316400  0.45155100  1
  H  H21  1  0.04147600  0.68683600  0.04844900  1
  H  H22  1  0.45852400  0.68683600  0.54844900  1
  H  H23  1  0.95852400  0.31316400  0.95155100  1
  H  H24  1  0.95250100  0.42573200  0.12552500  1
  H  H25  1  0.45250100  0.57426800  0.37447500  1
  H  H26  1  0.04749900  0.57426800  0.87447500  1
  H  H27  1  0.54749900  0.42573200  0.62552500  1
  H  H28  1  0.01227500  0.49616600  0.24135400  1
  H  H29  1  0.51227500  0.50383400  0.25864600  1
  H  H30  1  0.98772500  0.50383400  0.75864600  1
  H  H31  1  0.48772500  0.49616600  0.74135400  1
  C  C32  1  0.82570400  0.96142800  0.01165800  1
  C  C33  1  0.32570400  0.03857200  0.48834200  1
  C  C34  1  0.17429600  0.03857200  0.98834200  1
  C  C35  1  0.67429600  0.96142800  0.51165800  1
  C  C36  1  0.67439200  0.48337100  0.95967600  1
  C  C37  1  0.17439200  0.51662900  0.54032400  1
  C  C38  1  0.32560800  0.51662900  0.04032400  1
  C  C39  1  0.82560800  0.48337100  0.45967600  1
  C  C40  1  0.63895600  0.56466700  0.08116300  1
  C  C41  1  0.13895600  0.43533300  0.41883700  1
  C  C42  1  0.36104400  0.43533300  0.91883700  1
  C  C43  1  0.86104400  0.56466700  0.58116300  1
  S  S44  1  0.84854300  0.99411100  0.17500100  1
  S  S45  1  0.34854300  0.00588900  0.32499900  1
  S  S46  1  0.15145700  0.00588900  0.82499900  1
  S  S47  1  0.65145700  0.99411100  0.67500100  1
  N  N48  1  0.70766400  0.30689600  0.98738800  1
  N  N49  1  0.20766400  0.69310400  0.51261200  1
  N  N50  1  0.29233600  0.69310400  0.01261200  1
  N  N51  1  0.79233600  0.30689600  0.48738800  1
  N  N52  1  0.73995400  0.20574900  0.89620900  1
  N  N53  1  0.23995400  0.79425100  0.60379100  1
  N  N54  1  0.26004600  0.79425100  0.10379100  1
  N  N55  1  0.76004600  0.20574900  0.39620900  1
  N  N56  1  0.88680400  0.90834900  0.92119000  1
  N  N57  1  0.38680400  0.09165100  0.57881000  1
  N  N58  1  0.11319600  0.09165100  0.07881000  1
  N  N59  1  0.61319600  0.90834900  0.42119000  1
  O  O60  1  0.66171700  0.46782100  0.20244500  1
  O  O61  1  0.16171700  0.53217900  0.29755500  1
  O  O62  1  0.33828300  0.53217900  0.79755500  1
  O  O63  1  0.83828300  0.46782100  0.70244500  1
  O  O64  1  0.58643700  0.70801900  0.07032600  1
  O  O65  1  0.08643700  0.29198100  0.42967400  1
  O  O66  1  0.41356300  0.29198100  0.92967400  1
  O  O67  1  0.91356300  0.70801900  0.57032600  1
  O  O68  1  0.26378500  0.00040900  0.03860400  1
  O  O69  1  0.76378500  0.99959100  0.46139600  1
  O  O70  1  0.73621500  0.99959100  0.96139600  1
  O  O71  1  0.23621500  0.00040900  0.53860400  1
  O  O72  1  0.95452400  0.52501000  0.18626000  1
  O  O73  1  0.45452400  0.47499000  0.31374000  1
  O  O74  1  0.04547600  0.47499000  0.81374000  1
  O  O75  1  0.54547600  0.52501000  0.68626000  1
