# generated using pymatgen
data_Sn3H4(NO5)2
_symmetry_space_group_name_H-M   'P 1'
_cell_length_a   9.18311300
_cell_length_b   7.93188700
_cell_length_c   16.33706038
_cell_angle_alpha   61.61726771
_cell_angle_beta   90.00000000
_cell_angle_gamma   90.00000000
_symmetry_Int_Tables_number   1
_chemical_formula_structural   Sn3H4(NO5)2
_chemical_formula_sum   'Sn12 H16 N8 O40'
_cell_volume   1046.93642119
_cell_formula_units_Z   4
loop_
 _symmetry_equiv_pos_site_id
 _symmetry_equiv_pos_as_xyz
  1  'x, y, z'
loop_
 _atom_site_type_symbol
 _atom_site_label
 _atom_site_symmetry_multiplicity
 _atom_site_fract_x
 _atom_site_fract_y
 _atom_site_fract_z
 _atom_site_occupancy
  Sn  Sn0  1  0.80332100  0.21958100  0.82136900  1
  Sn  Sn1  1  0.69667900  0.21958100  0.32136900  1
  Sn  Sn2  1  0.19667900  0.78041900  0.17863100  1
  Sn  Sn3  1  0.30332100  0.78041900  0.67863100  1
  Sn  Sn4  1  0.77758500  0.17395100  0.61219500  1
  Sn  Sn5  1  0.72241500  0.17395100  0.11219500  1
  Sn  Sn6  1  0.22241500  0.82604900  0.38780500  1
  Sn  Sn7  1  0.27758500  0.82604900  0.88780500  1
  Sn  Sn8  1  0.76648900  0.75407300  0.83900000  1
  Sn  Sn9  1  0.73351100  0.75407300  0.33900000  1
  Sn  Sn10  1  0.23351100  0.24592700  0.16100000  1
  Sn  Sn11  1  0.26648900  0.24592700  0.66100000  1
  H  H12  1  0.91138100  0.82281300  0.67362600  1
  H  H13  1  0.58861900  0.82281300  0.17362600  1
  H  H14  1  0.08861900  0.17718700  0.32637400  1
  H  H15  1  0.41138100  0.17718700  0.82637400  1
  H  H16  1  0.56194700  0.05083900  0.76470300  1
  H  H17  1  0.93805300  0.05083900  0.26470300  1
  H  H18  1  0.43805300  0.94916100  0.23529700  1
  H  H19  1  0.06194700  0.94916100  0.73529700  1
  H  H20  1  0.92700300  0.42710100  0.65187000  1
  H  H21  1  0.57299700  0.42710100  0.15187000  1
  H  H22  1  0.07299700  0.57289900  0.34813000  1
  H  H23  1  0.42700300  0.57289900  0.84813000  1
  H  H24  1  0.92853800  0.87552500  0.94048200  1
  H  H25  1  0.57146200  0.87552500  0.44048200  1
  H  H26  1  0.07146200  0.12447500  0.05951800  1
  H  H27  1  0.42853800  0.12447500  0.55951800  1
  N  N28  1  0.58998000  0.79543600  0.02360700  1
  N  N29  1  0.91002000  0.79543600  0.52360700  1
  N  N30  1  0.41002000  0.20456400  0.97639300  1
  N  N31  1  0.08998000  0.20456400  0.47639300  1
  N  N32  1  0.42956800  0.38604600  0.38828100  1
  N  N33  1  0.07043200  0.38604600  0.88828100  1
  N  N34  1  0.57043200  0.61395400  0.61171900  1
  N  N35  1  0.92956800  0.61395400  0.11171900  1
  O  O36  1  0.89235300  0.90233600  0.70443800  1
  O  O37  1  0.60764700  0.90233600  0.20443800  1
  O  O38  1  0.10764700  0.09766400  0.29556200  1
  O  O39  1  0.39235300  0.09766400  0.79556200  1
  O  O40  1  0.66984700  0.04234400  0.75739000  1
  O  O41  1  0.83015300  0.04234400  0.25739000  1
  O  O42  1  0.33015300  0.95765600  0.24261000  1
  O  O43  1  0.16984700  0.95765600  0.74261000  1
  O  O44  1  0.90619400  0.28748400  0.68739700  1
  O  O45  1  0.59380600  0.28748400  0.18739700  1
  O  O46  1  0.09380600  0.71251600  0.31260300  1
  O  O47  1  0.40619400  0.71251600  0.81260300  1
  O  O48  1  0.90263300  0.93254100  0.87372300  1
  O  O49  1  0.59736700  0.93254100  0.37372300  1
  O  O50  1  0.09736700  0.06745900  0.12627700  1
  O  O51  1  0.40263300  0.06745900  0.62627700  1
  O  O52  1  0.65618500  0.95057700  0.00034800  1
  O  O53  1  0.84381500  0.95057700  0.50034800  1
  O  O54  1  0.34381500  0.04942300  0.99965200  1
  O  O55  1  0.15618500  0.04942300  0.49965200  1
  O  O56  1  0.55274600  0.68970500  0.10812500  1
  O  O57  1  0.94725400  0.68970500  0.60812500  1
  O  O58  1  0.44725400  0.31029500  0.89187500  1
  O  O59  1  0.05274600  0.31029500  0.39187500  1
  O  O60  1  0.55875800  0.74242800  0.96333700  1
  O  O61  1  0.94124200  0.74242800  0.46333700  1
  O  O62  1  0.44124200  0.25757200  0.03666300  1
  O  O63  1  0.05875800  0.25757200  0.53666300  1
  O  O64  1  0.36459200  0.45814800  0.43257800  1
  O  O65  1  0.13540800  0.45814800  0.93257800  1
  O  O66  1  0.63540800  0.54185200  0.56742200  1
  O  O67  1  0.86459200  0.54185200  0.06742200  1
  O  O68  1  0.47607100  0.21277600  0.43232000  1
  O  O69  1  0.02392900  0.21277600  0.93232000  1
  O  O70  1  0.52392900  0.78722400  0.56768000  1
  O  O71  1  0.97607100  0.78722400  0.06768000  1
  O  O72  1  0.45232500  0.48167400  0.30156700  1
  O  O73  1  0.04767500  0.48167400  0.80156700  1
  O  O74  1  0.54767500  0.51832600  0.69843300  1
  O  O75  1  0.95232500  0.51832600  0.19843300  1
