# generated using pymatgen
data_Fe5SiO8
_symmetry_space_group_name_H-M   'P 1'
_cell_length_a   8.51411100
_cell_length_b   5.98806000
_cell_length_c   12.08113008
_cell_angle_alpha   89.78497072
_cell_angle_beta   90.00000000
_cell_angle_gamma   90.00000000
_symmetry_Int_Tables_number   1
_chemical_formula_structural   Fe5SiO8
_chemical_formula_sum   'Fe20 Si4 O32'
_cell_volume   615.92800802
_cell_formula_units_Z   4
loop_
 _symmetry_equiv_pos_site_id
 _symmetry_equiv_pos_as_xyz
  1  'x, y, z'
loop_
 _atom_site_type_symbol
 _atom_site_label
 _atom_site_symmetry_multiplicity
 _atom_site_fract_x
 _atom_site_fract_y
 _atom_site_fract_z
 _atom_site_occupancy
  Fe  Fe0  1  0.24840500  0.24725200  0.75283600  1
  Fe  Fe1  1  0.75159500  0.75274800  0.24716400  1
  Fe  Fe2  1  0.37044300  0.75031700  0.37418500  1
  Fe  Fe3  1  0.50417000  0.50699100  0.12410500  1
  Fe  Fe4  1  0.87044300  0.24968300  0.12581500  1
  Fe  Fe5  1  0.25159500  0.24725200  0.25283600  1
  Fe  Fe6  1  0.28073900  0.24947000  0.50108100  1
  Fe  Fe7  1  0.00111800  0.99782100  0.62435900  1
  Fe  Fe8  1  0.50111800  0.00217900  0.87564100  1
  Fe  Fe9  1  0.49888200  0.99782100  0.12435900  1
  Fe  Fe10  1  0.71926100  0.75053000  0.49891900  1
  Fe  Fe11  1  0.74840500  0.75274800  0.74716400  1
  Fe  Fe12  1  0.78073900  0.75053000  0.99891900  1
  Fe  Fe13  1  0.00417000  0.49300900  0.37589500  1
  Fe  Fe14  1  0.99583000  0.50699100  0.62410500  1
  Fe  Fe15  1  0.49583000  0.49300900  0.87589500  1
  Fe  Fe16  1  0.21926100  0.24947000  0.00108100  1
  Fe  Fe17  1  0.62955700  0.24968300  0.62581500  1
  Fe  Fe18  1  0.99888200  0.00217900  0.37564100  1
  Fe  Fe19  1  0.12955700  0.75031700  0.87418500  1
  Si  Si20  1  0.36541100  0.74631300  0.63462300  1
  Si  Si21  1  0.86541100  0.25368700  0.86537700  1
  Si  Si22  1  0.63458900  0.25368700  0.36537700  1
  Si  Si23  1  0.13458900  0.74631300  0.13462300  1
  O  O24  1  0.50057500  0.73945300  0.24466500  1
  O  O25  1  0.47104300  0.74576700  0.51919700  1
  O  O26  1  0.24901900  0.51726900  0.13030000  1
  O  O27  1  0.73999700  0.50633400  0.12375500  1
  O  O28  1  0.98531200  0.26036700  0.75563500  1
  O  O29  1  0.47817200  0.27055500  0.00750300  1
  O  O30  1  0.97104300  0.25423300  0.98080300  1
  O  O31  1  0.51468800  0.26036700  0.25563500  1
  O  O32  1  0.75582300  0.99174400  0.62142300  1
  O  O33  1  0.25672400  0.97885300  0.63155400  1
  O  O34  1  0.75672400  0.02114700  0.86844600  1
  O  O35  1  0.25582300  0.00825600  0.87857700  1
  O  O36  1  0.74417700  0.99174400  0.12142300  1
  O  O37  1  0.24327600  0.97885300  0.13155400  1
  O  O38  1  0.97817200  0.72944500  0.49249700  1
  O  O39  1  0.48531200  0.73963300  0.74436500  1
  O  O40  1  0.99942500  0.73945300  0.74466500  1
  O  O41  1  0.52182800  0.72944500  0.99249700  1
  O  O42  1  0.23999700  0.49366600  0.37624500  1
  O  O43  1  0.74901900  0.48273100  0.36970000  1
  O  O44  1  0.25098100  0.51726900  0.63030000  1
  O  O45  1  0.76000300  0.50633400  0.62375500  1
  O  O46  1  0.26000300  0.49366600  0.87624500  1
  O  O47  1  0.75098100  0.48273100  0.86970000  1
  O  O48  1  0.00057500  0.26054700  0.25533500  1
  O  O49  1  0.52895700  0.25423300  0.48080300  1
  O  O50  1  0.02182800  0.27055500  0.50750300  1
  O  O51  1  0.49942500  0.26054700  0.75533500  1
  O  O52  1  0.74327600  0.02114700  0.36844600  1
  O  O53  1  0.24417700  0.00825600  0.37857700  1
  O  O54  1  0.02895700  0.74576700  0.01919700  1
  O  O55  1  0.01468800  0.73963300  0.24436500  1
