# generated using pymatgen
data_Fe38O39
_symmetry_space_group_name_H-M   'P 1'
_cell_length_a   40.34274536
_cell_length_b   24.61252332
_cell_length_c   10.25882715
_cell_angle_alpha   24.14690182
_cell_angle_beta   40.89789027
_cell_angle_gamma   19.04792241
_symmetry_Int_Tables_number   1
_chemical_formula_structural   Fe38O39
_chemical_formula_sum   'Fe38 O39'
_cell_volume   817.94299097
_cell_formula_units_Z   1
loop_
 _symmetry_equiv_pos_site_id
 _symmetry_equiv_pos_as_xyz
  1  'x, y, z'
loop_
 _atom_site_type_symbol
 _atom_site_label
 _atom_site_symmetry_multiplicity
 _atom_site_fract_x
 _atom_site_fract_y
 _atom_site_fract_z
 _atom_site_occupancy
  Fe  Fe0  1  0.07674881  0.33355721  0.00119085  1
  Fe  Fe1  1  0.14834377  0.35564995  0.96885543  1
  Fe  Fe2  1  0.22514793  0.35317361  0.96646923  1
  Fe  Fe3  1  0.07760567  0.66315811  0.00688634  1
  Fe  Fe4  1  0.30800124  0.33133693  0.00374732  1
  Fe  Fe5  1  0.14903006  0.67839548  -0.00245874  1
  Fe  Fe6  1  0.38705380  0.32927818  0.99975599  1
  Fe  Fe7  1  0.22557221  0.67286079  0.00577536  1
  Fe  Fe8  1  0.45825038  0.33829099  0.00022206  1
  Fe  Fe9  1  0.07912337  0.99165022  0.00455645  1
  Fe  Fe10  1  0.30501570  0.67489130  0.99028610  1
  Fe  Fe11  1  0.53732707  0.33512957  0.00335493  1
  Fe  Fe12  1  0.15582352  0.99188912  0.00897267  1
  Fe  Fe13  1  0.38568080  0.66366640  0.00281543  1
  Fe  Fe14  1  0.61431920  0.33633360  0.99718457  1
  Fe  Fe15  1  0.23381107  0.99406281  0.00592709  1
  Fe  Fe16  1  0.46267293  0.66487043  0.99664507  1
  Fe  Fe17  1  0.69498430  0.32510870  0.00971390  1
  Fe  Fe18  1  0.31004513  0.99240102  0.00615778  1
  Fe  Fe19  1  0.54174962  0.66170901  -0.00022206  1
  Fe  Fe20  1  0.77442779  0.32713921  0.99422464  1
  Fe  Fe21  1  0.37518445  0.02384500  0.97635588  1
  Fe  Fe22  1  0.61294620  0.67072182  0.00024401  1
  Fe  Fe23  1  0.85096994  0.32160452  0.00245874  1
  Fe  Fe24  1  0.46832501  0.98601263  0.01418209  1
  Fe  Fe25  1  0.69199876  0.66866307  0.99625268  1
  Fe  Fe26  1  0.92239433  0.33684189  0.99311366  1
  Fe  Fe27  1  0.53167499  0.01398737  0.98581791  1
  Fe  Fe28  1  0.77485207  0.64682639  0.03353077  1
  Fe  Fe29  1  -0.00005703  0.33830908  0.98642919  1
  Fe  Fe30  1  0.62481555  0.97615500  0.02364412  1
  Fe  Fe31  1  0.85165623  0.64435005  0.03114457  1
  Fe  Fe32  1  0.68995487  0.00759898  0.99384222  1
  Fe  Fe33  1  0.92325119  0.66644279  0.99880915  1
  Fe  Fe34  1  0.76618893  0.00593719  0.99407291  1
  Fe  Fe35  1  0.00005703  0.66169092  0.01357081  1
  Fe  Fe36  1  0.84417648  0.00811088  0.99102733  1
  Fe  Fe37  1  0.92087663  0.00834978  0.99544355  1
  O  O38  1  0.07523297  0.17334003  0.48581150  1
  O  O39  1  0.15887197  0.15267412  0.51267652  1
  O  O40  1  0.23294633  0.16990074  0.49016480  1
  O  O41  1  0.06945050  0.51338410  0.49286540  1
  O  O42  1  0.30795765  0.16946423  0.50452846  1
  O  O43  1  0.15402817  0.50221310  0.47998356  1
  O  O44  1  0.37280500  0.19792954  0.45863051  1
  O  O45  1  0.25063249  0.45111347  0.54947471  1
  O  O46  1  0.45631217  0.17867040  0.49495929  1
  O  O47  1  0.06030325  0.87129496  0.46386043  1
  O  O48  1  0.30141837  0.51192019  0.49054906  1
  O  O49  1  0.54514477  0.14331680  0.52998686  1
  O  O50  1  0.15849864  0.80951421  0.54035977  1
  O  O51  1  0.37627028  0.51801366  0.48334030  1
  O  O52  1  0.61688111  0.16570523  0.49351218  1
  O  O53  1  0.23722549  0.81658422  0.52116258  1
  O  O54  1  0.46067528  0.49565103  0.50433575  1
  O  O55  1  0.68810418  0.16602852  0.51198660  1
  O  O56  1  0.31189582  0.83397148  0.48801340  1
  O  O57  1  0.53932472  0.50434897  0.49566425  1
  O  O58  1  0.76277451  0.18341578  0.47883742  1
  O  O59  1  0.38311889  0.83429477  0.50648782  1
  O  O60  1  0.62372972  0.48198634  0.51665970  1
  O  O61  1  0.84150136  0.19048579  0.45964023  1
  O  O62  1  0.45485523  0.85668320  0.47001314  1
  O  O63  1  0.69858163  0.48807981  0.50945094  1
  O  O64  1  0.93969675  0.12870504  0.53613957  1
  O  O65  1  0.54368783  0.82132960  0.50504071  1
  O  O66  1  0.74936751  0.54888653  0.45052529  1
  O  O67  1  0.00476663  0.16430699  0.47622555  1
  O  O68  1  0.62719500  0.80207046  0.54136949  1
  O  O69  1  0.84597183  0.49778690  0.52001644  1
  O  O70  1  0.69204235  0.83053577  0.49547154  1
  O  O71  1  0.93054950  0.48661590  0.50713460  1
  O  O72  1  0.76705367  0.83009926  0.50983520  1
  O  O73  1  0.00000000  0.50000000  0.50000000  1
  O  O74  1  0.84112803  0.84732588  0.48732348  1
  O  O75  1  0.92476703  0.82665997  0.51418850  1
  O  O76  1  0.99523337  0.83569301  0.52377445  1
