# generated using pymatgen
data_Ta2MnO6
_symmetry_space_group_name_H-M   'P 1'
_cell_length_a   18.16465800
_cell_length_b   18.16465800
_cell_length_c   5.19009371
_cell_angle_alpha   89.75076932
_cell_angle_beta   89.75076932
_cell_angle_gamma   149.25367918
_symmetry_Int_Tables_number   1
_chemical_formula_structural   Ta2MnO6
_chemical_formula_sum   'Ta16 Mn8 O48'
_cell_volume   875.37516559
_cell_formula_units_Z   8
loop_
 _symmetry_equiv_pos_site_id
 _symmetry_equiv_pos_as_xyz
  1  'x, y, z'
loop_
 _atom_site_type_symbol
 _atom_site_label
 _atom_site_symmetry_multiplicity
 _atom_site_fract_x
 _atom_site_fract_y
 _atom_site_fract_z
 _atom_site_occupancy
  Ta  Ta0  1  0.88265000  0.60730500  0.24414800  1
  Ta  Ta1  1  0.05738900  0.94261100  0.25000000  1
  Ta  Ta2  1  0.22474700  0.28220300  0.24444200  1
  Ta  Ta3  1  0.39269500  0.11735000  0.25585200  1
  Ta  Ta4  1  0.56046600  0.94766300  0.25775700  1
  Ta  Ta5  1  0.71779700  0.77525300  0.25555800  1
  Ta  Ta6  1  0.72313900  0.27686100  0.25000000  1
  Ta  Ta7  1  0.05233700  0.43953400  0.24224300  1
  Ta  Ta8  1  0.28220300  0.22474700  0.74444200  1
  Ta  Ta9  1  0.60730500  0.88265000  0.74414800  1
  Ta  Ta10  1  0.77525300  0.71779700  0.75555800  1
  Ta  Ta11  1  0.94261100  0.05738900  0.75000000  1
  Ta  Ta12  1  0.94766300  0.56046600  0.75775700  1
  Ta  Ta13  1  0.11735000  0.39269500  0.75585200  1
  Ta  Ta14  1  0.27686100  0.72313900  0.75000000  1
  Ta  Ta15  1  0.43953400  0.05233700  0.74224300  1
  Mn  Mn16  1  0.55637300  0.44362700  0.25000000  1
  Mn  Mn17  1  0.38924800  0.61075200  0.25000000  1
  Mn  Mn18  1  0.88539600  0.11460400  0.25000000  1
  Mn  Mn19  1  0.22067300  0.77932700  0.25000000  1
  Mn  Mn20  1  0.11460400  0.88539600  0.75000000  1
  Mn  Mn21  1  0.44362700  0.55637300  0.75000000  1
  Mn  Mn22  1  0.61075200  0.38924800  0.75000000  1
  Mn  Mn23  1  0.77932700  0.22067300  0.75000000  1
  O  O24  1  0.36441600  0.33068200  0.06376300  1
  O  O25  1  0.69986600  0.00249800  0.06179900  1
  O  O26  1  0.48256700  0.27398600  0.09860600  1
  O  O27  1  0.04411500  0.67398900  0.06106400  1
  O  O28  1  0.89323200  0.84912400  0.08162600  1
  O  O29  1  0.98660200  0.78172700  0.10923700  1
  O  O30  1  0.82732200  0.94829700  0.07563200  1
  O  O31  1  0.20760600  0.50540800  0.07084900  1
  O  O32  1  0.31184200  0.43740700  0.09928700  1
  O  O33  1  0.16106300  0.61549600  0.07674900  1
  O  O34  1  0.55543600  0.17933700  0.08413000  1
  O  O35  1  0.64784300  0.11227700  0.11683500  1
  O  O36  1  0.21827300  0.01339800  0.39076300  1
  O  O37  1  0.56259300  0.68815800  0.40071300  1
  O  O38  1  0.88772300  0.35215700  0.38316500  1
  O  O39  1  0.15087600  0.10676800  0.41837400  1
  O  O40  1  0.72601400  0.51743300  0.40139400  1
  O  O41  1  0.49459200  0.79239400  0.42915100  1
  O  O42  1  0.05170300  0.17267800  0.42436800  1
  O  O43  1  0.82066300  0.44456400  0.41587000  1
  O  O44  1  0.66931800  0.63558400  0.43623700  1
  O  O45  1  0.38450400  0.83893700  0.42325100  1
  O  O46  1  0.99750200  0.30013400  0.43820100  1
  O  O47  1  0.32601100  0.95588500  0.43893600  1
  O  O48  1  0.00249800  0.69986600  0.56179900  1
  O  O49  1  0.33068200  0.36441600  0.56376300  1
  O  O50  1  0.94829700  0.82732200  0.57563200  1
  O  O51  1  0.67398900  0.04411500  0.56106400  1
  O  O52  1  0.50540800  0.20760600  0.57084900  1
  O  O53  1  0.27398600  0.48256700  0.59860600  1
  O  O54  1  0.84912400  0.89323200  0.58162600  1
  O  O55  1  0.61549600  0.16106300  0.57674900  1
  O  O56  1  0.17933700  0.55543600  0.58413000  1
  O  O57  1  0.43740700  0.31184200  0.59928700  1
  O  O58  1  0.78172700  0.98660200  0.60923700  1
  O  O59  1  0.11227700  0.64784300  0.61683500  1
  O  O60  1  0.68815800  0.56259300  0.90071300  1
  O  O61  1  0.79239400  0.49459200  0.92915100  1
  O  O62  1  0.17267800  0.05170300  0.92436800  1
  O  O63  1  0.01339800  0.21827300  0.89076300  1
  O  O64  1  0.10676800  0.15087600  0.91837400  1
  O  O65  1  0.51743300  0.72601400  0.90139400  1
  O  O66  1  0.35215700  0.88772300  0.88316500  1
  O  O67  1  0.44456400  0.82066300  0.91587000  1
  O  O68  1  0.30013400  0.99750200  0.93820100  1
  O  O69  1  0.83893700  0.38450400  0.92325100  1
  O  O70  1  0.63558400  0.66931800  0.93623700  1
  O  O71  1  0.95588500  0.32601100  0.93893600  1
