# generated using pymatgen
data_Cs4Zr3Mn(PO4)6
_symmetry_space_group_name_H-M   'P 1'
_cell_length_a   10.50685900
_cell_length_b   10.50957900
_cell_length_c   10.51429814
_cell_angle_alpha   89.99071981
_cell_angle_beta   90.00000000
_cell_angle_gamma   90.00000000
_symmetry_Int_Tables_number   1
_chemical_formula_structural   Cs4Zr3Mn(PO4)6
_chemical_formula_sum   'Cs8 Zr6 Mn2 P12 O48'
_cell_volume   1161.01680263
_cell_formula_units_Z   2
loop_
 _symmetry_equiv_pos_site_id
 _symmetry_equiv_pos_as_xyz
  1  'x, y, z'
loop_
 _atom_site_type_symbol
 _atom_site_label
 _atom_site_symmetry_multiplicity
 _atom_site_fract_x
 _atom_site_fract_y
 _atom_site_fract_z
 _atom_site_occupancy
  Cs  Cs0  1  0.06714200  0.18546300  0.06634300  1
  Cs  Cs1  1  0.78947900  0.04445300  0.71711200  1
  Cs  Cs2  1  0.28947900  0.95554700  0.28288800  1
  Cs  Cs3  1  0.56714200  0.81453700  0.93365700  1
  Cs  Cs4  1  0.92881200  0.67656500  0.42801100  1
  Cs  Cs5  1  0.20995300  0.53556200  0.79757400  1
  Cs  Cs6  1  0.70995300  0.46443800  0.20242600  1
  Cs  Cs7  1  0.42881200  0.32343500  0.57198900  1
  Zr  Zr8  1  0.41432100  0.16698300  0.91401300  1
  Zr  Zr9  1  0.64058700  0.11014600  0.35725200  1
  Zr  Zr10  1  0.14058700  0.88985400  0.64274800  1
  Zr  Zr11  1  0.91432100  0.83301700  0.08598700  1
  Zr  Zr12  1  0.58743300  0.65985300  0.58783000  1
  Zr  Zr13  1  0.08743300  0.34014700  0.41217000  1
  Mn  Mn14  1  0.35606700  0.60444800  0.14206800  1
  Mn  Mn15  1  0.85606700  0.39555200  0.85793200  1
  P  P16  1  0.12506100  0.20832200  0.72773800  1
  P  P17  1  0.72918000  0.12374000  0.04166400  1
  P  P18  1  0.95777900  0.02201700  0.37474000  1
  P  P19  1  0.45777900  0.97798300  0.62526000  1
  P  P20  1  0.22918000  0.87626000  0.95833600  1
  P  P21  1  0.62506100  0.79167800  0.27226200  1
  P  P22  1  0.87589900  0.70613500  0.76995000  1
  P  P23  1  0.27116800  0.62721900  0.45628200  1
  P  P24  1  0.04359500  0.51936600  0.12282700  1
  P  P25  1  0.54359500  0.48063400  0.87717300  1
  P  P26  1  0.77116800  0.37278100  0.54371800  1
  P  P27  1  0.37589900  0.29386500  0.23005000  1
  O  O28  1  0.35917400  0.24007800  0.09231700  1
  O  O29  1  0.25653400  0.22123400  0.79774500  1
  O  O30  1  0.79967800  0.22367600  0.96550400  1
  O  O31  1  0.47630200  0.20621000  0.29811800  1
  O  O32  1  0.72543300  0.16092800  0.18568300  1
  O  O33  1  0.00868600  0.15961400  0.35913000  1
  O  O34  1  0.58927800  0.10691300  0.99264500  1
  O  O35  1  0.08913900  0.06415100  0.72361700  1
  O  O36  1  0.53674500  0.04797100  0.52154200  1
  O  O37  1  0.47491300  0.05162700  0.75244500  1
  O  O38  1  0.81588500  0.02260100  0.41492500  1
  O  O39  1  0.79905000  0.99257600  0.02951300  1
  O  O40  1  0.29905000  0.00742400  0.97048700  1
  O  O41  1  0.31588500  0.97739900  0.58507500  1
  O  O42  1  0.97491300  0.94837300  0.24755500  1
  O  O43  1  0.03674500  0.95202900  0.47845800  1
  O  O44  1  0.58913900  0.93584900  0.27638300  1
  O  O45  1  0.08927800  0.89308700  0.00735500  1
  O  O46  1  0.50868600  0.84038600  0.64087000  1
  O  O47  1  0.22543300  0.83907200  0.81431700  1
  O  O48  1  0.97630200  0.79379000  0.70188200  1
  O  O49  1  0.29967800  0.77632400  0.03449600  1
  O  O50  1  0.75653400  0.77876600  0.20225500  1
  O  O51  1  0.85917400  0.75992200  0.90768300  1
  O  O52  1  0.64236800  0.74204700  0.41139500  1
  O  O53  1  0.74710000  0.72548600  0.69712200  1
  O  O54  1  0.20238700  0.72784400  0.54300800  1
  O  O55  1  0.52452100  0.71672900  0.20095900  1
  O  O56  1  0.26686600  0.67121500  0.31881000  1
  O  O57  1  0.99085500  0.65974700  0.14210900  1
  O  O58  1  0.40855600  0.60996800  0.51030800  1
  O  O59  1  0.92090100  0.56894100  0.76500500  1
  O  O60  1  0.45875300  0.54991100  0.97148400  1
  O  O61  1  0.52887200  0.54908200  0.74271900  1
  O  O62  1  0.18289500  0.51871300  0.08306500  1
  O  O63  1  0.19863300  0.49791900  0.47605600  1
  O  O64  1  0.69863300  0.50208100  0.52394400  1
  O  O65  1  0.68289500  0.48128700  0.91693500  1
  O  O66  1  0.02887200  0.45091800  0.25728100  1
  O  O67  1  0.95875300  0.45008900  0.02851600  1
  O  O68  1  0.42090100  0.43105900  0.23499500  1
  O  O69  1  0.90855600  0.39003200  0.48969200  1
  O  O70  1  0.49085500  0.34025300  0.85789100  1
  O  O71  1  0.76686600  0.32878500  0.68119000  1
  O  O72  1  0.02452100  0.28327100  0.79904100  1
  O  O73  1  0.70238700  0.27215600  0.45699200  1
  O  O74  1  0.24710000  0.27451400  0.30287800  1
  O  O75  1  0.14236800  0.25795300  0.58860500  1
