# generated using pymatgen
data_Sr10P6ClO24F
_symmetry_space_group_name_H-M   'P 1'
_cell_length_a   7.30267800
_cell_length_b   9.93906300
_cell_length_c   17.21384900
_cell_angle_alpha   89.99958394
_cell_angle_beta   90.00000000
_cell_angle_gamma   90.00000000
_symmetry_Int_Tables_number   1
_chemical_formula_structural   Sr10P6ClO24F
_chemical_formula_sum   'Sr20 P12 Cl2 O48 F2'
_cell_volume   1249.41174445
_cell_formula_units_Z   2
loop_
 _symmetry_equiv_pos_site_id
 _symmetry_equiv_pos_as_xyz
  1  'x, y, z'
loop_
 _atom_site_type_symbol
 _atom_site_label
 _atom_site_symmetry_multiplicity
 _atom_site_fract_x
 _atom_site_fract_y
 _atom_site_fract_z
 _atom_site_occupancy
  Sr  Sr0  1  0.24600400  0.74773200  0.99645200  1
  Sr  Sr1  1  0.25086600  0.61594000  0.62450100  1
  Sr  Sr2  1  0.99916000  0.49892100  0.83311900  1
  Sr  Sr3  1  0.49909200  0.49924100  0.83280900  1
  Sr  Sr4  1  0.75089200  0.37037900  0.62006200  1
  Sr  Sr5  1  0.25121300  0.25259800  0.49589400  1
  Sr  Sr6  1  0.24660600  0.13177900  0.87370200  1
  Sr  Sr7  1  0.24666600  0.12277600  0.12941600  1
  Sr  Sr8  1  0.49981800  0.99888000  0.66638400  1
  Sr  Sr9  1  0.99957400  0.99923600  0.66609200  1
  Sr  Sr10  1  0.99981800  0.00112000  0.33361600  1
  Sr  Sr11  1  0.49957400  0.00076400  0.33390800  1
  Sr  Sr12  1  0.74666600  0.87722400  0.87058400  1
  Sr  Sr13  1  0.74660600  0.86822100  0.12629800  1
  Sr  Sr14  1  0.75121300  0.74740200  0.50410600  1
  Sr  Sr15  1  0.25089200  0.62962100  0.37993800  1
  Sr  Sr16  1  0.49916000  0.50107900  0.16688100  1
  Sr  Sr17  1  0.99909200  0.50075900  0.16719100  1
  Sr  Sr18  1  0.75086600  0.38406000  0.37549900  1
  Sr  Sr19  1  0.74600400  0.25226800  0.00354800  1
  P  P20  1  0.75093600  0.66856000  0.69867800  1
  P  P21  1  0.74978400  0.61176600  0.98348900  1
  P  P22  1  0.25089500  0.28582000  0.68361100  1
  P  P23  1  0.74998500  0.21902200  0.81313700  1
  P  P24  1  0.74995700  0.17050100  0.20317900  1
  P  P25  1  0.75104500  0.11607900  0.48511600  1
  P  P26  1  0.25104500  0.88392100  0.51488400  1
  P  P27  1  0.24995700  0.82949900  0.79682100  1
  P  P28  1  0.24998500  0.78097800  0.18686300  1
  P  P29  1  0.75089500  0.71418000  0.31638900  1
  P  P30  1  0.24978400  0.38823400  0.01651100  1
  P  P31  1  0.25093600  0.33144000  0.30132200  1
  Cl  Cl32  1  0.47558800  0.00043800  0.00002800  1
  Cl  Cl33  1  0.97558800  0.99956200  0.99997200  1
  O  O34  1  0.92366300  0.68699900  0.95498700  1
  O  O35  1  0.57864100  0.69292600  0.95735000  1
  O  O36  1  0.25135500  0.68577600  0.83310300  1
  O  O37  1  0.74847200  0.67043100  0.78965100  1
  O  O38  1  0.57952000  0.59044300  0.66990500  1
  O  O39  1  0.92376700  0.59016100  0.67205400  1
  O  O40  1  0.74558100  0.47316400  0.94050900  1
  O  O41  1  0.25098900  0.40803100  0.74048800  1
  O  O42  1  0.25138800  0.40724800  0.92657500  1
  O  O43  1  0.74597900  0.35233000  0.76510000  1
  O  O44  1  0.07979100  0.28958900  0.62996300  1
  O  O45  1  0.42360300  0.28647300  0.63100600  1
  O  O46  1  0.92407600  0.22382700  0.86511600  1
  O  O47  1  0.57865800  0.21749200  0.86685900  1
  O  O48  1  0.92391400  0.19559400  0.45916200  1
  O  O49  1  0.57983600  0.19872000  0.46023000  1
  O  O50  1  0.25130200  0.18494200  0.33394700  1
  O  O51  1  0.74603600  0.17588400  0.29382100  1
  O  O52  1  0.24853800  0.15028500  0.72995400  1
  O  O53  1  0.57894400  0.09017300  0.17562000  1
  O  O54  1  0.92384200  0.08986500  0.17957700  1
  O  O55  1  0.75123300  0.09331600  0.57477800  1
  O  O56  1  0.75162100  0.09277700  0.75932900  1
  O  O57  1  0.24882500  0.02134600  0.55909600  1
  O  O58  1  0.74882500  0.97865400  0.44090400  1
  O  O59  1  0.25162100  0.90722300  0.24067100  1
  O  O60  1  0.25123300  0.90668400  0.42522200  1
  O  O61  1  0.07894400  0.90982700  0.82438000  1
  O  O62  1  0.42384200  0.91013500  0.82042300  1
  O  O63  1  0.74853800  0.84971500  0.27004600  1
  O  O64  1  0.24603600  0.82411600  0.70617900  1
  O  O65  1  0.75130200  0.81505800  0.66605300  1
  O  O66  1  0.42391400  0.80440600  0.54083800  1
  O  O67  1  0.07983600  0.80128000  0.53977000  1
  O  O68  1  0.42407600  0.77617300  0.13488400  1
  O  O69  1  0.07865800  0.78250800  0.13314100  1
  O  O70  1  0.57979100  0.71041100  0.37003700  1
  O  O71  1  0.92360300  0.71352700  0.36899400  1
  O  O72  1  0.24597900  0.64767000  0.23490000  1
  O  O73  1  0.75138800  0.59275200  0.07342500  1
  O  O74  1  0.75098900  0.59196900  0.25951200  1
  O  O75  1  0.24558100  0.52683600  0.05949100  1
  O  O76  1  0.07952000  0.40955700  0.33009500  1
  O  O77  1  0.42376700  0.40983900  0.32794600  1
  O  O78  1  0.24847200  0.32956900  0.21034900  1
  O  O79  1  0.75135500  0.31422400  0.16689700  1
  O  O80  1  0.42366300  0.31300100  0.04501300  1
  O  O81  1  0.07864100  0.30707400  0.04265000  1
  F  F82  1  0.27534700  0.49876900  0.49993800  1
  F  F83  1  0.77534700  0.50123100  0.50006200  1
