# generated using pymatgen
data_Y2CuAu
_symmetry_space_group_name_H-M   'P 1'
_cell_length_a   11.64092477
_cell_length_b   11.64092477
_cell_length_c   11.64092477
_cell_angle_alpha   123.36017460
_cell_angle_beta   118.75106659
_cell_angle_gamma   88.22896861
_symmetry_Int_Tables_number   1
_chemical_formula_structural   Y2CuAu
_chemical_formula_sum   'Y2 Cu1 Au1'
_cell_volume   1094.76967015
_cell_formula_units_Z   1
loop_
 _symmetry_equiv_pos_site_id
 _symmetry_equiv_pos_as_xyz
  1  'x, y, z'
loop_
 _atom_site_type_symbol
 _atom_site_label
 _atom_site_symmetry_multiplicity
 _atom_site_fract_x
 _atom_site_fract_y
 _atom_site_fract_z
 _atom_site_occupancy
  Y  Y0  1  0.00000000  0.25055400  0.25055400  1
  Y  Y1  1  0.00000000  0.74944600  0.74944600  1
  Cu  Cu2  1  0.00000000  0.00000000  0.00000000  1
  Au  Au3  1  0.00000000  0.50000000  0.50000000  1
