# generated using pymatgen
data_K4Ti3Co(PO4)6
_symmetry_space_group_name_H-M   'P 1'
_cell_length_a   10.00266300
_cell_length_b   10.01074200
_cell_length_c   10.01531218
_cell_angle_alpha   89.90025176
_cell_angle_beta   90.00000000
_cell_angle_gamma   90.00000000
_symmetry_Int_Tables_number   1
_chemical_formula_structural   K4Ti3Co(PO4)6
_chemical_formula_sum   'K8 Ti6 Co2 P12 O48'
_cell_volume   1002.87253706
_cell_formula_units_Z   2
loop_
 _symmetry_equiv_pos_site_id
 _symmetry_equiv_pos_as_xyz
  1  'x, y, z'
loop_
 _atom_site_type_symbol
 _atom_site_label
 _atom_site_symmetry_multiplicity
 _atom_site_fract_x
 _atom_site_fract_y
 _atom_site_fract_z
 _atom_site_occupancy
  K  K0  1  0.04473500  0.54991600  0.71156200  1
  K  K1  1  0.68151500  0.82069300  0.56982700  1
  K  K2  1  0.18151500  0.17930700  0.43017300  1
  K  K3  1  0.54473500  0.45008400  0.28843800  1
  K  K4  1  0.95490200  0.95979200  0.19717800  1
  K  K5  1  0.31399500  0.68853600  0.06255100  1
  K  K6  1  0.81399500  0.31146400  0.93744900  1
  K  K7  1  0.45490200  0.04020800  0.80282200  1
  Ti  Ti8  1  0.39018500  0.39011900  0.64347100  1
  Ti  Ti9  1  0.83689800  0.16018700  0.58763400  1
  Ti  Ti10  1  0.33689800  0.83981300  0.41236600  1
  Ti  Ti11  1  0.89018500  0.60988100  0.35652900  1
  Ti  Ti12  1  0.16487900  0.33282200  0.08647200  1
  Ti  Ti13  1  0.66487900  0.66717800  0.91352800  1
  Co  Co14  1  0.60531400  0.10511000  0.14437500  1
  Co  Co15  1  0.10531400  0.89489000  0.85562500  1
  P  P16  1  0.37801700  0.70799500  0.72533300  1
  P  P17  1  0.70735700  0.47611300  0.62682800  1
  P  P18  1  0.02130400  0.87287700  0.54310400  1
  P  P19  1  0.52130400  0.12712300  0.45689600  1
  P  P20  1  0.20735700  0.52388700  0.37317200  1
  P  P21  1  0.87801700  0.29200500  0.27466700  1
  P  P22  1  0.62568600  0.79386300  0.22886500  1
  P  P23  1  0.29337400  0.02069400  0.12419700  1
  P  P24  1  0.97644700  0.62055800  0.04197300  1
  P  P25  1  0.47644700  0.37944200  0.95802700  1
  P  P26  1  0.79337400  0.97930600  0.87580300  1
  P  P27  1  0.12568600  0.20613700  0.77113500  1
  O  O28  1  0.77814100  0.04862000  0.73389800  1
  O  O29  1  0.33559200  0.55764600  0.72770500  1
  O  O30  1  0.22598700  0.30534700  0.70162900  1
  O  O31  1  0.99054800  0.22860700  0.69616400  1
  O  O32  1  0.00926100  0.81993700  0.68407800  1
  O  O33  1  0.75185700  0.32945700  0.64692100  1
  O  O34  1  0.39850000  0.75099800  0.57714100  1
  O  O35  1  0.55959400  0.48109500  0.58012200  1
  O  O36  1  0.45130300  0.22769700  0.55478800  1
  O  O37  1  0.94769400  0.00887500  0.51980300  1
  O  O38  1  0.79561100  0.54811300  0.52143800  1
  O  O39  1  0.66856500  0.10579600  0.50317100  1
  O  O40  1  0.16856500  0.89420400  0.49682900  1
  O  O41  1  0.29561100  0.45188700  0.47856200  1
  O  O42  1  0.44769400  0.99112500  0.48019700  1
  O  O43  1  0.95130300  0.77230300  0.44521200  1
  O  O44  1  0.05959400  0.51890500  0.41987800  1
  O  O45  1  0.89850000  0.24900200  0.42285900  1
  O  O46  1  0.25185700  0.67054300  0.35307900  1
  O  O47  1  0.50926100  0.18006300  0.31592200  1
  O  O48  1  0.49054800  0.77139300  0.30383600  1
  O  O49  1  0.72598700  0.69465300  0.29837100  1
  O  O50  1  0.83559200  0.44235400  0.27229500  1
  O  O51  1  0.27814100  0.95138000  0.26610200  1
  O  O52  1  0.22940100  0.44761000  0.24066600  1
  O  O53  1  0.67981700  0.93436200  0.24160000  1
  O  O54  1  0.77752300  0.20775300  0.20127600  1
  O  O55  1  0.01551400  0.27550100  0.20255700  1
  O  O56  1  0.97868200  0.66460200  0.19231200  1
  O  O57  1  0.24872100  0.17072200  0.14660100  1
  O  O58  1  0.60487300  0.74738100  0.08186200  1
  O  O59  1  0.43703400  0.01155200  0.07589600  1
  O  O60  1  0.54898300  0.27961000  0.04372900  1
  O  O61  1  0.04893200  0.48362200  0.02768200  1
  O  O62  1  0.19576900  0.94987000  0.03323400  1
  O  O63  1  0.32748900  0.39966300  0.00001400  1
  O  O64  1  0.82748900  0.60033700  0.99998600  1
  O  O65  1  0.69576900  0.05013000  0.96676600  1
  O  O66  1  0.54893200  0.51637800  0.97231800  1
  O  O67  1  0.04898300  0.72039000  0.95627100  1
  O  O68  1  0.93703400  0.98844800  0.92410400  1
  O  O69  1  0.10487300  0.25261900  0.91813800  1
  O  O70  1  0.74872100  0.82927800  0.85339900  1
  O  O71  1  0.47868200  0.33539800  0.80768800  1
  O  O72  1  0.51551400  0.72449900  0.79744300  1
  O  O73  1  0.27752300  0.79224700  0.79872400  1
  O  O74  1  0.17981700  0.06563800  0.75840000  1
  O  O75  1  0.72940100  0.55239000  0.75933400  1
