# generated using pymatgen
data_Na3Zr3Fe(PO4)6
_symmetry_space_group_name_H-M   'P 1'
_cell_length_a   9.26446515
_cell_length_b   9.25113671
_cell_length_c   18.55955496
_cell_angle_alpha   57.40647720
_cell_angle_beta   57.43125630
_cell_angle_gamma   57.30888381
_symmetry_Int_Tables_number   1
_chemical_formula_structural   Na3Zr3Fe(PO4)6
_chemical_formula_sum   'Na6 Zr6 Fe2 P12 O48'
_cell_volume   1057.01647012
_cell_formula_units_Z   2
loop_
 _symmetry_equiv_pos_site_id
 _symmetry_equiv_pos_as_xyz
  1  'x, y, z'
loop_
 _atom_site_type_symbol
 _atom_site_label
 _atom_site_symmetry_multiplicity
 _atom_site_fract_x
 _atom_site_fract_y
 _atom_site_fract_z
 _atom_site_occupancy
  Na  Na0  1  0.97688500  0.00584300  0.01162000  1
  Na  Na1  1  0.00241500  0.02655400  0.48984000  1
  Na  Na2  1  0.50024000  0.50011100  0.24987200  1
  Na  Na3  1  0.49760600  0.49449800  0.75071500  1
  Na  Na4  1  0.26846400  0.91670000  0.81957000  1
  Na  Na5  1  0.91393900  0.64396100  0.63430900  1
  Zr  Zr6  1  0.14950200  0.14913100  0.06921100  1
  Zr  Zr7  1  0.35398600  0.35505800  0.17591500  1
  Zr  Zr8  1  0.14452600  0.14220200  0.57574800  1
  Zr  Zr9  1  0.64654200  0.64449700  0.32417500  1
  Zr  Zr10  1  0.85192900  0.85365000  0.42683400  1
  Zr  Zr11  1  0.84852200  0.85541200  0.92561700  1
  Fe  Fe12  1  0.35747300  0.35339800  0.67637900  1
  Fe  Fe13  1  0.65183900  0.64263400  0.82890200  1
  P  P14  1  0.04065700  0.75146200  0.22909100  1
  P  P15  1  0.45747300  0.04214300  0.37505100  1
  P  P16  1  0.74917500  0.46036100  0.01794300  1
  P  P17  1  0.25210000  0.53485300  0.48363900  1
  P  P18  1  0.54107900  0.95778200  0.12508600  1
  P  P19  1  0.04233500  0.74058900  0.73058600  1
  P  P20  1  0.96025400  0.24910600  0.26933100  1
  P  P21  1  0.45872300  0.04204900  0.87053600  1
  P  P22  1  0.74316200  0.45773700  0.52378400  1
  P  P23  1  0.25654600  0.54465800  0.97617200  1
  P  P24  1  0.54044300  0.96341700  0.62816100  1
  P  P25  1  0.96129300  0.25795900  0.76966300  1
  O  O26  1  0.12330600  0.28095100  0.25390500  1
  O  O27  1  0.28126900  0.51004200  0.06059600  1
  O  O28  1  0.06447500  0.91957200  0.14088300  1
  O  O29  1  0.50914200  0.12199200  0.14069800  1
  O  O30  1  0.21799400  0.58314600  0.21756900  1
  O  O31  1  0.00646100  0.78342400  0.31140100  1
  O  O32  1  0.28102400  0.06575000  0.45904200  1
  O  O33  1  0.43486300  0.21880300  0.29100300  1
  O  O34  1  0.58215300  0.43600000  0.10665800  1
  O  O35  1  0.22019000  0.37297600  0.49715400  1
  O  O36  1  0.07886100  0.71170900  0.47168400  1
  O  O37  1  0.37775100  0.99264600  0.10806500  1
  O  O38  1  0.62101300  0.00853900  0.39191100  1
  O  O39  1  0.13415400  0.27132000  0.75476800  1
  O  O40  1  0.91737300  0.28308000  0.03096500  1
  O  O41  1  0.78174100  0.62328700  0.00294900  1
  O  O42  1  0.41758400  0.56288100  0.39459800  1
  O  O43  1  0.26931400  0.50848000  0.56787600  1
  O  O44  1  0.56412600  0.78139300  0.20912000  1
  O  O45  1  0.06521200  0.91290800  0.64294900  1
  O  O46  1  0.71817700  0.93374600  0.04101600  1
  O  O47  1  0.50536600  0.13176400  0.64037800  1
  O  O48  1  0.21730100  0.57299400  0.71842100  1
  O  O49  1  0.99491800  0.21678400  0.18735800  1
  O  O50  1  0.00936200  0.77791200  0.81160600  1
  O  O51  1  0.78285900  0.41722100  0.28163900  1
  O  O52  1  0.49182300  0.87834800  0.35868200  1
  O  O53  1  0.28365800  0.06545700  0.95652300  1
  O  O54  1  0.93572500  0.08144700  0.35831300  1
  O  O55  1  0.43507000  0.21795700  0.78746200  1
  O  O56  1  0.71828200  0.49301800  0.43894000  1
  O  O57  1  0.57450500  0.43659600  0.61033800  1
  O  O58  1  0.22091200  0.38179300  0.99330700  1
  O  O59  1  0.08891400  0.72561500  0.96181900  1
  O  O60  1  0.87752500  0.71872700  0.24557400  1
  O  O61  1  0.37756300  0.99208700  0.61161300  1
  O  O62  1  0.62258500  0.00695100  0.88849400  1
  O  O63  1  0.91492300  0.28204800  0.53420400  1
  O  O64  1  0.77957000  0.62172400  0.50617700  1
  O  O65  1  0.42290600  0.57332800  0.88781100  1
  O  O66  1  0.56213000  0.78687300  0.71350600  1
  O  O67  1  0.72230500  0.92731400  0.54591700  1
  O  O68  1  0.99046100  0.22531200  0.68797700  1
  O  O69  1  0.78894800  0.43216600  0.77727400  1
  O  O70  1  0.48871700  0.87338200  0.85881500  1
  O  O71  1  0.93596200  0.08544100  0.85704400  1
  O  O72  1  0.71849900  0.49182200  0.93648800  1
  O  O73  1  0.87340900  0.71662800  0.74617000  1
