# generated using pymatgen
data_Sr20FeCo9(MoO6)10
_symmetry_space_group_name_H-M   'P 1'
_cell_length_a   9.78391500
_cell_length_b   11.29307453
_cell_length_c   12.73807851
_cell_angle_alpha   102.76824791
_cell_angle_beta   97.86662698
_cell_angle_gamma   106.64675317
_symmetry_Int_Tables_number   1
_chemical_formula_structural   Sr20FeCo9(MoO6)10
_chemical_formula_sum   'Sr20 Fe1 Co9 Mo10 O60'
_cell_volume   1284.57140255
_cell_formula_units_Z   1
loop_
 _symmetry_equiv_pos_site_id
 _symmetry_equiv_pos_as_xyz
  1  'x, y, z'
loop_
 _atom_site_type_symbol
 _atom_site_label
 _atom_site_symmetry_multiplicity
 _atom_site_fract_x
 _atom_site_fract_y
 _atom_site_fract_z
 _atom_site_occupancy
  Sr  Sr0  1  0.94891800  0.27483900  0.15067200  1
  Sr  Sr1  1  0.55005000  0.47491100  0.35122900  1
  Sr  Sr2  1  0.15048500  0.67602500  0.55091600  1
  Sr  Sr3  1  0.75032200  0.87554100  0.74940800  1
  Sr  Sr4  1  0.34903800  0.07365800  0.94923500  1
  Sr  Sr5  1  0.65099400  0.42536300  0.05083700  1
  Sr  Sr6  1  0.24945500  0.62500400  0.25101300  1
  Sr  Sr7  1  0.84964100  0.82541300  0.45031600  1
  Sr  Sr8  1  0.44890900  0.02443100  0.64973400  1
  Sr  Sr9  1  0.04960700  0.22485400  0.84940600  1
  Sr  Sr10  1  0.95039300  0.77514600  0.15059400  1
  Sr  Sr11  1  0.55109100  0.97556900  0.35026600  1
  Sr  Sr12  1  0.15035900  0.17458700  0.54968400  1
  Sr  Sr13  1  0.75054500  0.37499600  0.74898700  1
  Sr  Sr14  1  0.34900600  0.57463700  0.94916300  1
  Sr  Sr15  1  0.65096200  0.92634200  0.05076500  1
  Sr  Sr16  1  0.24967800  0.12445900  0.25059200  1
  Sr  Sr17  1  0.84951500  0.32397500  0.44908400  1
  Sr  Sr18  1  0.44995000  0.52508900  0.64877100  1
  Sr  Sr19  1  0.05108200  0.72516100  0.84932800  1
  Fe  Fe20  1  0.00000000  0.00000000  0.00000000  1
  Co  Co21  1  0.60074600  0.20023200  0.20009400  1
  Co  Co22  1  0.19990400  0.39981600  0.39999100  1
  Co  Co23  1  0.39925400  0.79976800  0.79990600  1
  Co  Co24  1  0.60079200  0.70055300  0.20031200  1
  Co  Co25  1  0.00000000  0.50000000  0.00000000  1
  Co  Co26  1  0.19889000  0.90031000  0.40007400  1
  Co  Co27  1  0.80111000  0.09969000  0.59992600  1
  Co  Co28  1  0.39920800  0.29944700  0.79968800  1
  Co  Co29  1  0.80009600  0.60018400  0.60000900  1
  Mo  Mo30  1  0.30098000  0.35078700  0.10038700  1
  Mo  Mo31  1  0.90024300  0.54996800  0.29991200  1
  Mo  Mo32  1  0.49993200  0.75037000  0.49998800  1
  Mo  Mo33  1  0.09988800  0.94998300  0.69896100  1
  Mo  Mo34  1  0.69980700  0.15070000  0.89986700  1
  Mo  Mo35  1  0.30019300  0.84930000  0.10013300  1
  Mo  Mo36  1  0.90011200  0.05001700  0.30103900  1
  Mo  Mo37  1  0.50006800  0.24963000  0.50001200  1
  Mo  Mo38  1  0.09975700  0.45003200  0.70008800  1
  Mo  Mo39  1  0.69902000  0.64921300  0.89961300  1
  O  O40  1  0.65242300  0.17377000  0.04373300  1
  O  O41  1  0.25089200  0.37334800  0.24380800  1
  O  O42  1  0.85197500  0.57413600  0.44438400  1
  O  O43  1  0.45197400  0.77385200  0.64407200  1
  O  O44  1  0.05006600  0.97509100  0.85007100  1
  O  O45  1  0.42357200  0.25239100  0.14101200  1
  O  O46  1  0.02408800  0.45258900  0.34079800  1
  O  O47  1  0.62433500  0.65252800  0.54105300  1
  O  O48  1  0.22581900  0.85231700  0.74317500  1
  O  O49  1  0.82756800  0.05326600  0.94233200  1
  O  O50  1  0.13273300  0.18765400  0.04401900  1
  O  O51  1  0.73385000  0.39112100  0.24345100  1
  O  O52  1  0.33402700  0.59120600  0.44441500  1
  O  O53  1  0.93507300  0.79182100  0.64607800  1
  O  O54  1  0.53659800  0.99091700  0.84528000  1
  O  O55  1  0.94854100  0.52551400  0.15416200  1
  O  O56  1  0.54823600  0.72550500  0.35442000  1
  O  O57  1  0.74905600  0.12592400  0.75529700  1
  O  O58  1  0.14898200  0.92552800  0.55352000  1
  O  O59  1  0.34764800  0.32539100  0.95493600  1
  O  O60  1  0.06477300  0.70651900  0.35385000  1
  O  O61  1  0.46521100  0.50771200  0.15475700  1
  O  O62  1  0.66464000  0.90704100  0.55468300  1
  O  O63  1  0.26486100  0.10806800  0.75627300  1
  O  O64  1  0.86611200  0.30779600  0.95533100  1
  O  O65  1  0.77512300  0.64601300  0.25757000  1
  O  O66  1  0.17554800  0.44460400  0.05821100  1
  O  O67  1  0.97401400  0.04781900  0.65894200  1
  O  O68  1  0.37521500  0.84652100  0.45779400  1
  O  O69  1  0.57634600  0.24725700  0.85873000  1
  O  O70  1  0.25094400  0.87407600  0.24470300  1
  O  O71  1  0.65235200  0.67460900  0.04506400  1
  O  O72  1  0.85101800  0.07447200  0.44648000  1
  O  O73  1  0.45176400  0.27449500  0.64558000  1
  O  O74  1  0.05145900  0.47448600  0.84583800  1
  O  O75  1  0.42365400  0.75274300  0.14127000  1
  O  O76  1  0.62478500  0.15347900  0.54220600  1
  O  O77  1  0.22487700  0.35398700  0.74243000  1
  O  O78  1  0.02598600  0.95218100  0.34105800  1
  O  O79  1  0.82445200  0.55539600  0.94178900  1
  O  O80  1  0.13388800  0.69220400  0.04466900  1
  O  O81  1  0.73513900  0.89193200  0.24372700  1
  O  O82  1  0.33536000  0.09295900  0.44531700  1
  O  O83  1  0.93522700  0.29348100  0.64615000  1
  O  O84  1  0.53478900  0.49228800  0.84524300  1
  O  O85  1  0.94993400  0.02490900  0.14992900  1
  O  O86  1  0.54802600  0.22614800  0.35592800  1
  O  O87  1  0.14802500  0.42586400  0.55561600  1
  O  O88  1  0.74910800  0.62665200  0.75619200  1
  O  O89  1  0.34757700  0.82623000  0.95626700  1
  O  O90  1  0.46340200  0.00908300  0.15472000  1
  O  O91  1  0.06492700  0.20817900  0.35392200  1
  O  O92  1  0.66597300  0.40879400  0.55558500  1
  O  O93  1  0.26615000  0.60887900  0.75654900  1
  O  O94  1  0.86726700  0.81234600  0.95598100  1
  O  O95  1  0.17243200  0.94673400  0.05766800  1
  O  O96  1  0.77418100  0.14768300  0.25682500  1
  O  O97  1  0.37566500  0.34747200  0.45894700  1
  O  O98  1  0.97591200  0.54741100  0.65920200  1
  O  O99  1  0.57642800  0.74760900  0.85898800  1
