# generated using pymatgen
data_H6PtN2ClO5
_symmetry_space_group_name_H-M   'P 1'
_cell_length_a   7.43566000
_cell_length_b   13.10220900
_cell_length_c   14.18420000
_cell_angle_alpha   90.00000000
_cell_angle_beta   90.00000000
_cell_angle_gamma   90.00000000
_symmetry_Int_Tables_number   1
_chemical_formula_structural   H6PtN2ClO5
_chemical_formula_sum   'H48 Pt8 N16 Cl8 O40'
_cell_volume   1381.87542107
_cell_formula_units_Z   8
loop_
 _symmetry_equiv_pos_site_id
 _symmetry_equiv_pos_as_xyz
  1  'x, y, z'
loop_
 _atom_site_type_symbol
 _atom_site_label
 _atom_site_symmetry_multiplicity
 _atom_site_fract_x
 _atom_site_fract_y
 _atom_site_fract_z
 _atom_site_occupancy
  H  H0  1  0.93591400  0.83782800  0.64246900  1
  H  H1  1  0.56408600  0.16217200  0.14246900  1
  H  H2  1  0.43591400  0.66217200  0.35753100  1
  H  H3  1  0.06408600  0.33782800  0.85753100  1
  H  H4  1  0.13415300  0.89640600  0.63692600  1
  H  H5  1  0.36584700  0.10359400  0.13692600  1
  H  H6  1  0.63415300  0.60359400  0.36307400  1
  H  H7  1  0.86584700  0.39640600  0.86307400  1
  H  H8  1  0.11588500  0.78680800  0.69488000  1
  H  H9  1  0.38411500  0.21319200  0.19488000  1
  H  H10  1  0.61588500  0.71319200  0.30512000  1
  H  H11  1  0.88411500  0.28680800  0.80512000  1
  H  H12  1  0.95200200  0.88827700  0.42532700  1
  H  H13  1  0.54799800  0.11172300  0.92532700  1
  H  H14  1  0.45200200  0.61172300  0.57467300  1
  H  H15  1  0.04799800  0.38827700  0.07467300  1
  H  H16  1  0.15144300  0.87239400  0.37371500  1
  H  H17  1  0.34855700  0.12760600  0.87371500  1
  H  H18  1  0.65144300  0.62760600  0.62628500  1
  H  H19  1  0.84855700  0.37239400  0.12628500  1
  H  H20  1  0.13438200  0.94030700  0.47250800  1
  H  H21  1  0.36561800  0.05969300  0.97250800  1
  H  H22  1  0.63438200  0.55969300  0.52749200  1
  H  H23  1  0.86561800  0.44030700  0.02749200  1
  H  H24  1  0.19923800  0.35570200  0.55850000  1
  H  H25  1  0.30076200  0.64429800  0.05850000  1
  H  H26  1  0.69923800  0.14429800  0.44150000  1
  H  H27  1  0.80076200  0.85570200  0.94150000  1
  H  H28  1  0.99324500  0.34568300  0.51557600  1
  H  H29  1  0.50675500  0.65431700  0.01557600  1
  H  H30  1  0.49324500  0.15431700  0.48442400  1
  H  H31  1  0.00675500  0.84568300  0.98442400  1
  H  H32  1  0.02921200  0.41274600  0.61292400  1
  H  H33  1  0.47078800  0.58725400  0.11292400  1
  H  H34  1  0.52921200  0.08725400  0.38707600  1
  H  H35  1  0.97078800  0.91274600  0.88707600  1
  H  H36  1  0.18084800  0.38611700  0.34086000  1
  H  H37  1  0.31915200  0.61388300  0.84086000  1
  H  H38  1  0.68084800  0.11388300  0.65914000  1
  H  H39  1  0.81915200  0.88611700  0.15914000  1
  H  H40  1  0.08630400  0.48816100  0.29010200  1
  H  H41  1  0.41369600  0.51183900  0.79010200  1
  H  H42  1  0.58630400  0.01183900  0.70989800  1
  H  H43  1  0.91369600  0.98816100  0.20989800  1
  H  H44  1  0.96030600  0.40503100  0.35089100  1
  H  H45  1  0.53969400  0.59496900  0.85089100  1
  H  H46  1  0.46030600  0.09496900  0.64910900  1
  H  H47  1  0.03969400  0.90503100  0.14910900  1
  Pt  Pt48  1  0.12834800  0.74436000  0.51450400  1
  Pt  Pt49  1  0.37165200  0.25564000  0.01450400  1
  Pt  Pt50  1  0.62834800  0.75564000  0.48549600  1
  Pt  Pt51  1  0.87165200  0.24436000  0.98549600  1
  Pt  Pt52  1  0.12949700  0.52486300  0.46968200  1
  Pt  Pt53  1  0.37050300  0.47513700  0.96968200  1
  Pt  Pt54  1  0.62949700  0.97513700  0.53031800  1
  Pt  Pt55  1  0.87050300  0.02486300  0.03031800  1
  N  N56  1  0.07306800  0.82596000  0.63637100  1
  N  N57  1  0.42693200  0.17404000  0.13637100  1
  N  N58  1  0.57306800  0.67404000  0.36362900  1
  N  N59  1  0.92693200  0.32596000  0.86362900  1
  N  N60  1  0.08759100  0.87681200  0.43795900  1
  N  N61  1  0.41240900  0.12318800  0.93795900  1
  N  N62  1  0.58759100  0.62318800  0.56204100  1
  N  N63  1  0.91240900  0.37681200  0.06204100  1
  N  N64  1  0.08113800  0.39480300  0.54801400  1
  N  N65  1  0.41886200  0.60519700  0.04801400  1
  N  N66  1  0.58113800  0.10519700  0.45198600  1
  N  N67  1  0.91886200  0.89480300  0.95198600  1
  N  N68  1  0.08335000  0.44121000  0.34855500  1
  N  N69  1  0.41665000  0.55879000  0.84855500  1
  N  N70  1  0.58335000  0.05879000  0.65144500  1
  N  N71  1  0.91665000  0.94121000  0.15144500  1
  Cl  Cl72  1  0.92977600  0.61287000  0.81150300  1
  Cl  Cl73  1  0.57022400  0.38713000  0.31150300  1
  Cl  Cl74  1  0.42977600  0.88713000  0.18849700  1
  Cl  Cl75  1  0.07022400  0.11287000  0.68849700  1
  Cl  Cl76  1  0.94593300  0.64892300  0.16648800  1
  Cl  Cl77  1  0.55406700  0.35107700  0.66648800  1
  Cl  Cl78  1  0.44593300  0.85107700  0.83351200  1
  Cl  Cl79  1  0.05406700  0.14892300  0.33351200  1
  O  O80  1  0.17834100  0.61449700  0.57803800  1
  O  O81  1  0.32165900  0.38550300  0.07803800  1
  O  O82  1  0.67834100  0.88550300  0.42196200  1
  O  O83  1  0.82165900  0.11449700  0.92196200  1
  O  O84  1  0.17465700  0.65487800  0.40524800  1
  O  O85  1  0.32534300  0.34512200  0.90524800  1
  O  O86  1  0.67465700  0.84512200  0.59475200  1
  O  O87  1  0.82534300  0.15487800  0.09475200  1
  O  O88  1  0.83545100  0.55884200  0.88861400  1
  O  O89  1  0.66454900  0.44115800  0.38861400  1
  O  O90  1  0.33545100  0.94115800  0.11138600  1
  O  O91  1  0.16454900  0.05884200  0.61138600  1
  O  O92  1  0.03398400  0.53963300  0.75701500  1
  O  O93  1  0.46601600  0.46036700  0.25701500  1
  O  O94  1  0.53398400  0.96036700  0.24298500  1
  O  O95  1  0.96601600  0.03963300  0.74298500  1
  O  O96  1  0.79565700  0.66360500  0.75186600  1
  O  O97  1  0.70434300  0.33639500  0.25186600  1
  O  O98  1  0.29565700  0.83639500  0.24813400  1
  O  O99  1  0.20434300  0.16360500  0.74813400  1
  O  O100  1  0.05018100  0.68998500  0.85124600  1
  O  O101  1  0.44981900  0.31001500  0.35124600  1
  O  O102  1  0.55018100  0.81001500  0.14875400  1
  O  O103  1  0.94981900  0.18998500  0.64875400  1
  O  O104  1  0.98432600  0.71488600  0.08568800  1
  O  O105  1  0.51567400  0.28511400  0.58568800  1
  O  O106  1  0.48432600  0.78511400  0.91431200  1
  O  O107  1  0.01567400  0.21488600  0.41431200  1
  O  O108  1  0.91966400  0.71034700  0.25104100  1
  O  O109  1  0.58033600  0.28965300  0.75104100  1
  O  O110  1  0.41966400  0.78965300  0.74895900  1
  O  O111  1  0.08033600  0.21034700  0.24895900  1
  O  O112  1  0.09896100  0.57898400  0.17925100  1
  O  O113  1  0.40103900  0.42101600  0.67925100  1
  O  O114  1  0.59896100  0.92101600  0.82074900  1
  O  O115  1  0.90103900  0.07898400  0.32074900  1
  O  O116  1  0.78415600  0.58813400  0.14840600  1
  O  O117  1  0.71584400  0.41186600  0.64840600  1
  O  O118  1  0.28415600  0.91186600  0.85159400  1
  O  O119  1  0.21584400  0.08813400  0.35159400  1
