# generated using pymatgen
data_K2TiCr(PO4)3
_symmetry_space_group_name_H-M   'P 1'
_cell_length_a   9.94057400
_cell_length_b   9.94316433
_cell_length_c   19.88672291
_cell_angle_alpha   90.01326749
_cell_angle_beta   90.03339203
_cell_angle_gamma   90.05931742
_symmetry_Int_Tables_number   1
_chemical_formula_structural   K2TiCr(PO4)3
_chemical_formula_sum   'K16 Ti8 Cr8 P24 O96'
_cell_volume   1965.61738244
_cell_formula_units_Z   8
loop_
 _symmetry_equiv_pos_site_id
 _symmetry_equiv_pos_as_xyz
  1  'x, y, z'
loop_
 _atom_site_type_symbol
 _atom_site_label
 _atom_site_symmetry_multiplicity
 _atom_site_fract_x
 _atom_site_fract_y
 _atom_site_fract_z
 _atom_site_occupancy
  K  K0  1  0.95799700  0.45564600  0.47905800  1
  K  K1  1  0.95825900  0.45738700  0.97797600  1
  K  K2  1  0.82058900  0.18089600  0.15869100  1
  K  K3  1  0.81694600  0.18337000  0.65818100  1
  K  K4  1  0.68017500  0.81751200  0.40958300  1
  K  K5  1  0.68419200  0.81697900  0.90880700  1
  K  K6  1  0.54173500  0.54285800  0.22906400  1
  K  K7  1  0.54347400  0.54399500  0.72769700  1
  K  K8  1  0.45585500  0.04278300  0.02084500  1
  K  K9  1  0.45578200  0.04289300  0.52196300  1
  K  K10  1  0.31597800  0.31826700  0.34173900  1
  K  K11  1  0.31615800  0.31662100  0.84150700  1
  K  K12  1  0.17991800  0.68118400  0.09093400  1
  K  K13  1  0.18436200  0.68321200  0.59073200  1
  K  K14  1  0.04330200  0.95873400  0.27165600  1
  K  K15  1  0.04385000  0.95626000  0.77177900  1
  Ti  Ti16  1  0.89262600  0.60754300  0.30462300  1
  Ti  Ti17  1  0.83495300  0.83510400  0.58179500  1
  Ti  Ti18  1  0.66417900  0.16346600  0.33293700  1
  Ti  Ti19  1  0.66391400  0.16309100  0.83093700  1
  Ti  Ti20  1  0.60831100  0.39125200  0.05360700  1
  Ti  Ti21  1  0.38838400  0.89254200  0.19624700  1
  Ti  Ti22  1  0.33296500  0.66444000  0.91795000  1
  Ti  Ti23  1  0.16435000  0.33662500  0.66715900  1
  Cr  Cr24  1  0.89552300  0.60571300  0.80262000  1
  Cr  Cr25  1  0.83860100  0.83711900  0.08117800  1
  Cr  Cr26  1  0.60477900  0.39502300  0.55288700  1
  Cr  Cr27  1  0.39486100  0.89436200  0.69701900  1
  Cr  Cr28  1  0.33750800  0.66286200  0.41914800  1
  Cr  Cr29  1  0.16233100  0.33702900  0.16812100  1
  Cr  Cr30  1  0.10557200  0.10556800  0.44770700  1
  Cr  Cr31  1  0.10583600  0.10477000  0.94729000  1
  P  P32  1  0.97851300  0.29097300  0.31172100  1
  P  P33  1  0.97806200  0.29317800  0.81244000  1
  P  P34  1  0.87807400  0.52453800  0.14621200  1
  P  P35  1  0.87476300  0.52233500  0.64665000  1
  P  P36  1  0.79330600  0.12527400  0.48920100  1
  P  P37  1  0.79464500  0.12248200  0.98859800  1
  P  P38  1  0.70715800  0.87693900  0.23725500  1
  P  P39  1  0.70664300  0.87443900  0.73873300  1
  P  P40  1  0.62245400  0.47784600  0.39728700  1
  P  P41  1  0.62410700  0.47759300  0.89562300  1
  P  P42  1  0.52536000  0.70762800  0.06149000  1
  P  P43  1  0.52088900  0.70703500  0.56207100  1
  P  P44  1  0.47461400  0.20738000  0.18863200  1
  P  P45  1  0.47743600  0.20673900  0.68731500  1
  P  P46  1  0.37569800  0.97503000  0.35474000  1
  P  P47  1  0.37486100  0.97750300  0.85324800  1
  P  P48  1  0.29081300  0.37572000  0.01237300  1
  P  P49  1  0.29310300  0.37597700  0.51041400  1
  P  P50  1  0.20766100  0.62130100  0.26258300  1
  P  P51  1  0.20688500  0.62514500  0.76087100  1
  P  P52  1  0.12499300  0.02210000  0.60339500  1
  P  P53  1  0.12215000  0.02473300  0.10280900  1
  P  P54  1  0.02561900  0.79436900  0.43835900  1
  P  P55  1  0.02069800  0.79310500  0.93786400  1
  O  O56  1  0.99171500  0.94638200  0.11651600  1
  O  O57  1  0.98787400  0.94812600  0.61395300  1
  O  O58  1  0.98333800  0.44194600  0.33431200  1
  O  O59  1  0.98686500  0.44013100  0.83634100  1
  O  O60  1  0.95239900  0.70217400  0.38533000  1
  O  O61  1  0.95266700  0.70160500  0.88650900  1
  O  O62  1  0.94948100  0.76811200  0.00528500  1
  O  O63  1  0.94571200  0.77070000  0.50486100  1
  O  O64  1  0.94014900  0.17271300  0.49349500  1
  O  O65  1  0.93995400  0.17350300  0.99355600  1
  O  O66  1  0.90002900  0.67051800  0.12647200  1
  O  O67  1  0.89796900  0.67167700  0.62558700  1
  O  O68  1  0.82972600  0.51525300  0.22092600  1
  O  O69  1  0.82745700  0.51326100  0.72015000  1
  O  O70  1  0.82791400  0.25122200  0.30165900  1
  O  O71  1  0.82814300  0.25109800  0.80131200  1
  O  O72  1  0.79688500  0.77096200  0.27378400  1
  O  O73  1  0.79862400  0.77457400  0.77405900  1
  O  O74  1  0.76878500  0.45315400  0.10170400  1
  O  O75  1  0.77458300  0.45186700  0.60066400  1
  O  O76  1  0.76717100  0.99101100  0.02618000  1
  O  O77  1  0.77139900  0.98810900  0.52559800  1
  O  O78  1  0.75102400  0.10253200  0.41423600  1
  O  O79  1  0.75031500  0.10352200  0.91436000  1
  O  O80  1  0.74773500  0.90106000  0.16474200  1
  O  O81  1  0.74890100  0.89815300  0.66428100  1
  O  O82  1  0.72916600  0.00989500  0.27709900  1
  O  O83  1  0.72817000  0.01181600  0.77592300  1
  O  O84  1  0.73009700  0.54617600  0.35093200  1
  O  O85  1  0.72642600  0.54793500  0.85130900  1
  O  O86  1  0.70214900  0.23011200  0.02305900  1
  O  O87  1  0.70133700  0.22583000  0.52384500  1
  O  O88  1  0.67061500  0.74756900  0.04949600  1
  O  O89  1  0.67206500  0.74898300  0.55184600  1
  O  O90  1  0.67379900  0.48722800  0.46985700  1
  O  O91  1  0.66898600  0.48394800  0.97090700  1
  O  O92  1  0.60356900  0.32871800  0.37521500  1
  O  O93  1  0.60207000  0.32828300  0.87582700  1
  O  O94  1  0.55829500  0.82992200  0.24237200  1
  O  O95  1  0.55973400  0.82754700  0.74365000  1
  O  O96  1  0.55464300  0.22904400  0.25487300  1
  O  O97  1  0.55193400  0.22815500  0.75601800  1
  O  O98  1  0.54751100  0.29702400  0.13545100  1
  O  O99  1  0.54831900  0.29865800  0.63741900  1
  O  O100  1  0.51511500  0.55843900  0.08497200  1
  O  O101  1  0.51355300  0.55987000  0.58641500  1
  O  O102  1  0.51123800  0.05397900  0.36341300  1
  O  O103  1  0.51200500  0.05176600  0.86420900  1
  O  O104  1  0.48851800  0.55227200  0.88602500  1
  O  O105  1  0.49097600  0.55184200  0.38335800  1
  O  O106  1  0.48543400  0.05857600  0.16490900  1
  O  O107  1  0.48724500  0.05989300  0.66380300  1
  O  O108  1  0.45273800  0.79685900  0.11473300  1
  O  O109  1  0.45268200  0.79824800  0.61350900  1
  O  O110  1  0.45004200  0.73182600  0.49465100  1
  O  O111  1  0.44587800  0.72916600  0.99512500  1
  O  O112  1  0.44227300  0.33130400  0.00808200  1
  O  O113  1  0.44033000  0.32735900  0.50667700  1
  O  O114  1  0.39789600  0.82835100  0.87464800  1
  O  O115  1  0.40203100  0.82929800  0.37322000  1
  O  O116  1  0.33153500  0.98427800  0.27887700  1
  O  O117  1  0.32757700  0.98675700  0.77988900  1
  O  O118  1  0.32970900  0.24771400  0.20053900  1
  O  O119  1  0.32853200  0.24889700  0.69914200  1
  O  O120  1  0.29656600  0.73054900  0.22662500  1
  O  O121  1  0.29873600  0.72566100  0.72612600  1
  O  O122  1  0.27483600  0.04798800  0.89939500  1
  O  O123  1  0.27368000  0.04874800  0.39825700  1
  O  O124  1  0.26830800  0.51042300  0.47466400  1
  O  O125  1  0.27266700  0.51102900  0.97330300  1
  O  O126  1  0.25338800  0.40189900  0.08540700  1
  O  O127  1  0.25118200  0.39633000  0.58597300  1
  O  O128  1  0.24735000  0.59996100  0.33526800  1
  O  O129  1  0.24889300  0.60227500  0.83577400  1
  O  O130  1  0.23183700  0.49171200  0.22286500  1
  O  O131  1  0.22850800  0.48797700  0.72430900  1
  O  O132  1  0.23091700  0.95347600  0.14878600  1
  O  O133  1  0.22557500  0.95214200  0.64929100  1
  O  O134  1  0.20158100  0.27296500  0.47631200  1
  O  O135  1  0.20328600  0.27366300  0.97556500  1
  O  O136  1  0.16995300  0.75227200  0.45057000  1
  O  O137  1  0.17173800  0.75107000  0.94818600  1
  O  O138  1  0.17395500  0.01168000  0.03004400  1
  O  O139  1  0.17234200  0.01312900  0.52996500  1
  O  O140  1  0.09961000  0.17002200  0.12393100  1
  O  O141  1  0.10215100  0.17158400  0.62451600  1
  O  O142  1  0.05814300  0.66980100  0.25773200  1
  O  O143  1  0.06002600  0.67258100  0.75645100  1
  O  O144  1  0.05113400  0.26897500  0.24484600  1
  O  O145  1  0.05141600  0.27150900  0.74403500  1
  O  O146  1  0.04708100  0.20288000  0.36381900  1
  O  O147  1  0.04782400  0.20141500  0.86291100  1
  O  O148  1  0.01145900  0.94001300  0.41314500  1
  O  O149  1  0.01335000  0.94022100  0.91369700  1
  O  O150  1  0.00795900  0.44619400  0.13389100  1
  O  O151  1  0.01177400  0.44848700  0.63585900  1
