# generated using pymatgen
data_Pd2PbAu
_symmetry_space_group_name_H-M   'P 1'
_cell_length_a   11.41382111
_cell_length_b   11.41382111
_cell_length_c   11.41382111
_cell_angle_alpha   126.37007399
_cell_angle_beta   117.94481889
_cell_angle_gamma   86.46723104
_symmetry_Int_Tables_number   1
_chemical_formula_structural   Pd2PbAu
_chemical_formula_sum   'Pd2 Pb1 Au1'
_cell_volume   1007.61090412
_cell_formula_units_Z   1
loop_
 _symmetry_equiv_pos_site_id
 _symmetry_equiv_pos_as_xyz
  1  'x, y, z'
loop_
 _atom_site_type_symbol
 _atom_site_label
 _atom_site_symmetry_multiplicity
 _atom_site_fract_x
 _atom_site_fract_y
 _atom_site_fract_z
 _atom_site_occupancy
  Pd  Pd0  1  0.00000000  0.25546700  0.25546700  1
  Pd  Pd1  1  0.00000000  0.74453300  0.74453300  1
  Pb  Pb2  1  0.00000000  0.50000000  0.50000000  1
  Au  Au3  1  0.00000000  0.00000000  0.00000000  1
