# generated using pymatgen
data_Na3NdV2O8
_symmetry_space_group_name_H-M   'P 1'
_cell_length_a   15.05120856
_cell_length_b   15.05120856
_cell_length_c   14.38861677
_cell_angle_alpha   88.64735398
_cell_angle_beta   88.64735398
_cell_angle_gamma   21.62348327
_symmetry_Int_Tables_number   1
_chemical_formula_structural   Na3NdV2O8
_chemical_formula_sum   'Na18 Nd6 V12 O48'
_cell_volume   1200.82696856
_cell_formula_units_Z   6
loop_
 _symmetry_equiv_pos_site_id
 _symmetry_equiv_pos_as_xyz
  1  'x, y, z'
loop_
 _atom_site_type_symbol
 _atom_site_label
 _atom_site_symmetry_multiplicity
 _atom_site_fract_x
 _atom_site_fract_y
 _atom_site_fract_z
 _atom_site_occupancy
  Na  Na0  1  0.32204400  0.34026300  0.46882000  1
  Na  Na1  1  0.89831400  0.90107100  0.91368800  1
  Na  Na2  1  0.68800300  0.67163100  0.73267700  1
  Na  Na3  1  0.28712400  0.17700300  0.80982300  1
  Na  Na4  1  0.03489200  0.01321300  0.99693200  1
  Na  Na5  1  0.44019300  0.47809500  0.55986600  1
  Na  Na6  1  0.78410900  0.81538700  0.09118900  1
  Na  Na7  1  0.34026300  0.32204400  0.96882000  1
  Na  Na8  1  0.90107100  0.89831400  0.41368800  1
  Na  Na9  1  0.47809500  0.44019300  0.05986600  1
  Na  Na10  1  0.07408300  0.17351600  0.65091700  1
  Na  Na11  1  0.17351600  0.07408300  0.15091700  1
  Na  Na12  1  0.01321300  0.03489200  0.49693200  1
  Na  Na13  1  0.67163100  0.68800300  0.23267700  1
  Na  Na14  1  0.54560600  0.57643700  0.37839100  1
  Na  Na15  1  0.57643700  0.54560600  0.87839100  1
  Na  Na16  1  0.17700300  0.28712400  0.30982300  1
  Na  Na17  1  0.81538700  0.78410900  0.59118900  1
  Nd  Nd18  1  0.57553300  0.78242200  0.48590500  1
  Nd  Nd19  1  0.38969400  0.32005700  0.71865700  1
  Nd  Nd20  1  0.95769000  0.04376300  0.75099100  1
  Nd  Nd21  1  0.32005700  0.38969400  0.21865700  1
  Nd  Nd22  1  0.78242200  0.57553300  0.98590500  1
  Nd  Nd23  1  0.04376300  0.95769000  0.25099100  1
  V  V24  1  0.59644300  0.53701300  0.12888100  1
  V  V25  1  0.17167600  0.06954400  0.88315000  1
  V  V26  1  0.18962200  0.28235900  0.57928000  1
  V  V27  1  0.28235900  0.18962200  0.07928000  1
  V  V28  1  0.92030700  0.89330500  0.63359700  1
  V  V29  1  0.53701300  0.59644300  0.62888100  1
  V  V30  1  0.81820500  0.76039600  0.83931000  1
  V  V31  1  0.45477100  0.44114600  0.33927100  1
  V  V32  1  0.06954400  0.17167600  0.38315000  1
  V  V33  1  0.76039600  0.81820500  0.33931000  1
  V  V34  1  0.89330500  0.92030700  0.13359700  1
  V  V35  1  0.44114600  0.45477100  0.83927100  1
  O  O36  1  0.03731400  0.27305400  0.81098600  1
  O  O37  1  0.02914900  0.09931100  0.35243200  1
  O  O38  1  0.74931100  0.71354100  0.35942300  1
  O  O39  1  0.22065500  0.88384500  0.64899500  1
  O  O40  1  0.60431000  0.47118900  0.53346400  1
  O  O41  1  0.38130100  0.40041500  0.87053800  1
  O  O42  1  0.24955500  0.70344300  0.39178600  1
  O  O43  1  0.48711700  0.41358300  0.72182700  1
  O  O44  1  0.04415500  0.20405100  0.99204300  1
  O  O45  1  0.09931100  0.02914900  0.85243200  1
  O  O46  1  0.68794200  0.41277300  0.72546900  1
  O  O47  1  0.26560000  0.31935300  0.61059000  1
  O  O48  1  0.16007300  0.60541100  0.59590000  1
  O  O49  1  0.19978600  0.74788100  0.87169500  1
  O  O50  1  0.12720300  0.47371900  0.81181400  1
  O  O51  1  0.76366800  0.87645300  0.93350500  1
  O  O52  1  0.88384500  0.22065500  0.14899500  1
  O  O53  1  0.40041500  0.38130100  0.37053800  1
  O  O54  1  0.41277300  0.68794200  0.22546900  1
  O  O55  1  0.96634400  0.96167600  0.60101400  1
  O  O56  1  0.94661900  0.66278800  0.24211000  1
  O  O57  1  0.96167600  0.96634400  0.10101400  1
  O  O58  1  0.47371900  0.12720300  0.31181400  1
  O  O59  1  0.33693800  0.06522400  0.64589500  1
  O  O60  1  0.66278800  0.94661900  0.74211000  1
  O  O61  1  0.27305400  0.03731400  0.31098600  1
  O  O62  1  0.48903300  0.78450400  0.88508000  1
  O  O63  1  0.63342800  0.61591300  0.61057800  1
  O  O64  1  0.87237600  0.56821500  0.58600100  1
  O  O65  1  0.60541100  0.16007300  0.09590000  1
  O  O66  1  0.47118900  0.60431000  0.03346400  1
  O  O67  1  0.74788100  0.19978600  0.37169500  1
  O  O68  1  0.70344300  0.24955500  0.89178600  1
  O  O69  1  0.61591300  0.63342800  0.11057800  1
  O  O70  1  0.78450400  0.48903300  0.38508000  1
  O  O71  1  0.87645300  0.76366800  0.43350500  1
  O  O72  1  0.31935300  0.26560000  0.11059000  1
  O  O73  1  0.16210100  0.29970400  0.96733000  1
  O  O74  1  0.65780400  0.09599100  0.58522500  1
  O  O75  1  0.20405100  0.04415500  0.49204300  1
  O  O76  1  0.89315100  0.91658600  0.75252100  1
  O  O77  1  0.29970400  0.16210100  0.46733000  1
  O  O78  1  0.06522400  0.33693800  0.14589500  1
  O  O79  1  0.09599100  0.65780400  0.08522500  1
  O  O80  1  0.91658600  0.89315100  0.25252100  1
  O  O81  1  0.71354100  0.74931100  0.85942300  1
  O  O82  1  0.56821500  0.87237600  0.08600100  1
  O  O83  1  0.41358300  0.48711700  0.22182700  1
