# generated using pymatgen
data_HOs3C10ClO10
_symmetry_space_group_name_H-M   'P 1'
_cell_length_a   7.88503700
_cell_length_b   8.93369362
_cell_length_c   13.73764201
_cell_angle_alpha   94.85752407
_cell_angle_beta   102.97847018
_cell_angle_gamma   110.67435400
_symmetry_Int_Tables_number   1
_chemical_formula_structural   HOs3C10ClO10
_chemical_formula_sum   'H2 Os6 C20 Cl2 O20'
_cell_volume   867.88031466
_cell_formula_units_Z   2
loop_
 _symmetry_equiv_pos_site_id
 _symmetry_equiv_pos_as_xyz
  1  'x, y, z'
loop_
 _atom_site_type_symbol
 _atom_site_label
 _atom_site_symmetry_multiplicity
 _atom_site_fract_x
 _atom_site_fract_y
 _atom_site_fract_z
 _atom_site_occupancy
  H  H0  1  0.03915900  0.93708800  0.87162300  1
  H  H1  1  0.96084100  0.06291200  0.12837700  1
  Os  Os2  1  0.90734200  0.72022300  0.81014600  1
  Os  Os3  1  0.09265800  0.27977700  0.18985400  1
  Os  Os4  1  0.61875700  0.82129000  0.70337700  1
  Os  Os5  1  0.38124300  0.17871000  0.29662300  1
  Os  Os6  1  0.00871500  0.04411400  0.76239500  1
  Os  Os7  1  0.99128500  0.95588600  0.23760500  1
  C  C8  1  0.77244800  0.67137500  0.90797200  1
  C  C9  1  0.22755200  0.32862500  0.09202800  1
  C  C10  1  0.12374100  0.68495700  0.88492400  1
  C  C11  1  0.87625900  0.31504300  0.11507600  1
  C  C12  1  0.77083600  0.50654000  0.73320500  1
  C  C13  1  0.22916400  0.49346000  0.26679500  1
  C  C14  1  0.66005300  0.73525600  0.57834600  1
  C  C15  1  0.33994700  0.26474400  0.42165400  1
  C  C16  1  0.50403300  0.95563000  0.63692000  1
  C  C17  1  0.49596700  0.04437000  0.36308000  1
  C  C18  1  0.61662900  0.91028700  0.83781100  1
  C  C19  1  0.38337100  0.08971300  0.16218900  1
  C  C20  1  0.40279700  0.62927500  0.69414400  1
  C  C21  1  0.59720300  0.37072500  0.30585600  1
  C  C22  1  0.94450100  0.19319000  0.83537800  1
  C  C23  1  0.05549900  0.80681000  0.16462200  1
  C  C24  1  0.95771800  0.13369700  0.64291400  1
  C  C25  1  0.04228200  0.86630300  0.35708600  1
  C  C26  1  0.27661200  0.17015600  0.81017800  1
  C  C27  1  0.72338800  0.82984400  0.18982200  1
  Cl  Cl28  1  0.07116800  0.81820300  0.67998000  1
  Cl  Cl29  1  0.92883200  0.18179700  0.32002000  1
  O  O30  1  0.68843000  0.64016400  0.96823800  1
  O  O31  1  0.31157000  0.35983600  0.03176200  1
  O  O32  1  0.25006100  0.65717700  0.92931200  1
  O  O33  1  0.74993900  0.34282300  0.07068800  1
  O  O34  1  0.69335600  0.37892300  0.68157200  1
  O  O35  1  0.30664400  0.62107700  0.31842800  1
  O  O36  1  0.67486200  0.68072900  0.50234500  1
  O  O37  1  0.32513800  0.31927100  0.49765500  1
  O  O38  1  0.43214400  0.03589600  0.59629300  1
  O  O39  1  0.56785600  0.96410400  0.40370700  1
  O  O40  1  0.61161100  0.96128300  0.91728200  1
  O  O41  1  0.38838900  0.03871700  0.08271800  1
  O  O42  1  0.27195900  0.51401700  0.69213600  1
  O  O43  1  0.72804100  0.48598300  0.30786400  1
  O  O44  1  0.90839400  0.28916600  0.88036800  1
  O  O45  1  0.09160600  0.71083400  0.11963200  1
  O  O46  1  0.92943200  0.18685800  0.56956400  1
  O  O47  1  0.07056800  0.81314200  0.43043600  1
  O  O48  1  0.43663300  0.24979000  0.83729700  1
  O  O49  1  0.56336700  0.75021000  0.16270300  1
