# generated using pymatgen
data_KBa7Al15Si17O64
_symmetry_space_group_name_H-M   'P 1'
_cell_length_a   8.75334400
_cell_length_b   9.43216183
_cell_length_c   18.90893905
_cell_angle_alpha   89.03709479
_cell_angle_beta   98.25808548
_cell_angle_gamma   97.14045154
_symmetry_Int_Tables_number   1
_chemical_formula_structural   KBa7Al15Si17O64
_chemical_formula_sum   'K1 Ba7 Al15 Si17 O64'
_cell_volume   1533.00710911
_cell_formula_units_Z   1
loop_
 _symmetry_equiv_pos_site_id
 _symmetry_equiv_pos_as_xyz
  1  'x, y, z'
loop_
 _atom_site_type_symbol
 _atom_site_label
 _atom_site_symmetry_multiplicity
 _atom_site_fract_x
 _atom_site_fract_y
 _atom_site_fract_z
 _atom_site_occupancy
  K  K0  1  0.20688900  0.92319700  0.96320300  1
  Ba  Ba1  1  0.21037200  0.94747900  0.46753600  1
  Ba  Ba2  1  0.28915700  0.57937500  0.78154700  1
  Ba  Ba3  1  0.29490800  0.58450900  0.28428300  1
  Ba  Ba4  1  0.73101000  0.43442000  0.71520800  1
  Ba  Ba5  1  0.71908200  0.43242700  0.21783700  1
  Ba  Ba6  1  0.77236700  0.08228300  0.52295800  1
  Ba  Ba7  1  0.76009800  0.04702900  0.02032300  1
  Al  Al8  1  0.03578300  0.45095900  0.60312600  1
  Al  Al9  1  0.53455600  0.94918500  0.85312400  1
  Al  Al10  1  0.46527600  0.05068300  0.64671100  1
  Al  Al11  1  0.39836300  0.56834500  0.10140400  1
  Al  Al12  1  0.47278000  0.29379600  0.52767700  1
  Al  Al13  1  0.60221600  0.43046500  0.89811900  1
  Al  Al14  1  0.52839100  0.94850800  0.35302800  1
  Al  Al15  1  0.46109100  0.04941900  0.14680600  1
  Al  Al16  1  0.60697800  0.42894900  0.39911700  1
  Al  Al17  1  0.96672200  0.78889600  0.77963400  1
  Al  Al18  1  0.88697600  0.70492700  0.53673600  1
  Al  Al19  1  0.90758100  0.07223200  0.85469000  1
  Al  Al20  1  0.96944400  0.79340300  0.27950300  1
  Al  Al21  1  0.89083900  0.69712800  0.03555400  1
  Al  Al22  1  0.89788500  0.07259000  0.35130600  1
  Si  Si23  1  0.09937000  0.92383000  0.64803200  1
  Si  Si24  1  0.10835000  0.29798100  0.96851600  1
  Si  Si25  1  0.04043000  0.20730600  0.72352200  1
  Si  Si26  1  0.09843900  0.92154600  0.14684900  1
  Si  Si27  1  0.03877200  0.44399000  0.10610100  1
  Si  Si28  1  0.10275700  0.29921400  0.46557000  1
  Si  Si29  1  0.03732500  0.20301100  0.22124300  1
  Si  Si30  1  0.40295100  0.57200200  0.60212300  1
  Si  Si31  1  0.40159400  0.20961000  0.78317600  1
  Si  Si32  1  0.52373200  0.70957600  0.96968700  1
  Si  Si33  1  0.39745600  0.20843300  0.28438600  1
  Si  Si34  1  0.60455200  0.79389300  0.71629600  1
  Si  Si35  1  0.52630100  0.71132000  0.47015200  1
  Si  Si36  1  0.47233400  0.29232700  0.03097800  1
  Si  Si37  1  0.60269000  0.79213200  0.21547100  1
  Si  Si38  1  0.96542600  0.54958600  0.89535200  1
  Si  Si39  1  0.96516500  0.55736300  0.39508800  1
  O  O40  1  0.01918500  0.62663600  0.82251800  1
  O  O41  1  0.99320700  0.87031600  0.57141700  1
  O  O42  1  0.09503600  0.43351900  0.91349000  1
  O  O43  1  0.09231300  0.80897400  0.71302100  1
  O  O44  1  0.01996600  0.32374400  0.53521700  1
  O  O45  1  0.02513000  0.07047000  0.66863100  1
  O  O46  1  0.02633500  0.63638500  0.32419700  1
  O  O47  1  0.98594800  0.86061600  0.07417400  1
  O  O48  1  0.08901300  0.43700300  0.41120200  1
  O  O49  1  0.09660200  0.81185800  0.21423000  1
  O  O50  1  0.02853900  0.33137200  0.03977600  1
  O  O51  1  0.02061900  0.06823800  0.16625400  1
  O  O52  1  0.22804200  0.53727200  0.62162500  1
  O  O53  1  0.27379500  0.96419100  0.62807700  1
  O  O54  1  0.22172200  0.24948600  0.76077900  1
  O  O55  1  0.29078500  0.27588400  0.99065900  1
  O  O56  1  0.21383100  0.52198200  0.12887000  1
  O  O57  1  0.27135500  0.96682400  0.12795800  1
  O  O58  1  0.21762600  0.24856000  0.25851500  1
  O  O59  1  0.48128600  0.85837700  0.93023100  1
  O  O60  1  0.28128400  0.26677700  0.48245600  1
  O  O61  1  0.40126800  0.07501400  0.83655100  1
  O  O62  1  0.40905300  0.67913100  0.53239500  1
  O  O63  1  0.50929900  0.58285000  0.90961500  1
  O  O64  1  0.51279000  0.81880400  0.78399500  1
  O  O65  1  0.49238800  0.36289300  0.81675000  1
  O  O66  1  0.50040100  0.64715600  0.67696300  1
  O  O67  1  0.45841500  0.84743500  0.42569200  1
  O  O68  1  0.48478000  0.18312700  0.71340000  1
  O  O69  1  0.49042000  0.43322100  0.59172200  1
  O  O70  1  0.39190700  0.07398600  0.33881800  1
  O  O71  1  0.59378700  0.31889400  0.97303000  1
  O  O72  1  0.39883100  0.67342300  0.02567400  1
  O  O73  1  0.60541500  0.93002900  0.66363900  1
  O  O74  1  0.50840300  0.57760400  0.41463500  1
  O  O75  1  0.51246300  0.82269600  0.28337000  1
  O  O76  1  0.51124900  0.13129400  0.56787500  1
  O  O77  1  0.49051700  0.36112000  0.31762400  1
  O  O78  1  0.50372800  0.64080500  0.18233800  1
  O  O79  1  0.48386800  0.17762500  0.21607800  1
  O  O80  1  0.49528400  0.41696000  0.09193400  1
  O  O81  1  0.61566100  0.31616600  0.47143800  1
  O  O82  1  0.59920000  0.92673700  0.16052100  1
  O  O83  1  0.70308200  0.75988600  0.50727400  1
  O  O84  1  0.51237100  0.14214400  0.06979900  1
  O  O85  1  0.77281700  0.73866100  0.73944900  1
  O  O86  1  0.72152200  0.03406500  0.87797100  1
  O  O87  1  0.79035900  0.46607000  0.87434700  1
  O  O88  1  0.70184600  0.74095800  0.01190500  1
  O  O89  1  0.77631700  0.74739100  0.23936000  1
  O  O90  1  0.71491500  0.03232500  0.37704900  1
  O  O91  1  0.78819300  0.48099300  0.36936100  1
  O  O92  1  0.99732100  0.92454900  0.84061500  1
  O  O93  1  0.97882100  0.65941000  0.96134700  1
  O  O94  1  0.91815400  0.18880300  0.78063600  1
  O  O95  1  0.89176600  0.56358800  0.59642500  1
  O  O96  1  0.01071200  0.15121000  0.93667700  1
  O  O97  1  0.99364200  0.34902500  0.67889300  1
  O  O98  1  0.00119900  0.92961600  0.34159600  1
  O  O99  1  0.98001700  0.66757500  0.46179100  1
  O  O100  1  0.91114100  0.18779200  0.27640400  1
  O  O101  1  0.90571500  0.55066300  0.09498100  1
  O  O102  1  0.00571000  0.15185400  0.43048600  1
  O  O103  1  0.98722800  0.34464400  0.17431300  1
