# generated using pymatgen
data_NaH2SO4
_symmetry_space_group_name_H-M   'P 1'
_cell_length_a   6.96489800
_cell_length_b   10.93313400
_cell_length_c   10.99186700
_cell_angle_alpha   90.00000000
_cell_angle_beta   90.00000000
_cell_angle_gamma   90.00000000
_symmetry_Int_Tables_number   1
_chemical_formula_structural   NaH2SO4
_chemical_formula_sum   'Na8 H16 S8 O32'
_cell_volume   837.01048142
_cell_formula_units_Z   8
loop_
 _symmetry_equiv_pos_site_id
 _symmetry_equiv_pos_as_xyz
  1  'x, y, z'
loop_
 _atom_site_type_symbol
 _atom_site_label
 _atom_site_symmetry_multiplicity
 _atom_site_fract_x
 _atom_site_fract_y
 _atom_site_fract_z
 _atom_site_occupancy
  Na  Na0  1  0.52901500  0.66543700  0.44372000  1
  Na  Na1  1  0.02901500  0.83456300  0.05628000  1
  Na  Na2  1  0.47098500  0.33456300  0.94372000  1
  Na  Na3  1  0.97098500  0.16543700  0.55628000  1
  Na  Na4  1  0.47098500  0.33456300  0.55628000  1
  Na  Na5  1  0.97098500  0.16543700  0.94372000  1
  Na  Na6  1  0.52901500  0.66543700  0.05628000  1
  Na  Na7  1  0.02901500  0.83456300  0.44372000  1
  H  H8  1  0.34288600  0.11406500  0.44651500  1
  H  H9  1  0.84288600  0.38593500  0.05348500  1
  H  H10  1  0.65711400  0.88593500  0.94651500  1
  H  H11  1  0.15711400  0.61406500  0.55348500  1
  H  H12  1  0.65711400  0.88593500  0.55348500  1
  H  H13  1  0.15711400  0.61406500  0.94651500  1
  H  H14  1  0.34288600  0.11406500  0.05348500  1
  H  H15  1  0.84288600  0.38593500  0.44651500  1
  H  H16  1  0.26141500  0.22686100  0.37468100  1
  H  H17  1  0.76141500  0.27313900  0.12531900  1
  H  H18  1  0.73858500  0.77313900  0.87468100  1
  H  H19  1  0.23858500  0.72686100  0.62531900  1
  H  H20  1  0.73858500  0.77313900  0.62531900  1
  H  H21  1  0.23858500  0.72686100  0.87468100  1
  H  H22  1  0.26141500  0.22686100  0.12531900  1
  H  H23  1  0.76141500  0.27313900  0.37468100  1
  S  S24  1  0.82703900  0.04995900  0.25000000  1
  S  S25  1  0.32703900  0.45004100  0.25000000  1
  S  S26  1  0.17296100  0.95004100  0.75000000  1
  S  S27  1  0.67296100  0.54995900  0.75000000  1
  S  S28  1  0.45312700  0.89623300  0.25000000  1
  S  S29  1  0.95312700  0.60376700  0.25000000  1
  S  S30  1  0.54687300  0.10376700  0.75000000  1
  S  S31  1  0.04687300  0.39623300  0.75000000  1
  O  O32  1  0.93529600  0.02047200  0.13783300  1
  O  O33  1  0.43529600  0.47952800  0.36216700  1
  O  O34  1  0.06470400  0.97952800  0.63783300  1
  O  O35  1  0.56470400  0.52047200  0.86216700  1
  O  O36  1  0.06470400  0.97952800  0.86216700  1
  O  O37  1  0.56470400  0.52047200  0.63783300  1
  O  O38  1  0.93529600  0.02047200  0.36216700  1
  O  O39  1  0.43529600  0.47952800  0.13783300  1
  O  O40  1  0.75203500  0.17723300  0.25000000  1
  O  O41  1  0.25203500  0.32276700  0.25000000  1
  O  O42  1  0.24796500  0.82276700  0.75000000  1
  O  O43  1  0.74796500  0.67723300  0.75000000  1
  O  O44  1  0.48790200  0.03122400  0.85958100  1
  O  O45  1  0.98790200  0.46877600  0.64041900  1
  O  O46  1  0.51209800  0.96877600  0.35958100  1
  O  O47  1  0.01209800  0.53122400  0.14041900  1
  O  O48  1  0.51209800  0.96877600  0.14041900  1
  O  O49  1  0.01209800  0.53122400  0.35958100  1
  O  O50  1  0.48790200  0.03122400  0.64041900  1
  O  O51  1  0.98790200  0.46877600  0.85958100  1
  O  O52  1  0.54900800  0.77226600  0.25000000  1
  O  O53  1  0.04900800  0.72773400  0.25000000  1
  O  O54  1  0.45099200  0.22773400  0.75000000  1
  O  O55  1  0.95099200  0.27226600  0.75000000  1
  O  O56  1  0.77265300  0.30871900  0.04299100  1
  O  O57  1  0.27265300  0.19128100  0.45700900  1
  O  O58  1  0.22734700  0.69128100  0.54299100  1
  O  O59  1  0.72734700  0.80871900  0.95700900  1
  O  O60  1  0.22734700  0.69128100  0.95700900  1
  O  O61  1  0.72734700  0.80871900  0.54299100  1
  O  O62  1  0.77265300  0.30871900  0.45700900  1
  O  O63  1  0.27265300  0.19128100  0.04299100  1
