# generated using pymatgen
data_AlB3H14N
_symmetry_space_group_name_H-M   'P 1'
_cell_length_a   11.40562200
_cell_length_b   11.27598700
_cell_length_c   14.82352468
_cell_angle_alpha   53.12425509
_cell_angle_beta   90.00000000
_cell_angle_gamma   90.00000000
_symmetry_Int_Tables_number   1
_chemical_formula_structural   AlB3H14N
_chemical_formula_sum   'Al8 B24 H112 N8'
_cell_volume   1525.04185749
_cell_formula_units_Z   8
loop_
 _symmetry_equiv_pos_site_id
 _symmetry_equiv_pos_as_xyz
  1  'x, y, z'
loop_
 _atom_site_type_symbol
 _atom_site_label
 _atom_site_symmetry_multiplicity
 _atom_site_fract_x
 _atom_site_fract_y
 _atom_site_fract_z
 _atom_site_occupancy
  Al  Al0  1  0.93698200  0.14499400  0.61770700  1
  Al  Al1  1  0.56301800  0.14499400  0.11770700  1
  Al  Al2  1  0.06301800  0.85500600  0.38229300  1
  Al  Al3  1  0.43698200  0.85500600  0.88229300  1
  Al  Al4  1  0.66791700  0.68351700  0.58310700  1
  Al  Al5  1  0.83208300  0.68351700  0.08310700  1
  Al  Al6  1  0.33208300  0.31648300  0.41689300  1
  Al  Al7  1  0.16791700  0.31648300  0.91689300  1
  B  B8  1  0.06301800  0.21666000  0.68772700  1
  B  B9  1  0.43698200  0.21666000  0.18772700  1
  B  B10  1  0.93698200  0.78334000  0.31227300  1
  B  B11  1  0.56301800  0.78334000  0.81227300  1
  B  B12  1  0.92292600  0.30860200  0.43380200  1
  B  B13  1  0.57707400  0.30860200  0.93380200  1
  B  B14  1  0.07707400  0.69139800  0.56619800  1
  B  B15  1  0.42292600  0.69139800  0.06619800  1
  B  B16  1  0.94427600  0.89776700  0.73425500  1
  B  B17  1  0.55572400  0.89776700  0.23425500  1
  B  B18  1  0.05572400  0.10223300  0.26574500  1
  B  B19  1  0.44427600  0.10223300  0.76574500  1
  B  B20  1  0.47458700  0.70531400  0.57017600  1
  B  B21  1  0.02541300  0.70531400  0.07017600  1
  B  B22  1  0.52541300  0.29468600  0.42982400  1
  B  B23  1  0.97458700  0.29468600  0.92982400  1
  B  B24  1  0.74013400  0.91664200  0.47813400  1
  B  B25  1  0.75986600  0.91664200  0.97813400  1
  B  B26  1  0.25986600  0.08335800  0.52186600  1
  B  B27  1  0.24013400  0.08335800  0.02186600  1
  B  B28  1  0.70954500  0.48410200  0.59141700  1
  B  B29  1  0.79045500  0.48410200  0.09141700  1
  B  B30  1  0.29045500  0.51589800  0.40858300  1
  B  B31  1  0.20954500  0.51589800  0.90858300  1
  H  H32  1  0.85808200  0.82040300  0.77398100  1
  H  H33  1  0.64191800  0.82040300  0.27398100  1
  H  H34  1  0.14191800  0.17959700  0.22601900  1
  H  H35  1  0.35808200  0.17959700  0.72601900  1
  H  H36  1  0.95347700  0.22727300  0.69203400  1
  H  H37  1  0.54652300  0.22727300  0.19203400  1
  H  H38  1  0.04652300  0.77272700  0.30796600  1
  H  H39  1  0.45347700  0.77272700  0.80796600  1
  H  H40  1  0.59016700  0.83503900  0.86513100  1
  H  H41  1  0.90983300  0.83503900  0.36513100  1
  H  H42  1  0.40983300  0.16496100  0.13486900  1
  H  H43  1  0.09016700  0.16496100  0.63486900  1
  H  H44  1  0.59401500  0.87411500  0.71564300  1
  H  H45  1  0.90598500  0.87411500  0.21564300  1
  H  H46  1  0.40598500  0.12588500  0.28435700  1
  H  H47  1  0.09401500  0.12588500  0.78435700  1
  H  H48  1  0.60229900  0.65956700  0.86675500  1
  H  H49  1  0.89770100  0.65956700  0.36675500  1
  H  H50  1  0.39770100  0.34043300  0.13324500  1
  H  H51  1  0.10229900  0.34043300  0.63324500  1
  H  H52  1  0.53840800  0.16479400  0.74342600  1
  H  H53  1  0.96159200  0.16479400  0.24342600  1
  H  H54  1  0.46159200  0.83520600  0.25657400  1
  H  H55  1  0.03840800  0.83520600  0.75657400  1
  H  H56  1  0.93607200  0.97358200  0.62927600  1
  H  H57  1  0.56392800  0.97358200  0.12927600  1
  H  H58  1  0.06392800  0.02641800  0.37072400  1
  H  H59  1  0.43607200  0.02641800  0.87072400  1
  H  H60  1  0.94754600  0.97461400  0.76858800  1
  H  H61  1  0.55245400  0.97461400  0.26858800  1
  H  H62  1  0.05245400  0.02538600  0.23141200  1
  H  H63  1  0.44754600  0.02538600  0.73141200  1
  H  H64  1  0.67164600  0.45360400  0.53168400  1
  H  H65  1  0.82835400  0.45360400  0.03168400  1
  H  H66  1  0.32835400  0.54639600  0.46831600  1
  H  H67  1  0.17164600  0.54639600  0.96831600  1
  H  H68  1  0.67335200  0.31674000  0.89698800  1
  H  H69  1  0.82664800  0.31674000  0.39698800  1
  H  H70  1  0.32664800  0.68326000  0.10301200  1
  H  H71  1  0.17335200  0.68326000  0.60301200  1
  H  H72  1  0.50109300  0.38358700  0.86609500  1
  H  H73  1  0.99890700  0.38358700  0.36609500  1
  H  H74  1  0.49890700  0.61641300  0.13390500  1
  H  H75  1  0.00109300  0.61641300  0.63390500  1
  H  H76  1  0.66666000  0.87619400  0.55346200  1
  H  H77  1  0.83334000  0.87619400  0.05346200  1
  H  H78  1  0.33334000  0.12380600  0.44653800  1
  H  H79  1  0.16666000  0.12380600  0.94653800  1
  H  H80  1  0.92174200  0.18183600  0.96575900  1
  H  H81  1  0.57825800  0.18183600  0.46575900  1
  H  H82  1  0.07825800  0.81816400  0.03424100  1
  H  H83  1  0.42174200  0.81816400  0.53424100  1
  H  H84  1  0.91982100  0.40468700  0.89836600  1
  H  H85  1  0.58017900  0.40468700  0.39836600  1
  H  H86  1  0.08017900  0.59531300  0.10163400  1
  H  H87  1  0.41982100  0.59531300  0.60163400  1
  H  H88  1  0.78623400  0.40794100  0.65804900  1
  H  H89  1  0.71376600  0.40794100  0.15804900  1
  H  H90  1  0.21376600  0.59205900  0.34195100  1
  H  H91  1  0.28623400  0.59205900  0.84195100  1
  H  H92  1  0.80467600  0.00495100  0.88732400  1
  H  H93  1  0.69532400  0.00495100  0.38732400  1
  H  H94  1  0.19532400  0.99504900  0.11267600  1
  H  H95  1  0.30467600  0.99504900  0.61267600  1
  H  H96  1  0.54151500  0.73041400  0.49243600  1
  H  H97  1  0.95848500  0.73041400  0.99243600  1
  H  H98  1  0.45848500  0.26958600  0.50756400  1
  H  H99  1  0.04151500  0.26958600  0.00756400  1
  H  H100  1  0.53318500  0.67628400  0.65368500  1
  H  H101  1  0.96681500  0.67628400  0.15368500  1
  H  H102  1  0.46681500  0.32371600  0.34631500  1
  H  H103  1  0.03318500  0.32371600  0.84631500  1
  H  H104  1  0.69073400  0.06224500  0.67646900  1
  H  H105  1  0.80926600  0.06224500  0.17646900  1
  H  H106  1  0.30926600  0.93775500  0.32353100  1
  H  H107  1  0.19073400  0.93775500  0.82353100  1
  H  H108  1  0.75289100  0.52041900  0.78616400  1
  H  H109  1  0.74710900  0.52041900  0.28616400  1
  H  H110  1  0.24710900  0.47958100  0.21383600  1
  H  H111  1  0.25289100  0.47958100  0.71383600  1
  H  H112  1  0.85585000  0.62106200  0.69363100  1
  H  H113  1  0.64415000  0.62106200  0.19363100  1
  H  H114  1  0.14415000  0.37893800  0.30636900  1
  H  H115  1  0.35585000  0.37893800  0.80636900  1
  H  H116  1  0.76570700  0.69830000  0.73183800  1
  H  H117  1  0.73429300  0.69830000  0.23183800  1
  H  H118  1  0.23429300  0.30170000  0.26816200  1
  H  H119  1  0.26570700  0.30170000  0.76816200  1
  H  H120  1  0.75251400  0.61063200  0.52214900  1
  H  H121  1  0.74748600  0.61063200  0.02214900  1
  H  H122  1  0.24748600  0.38936800  0.47785100  1
  H  H123  1  0.25251400  0.38936800  0.97785100  1
  H  H124  1  0.72623900  0.81096400  0.97805300  1
  H  H125  1  0.77376100  0.81096400  0.47805300  1
  H  H126  1  0.27376100  0.18903600  0.02194700  1
  H  H127  1  0.22623900  0.18903600  0.52194700  1
  H  H128  1  0.62497200  0.48789000  0.64308800  1
  H  H129  1  0.87502800  0.48789000  0.14308800  1
  H  H130  1  0.37502800  0.51211000  0.35691200  1
  H  H131  1  0.12497200  0.51211000  0.85691200  1
  H  H132  1  0.82768400  0.95642700  0.49914400  1
  H  H133  1  0.67231600  0.95642700  0.99914400  1
  H  H134  1  0.17231600  0.04357300  0.50085600  1
  H  H135  1  0.32768400  0.04357300  0.00085600  1
  H  H136  1  0.91888600  0.34429200  0.49908000  1
  H  H137  1  0.58111400  0.34429200  0.99908000  1
  H  H138  1  0.08111400  0.65570800  0.50092000  1
  H  H139  1  0.41888600  0.65570800  0.00092000  1
  H  H140  1  0.54434900  0.17788900  0.98104000  1
  H  H141  1  0.95565100  0.17788900  0.48104000  1
  H  H142  1  0.45565100  0.82211100  0.01896000  1
  H  H143  1  0.04434900  0.82211100  0.51896000  1
  N  N144  1  0.76937600  0.11822000  0.64889500  1
  N  N145  1  0.73062400  0.11822000  0.14889500  1
  N  N146  1  0.23062400  0.88178000  0.35110500  1
  N  N147  1  0.26937600  0.88178000  0.85110500  1
  N  N148  1  0.76979700  0.62385200  0.71306100  1
  N  N149  1  0.73020300  0.62385200  0.21306100  1
  N  N150  1  0.23020300  0.37614800  0.28693900  1
  N  N151  1  0.26979700  0.37614800  0.78693900  1
