# generated using pymatgen
data_Na2TbO3
_symmetry_space_group_name_H-M   'P 1'
_cell_length_a   7.22275400
_cell_length_b   7.22604605
_cell_length_c   25.06854898
_cell_angle_alpha   82.42197667
_cell_angle_beta   82.93358136
_cell_angle_gamma   71.18300233
_symmetry_Int_Tables_number   1
_chemical_formula_structural   Na2TbO3
_chemical_formula_sum   'Na32 Tb16 O48'
_cell_volume   1223.10753165
_cell_formula_units_Z   16
loop_
 _symmetry_equiv_pos_site_id
 _symmetry_equiv_pos_as_xyz
  1  'x, y, z'
loop_
 _atom_site_type_symbol
 _atom_site_label
 _atom_site_symmetry_multiplicity
 _atom_site_fract_x
 _atom_site_fract_y
 _atom_site_fract_z
 _atom_site_occupancy
  Na  Na0  1  0.82650000  0.49108100  0.86869700  1
  Na  Na1  1  0.17352500  0.57290400  0.81285300  1
  Na  Na2  1  0.61167000  0.50520900  0.56109200  1
  Na  Na3  1  0.50624500  0.49271600  0.73767500  1
  Na  Na4  1  0.16033700  0.26196600  0.75414500  1
  Na  Na5  1  0.08119000  0.53371000  0.31473300  1
  Na  Na6  1  0.00000000  0.50000000  0.50000000  1
  Na  Na7  1  0.66139700  0.24376400  0.49503100  1
  Na  Na8  1  0.49375500  0.50728400  0.26232500  1
  Na  Na9  1  0.16009900  0.25654400  0.24709600  1
  Na  Na10  1  0.35796300  0.20440400  0.86679500  1
  Na  Na11  1  0.00000000  0.50000000  0.00000000  1
  Na  Na12  1  0.76498900  0.15977600  0.00042000  1
  Na  Na13  1  0.88440300  0.24690600  0.61876200  1
  Na  Na14  1  0.59703200  0.72643900  0.63499000  1
  Na  Na15  1  0.40296800  0.27356100  0.36501000  1
  Na  Na16  1  0.11559700  0.75309400  0.38123800  1
  Na  Na17  1  0.05762900  0.19145600  0.93313600  1
  Na  Na18  1  0.94355300  0.18342800  0.10609400  1
  Na  Na19  1  0.64203700  0.79559600  0.13320500  1
  Na  Na20  1  0.83990100  0.74345600  0.75290400  1
  Na  Na21  1  0.05644700  0.81657200  0.89390600  1
  Na  Na22  1  0.33860300  0.75623600  0.50496900  1
  Na  Na23  1  0.94237100  0.80854400  0.06686400  1
  Na  Na24  1  0.91881000  0.46629000  0.68526700  1
  Na  Na25  1  0.83966300  0.73803400  0.24585500  1
  Na  Na26  1  0.38833000  0.49479100  0.43890800  1
  Na  Na27  1  0.23501100  0.84022400  0.99958000  1
  Na  Na28  1  0.25559200  0.50267900  0.62901000  1
  Na  Na29  1  0.82647500  0.42709600  0.18714700  1
  Na  Na30  1  0.74440800  0.49732100  0.37099000  1
  Na  Na31  1  0.17350000  0.50891900  0.13130300  1
  Tb  Tb32  1  0.16240900  0.88723700  0.68952000  1
  Tb  Tb33  1  0.70847400  0.85721100  0.43532000  1
  Tb  Tb34  1  0.23081100  0.85379100  0.18794500  1
  Tb  Tb35  1  0.63911700  0.85805300  0.94173700  1
  Tb  Tb36  1  0.56601700  0.53711300  0.06569100  1
  Tb  Tb37  1  0.56487000  0.10658600  0.68764100  1
  Tb  Tb38  1  0.05621400  0.14145600  0.43353700  1
  Tb  Tb39  1  0.54861100  0.16275600  0.18294800  1
  Tb  Tb40  1  0.45138900  0.83724400  0.81705200  1
  Tb  Tb41  1  0.94378600  0.85854400  0.56646300  1
  Tb  Tb42  1  0.43513000  0.89341400  0.31235900  1
  Tb  Tb43  1  0.76918900  0.14620900  0.81205500  1
  Tb  Tb44  1  0.43398300  0.46288700  0.93430900  1
  Tb  Tb45  1  0.29152600  0.14278900  0.56468000  1
  Tb  Tb46  1  0.83759100  0.11276300  0.31048000  1
  Tb  Tb47  1  0.36088300  0.14194700  0.05826300  1
  O  O48  1  0.16161100  0.58752100  0.72400000  1
  O  O49  1  0.66720400  0.57386000  0.47028900  1
  O  O50  1  0.57726100  0.40069400  0.65050300  1
  O  O51  1  0.24055800  0.17838900  0.65376300  1
  O  O52  1  0.18101700  0.56229000  0.22172000  1
  O  O53  1  0.07829600  0.44026200  0.40740700  1
  O  O54  1  0.10849500  0.09599100  0.83776000  1
  O  O55  1  0.76128100  0.16408300  0.40110600  1
  O  O56  1  0.68403300  0.52108500  0.97241900  1
  O  O57  1  0.50412000  0.49291600  0.16688600  1
  O  O58  1  0.62325800  0.07449400  0.57969700  1
  O  O59  1  0.26263900  0.16663600  0.15268600  1
  O  O60  1  0.11290900  0.93126300  0.80412100  1
  O  O61  1  0.13827900  0.47519100  0.90087100  1
  O  O62  1  0.14597500  0.12014900  0.34036800  1
  O  O63  1  0.48857500  0.14824200  0.77731700  1
  O  O64  1  0.69659000  0.18504300  0.90317000  1
  O  O65  1  0.60948800  0.92203300  0.54485400  1
  O  O66  1  0.47076200  0.82638800  0.72206000  1
  O  O67  1  0.62663000  0.19628200  0.08987500  1
  O  O68  1  0.00469800  0.16606800  0.52763300  1
  O  O69  1  0.86997000  0.10494600  0.71877100  1
  O  O70  1  0.13003000  0.89505400  0.28122900  1
  O  O71  1  0.99530200  0.83393200  0.47236700  1
  O  O72  1  0.52923800  0.17361200  0.27794000  1
  O  O73  1  0.39051200  0.07796700  0.45514600  1
  O  O74  1  0.59743700  0.85493200  0.03732300  1
  O  O75  1  0.51142500  0.85175800  0.22268300  1
  O  O76  1  0.85402500  0.87985100  0.65963200  1
  O  O77  1  0.08015400  0.15628200  0.02247700  1
  O  O78  1  0.88709100  0.06873700  0.19587900  1
  O  O79  1  0.73736100  0.83336400  0.84731400  1
  O  O80  1  0.91984600  0.84371800  0.97752300  1
  O  O81  1  0.37674200  0.92550600  0.42030300  1
  O  O82  1  0.49588000  0.50708400  0.83311400  1
  O  O83  1  0.40256300  0.14506800  0.96267700  1
  O  O84  1  0.23871900  0.83591700  0.59889400  1
  O  O85  1  0.89150500  0.90400900  0.16224000  1
  O  O86  1  0.92170400  0.55973800  0.59259300  1
  O  O87  1  0.81898300  0.43771000  0.77828000  1
  O  O88  1  0.75944200  0.82161100  0.34623700  1
  O  O89  1  0.37337000  0.80371800  0.91012500  1
  O  O90  1  0.42273900  0.59930600  0.34949700  1
  O  O91  1  0.33279600  0.42614000  0.52971100  1
  O  O92  1  0.30341000  0.81495700  0.09683000  1
  O  O93  1  0.86172100  0.52480900  0.09912900  1
  O  O94  1  0.83838900  0.41247900  0.27600000  1
  O  O95  1  0.31596700  0.47891500  0.02758100  1
