# generated using pymatgen
data_Na2B4H20O17
_symmetry_space_group_name_H-M   'P 1'
_cell_length_a   8.01163714
_cell_length_b   8.01163714
_cell_length_c   12.24834275
_cell_angle_alpha   77.68762397
_cell_angle_beta   77.68762397
_cell_angle_gamma   83.70992305
_symmetry_Int_Tables_number   1
_chemical_formula_structural   Na2B4H20O17
_chemical_formula_sum   'Na4 B8 H40 O34'
_cell_volume   748.73377552
_cell_formula_units_Z   2
loop_
 _symmetry_equiv_pos_site_id
 _symmetry_equiv_pos_as_xyz
  1  'x, y, z'
loop_
 _atom_site_type_symbol
 _atom_site_label
 _atom_site_symmetry_multiplicity
 _atom_site_fract_x
 _atom_site_fract_y
 _atom_site_fract_z
 _atom_site_occupancy
  Na  Na0  1  0.00000000  0.00000000  0.50000000  1
  Na  Na1  1  0.00000000  0.00000000  0.00000000  1
  Na  Na2  1  0.84700800  0.15299200  0.75000000  1
  Na  Na3  1  0.15299200  0.84700800  0.25000000  1
  B  B4  1  0.25947900  0.56949300  0.71501000  1
  B  B5  1  0.43050700  0.74052100  0.78499000  1
  B  B6  1  0.74052100  0.43050700  0.28499000  1
  B  B7  1  0.56949300  0.25947900  0.21501000  1
  B  B8  1  0.35849000  0.44503800  0.89202200  1
  B  B9  1  0.55496200  0.64151000  0.60797800  1
  B  B10  1  0.64151000  0.55496200  0.10797800  1
  B  B11  1  0.44503800  0.35849000  0.39202200  1
  H  H12  1  0.49888700  0.98055800  0.77994700  1
  H  H13  1  0.01944200  0.50111300  0.72005300  1
  H  H14  1  0.50111300  0.01944200  0.22005300  1
  H  H15  1  0.98055800  0.49888700  0.27994700  1
  H  H16  1  0.34646700  0.42894400  0.53842400  1
  H  H17  1  0.57105600  0.65353300  0.96157600  1
  H  H18  1  0.65353300  0.57105600  0.46157600  1
  H  H19  1  0.42894400  0.34646700  0.03842400  1
  H  H20  1  0.08717100  0.31412400  0.53655600  1
  H  H21  1  0.68587600  0.91282900  0.96344400  1
  H  H22  1  0.91282900  0.68587600  0.46344400  1
  H  H23  1  0.31412400  0.08717100  0.03655600  1
  H  H24  1  0.34538000  0.92226800  0.98646800  1
  H  H25  1  0.07773200  0.65462000  0.51353200  1
  H  H26  1  0.65462000  0.07773200  0.01353200  1
  H  H27  1  0.92226800  0.34538000  0.48646800  1
  H  H28  1  0.17725000  0.22730600  0.80655800  1
  H  H29  1  0.77269400  0.82275000  0.69344200  1
  H  H30  1  0.82275000  0.77269400  0.19344200  1
  H  H31  1  0.22730600  0.17725000  0.30655800  1
  H  H32  1  0.96472400  0.78032000  0.70195800  1
  H  H33  1  0.21968000  0.03527600  0.79804200  1
  H  H34  1  0.03527600  0.21968000  0.29804200  1
  H  H35  1  0.78032000  0.96472400  0.20195800  1
  H  H36  1  0.27957000  0.88720000  0.61675100  1
  H  H37  1  0.11280000  0.72043000  0.88324900  1
  H  H38  1  0.72043000  0.11280000  0.38324900  1
  H  H39  1  0.88720000  0.27957000  0.11675100  1
  H  H40  1  0.32308500  0.06621200  0.53625100  1
  H  H41  1  0.93378800  0.67691500  0.96374900  1
  H  H42  1  0.67691500  0.93378800  0.46374900  1
  H  H43  1  0.06621200  0.32308500  0.03625100  1
  H  H44  1  0.71565200  0.48295100  0.83621500  1
  H  H45  1  0.51704900  0.28434800  0.66378500  1
  H  H46  1  0.28434800  0.51704900  0.16378500  1
  H  H47  1  0.48295100  0.71565200  0.33621500  1
  H  H48  1  0.62126500  0.14806300  0.59590000  1
  H  H49  1  0.85193700  0.37873500  0.90410000  1
  H  H50  1  0.37873500  0.85193700  0.40410000  1
  H  H51  1  0.14806300  0.62126500  0.09590000  1
  O  O52  1  0.26661100  0.73338900  0.75000000  1
  O  O53  1  0.73338900  0.26661100  0.25000000  1
  O  O54  1  0.26458100  0.42528200  0.81465900  1
  O  O55  1  0.57471800  0.73541900  0.68534100  1
  O  O56  1  0.73541900  0.57471800  0.18534100  1
  O  O57  1  0.42528200  0.26458100  0.31465900  1
  O  O58  1  0.41554800  0.54493800  0.62388700  1
  O  O59  1  0.45506200  0.58445200  0.87611300  1
  O  O60  1  0.58445200  0.45506200  0.37611300  1
  O  O61  1  0.54493800  0.41554800  0.12388700  1
  O  O62  1  0.10920300  0.56859700  0.66705800  1
  O  O63  1  0.43140300  0.89079700  0.83294200  1
  O  O64  1  0.89079700  0.43140300  0.33294200  1
  O  O65  1  0.56859700  0.10920300  0.16705800  1
  O  O66  1  0.35354500  0.32045100  0.99001400  1
  O  O67  1  0.67954900  0.64645500  0.50998600  1
  O  O68  1  0.64645500  0.67954900  0.00998600  1
  O  O69  1  0.32045100  0.35354500  0.49001400  1
  O  O70  1  0.72281700  0.03029900  0.94864000  1
  O  O71  1  0.96970100  0.27718300  0.55136000  1
  O  O72  1  0.27718300  0.96970100  0.05136000  1
  O  O73  1  0.03029900  0.72281700  0.44864000  1
  O  O74  1  0.87725100  0.87636300  0.69571100  1
  O  O75  1  0.12363700  0.12274900  0.80428900  1
  O  O76  1  0.12274900  0.12363700  0.30428900  1
  O  O77  1  0.87636300  0.87725100  0.19571100  1
  O  O78  1  0.04615200  0.71566500  0.96232000  1
  O  O79  1  0.28433500  0.95384800  0.53768000  1
  O  O80  1  0.95384800  0.28433500  0.03768000  1
  O  O81  1  0.71566500  0.04615200  0.46232000  1
  O  O82  1  0.58829900  0.17644800  0.67243400  1
  O  O83  1  0.82355200  0.41170100  0.82756600  1
  O  O84  1  0.41170100  0.82355200  0.32756600  1
  O  O85  1  0.17644800  0.58829900  0.17243400  1
