# generated using pymatgen
data_TeP6H30(NO4)6
_symmetry_space_group_name_H-M   'P 1'
_cell_length_a   8.99543253
_cell_length_b   8.99543253
_cell_length_c   8.99543284
_cell_angle_alpha   78.48410805
_cell_angle_beta   78.48410805
_cell_angle_gamma   78.48410854
_symmetry_Int_Tables_number   1
_chemical_formula_structural   TeP6H30(NO4)6
_chemical_formula_sum   'Te1 P6 H30 N6 O24'
_cell_volume   689.13438459
_cell_formula_units_Z   1
loop_
 _symmetry_equiv_pos_site_id
 _symmetry_equiv_pos_as_xyz
  1  'x, y, z'
loop_
 _atom_site_type_symbol
 _atom_site_label
 _atom_site_symmetry_multiplicity
 _atom_site_fract_x
 _atom_site_fract_y
 _atom_site_fract_z
 _atom_site_occupancy
  Te  Te0  1  0.00000000  0.00000000  0.00000000  1
  P  P1  1  0.30301500  0.49094400  0.19639500  1
  P  P2  1  0.49094400  0.19639500  0.30301500  1
  P  P3  1  0.19639500  0.30301500  0.49094400  1
  P  P4  1  0.69698500  0.50905600  0.80360500  1
  P  P5  1  0.50905600  0.80360500  0.69698500  1
  P  P6  1  0.80360500  0.69698500  0.50905600  1
  H  H7  1  0.81066700  0.08371200  0.23131800  1
  H  H8  1  0.08371200  0.23131800  0.81066700  1
  H  H9  1  0.23131800  0.81066700  0.08371200  1
  H  H10  1  0.18933300  0.91628800  0.76868200  1
  H  H11  1  0.91628800  0.76868200  0.18933300  1
  H  H12  1  0.76868200  0.18933300  0.91628800  1
  H  H13  1  0.73589500  0.14781100  0.54199700  1
  H  H14  1  0.14781100  0.54199700  0.73589500  1
  H  H15  1  0.54199700  0.73589500  0.14781100  1
  H  H16  1  0.26410500  0.85218900  0.45800300  1
  H  H17  1  0.85218900  0.45800300  0.26410500  1
  H  H18  1  0.45800300  0.26410500  0.85218900  1
  H  H19  1  0.92324400  0.15057400  0.54799300  1
  H  H20  1  0.15057400  0.54799300  0.92324400  1
  H  H21  1  0.54799300  0.92324400  0.15057400  1
  H  H22  1  0.07675600  0.84942600  0.45200700  1
  H  H23  1  0.84942600  0.45200700  0.07675600  1
  H  H24  1  0.45200700  0.07675600  0.84942600  1
  H  H25  1  0.19779000  0.89713900  0.28511700  1
  H  H26  1  0.89713900  0.28511700  0.19779000  1
  H  H27  1  0.28511700  0.19779000  0.89713900  1
  H  H28  1  0.80221000  0.10286100  0.71488300  1
  H  H29  1  0.10286100  0.71488300  0.80221000  1
  H  H30  1  0.71488300  0.80221000  0.10286100  1
  H  H31  1  0.85218300  0.98098800  0.58789700  1
  H  H32  1  0.98098800  0.58789700  0.85218300  1
  H  H33  1  0.58789700  0.85218300  0.98098800  1
  H  H34  1  0.14781700  0.01901200  0.41210300  1
  H  H35  1  0.01901200  0.41210300  0.14781700  1
  H  H36  1  0.41210300  0.14781700  0.01901200  1
  N  N37  1  0.17277100  0.90254200  0.40164500  1
  N  N38  1  0.90254200  0.40164500  0.17277100  1
  N  N39  1  0.40164500  0.17277100  0.90254200  1
  N  N40  1  0.82722900  0.09745800  0.59835500  1
  N  N41  1  0.09745800  0.59835500  0.82722900  1
  N  N42  1  0.59835500  0.82722900  0.09745800  1
  O  O43  1  0.19729900  0.92539100  0.07057500  1
  O  O44  1  0.92539100  0.07057500  0.19729900  1
  O  O45  1  0.07057500  0.19729900  0.92539100  1
  O  O46  1  0.80270100  0.07460900  0.92942500  1
  O  O47  1  0.07460900  0.92942500  0.80270100  1
  O  O48  1  0.92942500  0.80270100  0.07460900  1
  O  O49  1  0.16415700  0.34195000  0.65012700  1
  O  O50  1  0.34195000  0.65012700  0.16415700  1
  O  O51  1  0.65012700  0.16415700  0.34195000  1
  O  O52  1  0.83584300  0.65805000  0.34987300  1
  O  O53  1  0.65805000  0.34987300  0.83584300  1
  O  O54  1  0.34987300  0.83584300  0.65805000  1
  O  O55  1  0.37259100  0.21083400  0.46349500  1
  O  O56  1  0.21083400  0.46349500  0.37259100  1
  O  O57  1  0.46349500  0.37259100  0.21083400  1
  O  O58  1  0.62740900  0.78916600  0.53650500  1
  O  O59  1  0.78916600  0.53650500  0.62740900  1
  O  O60  1  0.53650500  0.62740900  0.78916600  1
  O  O61  1  0.55534900  0.90812400  0.78448200  1
  O  O62  1  0.90812400  0.78448200  0.55534900  1
  O  O63  1  0.78448200  0.55534900  0.90812400  1
  O  O64  1  0.44465100  0.09187600  0.21551800  1
  O  O65  1  0.09187600  0.21551800  0.44465100  1
  O  O66  1  0.21551800  0.44465100  0.09187600  1
