# generated using pymatgen
data_H13Se2N3O8
_symmetry_space_group_name_H-M   'P 1'
_cell_length_a   6.12864686
_cell_length_b   6.12864686
_cell_length_c   16.23658476
_cell_angle_alpha   76.74502448
_cell_angle_beta   76.74502448
_cell_angle_gamma   60.03024099
_symmetry_Int_Tables_number   1
_chemical_formula_structural   H13Se2N3O8
_chemical_formula_sum   'H26 Se4 N6 O16'
_cell_volume   509.44930209
_cell_formula_units_Z   2
loop_
 _symmetry_equiv_pos_site_id
 _symmetry_equiv_pos_as_xyz
  1  'x, y, z'
loop_
 _atom_site_type_symbol
 _atom_site_label
 _atom_site_symmetry_multiplicity
 _atom_site_fract_x
 _atom_site_fract_y
 _atom_site_fract_z
 _atom_site_occupancy
  H  H0  1  0.38793200  0.71015000  0.78430200  1
  H  H1  1  0.71015000  0.38793200  0.28430200  1
  H  H2  1  0.61206800  0.28985000  0.21569800  1
  H  H3  1  0.28985000  0.61206800  0.71569800  1
  H  H4  1  0.08244100  0.78246000  0.79318500  1
  H  H5  1  0.78246000  0.08244100  0.29318500  1
  H  H6  1  0.91755900  0.21754000  0.20681500  1
  H  H7  1  0.21754000  0.91755900  0.70681500  1
  H  H8  1  0.30918000  0.65804600  0.06630000  1
  H  H9  1  0.65804600  0.30918000  0.56630000  1
  H  H10  1  0.69082000  0.34195400  0.93370000  1
  H  H11  1  0.34195400  0.69082000  0.43370000  1
  H  H12  1  0.16637800  0.47281900  0.07133700  1
  H  H13  1  0.47281900  0.16637800  0.57133700  1
  H  H14  1  0.83362200  0.52718100  0.92866300  1
  H  H15  1  0.52718100  0.83362200  0.42866300  1
  H  H16  1  0.17172900  0.68084700  0.98311100  1
  H  H17  1  0.68084700  0.17172900  0.48311100  1
  H  H18  1  0.82827100  0.31915300  0.01688900  1
  H  H19  1  0.31915300  0.82827100  0.51688900  1
  H  H20  1  0.98697700  0.79273000  0.07389100  1
  H  H21  1  0.79273000  0.98697700  0.57389100  1
  H  H22  1  0.01302300  0.20727000  0.92610900  1
  H  H23  1  0.20727000  0.01302300  0.42610900  1
  H  H24  1  0.73400100  0.26599900  0.75000000  1
  H  H25  1  0.26599900  0.73400100  0.25000000  1
  Se  Se26  1  0.43949700  0.94832900  0.13592400  1
  Se  Se27  1  0.94832900  0.43949700  0.63592400  1
  Se  Se28  1  0.56050300  0.05167100  0.86407600  1
  Se  Se29  1  0.05167100  0.56050300  0.36407600  1
  N  N30  1  0.24630600  0.75369400  0.75000000  1
  N  N31  1  0.75369400  0.24630600  0.25000000  1
  N  N32  1  0.15790300  0.65154100  0.04842600  1
  N  N33  1  0.65154100  0.15790300  0.54842600  1
  N  N34  1  0.84209700  0.34845900  0.95157400  1
  N  N35  1  0.34845900  0.84209700  0.45157400  1
  O  O36  1  0.38640800  0.84867100  0.24323100  1
  O  O37  1  0.84867100  0.38640800  0.74323100  1
  O  O38  1  0.61359200  0.15132900  0.75676900  1
  O  O39  1  0.15132900  0.61359200  0.25676900  1
  O  O40  1  0.64568800  0.05870800  0.12133300  1
  O  O41  1  0.05870800  0.64568800  0.62133300  1
  O  O42  1  0.35431200  0.94129200  0.87866700  1
  O  O43  1  0.94129200  0.35431200  0.37866700  1
  O  O44  1  0.15524100  0.17670800  0.10889900  1
  O  O45  1  0.17670800  0.15524100  0.60889900  1
  O  O46  1  0.84475900  0.82329200  0.89110100  1
  O  O47  1  0.82329200  0.84475900  0.39110100  1
  O  O48  1  0.55630500  0.69538500  0.08608400  1
  O  O49  1  0.69538500  0.55630500  0.58608400  1
  O  O50  1  0.44369500  0.30461500  0.91391600  1
  O  O51  1  0.30461500  0.44369500  0.41391600  1
