# generated using pymatgen
data_KPH2O3
_symmetry_space_group_name_H-M   'P 1'
_cell_length_a   8.72055300
_cell_length_b   7.98162000
_cell_length_c   12.77499226
_cell_angle_alpha   81.04417610
_cell_angle_beta   90.00000000
_cell_angle_gamma   90.00000000
_symmetry_Int_Tables_number   1
_chemical_formula_structural   KPH2O3
_chemical_formula_sum   'K8 P8 H16 O24'
_cell_volume   878.35190746
_cell_formula_units_Z   8
loop_
 _symmetry_equiv_pos_site_id
 _symmetry_equiv_pos_as_xyz
  1  'x, y, z'
loop_
 _atom_site_type_symbol
 _atom_site_label
 _atom_site_symmetry_multiplicity
 _atom_site_fract_x
 _atom_site_fract_y
 _atom_site_fract_z
 _atom_site_occupancy
  K  K0  1  0.45066800  0.03097900  0.74053600  1
  K  K1  1  0.95066800  0.96902100  0.75946400  1
  K  K2  1  0.54933200  0.96902100  0.25946400  1
  K  K3  1  0.04933200  0.03097900  0.24053600  1
  K  K4  1  0.72406800  0.53088800  0.98365900  1
  K  K5  1  0.22406800  0.46911200  0.51634100  1
  K  K6  1  0.27593200  0.46911200  0.01634100  1
  K  K7  1  0.77593200  0.53088800  0.48365900  1
  P  P8  1  0.49946600  0.45158700  0.75663500  1
  P  P9  1  0.99946600  0.54841300  0.74336500  1
  P  P10  1  0.50053400  0.54841300  0.24336500  1
  P  P11  1  0.00053400  0.45158700  0.25663500  1
  P  P12  1  0.69255100  0.04719200  0.98808100  1
  P  P13  1  0.19255100  0.95280800  0.51191900  1
  P  P14  1  0.30744900  0.95280800  0.01191900  1
  P  P15  1  0.80744900  0.04719200  0.48808100  1
  H  H16  1  0.34019200  0.36077900  0.31095400  1
  H  H17  1  0.84019200  0.63922100  0.18904600  1
  H  H18  1  0.65980800  0.63922100  0.68904600  1
  H  H19  1  0.15980800  0.36077900  0.81095400  1
  H  H20  1  0.59330300  0.85436900  0.50446000  1
  H  H21  1  0.09330300  0.14563100  0.99554000  1
  H  H22  1  0.40669700  0.14563100  0.49554000  1
  H  H23  1  0.90669700  0.85436900  0.00446000  1
  H  H24  1  0.62445700  0.33708800  0.77362800  1
  H  H25  1  0.12445700  0.66291200  0.72637200  1
  H  H26  1  0.37554300  0.66291200  0.22637200  1
  H  H27  1  0.87554300  0.33708800  0.27362800  1
  H  H28  1  0.48887400  0.16844300  0.50506000  1
  H  H29  1  0.98887400  0.83155700  0.99494000  1
  H  H30  1  0.51112600  0.83155700  0.49494000  1
  H  H31  1  0.01112600  0.16844300  0.00506000  1
  O  O32  1  0.36534200  0.36573500  0.71084400  1
  O  O33  1  0.86534200  0.63426500  0.78915600  1
  O  O34  1  0.63465800  0.63426500  0.28915600  1
  O  O35  1  0.13465800  0.36573500  0.21084400  1
  O  O36  1  0.47922600  0.53072900  0.85536700  1
  O  O37  1  0.97922600  0.46927100  0.64463300  1
  O  O38  1  0.52077400  0.46927100  0.14463300  1
  O  O39  1  0.02077400  0.53072900  0.35536700  1
  O  O40  1  0.56569200  0.59399900  0.66106100  1
  O  O41  1  0.06569200  0.40600100  0.83893900  1
  O  O42  1  0.43430800  0.40600100  0.33893900  1
  O  O43  1  0.93430800  0.59399900  0.16106100  1
  O  O44  1  0.75881600  0.18261300  0.04397600  1
  O  O45  1  0.25881600  0.81738700  0.45602400  1
  O  O46  1  0.24118400  0.81738700  0.95602400  1
  O  O47  1  0.74118400  0.18261300  0.54397600  1
  O  O48  1  0.70685100  0.05983000  0.87085400  1
  O  O49  1  0.20685100  0.94017000  0.62914600  1
  O  O50  1  0.29314900  0.94017000  0.12914600  1
  O  O51  1  0.79314900  0.05983000  0.37085400  1
  O  O52  1  0.62545900  0.89028600  0.05252000  1
  O  O53  1  0.12545900  0.10971400  0.44748000  1
  O  O54  1  0.37454100  0.10971400  0.94748000  1
  O  O55  1  0.87454100  0.89028600  0.55252000  1
