# generated using pymatgen
data_LaH16C2N11O17
_symmetry_space_group_name_H-M   'P 1'
_cell_length_a   7.22794785
_cell_length_b   7.22794785
_cell_length_c   20.89997360
_cell_angle_alpha   86.58798088
_cell_angle_beta   86.58798088
_cell_angle_gamma   78.97739686
_symmetry_Int_Tables_number   1
_chemical_formula_structural   LaH16C2N11O17
_chemical_formula_sum   'La2 H32 C4 N22 O34'
_cell_volume   1068.54724237
_cell_formula_units_Z   2
loop_
 _symmetry_equiv_pos_site_id
 _symmetry_equiv_pos_as_xyz
  1  'x, y, z'
loop_
 _atom_site_type_symbol
 _atom_site_label
 _atom_site_symmetry_multiplicity
 _atom_site_fract_x
 _atom_site_fract_y
 _atom_site_fract_z
 _atom_site_occupancy
  La  La0  1  0.63862400  0.36137600  0.75000000  1
  La  La1  1  0.36137600  0.63862400  0.25000000  1
  H  H2  1  0.46798900  0.99211900  0.78227000  1
  H  H3  1  0.00788100  0.53201100  0.71773000  1
  H  H4  1  0.53201100  0.00788100  0.21773000  1
  H  H5  1  0.99211900  0.46798900  0.28227000  1
  H  H6  1  0.28127200  0.14599900  0.77745800  1
  H  H7  1  0.85400100  0.71872800  0.72254200  1
  H  H8  1  0.71872800  0.85400100  0.22254200  1
  H  H9  1  0.14599900  0.28127200  0.27745800  1
  H  H10  1  0.10433700  0.31979000  0.41343900  1
  H  H11  1  0.68021000  0.89566300  0.08656100  1
  H  H12  1  0.89566300  0.68021000  0.58656100  1
  H  H13  1  0.31979000  0.10433700  0.91343900  1
  H  H14  1  0.95983300  0.28334300  0.48043100  1
  H  H15  1  0.71665700  0.04016700  0.01956900  1
  H  H16  1  0.04016700  0.71665700  0.51956900  1
  H  H17  1  0.28334300  0.95983300  0.98043100  1
  H  H18  1  0.53111800  0.20549800  0.49799500  1
  H  H19  1  0.79450200  0.46888200  0.00200500  1
  H  H20  1  0.46888200  0.79450200  0.50200500  1
  H  H21  1  0.20549800  0.53111800  0.99799500  1
  H  H22  1  0.43707900  0.27273900  0.42306700  1
  H  H23  1  0.72726100  0.56292100  0.07693300  1
  H  H24  1  0.56292100  0.72726100  0.57693300  1
  H  H25  1  0.27273900  0.43707900  0.92306700  1
  H  H26  1  0.33296300  0.16956300  0.58763600  1
  H  H27  1  0.83043700  0.66703700  0.91236400  1
  H  H28  1  0.66703700  0.83043700  0.41236400  1
  H  H29  1  0.16956300  0.33296300  0.08763600  1
  H  H30  1  0.08767100  0.20905000  0.58156700  1
  H  H31  1  0.79095000  0.91232900  0.91843300  1
  H  H32  1  0.91232900  0.79095000  0.41843300  1
  H  H33  1  0.20905000  0.08767100  0.08156700  1
  C  C34  1  0.24253900  0.23864100  0.49701100  1
  C  C35  1  0.76135900  0.75746100  0.00298900  1
  C  C36  1  0.75746100  0.76135900  0.50298900  1
  C  C37  1  0.23864100  0.24253900  0.99701100  1
  N  N38  1  0.09151600  0.28799400  0.46115200  1
  N  N39  1  0.71200600  0.90848400  0.03884800  1
  N  N40  1  0.90848400  0.71200600  0.53884800  1
  N  N41  1  0.28799400  0.09151600  0.96115200  1
  N  N42  1  0.41580200  0.23297600  0.47025000  1
  N  N43  1  0.76702400  0.58419800  0.02975000  1
  N  N44  1  0.58419800  0.76702400  0.52975000  1
  N  N45  1  0.23297600  0.41580200  0.97025000  1
  N  N46  1  0.21892700  0.19356900  0.55960300  1
  N  N47  1  0.80643100  0.78107300  0.94039700  1
  N  N48  1  0.78107300  0.80643100  0.44039700  1
  N  N49  1  0.19356900  0.21892700  0.05960300  1
  N  N50  1  0.98120500  0.01879500  0.75000000  1
  N  N51  1  0.01879500  0.98120500  0.25000000  1
  N  N52  1  0.33954400  0.59488800  0.66006300  1
  N  N53  1  0.40511200  0.66045600  0.83993700  1
  N  N54  1  0.66045600  0.40511200  0.33993700  1
  N  N55  1  0.59488800  0.33954400  0.16006300  1
  N  N56  1  0.72105000  0.22883300  0.60483600  1
  N  N57  1  0.77116700  0.27895000  0.89516400  1
  N  N58  1  0.27895000  0.77116700  0.39516400  1
  N  N59  1  0.22883300  0.72105000  0.10483600  1
  O  O60  1  0.81440100  0.99853500  0.73718200  1
  O  O61  1  0.00146500  0.18559900  0.76281800  1
  O  O62  1  0.18559900  0.00146500  0.26281800  1
  O  O63  1  0.99853500  0.81440100  0.23718200  1
  O  O64  1  0.11544400  0.88455600  0.75000000  1
  O  O65  1  0.88455600  0.11544400  0.25000000  1
  O  O66  1  0.51484400  0.61104300  0.65824500  1
  O  O67  1  0.38895700  0.48515600  0.84175500  1
  O  O68  1  0.48515600  0.38895700  0.34175500  1
  O  O69  1  0.61104300  0.51484400  0.15824500  1
  O  O70  1  0.28708500  0.48555400  0.70504000  1
  O  O71  1  0.51444600  0.71291500  0.79496000  1
  O  O72  1  0.71291500  0.51444600  0.29496000  1
  O  O73  1  0.48555400  0.28708500  0.20504000  1
  O  O74  1  0.23149100  0.68010200  0.61993000  1
  O  O75  1  0.31989800  0.76850900  0.88007000  1
  O  O76  1  0.76850900  0.31989800  0.38007000  1
  O  O77  1  0.68010200  0.23149100  0.11993000  1
  O  O78  1  0.84461900  0.28877500  0.63481100  1
  O  O79  1  0.71122500  0.15538100  0.86518900  1
  O  O80  1  0.15538100  0.71122500  0.36518900  1
  O  O81  1  0.28877500  0.84461900  0.13481100  1
  O  O82  1  0.56835100  0.20846900  0.63559700  1
  O  O83  1  0.79153100  0.43164900  0.86440300  1
  O  O84  1  0.43164900  0.79153100  0.36440300  1
  O  O85  1  0.20846900  0.56835100  0.13559700  1
  O  O86  1  0.75034700  0.19204500  0.54662600  1
  O  O87  1  0.80795500  0.24965300  0.95337400  1
  O  O88  1  0.24965300  0.80795500  0.45337400  1
  O  O89  1  0.19204500  0.75034700  0.04662600  1
  O  O90  1  0.41900600  0.12881100  0.78018200  1
  O  O91  1  0.87118900  0.58099400  0.71981800  1
  O  O92  1  0.58099400  0.87118900  0.21981800  1
  O  O93  1  0.12881100  0.41900600  0.28018200  1
