# generated using pymatgen
data_H22C10O3
_symmetry_space_group_name_H-M   'P 1'
_cell_length_a   15.94064344
_cell_length_b   14.10452314
_cell_length_c   11.41876859
_cell_angle_alpha   76.49523477
_cell_angle_beta   59.35595696
_cell_angle_gamma   44.14880827
_symmetry_Int_Tables_number   1
_chemical_formula_structural   H22C10O3
_chemical_formula_sum   'H88 C40 O12'
_cell_volume   1500.58611336
_cell_formula_units_Z   4
loop_
 _symmetry_equiv_pos_site_id
 _symmetry_equiv_pos_as_xyz
  1  'x, y, z'
loop_
 _atom_site_type_symbol
 _atom_site_label
 _atom_site_symmetry_multiplicity
 _atom_site_fract_x
 _atom_site_fract_y
 _atom_site_fract_z
 _atom_site_occupancy
  H  H0  1  0.97468100  0.11399900  0.79545000  1
  H  H1  1  0.11587000  0.79545000  0.11399900  1
  H  H2  1  0.13600100  0.27531900  0.13413000  1
  H  H3  1  0.45455000  0.13413000  0.27531900  1
  H  H4  1  0.81550500  0.27011900  0.92579400  1
  H  H5  1  0.98858200  0.92579400  0.27011900  1
  H  H6  1  0.97988100  0.43449500  0.26141800  1
  H  H7  1  0.32420600  0.26141800  0.43449500  1
  H  H8  1  0.86529200  0.31838500  0.68507000  1
  H  H9  1  0.13125400  0.68507000  0.31838500  1
  H  H10  1  0.93161500  0.38470800  0.11874600  1
  H  H11  1  0.56493000  0.11874600  0.38470800  1
  H  H12  1  0.04032200  0.39180400  0.96522700  1
  H  H13  1  0.60264800  0.96522700  0.39180400  1
  H  H14  1  0.85819600  0.20967800  0.64735200  1
  H  H15  1  0.28477300  0.64735200  0.20967800  1
  H  H16  1  0.79387400  0.62507800  0.22870300  1
  H  H17  1  0.35234500  0.22870300  0.62507800  1
  H  H18  1  0.62492200  0.45612600  0.89765500  1
  H  H19  1  0.02129700  0.89765500  0.45612600  1
  H  H20  1  0.15659700  0.93148500  0.43132400  1
  H  H21  1  0.48059400  0.43132400  0.93148500  1
  H  H22  1  0.31851500  0.09340300  0.76940600  1
  H  H23  1  0.81867600  0.76940600  0.09340300  1
  H  H24  1  0.39347400  0.70095000  0.20000300  1
  H  H25  1  0.70557300  0.20000300  0.70095000  1
  H  H26  1  0.54905000  0.85652600  0.54442700  1
  H  H27  1  0.04999700  0.54442700  0.85652600  1
  H  H28  1  0.23579900  0.07098100  0.65370600  1
  H  H29  1  0.03951400  0.65370600  0.07098100  1
  H  H30  1  0.17901900  0.01420100  0.21048600  1
  H  H31  1  0.59629400  0.21048600  0.01420100  1
  H  H32  1  0.08498600  0.33641500  0.73674700  1
  H  H33  1  0.84185200  0.73674700  0.33641500  1
  H  H34  1  0.91358500  0.16501400  0.40814800  1
  H  H35  1  0.51325300  0.40814800  0.16501400  1
  H  H36  1  0.25528700  0.16437000  0.31189100  1
  H  H37  1  0.26845100  0.31189100  0.16437000  1
  H  H38  1  0.08563000  0.99471300  0.98154900  1
  H  H39  1  0.93810900  0.98154900  0.99471300  1
  H  H40  1  0.18087600  0.12523900  0.46842200  1
  H  H41  1  0.22546200  0.46842200  0.12523900  1
  H  H42  1  0.12476100  0.06912400  0.02453800  1
  H  H43  1  0.78157800  0.02453800  0.06912400  1
  H  H44  1  0.13914800  0.27920700  0.47813600  1
  H  H45  1  0.10351000  0.47813600  0.27920700  1
  H  H46  1  0.97079300  0.11085200  0.14649000  1
  H  H47  1  0.77186400  0.14649000  0.11085200  1
  H  H48  1  0.74093900  0.49803900  0.10356100  1
  H  H49  1  0.65746100  0.10356100  0.49803900  1
  H  H50  1  0.75196100  0.50906100  0.59253900  1
  H  H51  1  0.14643900  0.59253900  0.50906100  1
  H  H52  1  0.60533200  0.66081900  0.07133900  1
  H  H53  1  0.66250900  0.07133900  0.66081900  1
  H  H54  1  0.58918100  0.64466800  0.58749100  1
  H  H55  1  0.17866100  0.58749100  0.64466800  1
  H  H56  1  0.56872800  0.62868000  0.35841900  1
  H  H57  1  0.44417200  0.35841900  0.62868000  1
  H  H58  1  0.62132000  0.68127200  0.80582800  1
  H  H59  1  0.89158100  0.80582800  0.68127200  1
  H  H60  1  0.73571900  0.68092300  0.81971600  1
  H  H61  1  0.76364200  0.81971600  0.68092300  1
  H  H62  1  0.56907700  0.51428100  0.48635800  1
  H  H63  1  0.43028400  0.48635800  0.51428100  1
  H  H64  1  0.00784800  0.38355500  0.76886900  1
  H  H65  1  0.83972800  0.76886900  0.38355500  1
  H  H66  1  0.86644500  0.24215200  0.41027200  1
  H  H67  1  0.48113100  0.41027200  0.24215200  1
  H  H68  1  0.88575600  0.65238600  0.80952100  1
  H  H69  1  0.65233700  0.80952100  0.65238600  1
  H  H70  1  0.59761400  0.36424400  0.59766300  1
  H  H71  1  0.44047900  0.59766300  0.36424400  1
  H  H72  1  0.34319100  0.81344500  0.54409900  1
  H  H73  1  0.29926500  0.54409900  0.81344500  1
  H  H74  1  0.43655500  0.90680900  0.95073500  1
  H  H75  1  0.70590100  0.95073500  0.90680900  1
  H  H76  1  0.37379800  0.83744500  0.54069500  1
  H  H77  1  0.24806200  0.54069500  0.83744500  1
  H  H78  1  0.41255500  0.87620200  0.00193800  1
  H  H79  1  0.70930500  0.00193800  0.87620200  1
  H  H80  1  0.18678900  0.75637100  0.56875300  1
  H  H81  1  0.48808700  0.56875300  0.75637100  1
  H  H82  1  0.49362900  0.06321100  0.76191300  1
  H  H83  1  0.68124700  0.76191300  0.06321100  1
  H  H84  1  0.33188600  0.82134300  0.93934400  1
  H  H85  1  0.90742700  0.93934400  0.82134300  1
  H  H86  1  0.42865700  0.91811400  0.34257300  1
  H  H87  1  0.31065600  0.34257300  0.91811400  1
  C  C88  1  0.34709900  0.08940200  0.44376600  1
  C  C89  1  0.11973300  0.44376600  0.08940200  1
  C  C90  1  0.16059800  0.90290100  0.13026700  1
  C  C91  1  0.80623400  0.13026700  0.90290100  1
  C  C92  1  0.40947300  0.14802400  0.38973200  1
  C  C93  1  0.05277100  0.38973200  0.14802400  1
  C  C94  1  0.10197600  0.84052700  0.19722900  1
  C  C95  1  0.86026800  0.19722900  0.84052700  1
  C  C96  1  0.51808600  0.07927800  0.43135900  1
  C  C97  1  0.97127800  0.43135900  0.07927800  1
  C  C98  1  0.17072200  0.73191400  0.27872200  1
  C  C99  1  0.81864100  0.27872200  0.73191400  1
  C  C100  1  0.44540100  0.11377200  0.59182500  1
  C  C101  1  0.84900200  0.59182500  0.11377200  1
  C  C102  1  0.13622800  0.80459900  0.40099800  1
  C  C103  1  0.65817500  0.40099800  0.80459900  1
  C  C104  1  0.38494800  0.05284700  0.65536400  1
  C  C105  1  0.90684100  0.65536400  0.05284700  1
  C  C106  1  0.19715300  0.86505200  0.34315900  1
  C  C107  1  0.59463600  0.34315900  0.86505200  1
  C  C108  1  0.30638100  0.08292400  0.59410300  1
  C  C109  1  0.01659200  0.59410300  0.08292400  1
  C  C110  1  0.16707600  0.94361900  0.23340800  1
  C  C111  1  0.65589700  0.23340800  0.94361900  1
  C  C112  1  0.22398000  0.16902900  0.42324400  1
  C  C113  1  0.18374700  0.42324400  0.16902900  1
  C  C114  1  0.08097100  0.02602000  0.06625300  1
  C  C115  1  0.82675600  0.06625300  0.02602000  1
  C  C116  1  0.52432600  0.08256800  0.65597900  1
  C  C117  1  0.73712700  0.65597900  0.08256800  1
  C  C118  1  0.16743200  0.72567400  0.51287300  1
  C  C119  1  0.59402100  0.51287300  0.72567400  1
  C  C120  1  0.44746800  0.39362900  0.53004400  1
  C  C121  1  0.62886000  0.53004400  0.39362900  1
  C  C122  1  0.85637100  0.80253200  0.62114000  1
  C  C123  1  0.71995600  0.62114000  0.80253200  1
  C  C124  1  0.61858900  0.08588700  0.60212700  1
  C  C125  1  0.69339700  0.60212700  0.08588700  1
  C  C126  1  0.16411300  0.63141100  0.55660300  1
  C  C127  1  0.64787300  0.55660300  0.63141100  1
  O  O128  1  0.46526800  0.94361100  0.35903200  1
  O  O129  1  0.23208800  0.35903200  0.94361100  1
  O  O130  1  0.30638900  0.78473200  0.01791200  1
  O  O131  1  0.89096800  0.01791200  0.78473200  1
  O  O132  1  0.80942200  0.49378800  0.77762400  1
  O  O133  1  0.91916600  0.77762400  0.49378800  1
  O  O134  1  0.75621200  0.44057800  0.33083400  1
  O  O135  1  0.47237600  0.33083400  0.44057800  1
  O  O136  1  0.34883300  0.76004100  0.28517700  1
  O  O137  1  0.60594900  0.28517700  0.76004100  1
  O  O138  1  0.48995900  0.90116700  0.64405100  1
  O  O139  1  0.96482300  0.64405100  0.90116700  1
