# generated using pymatgen
data_Mg2PtAu
_symmetry_space_group_name_H-M   'P 1'
_cell_length_a   10.96941764
_cell_length_b   10.96941764
_cell_length_c   10.96941764
_cell_angle_alpha   125.95358323
_cell_angle_beta   118.09859014
_cell_angle_gamma   86.66810149
_symmetry_Int_Tables_number   1
_chemical_formula_structural   Mg2PtAu
_chemical_formula_sum   'Mg2 Pt1 Au1'
_cell_volume   897.37063617
_cell_formula_units_Z   1
loop_
 _symmetry_equiv_pos_site_id
 _symmetry_equiv_pos_as_xyz
  1  'x, y, z'
loop_
 _atom_site_type_symbol
 _atom_site_label
 _atom_site_symmetry_multiplicity
 _atom_site_fract_x
 _atom_site_fract_y
 _atom_site_fract_z
 _atom_site_occupancy
  Mg  Mg0  1  0.00000000  0.24275800  0.24275800  1
  Mg  Mg1  1  0.00000000  0.75724200  0.75724200  1
  Pt  Pt2  1  0.00000000  0.00000000  0.00000000  1
  Au  Au3  1  0.00000000  0.50000000  0.50000000  1
