# generated using pymatgen
data_HC2S2N(O2F3)2
_symmetry_space_group_name_H-M   'P 1'
_cell_length_a   5.59100200
_cell_length_b   9.66387300
_cell_length_c   16.57507600
_cell_angle_alpha   90.00000000
_cell_angle_beta   90.00000000
_cell_angle_gamma   90.00000000
_symmetry_Int_Tables_number   1
_chemical_formula_structural   HC2S2N(O2F3)2
_chemical_formula_sum   'H4 C8 S8 N4 O16 F24'
_cell_volume   895.56351030
_cell_formula_units_Z   4
loop_
 _symmetry_equiv_pos_site_id
 _symmetry_equiv_pos_as_xyz
  1  'x, y, z'
loop_
 _atom_site_type_symbol
 _atom_site_label
 _atom_site_symmetry_multiplicity
 _atom_site_fract_x
 _atom_site_fract_y
 _atom_site_fract_z
 _atom_site_occupancy
  H  H0  1  0.25000000  0.59831700  0.25000000  1
  H  H1  1  0.75000000  0.90168300  0.75000000  1
  H  H2  1  0.75000000  0.40168300  0.75000000  1
  H  H3  1  0.25000000  0.09831700  0.25000000  1
  C  C4  1  0.22431500  0.40898200  0.09175500  1
  C  C5  1  0.27568500  0.40898200  0.40824500  1
  C  C6  1  0.77568500  0.09101800  0.59175500  1
  C  C7  1  0.72431500  0.09101800  0.90824500  1
  C  C8  1  0.77568500  0.59101800  0.90824500  1
  C  C9  1  0.72431500  0.59101800  0.59175500  1
  C  C10  1  0.22431500  0.90898200  0.40824500  1
  C  C11  1  0.27568500  0.90898200  0.09175500  1
  S  S12  1  0.42688900  0.41714500  0.18178600  1
  S  S13  1  0.07311100  0.41714500  0.31821400  1
  S  S14  1  0.57311100  0.08285500  0.68178600  1
  S  S15  1  0.92688900  0.08285500  0.81821400  1
  S  S16  1  0.57311100  0.58285500  0.81821400  1
  S  S17  1  0.92688900  0.58285500  0.68178600  1
  S  S18  1  0.42688900  0.91714500  0.31821400  1
  S  S19  1  0.07311100  0.91714500  0.18178600  1
  N  N20  1  0.25000000  0.49184900  0.25000000  1
  N  N21  1  0.75000000  0.00815100  0.75000000  1
  N  N22  1  0.75000000  0.50815100  0.75000000  1
  N  N23  1  0.25000000  0.99184900  0.25000000  1
  O  O24  1  0.47212500  0.27709000  0.20575400  1
  O  O25  1  0.02787500  0.27709000  0.29424600  1
  O  O26  1  0.52787500  0.22291000  0.70575400  1
  O  O27  1  0.97212500  0.22291000  0.79424600  1
  O  O28  1  0.52787500  0.72291000  0.79424600  1
  O  O29  1  0.97212500  0.72291000  0.70575400  1
  O  O30  1  0.47212500  0.77709000  0.29424600  1
  O  O31  1  0.02787500  0.77709000  0.20575400  1
  O  O32  1  0.60903500  0.51568200  0.16173100  1
  O  O33  1  0.89096500  0.51568200  0.33826900  1
  O  O34  1  0.39096500  0.98431800  0.66173100  1
  O  O35  1  0.10903500  0.98431800  0.83826900  1
  O  O36  1  0.39096500  0.48431800  0.83826900  1
  O  O37  1  0.10903500  0.48431800  0.66173100  1
  O  O38  1  0.60903500  0.01568200  0.33826900  1
  O  O39  1  0.89096500  0.01568200  0.16173100  1
  F  F40  1  0.03566200  0.32680800  0.10698400  1
  F  F41  1  0.46433800  0.32680800  0.39301600  1
  F  F42  1  0.96433800  0.17319200  0.60698400  1
  F  F43  1  0.53566200  0.17319200  0.89301600  1
  F  F44  1  0.96433800  0.67319200  0.89301600  1
  F  F45  1  0.53566200  0.67319200  0.60698400  1
  F  F46  1  0.03566200  0.82680800  0.39301600  1
  F  F47  1  0.46433800  0.82680800  0.10698400  1
  F  F48  1  0.14813700  0.53751300  0.07318900  1
  F  F49  1  0.35186300  0.53751300  0.42681100  1
  F  F50  1  0.85186300  0.96248700  0.57318900  1
  F  F51  1  0.64813700  0.96248700  0.92681100  1
  F  F52  1  0.85186300  0.46248700  0.92681100  1
  F  F53  1  0.64813700  0.46248700  0.57318900  1
  F  F54  1  0.14813700  0.03751300  0.42681100  1
  F  F55  1  0.35186300  0.03751300  0.07318900  1
  F  F56  1  0.35191400  0.35669800  0.02973500  1
  F  F57  1  0.14808600  0.35669800  0.47026500  1
  F  F58  1  0.64808600  0.14330200  0.52973500  1
  F  F59  1  0.85191400  0.14330200  0.97026500  1
  F  F60  1  0.64808600  0.64330200  0.97026500  1
  F  F61  1  0.85191400  0.64330200  0.52973500  1
  F  F62  1  0.35191400  0.85669800  0.47026500  1
  F  F63  1  0.14808600  0.85669800  0.02973500  1
