# generated using pymatgen
data_RbUP2H8O11
_symmetry_space_group_name_H-M   'P 1'
_cell_length_a   10.73810200
_cell_length_b   9.10678900
_cell_length_c   13.65511956
_cell_angle_alpha   68.50085716
_cell_angle_beta   90.00000000
_cell_angle_gamma   90.00000000
_symmetry_Int_Tables_number   1
_chemical_formula_structural   RbUP2H8O11
_chemical_formula_sum   'Rb4 U4 P8 H32 O44'
_cell_volume   1242.42095467
_cell_formula_units_Z   4
loop_
 _symmetry_equiv_pos_site_id
 _symmetry_equiv_pos_as_xyz
  1  'x, y, z'
loop_
 _atom_site_type_symbol
 _atom_site_label
 _atom_site_symmetry_multiplicity
 _atom_site_fract_x
 _atom_site_fract_y
 _atom_site_fract_z
 _atom_site_occupancy
  Rb  Rb0  1  0.54846100  0.29181800  0.82121700  1
  Rb  Rb1  1  0.95153900  0.29181800  0.32121700  1
  Rb  Rb2  1  0.45153900  0.70818200  0.17878300  1
  Rb  Rb3  1  0.04846100  0.70818200  0.67878300  1
  U  U4  1  0.69797600  0.04611800  0.65118800  1
  U  U5  1  0.80202400  0.04611800  0.15118800  1
  U  U6  1  0.30202400  0.95388200  0.34881200  1
  U  U7  1  0.19797600  0.95388200  0.84881200  1
  P  P8  1  0.87093400  0.04387700  0.88580700  1
  P  P9  1  0.62906600  0.04387700  0.38580700  1
  P  P10  1  0.12906600  0.95612300  0.11419300  1
  P  P11  1  0.37093400  0.95612300  0.61419300  1
  P  P12  1  0.52311600  0.78933500  0.89222100  1
  P  P13  1  0.97688400  0.78933500  0.39222100  1
  P  P14  1  0.47688400  0.21066500  0.10777900  1
  P  P15  1  0.02311600  0.21066500  0.60777900  1
  H  H16  1  0.83526800  0.52050700  0.86596100  1
  H  H17  1  0.66473200  0.52050700  0.36596100  1
  H  H18  1  0.16473200  0.47949300  0.13403900  1
  H  H19  1  0.33526800  0.47949300  0.63403900  1
  H  H20  1  0.85547300  0.41753000  0.98551700  1
  H  H21  1  0.64452700  0.41753000  0.48551700  1
  H  H22  1  0.14452700  0.58247000  0.01448300  1
  H  H23  1  0.35547300  0.58247000  0.51448300  1
  H  H24  1  0.76002000  0.57142700  0.68614400  1
  H  H25  1  0.73998000  0.57142700  0.18614400  1
  H  H26  1  0.23998000  0.42857300  0.31385600  1
  H  H27  1  0.26002000  0.42857300  0.81385600  1
  H  H28  1  0.82567800  0.40686600  0.72400100  1
  H  H29  1  0.67432200  0.40686600  0.22400100  1
  H  H30  1  0.17432200  0.59313400  0.27599900  1
  H  H31  1  0.32567800  0.59313400  0.77599900  1
  H  H32  1  0.61418500  0.60997700  0.55394200  1
  H  H33  1  0.88581500  0.60997700  0.05394200  1
  H  H34  1  0.38581500  0.39002300  0.44605800  1
  H  H35  1  0.11418500  0.39002300  0.94605800  1
  H  H36  1  0.56612300  0.71096500  0.61931600  1
  H  H37  1  0.93387700  0.71096500  0.11931600  1
  H  H38  1  0.43387700  0.28903500  0.38068400  1
  H  H39  1  0.06612300  0.28903500  0.88068400  1
  H  H40  1  0.85580000  0.87920500  0.91809000  1
  H  H41  1  0.64420000  0.87920500  0.41809000  1
  H  H42  1  0.14420000  0.12079500  0.08191000  1
  H  H43  1  0.35580000  0.12079500  0.58191000  1
  H  H44  1  0.51442700  0.67944400  0.84190400  1
  H  H45  1  0.98557300  0.67944400  0.34190400  1
  H  H46  1  0.48557300  0.32055600  0.15809600  1
  H  H47  1  0.01442700  0.32055600  0.65809600  1
  O  O48  1  0.78069600  0.86128300  0.68382500  1
  O  O49  1  0.71930400  0.86128300  0.18382500  1
  O  O50  1  0.21930400  0.13871700  0.31617500  1
  O  O51  1  0.28069600  0.13871700  0.81617500  1
  O  O52  1  0.61407800  0.23136400  0.62231700  1
  O  O53  1  0.88592200  0.23136400  0.12231700  1
  O  O54  1  0.38592200  0.76863600  0.37768300  1
  O  O55  1  0.11407800  0.76863600  0.87768300  1
  O  O56  1  0.59002200  0.93732100  0.81682600  1
  O  O57  1  0.90997800  0.93732100  0.31682600  1
  O  O58  1  0.40997800  0.06267900  0.18317400  1
  O  O59  1  0.09002200  0.06267900  0.68317400  1
  O  O60  1  0.80241500  0.12284500  0.78006200  1
  O  O61  1  0.69758500  0.12284500  0.28006200  1
  O  O62  1  0.19758500  0.87715500  0.21993800  1
  O  O63  1  0.30241500  0.87715500  0.71993800  1
  O  O64  1  0.68623300  0.09844400  0.46980700  1
  O  O65  1  0.81376700  0.09844400  0.96980700  1
  O  O66  1  0.31376700  0.90155600  0.53019300  1
  O  O67  1  0.18623300  0.90155600  0.03019300  1
  O  O68  1  0.88971100  0.17117600  0.58358400  1
  O  O69  1  0.61028900  0.17117600  0.08358400  1
  O  O70  1  0.11028900  0.82882400  0.41641600  1
  O  O71  1  0.38971100  0.82882400  0.91641600  1
  O  O72  1  0.59156300  0.71694300  0.99703400  1
  O  O73  1  0.90843700  0.71694300  0.49703400  1
  O  O74  1  0.40843700  0.28305700  0.00296600  1
  O  O75  1  0.09156300  0.28305700  0.50296600  1
  O  O76  1  0.51219900  0.91853200  0.62723000  1
  O  O77  1  0.98780100  0.91853200  0.12723000  1
  O  O78  1  0.48780100  0.08146800  0.37277000  1
  O  O79  1  0.01219900  0.08146800  0.87277000  1
  O  O80  1  0.83686200  0.52467800  0.93732100  1
  O  O81  1  0.66313800  0.52467800  0.43732100  1
  O  O82  1  0.16313800  0.47532200  0.06267900  1
  O  O83  1  0.33686200  0.47532200  0.56267900  1
  O  O84  1  0.82656000  0.50793100  0.73350100  1
  O  O85  1  0.67344000  0.50793100  0.23350100  1
  O  O86  1  0.17344000  0.49206900  0.26649900  1
  O  O87  1  0.32656000  0.49206900  0.76649900  1
  O  O88  1  0.60568300  0.61076000  0.62543900  1
  O  O89  1  0.89431700  0.61076000  0.12543900  1
  O  O90  1  0.39431700  0.38924000  0.37456100  1
  O  O91  1  0.10568300  0.38924000  0.87456100  1
