# generated using pymatgen
data_K2CaH8(N3O)4
_symmetry_space_group_name_H-M   'P 1'
_cell_length_a   10.96504935
_cell_length_b   10.96504935
_cell_length_c   6.21654200
_cell_angle_alpha   90.00000000
_cell_angle_beta   90.00000000
_cell_angle_gamma   118.86556759
_symmetry_Int_Tables_number   1
_chemical_formula_structural   K2CaH8(N3O)4
_chemical_formula_sum   'K4 Ca2 H16 N24 O8'
_cell_volume   654.56469955
_cell_formula_units_Z   2
loop_
 _symmetry_equiv_pos_site_id
 _symmetry_equiv_pos_as_xyz
  1  'x, y, z'
loop_
 _atom_site_type_symbol
 _atom_site_label
 _atom_site_symmetry_multiplicity
 _atom_site_fract_x
 _atom_site_fract_y
 _atom_site_fract_z
 _atom_site_occupancy
  K  K0  1  0.16850500  0.83149500  0.00000000  1
  K  K1  1  0.33149500  0.66850500  0.50000000  1
  K  K2  1  0.66850500  0.33149500  0.50000000  1
  K  K3  1  0.83149500  0.16850500  0.00000000  1
  Ca  Ca4  1  0.50000000  0.50000000  0.00000000  1
  Ca  Ca5  1  0.00000000  0.00000000  0.50000000  1
  H  H6  1  0.22084800  0.39169400  0.16596600  1
  H  H7  1  0.89169400  0.72084800  0.66596600  1
  H  H8  1  0.10830600  0.27915200  0.66596600  1
  H  H9  1  0.77915200  0.60830600  0.16596600  1
  H  H10  1  0.27915200  0.10830600  0.33403400  1
  H  H11  1  0.60830600  0.77915200  0.83403400  1
  H  H12  1  0.39169400  0.22084800  0.83403400  1
  H  H13  1  0.72084800  0.89169400  0.33403400  1
  H  H14  1  0.22907100  0.51258700  0.02031600  1
  H  H15  1  0.01258700  0.72907100  0.52031600  1
  H  H16  1  0.98741300  0.27092900  0.52031600  1
  H  H17  1  0.77092900  0.48741300  0.02031600  1
  H  H18  1  0.27092900  0.98741300  0.47968400  1
  H  H19  1  0.48741300  0.77092900  0.97968400  1
  H  H20  1  0.51258700  0.22907100  0.97968400  1
  H  H21  1  0.72907100  0.01258700  0.47968400  1
  N  N22  1  0.12367000  0.55521600  0.83168000  1
  N  N23  1  0.05521600  0.62367000  0.33168000  1
  N  N24  1  0.94478400  0.37633000  0.33168000  1
  N  N25  1  0.87633000  0.44478400  0.83168000  1
  N  N26  1  0.37633000  0.94478400  0.66832000  1
  N  N27  1  0.44478400  0.87633000  0.16832000  1
  N  N28  1  0.55521600  0.12367000  0.16832000  1
  N  N29  1  0.62367000  0.05521600  0.66832000  1
  N  N30  1  0.00000000  0.50000000  0.83298900  1
  N  N31  1  0.00000000  0.50000000  0.33298900  1
  N  N32  1  0.50000000  0.00000000  0.66701100  1
  N  N33  1  0.50000000  0.00000000  0.16701100  1
  N  N34  1  0.16912700  0.09370500  0.84668000  1
  N  N35  1  0.59370500  0.66912700  0.34668000  1
  N  N36  1  0.40629500  0.33087300  0.34668000  1
  N  N37  1  0.83087300  0.90629500  0.84668000  1
  N  N38  1  0.33087300  0.40629500  0.65332000  1
  N  N39  1  0.90629500  0.83087300  0.15332000  1
  N  N40  1  0.09370500  0.16912700  0.15332000  1
  N  N41  1  0.66912700  0.59370500  0.65332000  1
  N  N42  1  0.63108000  0.63108000  0.50000000  1
  N  N43  1  0.13108000  0.13108000  0.00000000  1
  N  N44  1  0.86892000  0.86892000  0.00000000  1
  N  N45  1  0.36892000  0.36892000  0.50000000  1
  O  O46  1  0.28364100  0.48939700  0.12616400  1
  O  O47  1  0.98939700  0.78364100  0.62616400  1
  O  O48  1  0.01060300  0.21635900  0.62616400  1
  O  O49  1  0.71635900  0.51060300  0.12616400  1
  O  O50  1  0.21635900  0.01060300  0.37383600  1
  O  O51  1  0.51060300  0.71635900  0.87383600  1
  O  O52  1  0.48939700  0.28364100  0.87383600  1
  O  O53  1  0.78364100  0.98939700  0.37383600  1
