# generated using pymatgen
data_H4C(N2O)2
_symmetry_space_group_name_H-M   'P 1'
_cell_length_a   4.40392100
_cell_length_b   9.56861724
_cell_length_c   10.97044832
_cell_angle_alpha   84.01603162
_cell_angle_beta   80.44269002
_cell_angle_gamma   80.34815935
_symmetry_Int_Tables_number   1
_chemical_formula_structural   H4C(N2O)2
_chemical_formula_sum   'H16 C4 N16 O8'
_cell_volume   448.02851743
_cell_formula_units_Z   4
loop_
 _symmetry_equiv_pos_site_id
 _symmetry_equiv_pos_as_xyz
  1  'x, y, z'
loop_
 _atom_site_type_symbol
 _atom_site_label
 _atom_site_symmetry_multiplicity
 _atom_site_fract_x
 _atom_site_fract_y
 _atom_site_fract_z
 _atom_site_occupancy
  H  H0  1  0.38922300  0.52319100  0.32406500  1
  H  H1  1  0.61077700  0.47680900  0.67593500  1
  H  H2  1  0.26640100  0.38166000  0.42506700  1
  H  H3  1  0.73359900  0.61834000  0.57493300  1
  H  H4  1  0.59108000  0.11181600  0.22825200  1
  H  H5  1  0.40892000  0.88818400  0.77174800  1
  H  H6  1  0.44523100  0.15203200  0.37987400  1
  H  H7  1  0.55476900  0.84796800  0.62012600  1
  H  H8  1  0.17389400  0.14364400  0.01429800  1
  H  H9  1  0.82610600  0.85635600  0.98570200  1
  H  H10  1  0.03051900  0.14433200  0.17182700  1
  H  H11  1  0.96948100  0.85566800  0.82817300  1
  H  H12  1  0.03062400  0.32719400  0.87769100  1
  H  H13  1  0.96937600  0.67280600  0.12230900  1
  H  H14  1  0.69019900  0.45195000  0.91694900  1
  H  H15  1  0.30980100  0.54805000  0.08305100  1
  C  C16  1  0.51411800  0.32572800  0.25695600  1
  C  C17  1  0.48588200  0.67427300  0.74304400  1
  C  C18  1  0.82458000  0.30953100  0.05916900  1
  C  C19  1  0.17542000  0.69046900  0.94083100  1
  N  N20  1  0.02190400  0.83340500  0.39630800  1
  N  N21  1  0.97809600  0.16659500  0.60369200  1
  N  N22  1  0.37898700  0.41724100  0.34224900  1
  N  N23  1  0.62101300  0.58275900  0.65775100  1
  N  N24  1  0.52867600  0.18622800  0.29148700  1
  N  N25  1  0.47132400  0.81377200  0.70851300  1
  N  N26  1  0.61376500  0.38134400  0.14269500  1
  N  N27  1  0.38623500  0.61865600  0.85730500  1
  N  N28  1  0.02385800  0.19079800  0.08483400  1
  N  N29  1  0.97614200  0.80920200  0.91516600  1
  N  N30  1  0.84390300  0.36345500  0.94061200  1
  N  N31  1  0.15609700  0.63654500  0.05938800  1
  N  N32  1  0.16003300  0.90903000  0.29269000  1
  N  N33  1  0.83996700  0.09097000  0.70731000  1
  N  N34  1  0.43134900  0.84294400  0.23000200  1
  N  N35  1  0.56865100  0.15705600  0.76999800  1
  O  O36  1  0.12883700  0.71310100  0.43961200  1
  O  O37  1  0.87116300  0.28689900  0.56038800  1
  O  O38  1  0.77000700  0.90258200  0.44356100  1
  O  O39  1  0.22999300  0.09741800  0.55643900  1
  O  O40  1  0.55895800  0.71784200  0.25123600  1
  O  O41  1  0.44104200  0.28215800  0.74876400  1
  O  O42  1  0.54669500  0.92412700  0.14225600  1
  O  O43  1  0.45330500  0.07587300  0.85774400  1
