# generated using pymatgen
data_SiH14(O2F3)2
_symmetry_space_group_name_H-M   'P 1'
_cell_length_a   13.16677100
_cell_length_b   5.95053500
_cell_length_c   6.36165084
_cell_angle_alpha   70.36419963
_cell_angle_beta   90.00000000
_cell_angle_gamma   90.00000000
_symmetry_Int_Tables_number   1
_chemical_formula_structural   SiH14(O2F3)2
_chemical_formula_sum   'Si2 H28 O8 F12'
_cell_volume   469.44616068
_cell_formula_units_Z   2
loop_
 _symmetry_equiv_pos_site_id
 _symmetry_equiv_pos_as_xyz
  1  'x, y, z'
loop_
 _atom_site_type_symbol
 _atom_site_label
 _atom_site_symmetry_multiplicity
 _atom_site_fract_x
 _atom_site_fract_y
 _atom_site_fract_z
 _atom_site_occupancy
  Si  Si0  1  0.50000000  0.00000000  0.50000000  1
  Si  Si1  1  0.00000000  0.00000000  0.00000000  1
  H  H2  1  0.88792400  0.38428900  0.41120800  1
  H  H3  1  0.38792400  0.61571100  0.08879200  1
  H  H4  1  0.11207600  0.61571100  0.58879200  1
  H  H5  1  0.61207600  0.38428900  0.91120800  1
  H  H6  1  0.87182200  0.27536600  0.21415200  1
  H  H7  1  0.37182200  0.72463400  0.28584800  1
  H  H8  1  0.12817800  0.72463400  0.78584800  1
  H  H9  1  0.62817800  0.27536600  0.71415200  1
  H  H10  1  0.80694500  0.13796100  0.47748800  1
  H  H11  1  0.30694500  0.86203900  0.02251200  1
  H  H12  1  0.19305500  0.86203900  0.52251200  1
  H  H13  1  0.69305500  0.13796100  0.97748800  1
  H  H14  1  0.71033600  0.88769700  0.59312100  1
  H  H15  1  0.21033600  0.11230300  0.90687900  1
  H  H16  1  0.28966400  0.11230300  0.40687900  1
  H  H17  1  0.78966400  0.88769700  0.09312100  1
  H  H18  1  0.82608500  0.84388300  0.69424100  1
  H  H19  1  0.32608500  0.15611700  0.80575900  1
  H  H20  1  0.17391500  0.15611700  0.30575900  1
  H  H21  1  0.67391500  0.84388300  0.19424100  1
  H  H22  1  0.92662400  0.64700900  0.56948800  1
  H  H23  1  0.42662400  0.35299100  0.93051200  1
  H  H24  1  0.07337600  0.35299100  0.43051200  1
  H  H25  1  0.57337600  0.64700900  0.06948800  1
  H  H26  1  0.91550900  0.54464800  0.67563700  1
  H  H27  1  0.41550900  0.45535200  0.82436300  1
  H  H28  1  0.08449100  0.45535200  0.32436300  1
  H  H29  1  0.58449100  0.54464800  0.17563700  1
  O  O30  1  0.83709900  0.31213200  0.34150100  1
  O  O31  1  0.33709900  0.68786800  0.15849900  1
  O  O32  1  0.16290100  0.68786800  0.65849900  1
  O  O33  1  0.66290100  0.31213200  0.84150100  1
  O  O34  1  0.77304000  0.96218700  0.63153300  1
  O  O35  1  0.27304000  0.03781300  0.86846700  1
  O  O36  1  0.22696000  0.03781300  0.36846700  1
  O  O37  1  0.72696000  0.96218700  0.13153300  1
  F  F38  1  0.60212900  0.80313300  0.54219300  1
  F  F39  1  0.10212900  0.19686700  0.95780700  1
  F  F40  1  0.39787100  0.19686700  0.45780700  1
  F  F41  1  0.89787100  0.80313300  0.04219300  1
  F  F42  1  0.41835000  0.77645400  0.48490500  1
  F  F43  1  0.91835000  0.22354600  0.01509500  1
  F  F44  1  0.58165000  0.22354600  0.51509500  1
  F  F45  1  0.08165000  0.77645400  0.98490500  1
  F  F46  1  0.48068300  0.91347300  0.77867300  1
  F  F47  1  0.98068300  0.08652700  0.72132700  1
  F  F48  1  0.51931700  0.08652700  0.22132700  1
  F  F49  1  0.01931700  0.91347300  0.27867300  1
