# generated using pymatgen
data_K3P3H4O11
_symmetry_space_group_name_H-M   'P 1'
_cell_length_a   7.64027800
_cell_length_b   11.33640100
_cell_length_c   26.94894900
_cell_angle_alpha   90.00000000
_cell_angle_beta   90.00000000
_cell_angle_gamma   90.00000000
_symmetry_Int_Tables_number   1
_chemical_formula_structural   K3P3H4O11
_chemical_formula_sum   'K24 P24 H32 O88'
_cell_volume   2334.13619602
_cell_formula_units_Z   8
loop_
 _symmetry_equiv_pos_site_id
 _symmetry_equiv_pos_as_xyz
  1  'x, y, z'
loop_
 _atom_site_type_symbol
 _atom_site_label
 _atom_site_symmetry_multiplicity
 _atom_site_fract_x
 _atom_site_fract_y
 _atom_site_fract_z
 _atom_site_occupancy
  K  K0  1  0.76678500  0.49056300  0.03548000  1
  K  K1  1  0.26678500  0.00943700  0.96452000  1
  K  K2  1  0.23321500  0.99056300  0.46452000  1
  K  K3  1  0.73321500  0.50943700  0.53548000  1
  K  K4  1  0.23321500  0.50943700  0.96452000  1
  K  K5  1  0.73321500  0.99056300  0.03548000  1
  K  K6  1  0.76678500  0.00943700  0.53548000  1
  K  K7  1  0.26678500  0.49056300  0.46452000  1
  K  K8  1  0.73000100  0.48245100  0.20665500  1
  K  K9  1  0.23000100  0.01754900  0.79334500  1
  K  K10  1  0.26999900  0.98245100  0.29334500  1
  K  K11  1  0.76999900  0.51754900  0.70665500  1
  K  K12  1  0.26999900  0.51754900  0.79334500  1
  K  K13  1  0.76999900  0.98245100  0.20665500  1
  K  K14  1  0.73000100  0.01754900  0.70665500  1
  K  K15  1  0.23000100  0.48245100  0.29334500  1
  K  K16  1  0.86594400  0.02755600  0.37551100  1
  K  K17  1  0.36594400  0.47244400  0.62448900  1
  K  K18  1  0.13405600  0.52755600  0.12448900  1
  K  K19  1  0.63405600  0.97244400  0.87551100  1
  K  K20  1  0.13405600  0.97244400  0.62448900  1
  K  K21  1  0.63405600  0.52755600  0.37551100  1
  K  K22  1  0.86594400  0.47244400  0.87551100  1
  K  K23  1  0.36594400  0.02755600  0.12448900  1
  P  P24  1  0.60991700  0.24395400  0.45993900  1
  P  P25  1  0.10991700  0.25604600  0.54006100  1
  P  P26  1  0.39008300  0.74395400  0.04006100  1
  P  P27  1  0.89008300  0.75604600  0.95993900  1
  P  P28  1  0.39008300  0.75604600  0.54006100  1
  P  P29  1  0.89008300  0.74395400  0.45993900  1
  P  P30  1  0.60991700  0.25604600  0.95993900  1
  P  P31  1  0.10991700  0.24395400  0.04006100  1
  P  P32  1  0.59544500  0.24883900  0.29155100  1
  P  P33  1  0.09544500  0.25116100  0.70844900  1
  P  P34  1  0.40455500  0.74883900  0.20844900  1
  P  P35  1  0.90455500  0.75116100  0.79155100  1
  P  P36  1  0.40455500  0.75116100  0.70844900  1
  P  P37  1  0.90455500  0.74883900  0.29155100  1
  P  P38  1  0.59544500  0.25116100  0.79155100  1
  P  P39  1  0.09544500  0.24883900  0.20844900  1
  P  P40  1  0.83909300  0.22210100  0.12279600  1
  P  P41  1  0.33909300  0.27789900  0.87720400  1
  P  P42  1  0.16090700  0.72210100  0.37720400  1
  P  P43  1  0.66090700  0.77789900  0.62279600  1
  P  P44  1  0.16090700  0.77789900  0.87720400  1
  P  P45  1  0.66090700  0.72210100  0.12279600  1
  P  P46  1  0.83909300  0.27789900  0.62279600  1
  P  P47  1  0.33909300  0.22210100  0.37720400  1
  H  H48  1  0.94997500  0.19764600  0.27700800  1
  H  H49  1  0.44997500  0.30235400  0.72299200  1
  H  H50  1  0.05002500  0.69764600  0.22299200  1
  H  H51  1  0.55002500  0.80235400  0.77700800  1
  H  H52  1  0.05002500  0.80235400  0.72299200  1
  H  H53  1  0.55002500  0.69764600  0.27700800  1
  H  H54  1  0.94997500  0.30235400  0.77700800  1
  H  H55  1  0.44997500  0.19764600  0.22299200  1
  H  H56  1  0.93248200  0.24481200  0.97326600  1
  H  H57  1  0.43248200  0.25518800  0.02673400  1
  H  H58  1  0.06751800  0.74481200  0.52673400  1
  H  H59  1  0.56751800  0.75518800  0.47326600  1
  H  H60  1  0.06751800  0.75518800  0.02673400  1
  H  H61  1  0.56751800  0.74481200  0.97326600  1
  H  H62  1  0.93248200  0.25518800  0.47326600  1
  H  H63  1  0.43248200  0.24481200  0.52673400  1
  H  H64  1  0.88482000  0.32772500  0.34540300  1
  H  H65  1  0.38482000  0.17227500  0.65459700  1
  H  H66  1  0.11518000  0.82772500  0.15459700  1
  H  H67  1  0.61518000  0.67227500  0.84540300  1
  H  H68  1  0.11518000  0.67227500  0.65459700  1
  H  H69  1  0.61518000  0.82772500  0.34540300  1
  H  H70  1  0.88482000  0.17227500  0.84540300  1
  H  H71  1  0.38482000  0.32772500  0.15459700  1
  H  H72  1  0.53707400  0.38183000  0.12398800  1
  H  H73  1  0.03707400  0.11817000  0.87601200  1
  H  H74  1  0.46292600  0.88183000  0.37601200  1
  H  H75  1  0.96292600  0.61817000  0.62398800  1
  H  H76  1  0.46292600  0.61817000  0.87601200  1
  H  H77  1  0.96292600  0.88183000  0.12398800  1
  H  H78  1  0.53707400  0.11817000  0.62398800  1
  H  H79  1  0.03707400  0.38183000  0.37601200  1
  O  O80  1  0.60300600  0.37603800  0.45603600  1
  O  O81  1  0.10300600  0.12396200  0.54396400  1
  O  O82  1  0.39699400  0.87603800  0.04396400  1
  O  O83  1  0.89699400  0.62396200  0.95603600  1
  O  O84  1  0.39699400  0.62396200  0.54396400  1
  O  O85  1  0.89699400  0.87603800  0.45603600  1
  O  O86  1  0.60300600  0.12396200  0.95603600  1
  O  O87  1  0.10300600  0.37603800  0.04396400  1
  O  O88  1  0.56213400  0.37881000  0.28639400  1
  O  O89  1  0.06213400  0.12119000  0.71360600  1
  O  O90  1  0.43786600  0.87881000  0.21360600  1
  O  O91  1  0.93786600  0.62119000  0.78639400  1
  O  O92  1  0.43786600  0.62119000  0.71360600  1
  O  O93  1  0.93786600  0.87881000  0.28639400  1
  O  O94  1  0.56213400  0.12119000  0.78639400  1
  O  O95  1  0.06213400  0.37881000  0.21360600  1
  O  O96  1  0.77397000  0.20930700  0.31032000  1
  O  O97  1  0.27397000  0.29069300  0.68968000  1
  O  O98  1  0.22603000  0.70930700  0.18968000  1
  O  O99  1  0.72603000  0.79069300  0.81032000  1
  O  O100  1  0.22603000  0.79069300  0.68968000  1
  O  O101  1  0.72603000  0.70930700  0.31032000  1
  O  O102  1  0.77397000  0.29069300  0.81032000  1
  O  O103  1  0.27397000  0.20930700  0.18968000  1
  O  O104  1  0.69293600  0.13414700  0.12024600  1
  O  O105  1  0.19293600  0.36585300  0.87975400  1
  O  O106  1  0.30706400  0.63414700  0.37975400  1
  O  O107  1  0.80706400  0.86585300  0.62024600  1
  O  O108  1  0.30706400  0.86585300  0.87975400  1
  O  O109  1  0.80706400  0.63414700  0.12024600  1
  O  O110  1  0.69293600  0.36585300  0.62024600  1
  O  O111  1  0.19293600  0.13414700  0.37975400  1
  O  O112  1  0.78552200  0.18288200  0.45283700  1
  O  O113  1  0.28552200  0.31711800  0.54716300  1
  O  O114  1  0.21447800  0.68288200  0.04716300  1
  O  O115  1  0.71447800  0.81711800  0.95283700  1
  O  O116  1  0.21447800  0.81711800  0.54716300  1
  O  O117  1  0.71447800  0.68288200  0.45283700  1
  O  O118  1  0.78552200  0.31711800  0.95283700  1
  O  O119  1  0.28552200  0.18288200  0.04716300  1
  O  O120  1  0.80380800  0.35196800  0.12051400  1
  O  O121  1  0.30380800  0.14803200  0.87948600  1
  O  O122  1  0.19619200  0.85196800  0.37948600  1
  O  O123  1  0.69619200  0.64803200  0.62051400  1
  O  O124  1  0.19619200  0.64803200  0.87948600  1
  O  O125  1  0.69619200  0.85196800  0.12051400  1
  O  O126  1  0.80380800  0.14803200  0.62051400  1
  O  O127  1  0.30380800  0.35196800  0.37948600  1
  O  O128  1  0.56304300  0.17802600  0.24118400  1
  O  O129  1  0.06304300  0.32197400  0.75881600  1
  O  O130  1  0.43695700  0.67802600  0.25881600  1
  O  O131  1  0.93695700  0.82197400  0.74118400  1
  O  O132  1  0.43695700  0.82197400  0.75881600  1
  O  O133  1  0.93695700  0.67802600  0.24118400  1
  O  O134  1  0.56304300  0.32197400  0.74118400  1
  O  O135  1  0.06304300  0.17802600  0.25881600  1
  O  O136  1  0.94591700  0.18874100  0.17335800  1
  O  O137  1  0.44591700  0.31125900  0.82664200  1
  O  O138  1  0.05408300  0.68874100  0.32664200  1
  O  O139  1  0.55408300  0.81125900  0.67335800  1
  O  O140  1  0.05408300  0.81125900  0.82664200  1
  O  O141  1  0.55408300  0.68874100  0.17335800  1
  O  O142  1  0.94591700  0.31125900  0.67335800  1
  O  O143  1  0.44591700  0.18874100  0.32664200  1
  O  O144  1  0.97836200  0.18142700  0.08030600  1
  O  O145  1  0.47836200  0.31857300  0.91969400  1
  O  O146  1  0.02163800  0.68142700  0.41969400  1
  O  O147  1  0.52163800  0.81857300  0.58030600  1
  O  O148  1  0.02163800  0.81857300  0.91969400  1
  O  O149  1  0.52163800  0.68142700  0.08030600  1
  O  O150  1  0.97836200  0.31857300  0.58030600  1
  O  O151  1  0.47836200  0.18142700  0.41969400  1
  O  O152  1  0.03450300  0.30441600  0.48881600  1
  O  O153  1  0.53450300  0.19558400  0.51118400  1
  O  O154  1  0.96549700  0.80441600  0.01118400  1
  O  O155  1  0.46549700  0.69558400  0.98881600  1
  O  O156  1  0.96549700  0.69558400  0.51118400  1
  O  O157  1  0.46549700  0.80441600  0.48881600  1
  O  O158  1  0.03450300  0.19558400  0.98881600  1
  O  O159  1  0.53450300  0.30441600  0.01118400  1
  O  O160  1  0.93287800  0.40374500  0.35698800  1
  O  O161  1  0.43287800  0.09625500  0.64301200  1
  O  O162  1  0.06712200  0.90374500  0.14301200  1
  O  O163  1  0.56712200  0.59625500  0.85698800  1
  O  O164  1  0.06712200  0.59625500  0.64301200  1
  O  O165  1  0.56712200  0.90374500  0.35698800  1
  O  O166  1  0.93287800  0.09625500  0.85698800  1
  O  O167  1  0.43287800  0.40374500  0.14301200  1
