# generated using pymatgen
data_Zn2AgIr
_symmetry_space_group_name_H-M   'P 1'
_cell_length_a   10.60561800
_cell_length_b   10.60561800
_cell_length_c   10.60561800
_cell_angle_alpha   124.23757732
_cell_angle_beta   118.62318464
_cell_angle_gamma   87.61163344
_symmetry_Int_Tables_number   1
_chemical_formula_structural   Zn2AgIr
_chemical_formula_sum   'Zn2 Ag1 Ir1'
_cell_volume   821.89145144
_cell_formula_units_Z   1
loop_
 _symmetry_equiv_pos_site_id
 _symmetry_equiv_pos_as_xyz
  1  'x, y, z'
loop_
 _atom_site_type_symbol
 _atom_site_label
 _atom_site_symmetry_multiplicity
 _atom_site_fract_x
 _atom_site_fract_y
 _atom_site_fract_z
 _atom_site_occupancy
  Zn  Zn0  1  0.00000000  0.25434000  0.25434000  1
  Zn  Zn1  1  0.00000000  0.74566000  0.74566000  1
  Ag  Ag2  1  0.00000000  0.00000000  0.00000000  1
  Ir  Ir3  1  0.00000000  0.50000000  0.50000000  1
