# generated using pymatgen
data_CuH22C8N10O
_symmetry_space_group_name_H-M   'P 1'
_cell_length_a   15.94312188
_cell_length_b   15.94312188
_cell_length_c   13.97776237
_cell_angle_alpha   71.43083364
_cell_angle_beta   71.43083364
_cell_angle_gamma   25.99471783
_symmetry_Int_Tables_number   1
_chemical_formula_structural   CuH22C8N10O
_chemical_formula_sum   'Cu4 H88 C32 N40 O4'
_cell_volume   1471.68713514
_cell_formula_units_Z   4
loop_
 _symmetry_equiv_pos_site_id
 _symmetry_equiv_pos_as_xyz
  1  'x, y, z'
loop_
 _atom_site_type_symbol
 _atom_site_label
 _atom_site_symmetry_multiplicity
 _atom_site_fract_x
 _atom_site_fract_y
 _atom_site_fract_z
 _atom_site_occupancy
  Cu  Cu0  1  0.00000000  0.50000000  0.00000000  1
  Cu  Cu1  1  0.50000000  0.00000000  0.50000000  1
  Cu  Cu2  1  0.79431900  0.20568100  0.25000000  1
  Cu  Cu3  1  0.20568100  0.79431900  0.75000000  1
  H  H4  1  0.82142800  0.53213500  0.96579500  1
  H  H5  1  0.46786500  0.17857200  0.53420500  1
  H  H6  1  0.17857200  0.46786500  0.03420500  1
  H  H7  1  0.53213500  0.82142800  0.46579500  1
  H  H8  1  0.93147200  0.32965800  0.90519900  1
  H  H9  1  0.67034200  0.06852800  0.59480100  1
  H  H10  1  0.06852800  0.67034200  0.09480100  1
  H  H11  1  0.32965800  0.93147200  0.40519900  1
  H  H12  1  0.12841400  0.09509400  0.94910900  1
  H  H13  1  0.90490600  0.87158600  0.55089100  1
  H  H14  1  0.87158600  0.90490600  0.05089100  1
  H  H15  1  0.09509400  0.12841400  0.44910900  1
  H  H16  1  0.29581500  0.21723600  0.10709100  1
  H  H17  1  0.78276400  0.70418500  0.39290900  1
  H  H18  1  0.70418500  0.78276400  0.89290900  1
  H  H19  1  0.21723600  0.29581500  0.60709100  1
  H  H20  1  0.91500400  0.25742300  0.14897400  1
  H  H21  1  0.74257700  0.08499600  0.35102600  1
  H  H22  1  0.08499600  0.74257700  0.85102600  1
  H  H23  1  0.25742300  0.91500400  0.64897400  1
  H  H24  1  0.92962000  0.37754000  0.29395100  1
  H  H25  1  0.62246000  0.07038000  0.20604900  1
  H  H26  1  0.07038000  0.62246000  0.70604900  1
  H  H27  1  0.37754000  0.92962000  0.79395100  1
  H  H28  1  0.96791000  0.33503300  0.17442600  1
  H  H29  1  0.66496700  0.03209000  0.32557400  1
  H  H30  1  0.03209000  0.66496700  0.82557400  1
  H  H31  1  0.33503300  0.96791000  0.67442600  1
  H  H32  1  0.75727400  0.16807900  0.44338700  1
  H  H33  1  0.83192100  0.24272600  0.05661300  1
  H  H34  1  0.24272600  0.83192100  0.55661300  1
  H  H35  1  0.16807900  0.75727400  0.94338700  1
  H  H36  1  0.45727700  0.86106100  0.96552700  1
  H  H37  1  0.13893900  0.54272300  0.53447300  1
  H  H38  1  0.54272300  0.13893900  0.03447300  1
  H  H39  1  0.86106100  0.45727700  0.46552700  1
  H  H40  1  0.50728900  0.74174200  0.91694200  1
  H  H41  1  0.25825800  0.49271100  0.58305800  1
  H  H42  1  0.49271100  0.25825800  0.08305800  1
  H  H43  1  0.74174200  0.50728900  0.41694200  1
  H  H44  1  0.35410400  0.88586500  0.19173700  1
  H  H45  1  0.11413500  0.64589600  0.30826300  1
  H  H46  1  0.64589600  0.11413500  0.80826300  1
  H  H47  1  0.88586500  0.35410400  0.69173700  1
  H  H48  1  0.55250700  0.73190800  0.25317000  1
  H  H49  1  0.26809200  0.44749300  0.24683000  1
  H  H50  1  0.44749300  0.26809200  0.74683000  1
  H  H51  1  0.73190800  0.55250700  0.75317000  1
  H  H52  1  0.58922100  0.69494900  0.12767800  1
  H  H53  1  0.30505100  0.41077900  0.37232200  1
  H  H54  1  0.41077900  0.30505100  0.87232200  1
  H  H55  1  0.69494900  0.58922100  0.62767800  1
  H  H56  1  0.58302900  0.93455500  0.13538700  1
  H  H57  1  0.06544500  0.41697100  0.36461300  1
  H  H58  1  0.41697100  0.06544500  0.86461300  1
  H  H59  1  0.93455500  0.58302900  0.63538700  1
  H  H60  1  0.66616500  0.76400400  0.22533400  1
  H  H61  1  0.23599600  0.33383500  0.27466600  1
  H  H62  1  0.33383500  0.23599600  0.77466600  1
  H  H63  1  0.76400400  0.66616500  0.72533400  1
  H  H64  1  0.44365000  0.00833800  0.25324000  1
  H  H65  1  0.99166200  0.55635000  0.24676000  1
  H  H66  1  0.55635000  0.99166200  0.74676000  1
  H  H67  1  0.00833800  0.44365000  0.75324000  1
  H  H68  1  0.85175700  0.30685400  0.54943800  1
  H  H69  1  0.69314600  0.14824300  0.95056200  1
  H  H70  1  0.14824300  0.69314600  0.45056200  1
  H  H71  1  0.30685400  0.85175700  0.04943800  1
  H  H72  1  0.83879900  0.22799800  0.66311200  1
  H  H73  1  0.77200200  0.16120100  0.83688800  1
  H  H74  1  0.16120100  0.77200200  0.33688800  1
  H  H75  1  0.22799800  0.83879900  0.16311200  1
  H  H76  1  0.62465900  0.47698600  0.61857200  1
  H  H77  1  0.52301400  0.37534100  0.88142800  1
  H  H78  1  0.37534100  0.52301400  0.38142800  1
  H  H79  1  0.47698600  0.62465900  0.11857200  1
  H  H80  1  0.57261300  0.32228100  0.56338600  1
  H  H81  1  0.67771900  0.42738700  0.93661400  1
  H  H82  1  0.42738700  0.67771900  0.43661400  1
  H  H83  1  0.32228100  0.57261300  0.06338600  1
  H  H84  1  0.60263300  0.32647700  0.67132900  1
  H  H85  1  0.67352300  0.39736700  0.82867100  1
  H  H86  1  0.39736700  0.67352300  0.32867100  1
  H  H87  1  0.32647700  0.60263300  0.17132900  1
  H  H88  1  0.79955900  0.10207900  0.62002600  1
  H  H89  1  0.89792100  0.20044100  0.87997400  1
  H  H90  1  0.20044100  0.89792100  0.37997400  1
  H  H91  1  0.10207900  0.79955900  0.12002600  1
  C  C92  1  0.07566600  0.25172400  0.99486100  1
  C  C93  1  0.74827600  0.92433400  0.50513900  1
  C  C94  1  0.92433400  0.74827600  0.00513900  1
  C  C95  1  0.25172400  0.07566600  0.49486100  1
  C  C96  1  0.30521900  0.09415900  0.08142800  1
  C  C97  1  0.90584100  0.69478100  0.41857200  1
  C  C98  1  0.69478100  0.90584100  0.91857200  1
  C  C99  1  0.09415900  0.30521900  0.58142800  1
  C  C100  1  0.48747000  0.80532800  0.18077800  1
  C  C101  1  0.19467200  0.51253000  0.31922200  1
  C  C102  1  0.51253000  0.19467200  0.81922200  1
  C  C103  1  0.80532800  0.48747000  0.68077800  1
  C  C104  1  0.53756900  0.91177400  0.19204700  1
  C  C105  1  0.08822600  0.46243100  0.30795300  1
  C  C106  1  0.46243100  0.08822600  0.80795300  1
  C  C107  1  0.91177400  0.53756900  0.69204700  1
  C  C108  1  0.88695700  0.29147600  0.28615200  1
  C  C109  1  0.70852400  0.11304300  0.21384800  1
  C  C110  1  0.11304300  0.70852400  0.71384800  1
  C  C111  1  0.29147600  0.88695700  0.78615200  1
  C  C112  1  0.78675000  0.26678700  0.43703300  1
  C  C113  1  0.73321300  0.21325000  0.06296700  1
  C  C114  1  0.21325000  0.73321300  0.56296700  1
  C  C115  1  0.26678700  0.78675000  0.93703300  1
  C  C116  1  0.76377400  0.32878300  0.59522000  1
  C  C117  1  0.67121700  0.23622600  0.90478000  1
  C  C118  1  0.23622600  0.67121700  0.40478000  1
  C  C119  1  0.32878300  0.76377400  0.09522000  1
  C  C120  1  0.67672000  0.25669200  0.60076000  1
  C  C121  1  0.74330800  0.32328000  0.89924000  1
  C  C122  1  0.32328000  0.74330800  0.39924000  1
  C  C123  1  0.25669200  0.67672000  0.10076000  1
  N  N124  1  0.95016400  0.42829100  0.99049600  1
  N  N125  1  0.57170900  0.04983600  0.50950400  1
  N  N126  1  0.04983600  0.57170900  0.00950400  1
  N  N127  1  0.42829100  0.95016400  0.49049600  1
  N  N128  1  0.02089900  0.23142000  0.96188400  1
  N  N129  1  0.76858000  0.97910100  0.53811600  1
  N  N130  1  0.97910100  0.76858000  0.03811600  1
  N  N131  1  0.23142000  0.02089900  0.46188400  1
  N  N132  1  0.24750700  0.08830600  0.03429700  1
  N  N133  1  0.91169400  0.75249300  0.46570300  1
  N  N134  1  0.75249300  0.91169400  0.96570300  1
  N  N135  1  0.08830600  0.24750700  0.53429700  1
  N  N136  1  0.23613300  0.23687400  0.06587100  1
  N  N137  1  0.76312600  0.76386700  0.43412900  1
  N  N138  1  0.76386700  0.76312600  0.93412900  1
  N  N139  1  0.23687400  0.23613300  0.56587100  1
  N  N140  1  0.44660400  0.93606900  0.14577700  1
  N  N141  1  0.06393100  0.55339600  0.35422300  1
  N  N142  1  0.55339600  0.06393100  0.85422300  1
  N  N143  1  0.93606900  0.44660400  0.64577700  1
  N  N144  1  0.87105000  0.26071300  0.22168600  1
  N  N145  1  0.73928700  0.12895000  0.27831400  1
  N  N146  1  0.12895000  0.73928700  0.77831400  1
  N  N147  1  0.26071300  0.87105000  0.72168600  1
  N  N148  1  0.96393900  0.30752700  0.25026100  1
  N  N149  1  0.69247300  0.03606100  0.24973900  1
  N  N150  1  0.03606100  0.69247300  0.74973900  1
  N  N151  1  0.30752700  0.96393900  0.75026100  1
  N  N152  1  0.83753900  0.30752000  0.38721800  1
  N  N153  1  0.69248000  0.16246100  0.11278200  1
  N  N154  1  0.16246100  0.69248000  0.61278200  1
  N  N155  1  0.30752000  0.83753900  0.88721800  1
  N  N156  1  0.78273400  0.20730600  0.39363100  1
  N  N157  1  0.79269400  0.21726600  0.10636900  1
  N  N158  1  0.21726600  0.79269400  0.60636900  1
  N  N159  1  0.20730600  0.78273400  0.89363100  1
  N  N160  1  0.73738600  0.29122500  0.53924500  1
  N  N161  1  0.70877500  0.26261400  0.96075500  1
  N  N162  1  0.26261400  0.70877500  0.46075500  1
  N  N163  1  0.29122500  0.73738600  0.03924500  1
  O  O164  1  0.55542200  0.75604000  0.91917000  1
  O  O165  1  0.24396000  0.44457800  0.58083000  1
  O  O166  1  0.44457800  0.24396000  0.08083000  1
  O  O167  1  0.75604000  0.55542200  0.41917000  1
