# generated using pymatgen
data_B5H2Pb2O11
_symmetry_space_group_name_H-M   'P 1'
_cell_length_a   11.51813000
_cell_length_b   6.70027100
_cell_length_c   13.07587265
_cell_angle_alpha   60.18042730
_cell_angle_beta   90.00000000
_cell_angle_gamma   90.00000000
_symmetry_Int_Tables_number   1
_chemical_formula_structural   B5H2Pb2O11
_chemical_formula_sum   'B20 H8 Pb8 O44'
_cell_volume   875.51256585
_cell_formula_units_Z   4
loop_
 _symmetry_equiv_pos_site_id
 _symmetry_equiv_pos_as_xyz
  1  'x, y, z'
loop_
 _atom_site_type_symbol
 _atom_site_label
 _atom_site_symmetry_multiplicity
 _atom_site_fract_x
 _atom_site_fract_y
 _atom_site_fract_z
 _atom_site_occupancy
  B  B0  1  0.22155700  0.22044100  0.46044400  1
  B  B1  1  0.72155700  0.77955900  0.03955600  1
  B  B2  1  0.77844300  0.77955900  0.53955600  1
  B  B3  1  0.27844300  0.22044100  0.96044400  1
  B  B4  1  0.00947600  0.73741600  0.75880000  1
  B  B5  1  0.50947600  0.26258400  0.74120000  1
  B  B6  1  0.99052400  0.26258400  0.24120000  1
  B  B7  1  0.49052400  0.73741600  0.25880000  1
  B  B8  1  0.80895100  0.48392800  0.22711300  1
  B  B9  1  0.30895100  0.51607200  0.27288700  1
  B  B10  1  0.19104900  0.51607200  0.77288700  1
  B  B11  1  0.69104900  0.48392800  0.72711300  1
  B  B12  1  0.78566400  0.84170300  0.71280100  1
  B  B13  1  0.28566400  0.15829700  0.78719900  1
  B  B14  1  0.21433600  0.15829700  0.28719900  1
  B  B15  1  0.71433600  0.84170300  0.21280100  1
  B  B16  1  0.20140700  0.94650400  0.68289000  1
  B  B17  1  0.70140700  0.05349600  0.81711000  1
  B  B18  1  0.79859300  0.05349600  0.31711000  1
  B  B19  1  0.29859300  0.94650400  0.18288900  1
  H  H20  1  0.93371000  0.19492500  0.49928500  1
  H  H21  1  0.43371000  0.80507500  0.00071500  1
  H  H22  1  0.06629000  0.80507500  0.50071500  1
  H  H23  1  0.56629000  0.19492500  0.99928500  1
  H  H24  1  0.47019500  0.20437100  0.48833000  1
  H  H25  1  0.97019500  0.79562900  0.01167000  1
  H  H26  1  0.52980500  0.79562900  0.51167000  1
  H  H27  1  0.02980500  0.20437100  0.98833000  1
  Pb  Pb28  1  0.28387900  0.65716400  0.51771100  1
  Pb  Pb29  1  0.78387900  0.34283600  0.98228900  1
  Pb  Pb30  1  0.71612100  0.34283600  0.48228900  1
  Pb  Pb31  1  0.21612100  0.65716400  0.01771100  1
  Pb  Pb32  1  0.47841700  0.70516900  0.81343100  1
  Pb  Pb33  1  0.97841700  0.29483100  0.68656900  1
  Pb  Pb34  1  0.52158300  0.29483100  0.18656900  1
  Pb  Pb35  1  0.02158300  0.70516900  0.31343100  1
  O  O36  1  0.76609700  0.26169200  0.32214300  1
  O  O37  1  0.26609700  0.73830800  0.17785700  1
  O  O38  1  0.23390300  0.73830800  0.67785700  1
  O  O39  1  0.73390300  0.26169200  0.82214300  1
  O  O40  1  0.30556700  0.33690500  0.23856200  1
  O  O41  1  0.80556700  0.66309500  0.26143800  1
  O  O42  1  0.69443300  0.66309500  0.76143800  1
  O  O43  1  0.19443300  0.33690500  0.73856200  1
  O  O44  1  0.22665600  0.15933900  0.57528400  1
  O  O45  1  0.72665600  0.84066100  0.92471600  1
  O  O46  1  0.77334400  0.84066100  0.42471600  1
  O  O47  1  0.27334400  0.15933900  0.07528400  1
  O  O48  1  0.26039500  0.95033100  0.78174500  1
  O  O49  1  0.76039500  0.04966900  0.71825500  1
  O  O50  1  0.73960500  0.04966900  0.21825500  1
  O  O51  1  0.23960500  0.95033100  0.28174500  1
  O  O52  1  0.93202700  0.46876900  0.19727900  1
  O  O53  1  0.43202700  0.53123100  0.30272100  1
  O  O54  1  0.06797300  0.53123100  0.80272100  1
  O  O55  1  0.56797300  0.46876900  0.69727900  1
  O  O56  1  0.06898700  0.94341700  0.69913700  1
  O  O57  1  0.56898700  0.05658300  0.80086300  1
  O  O58  1  0.93101300  0.05658300  0.30086300  1
  O  O59  1  0.43101300  0.94341700  0.19913700  1
  O  O60  1  0.73809500  0.54811200  0.11929500  1
  O  O61  1  0.23809500  0.45188800  0.38070500  1
  O  O62  1  0.26190500  0.45188800  0.88070500  1
  O  O63  1  0.76190500  0.54811200  0.61929500  1
  O  O64  1  0.79826200  0.92925300  0.58139000  1
  O  O65  1  0.29826200  0.07074700  0.91861000  1
  O  O66  1  0.20173800  0.07074700  0.41861000  1
  O  O67  1  0.70173800  0.92925300  0.08139000  1
  O  O68  1  0.42752200  0.65205100  0.00907100  1
  O  O69  1  0.92752200  0.34794900  0.49092900  1
  O  O70  1  0.57247800  0.34794900  0.99092900  1
  O  O71  1  0.07247800  0.65205100  0.50907100  1
  O  O72  1  0.89291100  0.72384600  0.77691300  1
  O  O73  1  0.39291100  0.27615400  0.72308700  1
  O  O74  1  0.10708900  0.27615400  0.22308700  1
  O  O75  1  0.60708900  0.72384600  0.27691300  1
  O  O76  1  0.52844100  0.09772000  0.54383900  1
  O  O77  1  0.02844100  0.90228000  0.95616100  1
  O  O78  1  0.47155900  0.90228000  0.45616100  1
  O  O79  1  0.97155900  0.09772000  0.04383900  1
