# generated using pymatgen
data_ZnP2H11C2NO8
_symmetry_space_group_name_H-M   'P 1'
_cell_length_a   8.51163920
_cell_length_b   8.51163920
_cell_length_c   14.67617793
_cell_angle_alpha   83.05295033
_cell_angle_beta   83.05295033
_cell_angle_gamma   82.91619289
_symmetry_Int_Tables_number   1
_chemical_formula_structural   ZnP2H11C2NO8
_chemical_formula_sum   'Zn4 P8 H44 C8 N4 O32'
_cell_volume   1041.31156463
_cell_formula_units_Z   4
loop_
 _symmetry_equiv_pos_site_id
 _symmetry_equiv_pos_as_xyz
  1  'x, y, z'
loop_
 _atom_site_type_symbol
 _atom_site_label
 _atom_site_symmetry_multiplicity
 _atom_site_fract_x
 _atom_site_fract_y
 _atom_site_fract_z
 _atom_site_occupancy
  Zn  Zn0  1  0.22658200  0.98823100  0.92816600  1
  Zn  Zn1  1  0.98823100  0.22658200  0.42816600  1
  Zn  Zn2  1  0.47853800  0.21166100  0.49297400  1
  Zn  Zn3  1  0.21166100  0.47853800  0.99297400  1
  P  P4  1  0.97027600  0.76234800  0.88716500  1
  P  P5  1  0.76234800  0.97027600  0.38716500  1
  P  P6  1  0.70433100  0.45898500  0.53913200  1
  P  P7  1  0.45898500  0.70433100  0.03913200  1
  P  P8  1  0.34356300  0.30226500  0.81337600  1
  P  P9  1  0.30226500  0.34356300  0.31337600  1
  P  P10  1  0.16583600  0.09533400  0.61299700  1
  P  P11  1  0.09533400  0.16583600  0.11299700  1
  H  H12  1  0.80387500  0.85340300  0.67744800  1
  H  H13  1  0.63933900  0.96560000  0.62440700  1
  H  H14  1  0.85340300  0.80387500  0.17744800  1
  H  H15  1  0.96560000  0.63933900  0.12440700  1
  H  H16  1  0.62095600  0.65013400  0.73972400  1
  H  H17  1  0.80184200  0.37909500  0.92911500  1
  H  H18  1  0.45712400  0.77021500  0.69232500  1
  H  H19  1  0.44521800  0.70674200  0.81415900  1
  H  H20  1  0.89945300  0.23681900  0.85334300  1
  H  H21  1  0.65013400  0.62095600  0.23972400  1
  H  H22  1  0.37909500  0.80184200  0.42911500  1
  H  H23  1  0.77021500  0.45712400  0.19232500  1
  H  H24  1  0.68655500  0.28602500  0.86136900  1
  H  H25  1  0.70674200  0.44521800  0.31415900  1
  H  H26  1  0.23681900  0.89945300  0.35334300  1
  H  H27  1  0.28602500  0.68655500  0.36136900  1
  H  H28  1  0.28118000  0.63893000  0.57422500  1
  H  H29  1  0.74640300  0.05580800  0.69864300  1
  H  H30  1  0.63893000  0.28118000  0.07422500  1
  H  H31  1  0.07249500  0.62135500  0.59726800  1
  H  H32  1  0.18999400  0.52402000  0.50540500  1
  H  H33  1  0.05580800  0.74640300  0.19864300  1
  H  H34  1  0.62135500  0.07249500  0.09726800  1
  H  H35  1  0.52402000  0.18999400  0.00540500  1
  H  H36  1  0.93058900  0.57994100  0.80262400  1
  H  H37  1  0.65484200  0.86783600  0.82514800  1
  H  H38  1  0.50086700  0.98154000  0.78235800  1
  H  H39  1  0.57994100  0.93058900  0.30262400  1
  H  H40  1  0.86783600  0.65484200  0.32514800  1
  H  H41  1  0.71231400  0.70191600  0.47160700  1
  H  H42  1  0.98154000  0.50086700  0.28235800  1
  H  H43  1  0.75556800  0.39369600  0.68025700  1
  H  H44  1  0.70191600  0.71231400  0.97160700  1
  H  H45  1  0.12625300  0.91835700  0.73604700  1
  H  H46  1  0.39369600  0.75556800  0.18025700  1
  H  H47  1  0.12332500  0.87736300  0.50881800  1
  H  H48  1  0.77032800  0.03019700  0.95071100  1
  H  H49  1  0.91835700  0.12625300  0.23604700  1
  H  H50  1  0.50386400  0.33322200  0.68223000  1
  H  H51  1  0.87736300  0.12332500  0.00881800  1
  H  H52  1  0.03019700  0.77032800  0.45071100  1
  H  H53  1  0.33322200  0.50386400  0.18223000  1
  H  H54  1  0.13497500  0.29132500  0.71206300  1
  H  H55  1  0.29132500  0.13497500  0.21206300  1
  C  C56  1  0.70306800  0.94542500  0.68593900  1
  C  C57  1  0.94542500  0.70306800  0.18593900  1
  C  C58  1  0.52358700  0.74387400  0.75273900  1
  C  C59  1  0.79167500  0.26917100  0.89920900  1
  C  C60  1  0.74387400  0.52358700  0.25273900  1
  C  C61  1  0.26917100  0.79167500  0.39920900  1
  C  C62  1  0.17258600  0.62907900  0.54325800  1
  C  C63  1  0.62907900  0.17258600  0.04325800  1
  N  N64  1  0.59260600  0.89054600  0.76709900  1
  N  N65  1  0.89054600  0.59260600  0.26709900  1
  N  N66  1  0.77260300  0.13985800  0.97642900  1
  N  N67  1  0.13985800  0.77260300  0.47642900  1
  O  O68  1  0.79914600  0.83363000  0.91996900  1
  O  O69  1  0.95842900  0.68894600  0.79187300  1
  O  O70  1  0.83363000  0.79914600  0.41996900  1
  O  O71  1  0.68894600  0.95842900  0.29187300  1
  O  O72  1  0.40491100  0.83428900  0.96585800  1
  O  O73  1  0.77936700  0.47991000  0.63198700  1
  O  O74  1  0.62749100  0.62990100  0.50568100  1
  O  O75  1  0.83428900  0.40491100  0.46585800  1
  O  O76  1  0.47991000  0.77936700  0.13198700  1
  O  O77  1  0.14636500  0.92362700  0.66738100  1
  O  O78  1  0.62990100  0.62749100  0.00568100  1
  O  O79  1  0.08015500  0.89474600  0.85676100  1
  O  O80  1  0.92362700  0.14636500  0.16738100  1
  O  O81  1  0.57401000  0.34856000  0.56812200  1
  O  O82  1  0.89474600  0.08015500  0.35676100  1
  O  O83  1  0.50545400  0.33890000  0.74975300  1
  O  O84  1  0.35688000  0.37819800  0.90095800  1
  O  O85  1  0.03181100  0.63033100  0.95806200  1
  O  O86  1  0.34856000  0.57401000  0.06812200  1
  O  O87  1  0.33890000  0.50545400  0.24975300  1
  O  O88  1  0.37819800  0.35688000  0.40095800  1
  O  O89  1  0.19917000  0.37320700  0.76309600  1
  O  O90  1  0.63033100  0.03181100  0.45806200  1
  O  O91  1  0.35317900  0.11747700  0.83287700  1
  O  O92  1  0.34303400  0.11509300  0.59632700  1
  O  O93  1  0.37320700  0.19917000  0.26309600  1
  O  O94  1  0.11747700  0.35317900  0.33287700  1
  O  O95  1  0.06825400  0.22415400  0.66930400  1
  O  O96  1  0.11509300  0.34303400  0.09632700  1
  O  O97  1  0.09222400  0.08484800  0.52279900  1
  O  O98  1  0.22415400  0.06825400  0.16930400  1
  O  O99  1  0.08484800  0.09222400  0.02279900  1
