# generated using pymatgen
data_K2Pr2H3(S2O9)2
_symmetry_space_group_name_H-M   'P 1'
_cell_length_a   15.65011200
_cell_length_b   10.18943500
_cell_length_c   11.01586351
_cell_angle_alpha   68.03011015
_cell_angle_beta   90.00000000
_cell_angle_gamma   90.00000000
_symmetry_Int_Tables_number   1
_chemical_formula_structural   K2Pr2H3(S2O9)2
_chemical_formula_sum   'K8 Pr8 H12 S16 O72'
_cell_volume   1629.08633673
_cell_formula_units_Z   4
loop_
 _symmetry_equiv_pos_site_id
 _symmetry_equiv_pos_as_xyz
  1  'x, y, z'
loop_
 _atom_site_type_symbol
 _atom_site_label
 _atom_site_symmetry_multiplicity
 _atom_site_fract_x
 _atom_site_fract_y
 _atom_site_fract_z
 _atom_site_occupancy
  K  K0  1  0.67146400  0.17363000  0.34671600  1
  K  K1  1  0.17146400  0.32637000  0.65328400  1
  K  K2  1  0.32853600  0.82637000  0.65328400  1
  K  K3  1  0.82853600  0.67363000  0.34671600  1
  K  K4  1  0.58079600  0.17332000  0.84542200  1
  K  K5  1  0.08079600  0.32668000  0.15457800  1
  K  K6  1  0.41920400  0.82668000  0.15457800  1
  K  K7  1  0.91920400  0.67332000  0.84542200  1
  Pr  Pr8  1  0.82982000  0.22958800  0.99849300  1
  Pr  Pr9  1  0.32982000  0.27041200  0.00150700  1
  Pr  Pr10  1  0.17018000  0.77041200  0.00150700  1
  Pr  Pr11  1  0.67018000  0.72958800  0.99849300  1
  Pr  Pr12  1  0.91882200  0.23532000  0.50444300  1
  Pr  Pr13  1  0.41882200  0.26468000  0.49555700  1
  Pr  Pr14  1  0.08117800  0.76468000  0.49555700  1
  Pr  Pr15  1  0.58117800  0.73532000  0.50444300  1
  H  H16  1  0.52531800  0.36937500  0.98840000  1
  H  H17  1  0.02531800  0.13062500  0.01160000  1
  H  H18  1  0.47468200  0.63062500  0.01160000  1
  H  H19  1  0.97468200  0.86937500  0.98840000  1
  H  H20  1  0.50838800  0.24304500  0.11750900  1
  H  H21  1  0.00838800  0.25695500  0.88249100  1
  H  H22  1  0.49161200  0.75695500  0.88249100  1
  H  H23  1  0.99161200  0.74304500  0.11750900  1
  H  H24  1  0.75210100  0.20646000  0.64040100  1
  H  H25  1  0.25210100  0.29354000  0.35959900  1
  H  H26  1  0.24789900  0.79354000  0.35959900  1
  H  H27  1  0.74789900  0.70646000  0.64040100  1
  S  S28  1  0.92903200  0.44879400  0.66706500  1
  S  S29  1  0.42903200  0.05120600  0.33293500  1
  S  S30  1  0.07096800  0.55120600  0.33293500  1
  S  S31  1  0.57096800  0.94879400  0.66706500  1
  S  S32  1  0.59012000  0.53199800  0.34700800  1
  S  S33  1  0.09012000  0.96800200  0.65299200  1
  S  S34  1  0.40988000  0.46800200  0.65299200  1
  S  S35  1  0.90988000  0.03199800  0.34700800  1
  S  S36  1  0.66802100  0.51575100  0.84086700  1
  S  S37  1  0.16802100  0.98424900  0.15913300  1
  S  S38  1  0.33197900  0.48424900  0.15913300  1
  S  S39  1  0.83197900  0.01575100  0.84086700  1
  S  S40  1  0.83061100  0.43918700  0.15583000  1
  S  S41  1  0.33061100  0.06081300  0.84417000  1
  S  S42  1  0.16938900  0.56081300  0.84417000  1
  S  S43  1  0.66938900  0.93918700  0.15583000  1
  O  O44  1  0.88325800  0.42132000  0.79232300  1
  O  O45  1  0.38325800  0.07868000  0.20767700  1
  O  O46  1  0.11674200  0.57868000  0.20767700  1
  O  O47  1  0.61674200  0.92132000  0.79232300  1
  O  O48  1  0.53366200  0.09317000  0.62262500  1
  O  O49  1  0.03366200  0.40683000  0.37737500  1
  O  O50  1  0.46633800  0.90683000  0.37737500  1
  O  O51  1  0.96633800  0.59317000  0.62262500  1
  O  O52  1  0.86900200  0.44138200  0.56350400  1
  O  O53  1  0.36900200  0.05861800  0.43649600  1
  O  O54  1  0.13099800  0.55861800  0.43649600  1
  O  O55  1  0.63099800  0.94138200  0.56350400  1
  O  O56  1  0.99509500  0.33734400  0.68567100  1
  O  O57  1  0.49509500  0.16265600  0.31432900  1
  O  O58  1  0.00490500  0.66265600  0.31432900  1
  O  O59  1  0.50490500  0.83734400  0.68567100  1
  O  O60  1  0.55933100  0.38367900  0.39653300  1
  O  O61  1  0.05933100  0.11632100  0.60346700  1
  O  O62  1  0.44066900  0.61632100  0.60346700  1
  O  O63  1  0.94066900  0.88367900  0.39653300  1
  O  O64  1  0.98032800  0.13102700  0.34885800  1
  O  O65  1  0.48032800  0.36897300  0.65114200  1
  O  O66  1  0.01967200  0.86897300  0.65114200  1
  O  O67  1  0.51967200  0.63102700  0.34885800  1
  O  O68  1  0.84134100  0.05248700  0.43312400  1
  O  O69  1  0.34134100  0.44751300  0.56687600  1
  O  O70  1  0.15865900  0.94751300  0.56687600  1
  O  O71  1  0.65865900  0.55248700  0.43312400  1
  O  O72  1  0.87743200  0.06779100  0.21174000  1
  O  O73  1  0.37743200  0.43220900  0.78826000  1
  O  O74  1  0.12256800  0.93220900  0.78826000  1
  O  O75  1  0.62256800  0.56779100  0.21174000  1
  O  O76  1  0.87879600  0.05493100  0.71540700  1
  O  O77  1  0.37879600  0.44506900  0.28459300  1
  O  O78  1  0.12120400  0.94506900  0.28459300  1
  O  O79  1  0.62120400  0.55493100  0.71540700  1
  O  O80  1  0.89169300  0.01782300  0.94631700  1
  O  O81  1  0.39169300  0.48217700  0.05368300  1
  O  O82  1  0.10830700  0.98217700  0.05368300  1
  O  O83  1  0.60830700  0.51782300  0.94631700  1
  O  O84  1  0.70486000  0.37270700  0.87434600  1
  O  O85  1  0.20486000  0.12729300  0.12565400  1
  O  O86  1  0.29514000  0.62729300  0.12565400  1
  O  O87  1  0.79514000  0.87270700  0.87434600  1
  O  O88  1  0.76492900  0.12499200  0.82986600  1
  O  O89  1  0.26492900  0.37500800  0.17013400  1
  O  O90  1  0.23507100  0.87500800  0.17013400  1
  O  O91  1  0.73507100  0.62499200  0.82986600  1
  O  O92  1  0.90441300  0.41636700  0.07926100  1
  O  O93  1  0.40441300  0.08363300  0.92073900  1
  O  O94  1  0.09558700  0.58363300  0.92073900  1
  O  O95  1  0.59558700  0.91636700  0.07926100  1
  O  O96  1  0.69569300  0.09050500  0.10243600  1
  O  O97  1  0.19569300  0.40949500  0.89756400  1
  O  O98  1  0.30430700  0.90949500  0.89756400  1
  O  O99  1  0.80430700  0.59050500  0.10243600  1
  O  O100  1  0.85222500  0.39912600  0.29632200  1
  O  O101  1  0.35222500  0.10087400  0.70367800  1
  O  O102  1  0.14777500  0.60087400  0.70367800  1
  O  O103  1  0.64777500  0.89912600  0.29632200  1
  O  O104  1  0.76066300  0.34667900  0.14000700  1
  O  O105  1  0.26066300  0.15332100  0.85999300  1
  O  O106  1  0.23933700  0.65332100  0.85999300  1
  O  O107  1  0.73933700  0.84667900  0.14000700  1
  O  O108  1  0.49713300  0.27630200  0.02243200  1
  O  O109  1  0.99713300  0.22369800  0.97756800  1
  O  O110  1  0.50286700  0.72369800  0.97756800  1
  O  O111  1  0.00286700  0.77630200  0.02243200  1
  O  O112  1  0.76038200  0.24142700  0.54461200  1
  O  O113  1  0.26038200  0.25857300  0.45538800  1
  O  O114  1  0.23961800  0.75857300  0.45538800  1
  O  O115  1  0.73961800  0.74142700  0.54461200  1
