# generated using pymatgen
data_YH16C4N9O16
_symmetry_space_group_name_H-M   'P 1'
_cell_length_a   11.38965762
_cell_length_b   11.38965762
_cell_length_c   6.48252288
_cell_angle_alpha   86.74301849
_cell_angle_beta   86.74301849
_cell_angle_gamma   143.82845251
_symmetry_Int_Tables_number   1
_chemical_formula_structural   YH16C4N9O16
_chemical_formula_sum   'Y1 H16 C4 N9 O16'
_cell_volume   487.94465368
_cell_formula_units_Z   1
loop_
 _symmetry_equiv_pos_site_id
 _symmetry_equiv_pos_as_xyz
  1  'x, y, z'
loop_
 _atom_site_type_symbol
 _atom_site_label
 _atom_site_symmetry_multiplicity
 _atom_site_fract_x
 _atom_site_fract_y
 _atom_site_fract_z
 _atom_site_occupancy
  Y  Y0  1  0.99702400  0.99702400  0.00437600  1
  H  H1  1  0.76064000  0.57624600  0.98682300  1
  H  H2  1  0.57624600  0.76064000  0.98682300  1
  H  H3  1  0.97595500  0.20156800  0.27323300  1
  H  H4  1  0.20156800  0.97595500  0.27323300  1
  H  H5  1  0.19990400  0.37002700  0.15697900  1
  H  H6  1  0.37002700  0.19990400  0.15697900  1
  H  H7  1  0.70972500  0.40719900  0.72815500  1
  H  H8  1  0.40719900  0.70972500  0.72815500  1
  H  H9  1  0.53084100  0.33316800  0.83771900  1
  H  H10  1  0.33316800  0.53084100  0.83771900  1
  H  H11  1  0.68853400  0.57427200  0.20875800  1
  H  H12  1  0.57427200  0.68853400  0.20875800  1
  H  H13  1  0.90124500  0.97103300  0.47147200  1
  H  H14  1  0.97103300  0.90124500  0.47147200  1
  H  H15  1  0.85375400  0.19805200  0.97550800  1
  H  H16  1  0.19805200  0.85375400  0.97550800  1
  C  C17  1  0.89040200  0.14178600  0.67945100  1
  C  C18  1  0.14178600  0.89040200  0.67945100  1
  C  C19  1  0.81935400  0.24462300  0.52618200  1
  C  C20  1  0.24462300  0.81935400  0.52618200  1
  N  N21  1  0.84615500  0.19400100  0.82000600  1
  N  N22  1  0.19400100  0.84615500  0.82000600  1
  N  N23  1  0.80154300  0.25962500  0.72292400  1
  N  N24  1  0.25962500  0.80154300  0.72292400  1
  N  N25  1  0.87253700  0.17518500  0.48702300  1
  N  N26  1  0.17518500  0.87253700  0.48702300  1
  N  N27  1  0.78670900  0.30494500  0.36647300  1
  N  N28  1  0.30494500  0.78670900  0.36647300  1
  N  N29  1  0.40636000  0.40636000  0.62235200  1
  O  O30  1  0.93528700  0.07187900  0.72329200  1
  O  O31  1  0.07187900  0.93528700  0.72329200  1
  O  O32  1  0.72654200  0.35547500  0.42136500  1
  O  O33  1  0.35547500  0.72654200  0.42136500  1
  O  O34  1  0.82143600  0.30436900  0.18166900  1
  O  O35  1  0.30436900  0.82143600  0.18166900  1
  O  O36  1  0.48860100  0.38710600  0.52977600  1
  O  O37  1  0.38710600  0.48860100  0.52977600  1
  O  O38  1  0.79595700  0.66435300  0.08544000  1
  O  O39  1  0.66435300  0.79595700  0.08544000  1
  O  O40  1  0.34128900  0.34128900  0.82524800  1
  O  O41  1  0.90576500  0.90576500  0.38526100  1
  O  O42  1  0.06341600  0.23625600  0.14517200  1
  O  O43  1  0.23625600  0.06341600  0.14517200  1
  O  O44  1  0.65652300  0.39753100  0.86286200  1
  O  O45  1  0.39753100  0.65652300  0.86286200  1
