# generated using pymatgen
data_MnCdPd2
_symmetry_space_group_name_H-M   'P 1'
_cell_length_a   10.88032630
_cell_length_b   10.88032630
_cell_length_c   10.88032630
_cell_angle_alpha   124.67627266
_cell_angle_beta   118.48033727
_cell_angle_gamma   87.37515592
_symmetry_Int_Tables_number   1
_chemical_formula_structural   MnCdPd2
_chemical_formula_sum   'Mn1 Cd1 Pd2'
_cell_volume   884.59359384
_cell_formula_units_Z   1
loop_
 _symmetry_equiv_pos_site_id
 _symmetry_equiv_pos_as_xyz
  1  'x, y, z'
loop_
 _atom_site_type_symbol
 _atom_site_label
 _atom_site_symmetry_multiplicity
 _atom_site_fract_x
 _atom_site_fract_y
 _atom_site_fract_z
 _atom_site_occupancy
  Mn  Mn0  1  0.00000000  0.00000000  0.00000000  1
  Cd  Cd1  1  0.00000000  0.50000000  0.50000000  1
  Pd  Pd2  1  0.00000000  0.23688500  0.23688500  1
  Pd  Pd3  1  0.00000000  0.76311500  0.76311500  1
