# generated using pymatgen
data_H10C5S2N2(O2F3)2
_symmetry_space_group_name_H-M   'P 1'
_cell_length_a   14.48547200
_cell_length_b   7.74026500
_cell_length_c   12.73333630
_cell_angle_alpha   73.47071347
_cell_angle_beta   90.00000000
_cell_angle_gamma   90.00000000
_symmetry_Int_Tables_number   1
_chemical_formula_structural   H10C5S2N2(O2F3)2
_chemical_formula_sum   'H40 C20 S8 N8 O16 F24'
_cell_volume   1368.67973434
_cell_formula_units_Z   4
loop_
 _symmetry_equiv_pos_site_id
 _symmetry_equiv_pos_as_xyz
  1  'x, y, z'
loop_
 _atom_site_type_symbol
 _atom_site_label
 _atom_site_symmetry_multiplicity
 _atom_site_fract_x
 _atom_site_fract_y
 _atom_site_fract_z
 _atom_site_occupancy
  H  H0  1  0.81795500  0.89607100  0.41592100  1
  H  H1  1  0.31795500  0.10392900  0.08407900  1
  H  H2  1  0.18204500  0.10392900  0.58407900  1
  H  H3  1  0.68204500  0.89607100  0.91592100  1
  H  H4  1  0.78186600  0.63022600  0.36890400  1
  H  H5  1  0.28186600  0.36977400  0.13109600  1
  H  H6  1  0.21813400  0.36977400  0.63109600  1
  H  H7  1  0.71813400  0.63022600  0.86890400  1
  H  H8  1  0.69088200  0.69311900  0.44692900  1
  H  H9  1  0.19088200  0.30688100  0.05307100  1
  H  H10  1  0.30911800  0.30688100  0.55307100  1
  H  H11  1  0.80911800  0.69311900  0.94692900  1
  H  H12  1  0.76826500  0.51119700  0.51196400  1
  H  H13  1  0.26826500  0.48880300  0.98803600  1
  H  H14  1  0.23173500  0.48880300  0.48803600  1
  H  H15  1  0.73173500  0.51119700  0.01196400  1
  H  H16  1  0.72584500  0.85444700  0.57663100  1
  H  H17  1  0.22584500  0.14555300  0.92336900  1
  H  H18  1  0.27415500  0.14555300  0.42336900  1
  H  H19  1  0.77415500  0.85444700  0.07663100  1
  H  H20  1  0.84284900  0.91900400  0.59410100  1
  H  H21  1  0.34284900  0.08099600  0.90589900  1
  H  H22  1  0.15715100  0.08099600  0.40589900  1
  H  H23  1  0.65715100  0.91900400  0.09410100  1
  H  H24  1  0.80682100  0.68743700  0.65000200  1
  H  H25  1  0.30682100  0.31256300  0.84999800  1
  H  H26  1  0.19317900  0.31256300  0.34999800  1
  H  H27  1  0.69317900  0.68743700  0.15000200  1
  H  H28  1  0.93134600  0.58984700  0.54367700  1
  H  H29  1  0.43134600  0.41015300  0.95632300  1
  H  H30  1  0.06865400  0.41015300  0.45632300  1
  H  H31  1  0.56865400  0.58984700  0.04367700  1
  H  H32  1  0.93845700  0.69854000  0.39851000  1
  H  H33  1  0.43845700  0.30146000  0.10149000  1
  H  H34  1  0.06154300  0.30146000  0.60149000  1
  H  H35  1  0.56154300  0.69854000  0.89851000  1
  H  H36  1  0.96726900  0.82124800  0.49496900  1
  H  H37  1  0.46726900  0.17875200  0.00503100  1
  H  H38  1  0.03273100  0.17875200  0.50503100  1
  H  H39  1  0.53273100  0.82124800  0.99496900  1
  C  C40  1  0.63535900  0.25366400  0.36236000  1
  C  C41  1  0.13535900  0.74633600  0.13764000  1
  C  C42  1  0.36464100  0.74633600  0.63764000  1
  C  C43  1  0.86464100  0.25366400  0.86236000  1
  C  C44  1  0.95141500  0.22777600  0.18020800  1
  C  C45  1  0.45141500  0.77222400  0.31979200  1
  C  C46  1  0.04858500  0.77222400  0.81979200  1
  C  C47  1  0.54858500  0.22777600  0.68020800  1
  C  C48  1  0.79819100  0.81159300  0.58269200  1
  C  C49  1  0.29819100  0.18840700  0.91730800  1
  C  C50  1  0.20180900  0.18840700  0.41730800  1
  C  C51  1  0.70180900  0.81159300  0.08269200  1
  C  C52  1  0.76146600  0.64168300  0.44951100  1
  C  C53  1  0.26146600  0.35831700  0.05048900  1
  C  C54  1  0.23853400  0.35831700  0.55048900  1
  C  C55  1  0.73853400  0.64168300  0.94951100  1
  C  C56  1  0.92296700  0.71711400  0.47876100  1
  C  C57  1  0.42296700  0.28288600  0.02123900  1
  C  C58  1  0.07703300  0.28288600  0.52123900  1
  C  C59  1  0.57703300  0.71711400  0.97876100  1
  S  S60  1  0.69973000  0.20267100  0.24673900  1
  S  S61  1  0.19973000  0.79732900  0.25326100  1
  S  S62  1  0.30027000  0.79732900  0.75326100  1
  S  S63  1  0.80027000  0.20267100  0.74673900  1
  S  S64  1  0.88218700  0.30069300  0.28455700  1
  S  S65  1  0.38218700  0.69930700  0.21544300  1
  S  S66  1  0.11781300  0.69930700  0.71544300  1
  S  S67  1  0.61781300  0.30069300  0.78455700  1
  N  N68  1  0.82446200  0.77509200  0.47752100  1
  N  N69  1  0.32446200  0.22490800  0.02247900  1
  N  N70  1  0.17553800  0.22490800  0.52247900  1
  N  N71  1  0.67553800  0.77509200  0.97752100  1
  N  N72  1  0.78329300  0.34224800  0.22786800  1
  N  N73  1  0.28329300  0.65775200  0.27213200  1
  N  N74  1  0.21670700  0.65775200  0.77213200  1
  N  N75  1  0.71670700  0.34224800  0.72786800  1
  O  O76  1  0.72418100  0.01334000  0.28865500  1
  O  O77  1  0.22418100  0.98666000  0.21134500  1
  O  O78  1  0.27581900  0.98666000  0.71134500  1
  O  O79  1  0.77581900  0.01334000  0.78865500  1
  O  O80  1  0.63785000  0.25531800  0.15433100  1
  O  O81  1  0.13785000  0.74468200  0.34566900  1
  O  O82  1  0.36215000  0.74468200  0.84566900  1
  O  O83  1  0.86215000  0.25531800  0.65433100  1
  O  O84  1  0.88720900  0.14630800  0.38157600  1
  O  O85  1  0.38720900  0.85369200  0.11842400  1
  O  O86  1  0.11279100  0.85369200  0.61842400  1
  O  O87  1  0.61279100  0.14630800  0.88157600  1
  O  O88  1  0.92397900  0.46708000  0.28924400  1
  O  O89  1  0.42397900  0.53292000  0.21075600  1
  O  O90  1  0.07602100  0.53292000  0.71075600  1
  O  O91  1  0.57602100  0.46708000  0.78924400  1
  F  F92  1  0.68969100  0.21565500  0.45306500  1
  F  F93  1  0.18969100  0.78434500  0.04693500  1
  F  F94  1  0.31030900  0.78434500  0.54693500  1
  F  F95  1  0.81030900  0.21565500  0.95306500  1
  F  F96  1  0.61165800  0.42965900  0.33637600  1
  F  F97  1  0.11165800  0.57034100  0.16362400  1
  F  F98  1  0.38834200  0.57034100  0.66362400  1
  F  F99  1  0.88834200  0.42965900  0.83637600  1
  F  F100  1  0.55803700  0.15251400  0.38610300  1
  F  F101  1  0.05803700  0.84748600  0.11389700  1
  F  F102  1  0.44196300  0.84748600  0.61389700  1
  F  F103  1  0.94196300  0.15251400  0.88610300  1
  F  F104  1  0.91471100  0.07638700  0.16401900  1
  F  F105  1  0.41471100  0.92361300  0.33598100  1
  F  F106  1  0.08528900  0.92361300  0.83598100  1
  F  F107  1  0.58528900  0.07638700  0.66401900  1
  F  F108  1  0.03927900  0.19168400  0.21637200  1
  F  F109  1  0.53927900  0.80831600  0.28362800  1
  F  F110  1  0.96072100  0.80831600  0.78362800  1
  F  F111  1  0.46072100  0.19168400  0.71637200  1
  F  F112  1  0.95362400  0.35753800  0.08335200  1
  F  F113  1  0.45362400  0.64246200  0.41664800  1
  F  F114  1  0.04637600  0.64246200  0.91664800  1
  F  F115  1  0.54637600  0.35753800  0.58335200  1
