# generated using pymatgen
data_P2H24PdC12(BrN3)2
_symmetry_space_group_name_H-M   'P 1'
_cell_length_a   12.02181300
_cell_length_b   7.43456200
_cell_length_c   12.37120580
_cell_angle_alpha   58.21788635
_cell_angle_beta   90.00000000
_cell_angle_gamma   90.00000000
_symmetry_Int_Tables_number   1
_chemical_formula_structural   P2H24PdC12(BrN3)2
_chemical_formula_sum   'P4 H48 Pd2 C24 Br4 N12'
_cell_volume   939.90836413
_cell_formula_units_Z   2
loop_
 _symmetry_equiv_pos_site_id
 _symmetry_equiv_pos_as_xyz
  1  'x, y, z'
loop_
 _atom_site_type_symbol
 _atom_site_label
 _atom_site_symmetry_multiplicity
 _atom_site_fract_x
 _atom_site_fract_y
 _atom_site_fract_z
 _atom_site_occupancy
  P  P0  1  0.67440900  0.41224200  0.95205200  1
  P  P1  1  0.82559100  0.41224200  0.45205200  1
  P  P2  1  0.32559100  0.58775800  0.04794800  1
  P  P3  1  0.17440900  0.58775800  0.54794800  1
  H  H4  1  0.66017500  0.59332100  0.71970000  1
  H  H5  1  0.83982500  0.59332100  0.21970000  1
  H  H6  1  0.33982500  0.40667900  0.28030000  1
  H  H7  1  0.16017500  0.40667900  0.78030000  1
  H  H8  1  0.61561600  0.32530300  0.79470500  1
  H  H9  1  0.88438400  0.32530300  0.29470500  1
  H  H10  1  0.38438400  0.67469700  0.20529500  1
  H  H11  1  0.11561600  0.67469700  0.70529500  1
  H  H12  1  0.82415400  0.55106300  0.02285700  1
  H  H13  1  0.67584600  0.55106300  0.52285700  1
  H  H14  1  0.17584600  0.44893700  0.97714300  1
  H  H15  1  0.32415400  0.44893700  0.47714300  1
  H  H16  1  0.78874700  0.73403800  0.86149000  1
  H  H17  1  0.71125300  0.73403800  0.36149000  1
  H  H18  1  0.21125300  0.26596200  0.13851000  1
  H  H19  1  0.28874700  0.26596200  0.63851000  1
  H  H20  1  0.67322400  0.02521900  0.06201700  1
  H  H21  1  0.82677600  0.02521900  0.56201700  1
  H  H22  1  0.32677600  0.97478100  0.93798300  1
  H  H23  1  0.17322400  0.97478100  0.43798300  1
  H  H24  1  0.75257400  0.11192900  0.14729500  1
  H  H25  1  0.74742600  0.11192900  0.64729500  1
  H  H26  1  0.24742600  0.88807100  0.85270500  1
  H  H27  1  0.25257400  0.88807100  0.35270500  1
  H  H28  1  0.85411500  0.67593600  0.69672000  1
  H  H29  1  0.64588500  0.67593600  0.19672000  1
  H  H30  1  0.14588500  0.32406400  0.30328000  1
  H  H31  1  0.35411500  0.32406400  0.80328000  1
  H  H32  1  0.95362100  0.47532400  0.73357600  1
  H  H33  1  0.54637900  0.47532400  0.23357600  1
  H  H34  1  0.04637900  0.52467600  0.26642400  1
  H  H35  1  0.45362100  0.52467600  0.76642400  1
  H  H36  1  0.93572800  0.24849700  0.07943700  1
  H  H37  1  0.56427200  0.24849700  0.57943700  1
  H  H38  1  0.06427200  0.75150300  0.92056300  1
  H  H39  1  0.43572800  0.75150300  0.42056300  1
  H  H40  1  0.00345700  0.22362000  0.96017400  1
  H  H41  1  0.49654300  0.22362000  0.46017400  1
  H  H42  1  0.99654300  0.77638000  0.03982600  1
  H  H43  1  0.50345700  0.77638000  0.53982600  1
  H  H44  1  0.89388100  0.10518000  0.83875100  1
  H  H45  1  0.60611900  0.10518000  0.33875100  1
  H  H46  1  0.10611900  0.89482000  0.16124900  1
  H  H47  1  0.39388100  0.89482000  0.66124900  1
  H  H48  1  0.75033400  0.04389700  0.87713500  1
  H  H49  1  0.74966600  0.04389700  0.37713500  1
  H  H50  1  0.24966600  0.95610300  0.12286500  1
  H  H51  1  0.25033400  0.95610300  0.62286500  1
  Pd  Pd52  1  0.50000000  0.50000000  0.00000000  1
  Pd  Pd53  1  0.00000000  0.50000000  0.50000000  1
  C  C54  1  0.68004700  0.42955900  0.79534700  1
  C  C55  1  0.81995300  0.42955900  0.29534700  1
  C  C56  1  0.31995300  0.57044100  0.20465300  1
  C  C57  1  0.18004700  0.57044100  0.70465300  1
  C  C58  1  0.80465000  0.56609500  0.93166200  1
  C  C59  1  0.69535000  0.56609500  0.43166200  1
  C  C60  1  0.19535000  0.43390500  0.06833800  1
  C  C61  1  0.30465000  0.43390500  0.56833800  1
  C  C62  1  0.73557600  0.14088300  0.05204000  1
  C  C63  1  0.76442400  0.14088300  0.55204000  1
  C  C64  1  0.26442400  0.85911700  0.94796000  1
  C  C65  1  0.23557600  0.85911700  0.44796000  1
  C  C66  1  0.87694600  0.51079700  0.76712800  1
  C  C67  1  0.62305400  0.51079700  0.26712800  1
  C  C68  1  0.12305400  0.48920300  0.23287200  1
  C  C69  1  0.37694600  0.48920300  0.73287200  1
  C  C70  1  0.92439600  0.26599000  0.98599800  1
  C  C71  1  0.57560400  0.26599000  0.48599800  1
  C  C72  1  0.07560400  0.73401000  0.01400200  1
  C  C73  1  0.42439600  0.73401000  0.51400200  1
  C  C74  1  0.81834900  0.14916900  0.86975500  1
  C  C75  1  0.68165100  0.14916900  0.36975500  1
  C  C76  1  0.18165100  0.85083100  0.13024500  1
  C  C77  1  0.31834900  0.85083100  0.63024500  1
  Br  Br78  1  0.45417700  0.11959200  0.14064200  1
  Br  Br79  1  0.04582300  0.11959200  0.64064200  1
  Br  Br80  1  0.54582300  0.88040800  0.85935800  1
  Br  Br81  1  0.95417700  0.88040800  0.35935800  1
  N  N82  1  0.78921300  0.36920600  0.77138700  1
  N  N83  1  0.71078700  0.36920600  0.27138700  1
  N  N84  1  0.21078700  0.63079400  0.22861300  1
  N  N85  1  0.28921300  0.63079400  0.72861300  1
  N  N86  1  0.89819500  0.48893400  0.89076400  1
  N  N87  1  0.60180500  0.48893400  0.39076400  1
  N  N88  1  0.10180500  0.51106600  0.10923600  1
  N  N89  1  0.39819500  0.51106600  0.60923600  1
  N  N90  1  0.83815500  0.11729500  0.99625100  1
  N  N91  1  0.66184500  0.11729500  0.49625100  1
  N  N92  1  0.16184500  0.88270500  0.00374900  1
  N  N93  1  0.33815500  0.88270500  0.50374900  1
