# generated using pymatgen
data_H2CS3
_symmetry_space_group_name_H-M   'P 1'
_cell_length_a   23.21684000
_cell_length_b   6.06247500
_cell_length_c   13.70653305
_cell_angle_alpha   88.30306690
_cell_angle_beta   90.00000000
_cell_angle_gamma   90.00000000
_symmetry_Int_Tables_number   1
_chemical_formula_structural   H2CS3
_chemical_formula_sum   'H32 C16 S48'
_cell_volume   1928.36918777
_cell_formula_units_Z   16
loop_
 _symmetry_equiv_pos_site_id
 _symmetry_equiv_pos_as_xyz
  1  'x, y, z'
loop_
 _atom_site_type_symbol
 _atom_site_label
 _atom_site_symmetry_multiplicity
 _atom_site_fract_x
 _atom_site_fract_y
 _atom_site_fract_z
 _atom_site_occupancy
  H  H0  1  0.71359600  0.26896000  0.57097800  1
  H  H1  1  0.21359600  0.73104000  0.92902200  1
  H  H2  1  0.28640400  0.73104000  0.42902200  1
  H  H3  1  0.78640400  0.26896000  0.07097800  1
  H  H4  1  0.72374500  0.55912200  0.65698300  1
  H  H5  1  0.22374500  0.44087800  0.84301700  1
  H  H6  1  0.27625500  0.44087800  0.34301700  1
  H  H7  1  0.77625500  0.55912200  0.15698300  1
  H  H8  1  0.41279200  0.77038800  0.73456500  1
  H  H9  1  0.91279200  0.22961200  0.76543500  1
  H  H10  1  0.58720800  0.22961200  0.26543500  1
  H  H11  1  0.08720800  0.77038800  0.23456500  1
  H  H12  1  0.55767700  0.98977100  0.60646800  1
  H  H13  1  0.05767700  0.01022900  0.89353200  1
  H  H14  1  0.44232300  0.01022900  0.39353200  1
  H  H15  1  0.94232300  0.98977100  0.10646800  1
  H  H16  1  0.62067500  0.22322100  0.06214300  1
  H  H17  1  0.12067500  0.77677900  0.43785700  1
  H  H18  1  0.37932500  0.77677900  0.93785700  1
  H  H19  1  0.87932500  0.22322100  0.56214300  1
  H  H20  1  0.52402500  0.50048300  0.84998100  1
  H  H21  1  0.02402500  0.49951700  0.65001900  1
  H  H22  1  0.47597500  0.49951700  0.15001900  1
  H  H23  1  0.97597500  0.50048300  0.34998100  1
  H  H24  1  0.84162600  0.84118900  0.76878300  1
  H  H25  1  0.34162600  0.15881100  0.73121700  1
  H  H26  1  0.15837400  0.15881100  0.23121700  1
  H  H27  1  0.65837400  0.84118900  0.26878300  1
  H  H28  1  0.68484000  0.96813000  0.87972400  1
  H  H29  1  0.18484000  0.03187000  0.62027600  1
  H  H30  1  0.31516000  0.03187000  0.12027600  1
  H  H31  1  0.81516000  0.96813000  0.37972400  1
  C  C32  1  0.64419400  0.55595400  0.54529700  1
  C  C33  1  0.14419400  0.44404600  0.95470300  1
  C  C34  1  0.35580600  0.44404600  0.45470300  1
  C  C35  1  0.85580600  0.55595400  0.04529700  1
  C  C36  1  0.48207400  0.04916900  0.72004600  1
  C  C37  1  0.98207400  0.95083100  0.77995400  1
  C  C38  1  0.51792600  0.95083100  0.27995400  1
  C  C39  1  0.01792600  0.04916900  0.22004600  1
  C  C40  1  0.60548800  0.52628200  0.95575000  1
  C  C41  1  0.10548800  0.47371800  0.54425000  1
  C  C42  1  0.39451200  0.47371800  0.04425000  1
  C  C43  1  0.89451200  0.52628200  0.45575000  1
  C  C44  1  0.76387800  0.08176900  0.77809900  1
  C  C45  1  0.26387800  0.91823100  0.72190100  1
  C  C46  1  0.23612200  0.91823100  0.22190100  1
  C  C47  1  0.73612200  0.08176900  0.27809900  1
  S  S48  1  0.58625400  0.66334000  0.49130900  1
  S  S49  1  0.08625400  0.33666000  0.00869100  1
  S  S50  1  0.41374600  0.33666000  0.50869100  1
  S  S51  1  0.91374600  0.66334000  0.99130900  1
  S  S52  1  0.66568400  0.29255900  0.51342900  1
  S  S53  1  0.16568400  0.70744100  0.98657100  1
  S  S54  1  0.33431600  0.70744100  0.48657100  1
  S  S55  1  0.83431600  0.29255900  0.01342900  1
  S  S56  1  0.68074100  0.70558900  0.63166600  1
  S  S57  1  0.18074100  0.29441100  0.86833400  1
  S  S58  1  0.31925900  0.29441100  0.36833400  1
  S  S59  1  0.81925900  0.70558900  0.13166600  1
  S  S60  1  0.44893900  0.19178300  0.80499600  1
  S  S61  1  0.94893900  0.80821700  0.69500400  1
  S  S62  1  0.55106100  0.80821700  0.19500400  1
  S  S63  1  0.05106100  0.19178300  0.30499600  1
  S  S64  1  0.46076800  0.79289200  0.67789900  1
  S  S65  1  0.96076800  0.20710800  0.82210100  1
  S  S66  1  0.53923200  0.20710800  0.32210100  1
  S  S67  1  0.03923200  0.79289200  0.17789900  1
  S  S68  1  0.54338600  0.16003400  0.66548400  1
  S  S69  1  0.04338600  0.83996600  0.83451600  1
  S  S70  1  0.45661400  0.83996600  0.33451600  1
  S  S71  1  0.95661400  0.16003400  0.16548400  1
  S  S72  1  0.66345500  0.64908700  0.99915600  1
  S  S73  1  0.16345500  0.35091300  0.50084400  1
  S  S74  1  0.33654500  0.35091300  0.00084400  1
  S  S75  1  0.83654500  0.64908700  0.49915600  1
  S  S76  1  0.57997600  0.26610400  0.99280300  1
  S  S77  1  0.07997600  0.73389600  0.50719700  1
  S  S78  1  0.42002400  0.73389600  0.00719700  1
  S  S79  1  0.92002400  0.26610400  0.49280300  1
  S  S80  1  0.56497500  0.65923600  0.86528200  1
  S  S81  1  0.06497500  0.34076400  0.63471800  1
  S  S82  1  0.43502500  0.34076400  0.13471800  1
  S  S83  1  0.93502500  0.65923600  0.36528200  1
  S  S84  1  0.79609700  0.25509300  0.69865800  1
  S  S85  1  0.29609700  0.74490700  0.80134200  1
  S  S86  1  0.20390300  0.74490700  0.30134200  1
  S  S87  1  0.70390300  0.25509300  0.19865800  1
  S  S88  1  0.79201400  0.83368400  0.82238000  1
  S  S89  1  0.29201400  0.16631600  0.67762000  1
  S  S90  1  0.20798600  0.16631600  0.17762000  1
  S  S91  1  0.70798600  0.83368400  0.32238000  1
  S  S92  1  0.69675100  0.15270600  0.82197000  1
  S  S93  1  0.19675100  0.84729400  0.67803000  1
  S  S94  1  0.30324900  0.84729400  0.17803000  1
  S  S95  1  0.80324900  0.15270600  0.32197000  1
