# generated using pymatgen
data_H13C3NF4
_symmetry_space_group_name_H-M   'P 1'
_cell_length_a   7.73920900
_cell_length_b   9.43400884
_cell_length_c   10.84157983
_cell_angle_alpha   102.60439328
_cell_angle_beta   91.75593378
_cell_angle_gamma   90.73244444
_symmetry_Int_Tables_number   1
_chemical_formula_structural   H13C3NF4
_chemical_formula_sum   'H52 C12 N4 F16'
_cell_volume   771.96968524
_cell_formula_units_Z   4
loop_
 _symmetry_equiv_pos_site_id
 _symmetry_equiv_pos_as_xyz
  1  'x, y, z'
loop_
 _atom_site_type_symbol
 _atom_site_label
 _atom_site_symmetry_multiplicity
 _atom_site_fract_x
 _atom_site_fract_y
 _atom_site_fract_z
 _atom_site_occupancy
  H  H0  1  0.75447700  0.73426500  0.87633500  1
  H  H1  1  0.24552300  0.26573500  0.12366500  1
  H  H2  1  0.78020000  0.42535500  0.87749900  1
  H  H3  1  0.21980000  0.57464500  0.12250100  1
  H  H4  1  0.93976200  0.25318200  0.95224900  1
  H  H5  1  0.06023800  0.74681800  0.04775100  1
  H  H6  1  0.59773000  0.27522800  0.96441500  1
  H  H7  1  0.40227000  0.72477200  0.03558500  1
  H  H8  1  0.74055400  0.78063000  0.20522100  1
  H  H9  1  0.25944600  0.21937000  0.79477900  1
  H  H10  1  0.73069200  0.07969900  0.31454400  1
  H  H11  1  0.26930800  0.92030100  0.68545600  1
  H  H12  1  0.74804900  0.09216200  0.52989400  1
  H  H13  1  0.25195100  0.90783800  0.47010600  1
  H  H14  1  0.74939300  0.33437000  0.45904100  1
  H  H15  1  0.25060700  0.66563000  0.54095900  1
  H  H16  1  0.59296300  0.95543400  0.91442400  1
  H  H17  1  0.40703700  0.04456600  0.08557600  1
  H  H18  1  0.72383600  0.01626200  0.80275500  1
  H  H19  1  0.27616400  0.98373800  0.19724500  1
  H  H20  1  0.82209100  0.98468200  0.94742900  1
  H  H21  1  0.17790900  0.01531800  0.05257100  1
  H  H22  1  0.63713200  0.62854500  0.66669500  1
  H  H23  1  0.36286800  0.37145500  0.33330500  1
  H  H24  1  0.59874100  0.81096200  0.64852300  1
  H  H25  1  0.40125900  0.18903800  0.35147700  1
  H  H26  1  0.48807700  0.74093500  0.76595300  1
  H  H27  1  0.51192300  0.25906500  0.23404700  1
  H  H28  1  0.02303300  0.82341400  0.81924700  1
  H  H29  1  0.97696700  0.17658600  0.18075300  1
  H  H30  1  0.91894900  0.85064400  0.67662200  1
  H  H31  1  0.08105100  0.14935600  0.32337800  1
  H  H32  1  0.93842500  0.66895700  0.70158000  1
  H  H33  1  0.06157500  0.33104300  0.29842000  1
  H  H34  1  0.01013300  0.72677400  0.29119000  1
  H  H35  1  0.98986700  0.27322600  0.70881000  1
  H  H36  1  0.89990400  0.66385000  0.41222800  1
  H  H37  1  0.10009600  0.33615000  0.58777200  1
  H  H38  1  0.89344500  0.85342600  0.40501400  1
  H  H39  1  0.10655500  0.14657400  0.59498600  1
  H  H40  1  0.58009700  0.84531900  0.39477600  1
  H  H41  1  0.41990300  0.15468100  0.60522400  1
  H  H42  1  0.56960700  0.65576100  0.39862100  1
  H  H43  1  0.43039300  0.34423900  0.60137900  1
  H  H44  1  0.46638100  0.71856000  0.27036500  1
  H  H45  1  0.53361900  0.28144000  0.72963500  1
  H  H46  1  0.62287700  0.53981300  0.12655500  1
  H  H47  1  0.37712300  0.46018700  0.87344500  1
  H  H48  1  0.74247400  0.48432200  0.25317400  1
  H  H49  1  0.25752600  0.51567800  0.74682600  1
  H  H50  1  0.85447800  0.54594600  0.13123100  1
  H  H51  1  0.14552200  0.45405400  0.86876900  1
  C  C52  1  0.72091700  0.95035500  0.87409900  1
  C  C53  1  0.27908300  0.04964500  0.12590100  1
  C  C54  1  0.60815700  0.73950200  0.71538400  1
  C  C55  1  0.39184300  0.26049800  0.28461600  1
  C  C56  1  0.92157800  0.78325400  0.74697200  1
  C  C57  1  0.07842200  0.21674600  0.25302800  1
  C  C58  1  0.89699600  0.74137200  0.35020900  1
  C  C59  1  0.10300400  0.25862800  0.64979100  1
  C  C60  1  0.57645900  0.73431700  0.33797100  1
  C  C61  1  0.42354100  0.26568300  0.66202900  1
  C  C62  1  0.73944500  0.55818700  0.18792100  1
  C  C63  1  0.26055500  0.44181300  0.81207900  1
  N  N64  1  0.75131900  0.79653000  0.80920300  1
  N  N65  1  0.24868100  0.20347000  0.19079700  1
  N  N66  1  0.73842500  0.70960000  0.26563700  1
  N  N67  1  0.26157500  0.29040000  0.73436300  1
  F  F68  1  0.77023300  0.30899200  0.93866300  1
  F  F69  1  0.22976700  0.69100800  0.06133700  1
  F  F70  1  0.79016000  0.50478200  0.82991600  1
  F  F71  1  0.20984000  0.49521800  0.17008400  1
  F  F72  1  0.06000900  0.21716700  0.95478700  1
  F  F73  1  0.93999100  0.78283300  0.04521300  1
  F  F74  1  0.47350000  0.25921000  0.98054800  1
  F  F75  1  0.52650000  0.74079000  0.01945200  1
  F  F76  1  0.75237700  0.17618500  0.43765300  1
  F  F77  1  0.24762300  0.82381500  0.56234700  1
  F  F78  1  0.71448700  0.00978000  0.23145500  1
  F  F79  1  0.28551300  0.99022000  0.76854500  1
  F  F80  1  0.74535000  0.02512000  0.59018100  1
  F  F81  1  0.25465000  0.97488000  0.40981900  1
  F  F82  1  0.74484200  0.44144000  0.46937800  1
  F  F83  1  0.25515800  0.55856000  0.53062200  1
