# generated using pymatgen
data_AlH20C2S2NO14
_symmetry_space_group_name_H-M   'P 1'
_cell_length_a   10.76437000
_cell_length_b   6.47439800
_cell_length_c   12.08384379
_cell_angle_alpha   67.64912681
_cell_angle_beta   90.00000000
_cell_angle_gamma   90.00000000
_symmetry_Int_Tables_number   1
_chemical_formula_structural   AlH20C2S2NO14
_chemical_formula_sum   'Al2 H40 C4 S4 N2 O28'
_cell_volume   778.88788284
_cell_formula_units_Z   2
loop_
 _symmetry_equiv_pos_site_id
 _symmetry_equiv_pos_as_xyz
  1  'x, y, z'
loop_
 _atom_site_type_symbol
 _atom_site_label
 _atom_site_symmetry_multiplicity
 _atom_site_fract_x
 _atom_site_fract_y
 _atom_site_fract_z
 _atom_site_occupancy
  Al  Al0  1  0.74826400  0.50570100  0.49274200  1
  Al  Al1  1  0.25173600  0.50570100  0.99274200  1
  H  H2  1  0.69539100  0.10017700  0.08390600  1
  H  H3  1  0.30460900  0.10017700  0.58390600  1
  H  H4  1  0.84874300  0.03389200  0.08777200  1
  H  H5  1  0.15125700  0.03389200  0.58777200  1
  H  H6  1  0.72098300  0.69147800  0.64566300  1
  H  H7  1  0.27901700  0.69147800  0.14566300  1
  H  H8  1  0.59717700  0.53608200  0.65795000  1
  H  H9  1  0.40282300  0.53608200  0.15795000  1
  H  H10  1  0.78111100  0.32997900  0.33446900  1
  H  H11  1  0.21888900  0.32997900  0.83446900  1
  H  H12  1  0.89717100  0.50156500  0.31886000  1
  H  H13  1  0.10282900  0.50156500  0.81886000  1
  H  H14  1  0.73056000  0.08104500  0.61369500  1
  H  H15  1  0.26944000  0.08104500  0.11369500  1
  H  H16  1  0.59186800  0.19121400  0.59033900  1
  H  H17  1  0.40813200  0.19121400  0.09033900  1
  H  H18  1  0.77203100  0.93104600  0.37361100  1
  H  H19  1  0.22796900  0.93104600  0.87361100  1
  H  H20  1  0.90878200  0.81190400  0.40085200  1
  H  H21  1  0.09121800  0.81190400  0.90085200  1
  H  H22  1  0.56139200  0.74730200  0.38156700  1
  H  H23  1  0.43860800  0.74730200  0.88156700  1
  H  H24  1  0.56946100  0.52013200  0.34838400  1
  H  H25  1  0.43053900  0.52013200  0.84838400  1
  H  H26  1  0.93574200  0.26671500  0.60937400  1
  H  H27  1  0.06425800  0.26671500  0.10937400  1
  H  H28  1  0.92752300  0.49539300  0.63907300  1
  H  H29  1  0.07247700  0.49539300  0.13907300  1
  H  H30  1  0.81388900  0.36193700  0.91654500  1
  H  H31  1  0.18611100  0.36193700  0.41654500  1
  H  H32  1  0.68715900  0.22857300  0.87208800  1
  H  H33  1  0.31284100  0.22857300  0.37208800  1
  H  H34  1  0.84213800  0.13255900  0.86970900  1
  H  H35  1  0.15786200  0.13255900  0.36970900  1
  H  H36  1  0.64140600  0.82462800  0.00534900  1
  H  H37  1  0.35859400  0.82462800  0.50534900  1
  H  H38  1  0.80262500  0.75739100  0.00434000  1
  H  H39  1  0.19737500  0.75739100  0.50434000  1
  H  H40  1  0.72380500  0.70399700  0.14500600  1
  H  H41  1  0.27619500  0.70399700  0.64500600  1
  C  C42  1  0.77803700  0.20383200  0.91601700  1
  C  C43  1  0.22196300  0.20383200  0.41601700  1
  C  C44  1  0.73064100  0.81421400  0.05028400  1
  C  C45  1  0.26935900  0.81421400  0.55028400  1
  S  S46  1  0.42763200  0.18231900  0.75748500  1
  S  S47  1  0.57236800  0.18231900  0.25748500  1
  S  S48  1  0.93469900  0.83196900  0.72995400  1
  S  S49  1  0.06530100  0.83196900  0.22995400  1
  N  N50  1  0.76487100  0.04260500  0.04214900  1
  N  N51  1  0.23512900  0.04260500  0.54214900  1
  O  O52  1  0.67221100  0.60189800  0.60876600  1
  O  O53  1  0.32778900  0.60189800  0.10876600  1
  O  O54  1  0.82583700  0.42311000  0.37202000  1
  O  O55  1  0.17416300  0.42311000  0.87202000  1
  O  O56  1  0.68057200  0.21289700  0.56078900  1
  O  O57  1  0.31942800  0.21289700  0.06078900  1
  O  O58  1  0.81851800  0.79548700  0.42679700  1
  O  O59  1  0.18148200  0.79548700  0.92679700  1
  O  O60  1  0.60011200  0.59401100  0.40254700  1
  O  O61  1  0.39988800  0.59401100  0.90254700  1
  O  O62  1  0.89406000  0.41715600  0.58800500  1
  O  O63  1  0.10594000  0.41715600  0.08800500  1
  O  O64  1  0.28900300  0.17090300  0.77818500  1
  O  O65  1  0.71099700  0.17090300  0.27818500  1
  O  O66  1  0.44953200  0.17249300  0.63732800  1
  O  O67  1  0.55046800  0.17249300  0.13732800  1
  O  O68  1  0.47643800  0.40003600  0.75640500  1
  O  O69  1  0.52356200  0.40003600  0.25640500  1
  O  O70  1  0.48908400  0.99310800  0.85266500  1
  O  O71  1  0.51091600  0.99310800  0.35266500  1
  O  O72  1  0.79892200  0.84735700  0.70101700  1
  O  O73  1  0.20107800  0.84735700  0.20101700  1
  O  O74  1  0.98746600  0.62304800  0.72225200  1
  O  O75  1  0.01253400  0.62304800  0.22225200  1
  O  O76  1  0.95265100  0.82663800  0.85239200  1
  O  O77  1  0.04734900  0.82663800  0.35239200  1
  O  O78  1  0.99949800  0.03051000  0.64054900  1
  O  O79  1  0.00050200  0.03051000  0.14054900  1
