# generated using pymatgen
data_KCa4Si8H16O29
_symmetry_space_group_name_H-M   'P 1'
_cell_length_a   9.05808000
_cell_length_b   9.05808000
_cell_length_c   16.07193300
_cell_angle_alpha   90.00000000
_cell_angle_beta   90.00000000
_cell_angle_gamma   90.00000000
_symmetry_Int_Tables_number   1
_chemical_formula_structural   KCa4Si8H16O29
_chemical_formula_sum   'K2 Ca8 Si16 H32 O58'
_cell_volume   1318.68302987
_cell_formula_units_Z   2
loop_
 _symmetry_equiv_pos_site_id
 _symmetry_equiv_pos_as_xyz
  1  'x, y, z'
loop_
 _atom_site_type_symbol
 _atom_site_label
 _atom_site_symmetry_multiplicity
 _atom_site_fract_x
 _atom_site_fract_y
 _atom_site_fract_z
 _atom_site_occupancy
  K  K0  1  0.50000000  0.50000000  0.00000000  1
  K  K1  1  0.00000000  0.00000000  0.50000000  1
  Ca  Ca2  1  0.74504200  0.61055600  0.50000000  1
  Ca  Ca3  1  0.25495800  0.38944400  0.50000000  1
  Ca  Ca4  1  0.75495800  0.11055600  0.00000000  1
  Ca  Ca5  1  0.24504200  0.88944400  0.00000000  1
  Ca  Ca6  1  0.61055600  0.25495800  0.50000000  1
  Ca  Ca7  1  0.38944400  0.74504200  0.50000000  1
  Ca  Ca8  1  0.11055600  0.24504200  0.00000000  1
  Ca  Ca9  1  0.88944400  0.75495800  0.00000000  1
  Si  Si10  1  0.58544200  0.72615700  0.30941400  1
  Si  Si11  1  0.41455800  0.27384300  0.30941400  1
  Si  Si12  1  0.91455800  0.22615700  0.80941400  1
  Si  Si13  1  0.08544200  0.77384300  0.80941400  1
  Si  Si14  1  0.72615700  0.41455800  0.30941400  1
  Si  Si15  1  0.27384300  0.58544200  0.30941400  1
  Si  Si16  1  0.22615700  0.08544200  0.80941400  1
  Si  Si17  1  0.77384300  0.91455800  0.80941400  1
  Si  Si18  1  0.41455800  0.27384300  0.69058600  1
  Si  Si19  1  0.58544200  0.72615700  0.69058600  1
  Si  Si20  1  0.08544200  0.77384300  0.19058600  1
  Si  Si21  1  0.91455800  0.22615700  0.19058600  1
  Si  Si22  1  0.27384300  0.58544200  0.69058600  1
  Si  Si23  1  0.72615700  0.41455800  0.69058600  1
  Si  Si24  1  0.77384300  0.91455800  0.19058600  1
  Si  Si25  1  0.22615700  0.08544200  0.19058600  1
  H  H26  1  0.65959400  0.94785500  0.40897700  1
  H  H27  1  0.34040600  0.05214500  0.40897700  1
  H  H28  1  0.84040600  0.44785500  0.90897700  1
  H  H29  1  0.15959400  0.55214500  0.90897700  1
  H  H30  1  0.94785500  0.34040600  0.40897700  1
  H  H31  1  0.05214500  0.65959400  0.40897700  1
  H  H32  1  0.44785500  0.15959400  0.90897700  1
  H  H33  1  0.55214500  0.84040600  0.90897700  1
  H  H34  1  0.34040600  0.05214500  0.59102300  1
  H  H35  1  0.65959400  0.94785500  0.59102300  1
  H  H36  1  0.15959400  0.55214500  0.09102300  1
  H  H37  1  0.84040600  0.44785500  0.09102300  1
  H  H38  1  0.05214500  0.65959400  0.59102300  1
  H  H39  1  0.94785500  0.34040600  0.59102300  1
  H  H40  1  0.55214500  0.84040600  0.09102300  1
  H  H41  1  0.44785500  0.15959400  0.09102300  1
  H  H42  1  0.92424800  0.71986800  0.35270400  1
  H  H43  1  0.07575200  0.28013200  0.35270400  1
  H  H44  1  0.57575200  0.21986800  0.85270400  1
  H  H45  1  0.42424800  0.78013200  0.85270400  1
  H  H46  1  0.71986800  0.07575200  0.35270400  1
  H  H47  1  0.28013200  0.92424800  0.35270400  1
  H  H48  1  0.21986800  0.42424800  0.85270400  1
  H  H49  1  0.78013200  0.57575200  0.85270400  1
  H  H50  1  0.07575200  0.28013200  0.64729600  1
  H  H51  1  0.92424800  0.71986800  0.64729600  1
  H  H52  1  0.42424800  0.78013200  0.14729600  1
  H  H53  1  0.57575200  0.21986800  0.14729600  1
  H  H54  1  0.28013200  0.92424800  0.64729600  1
  H  H55  1  0.71986800  0.07575200  0.64729600  1
  H  H56  1  0.78013200  0.57575200  0.14729600  1
  H  H57  1  0.21986800  0.42424800  0.14729600  1
  O  O58  1  0.86422700  0.36422700  0.25000000  1
  O  O59  1  0.13577300  0.63577300  0.25000000  1
  O  O60  1  0.63577300  0.86422700  0.75000000  1
  O  O61  1  0.36422700  0.13577300  0.75000000  1
  O  O62  1  0.36422700  0.13577300  0.25000000  1
  O  O63  1  0.63577300  0.86422700  0.25000000  1
  O  O64  1  0.86422700  0.36422700  0.75000000  1
  O  O65  1  0.13577300  0.63577300  0.75000000  1
  O  O66  1  0.68965300  0.58525500  0.28067400  1
  O  O67  1  0.31034700  0.41474500  0.28067400  1
  O  O68  1  0.81034700  0.08525500  0.78067400  1
  O  O69  1  0.18965300  0.91474500  0.78067400  1
  O  O70  1  0.58525500  0.31034700  0.28067400  1
  O  O71  1  0.41474500  0.68965300  0.28067400  1
  O  O72  1  0.08525500  0.18965300  0.78067400  1
  O  O73  1  0.91474500  0.81034700  0.78067400  1
  O  O74  1  0.31034700  0.41474500  0.71932600  1
  O  O75  1  0.68965300  0.58525500  0.71932600  1
  O  O76  1  0.18965300  0.91474500  0.21932600  1
  O  O77  1  0.81034700  0.08525500  0.21932600  1
  O  O78  1  0.41474500  0.68965300  0.71932600  1
  O  O79  1  0.58525500  0.31034700  0.71932600  1
  O  O80  1  0.91474500  0.81034700  0.21932600  1
  O  O81  1  0.08525500  0.18965300  0.21932600  1
  O  O82  1  0.59999800  0.76421900  0.40676800  1
  O  O83  1  0.40000200  0.23578100  0.40676800  1
  O  O84  1  0.90000200  0.26421900  0.90676800  1
  O  O85  1  0.09999800  0.73578100  0.90676800  1
  O  O86  1  0.76421900  0.40000200  0.40676800  1
  O  O87  1  0.23578100  0.59999800  0.40676800  1
  O  O88  1  0.26421900  0.09999800  0.90676800  1
  O  O89  1  0.73578100  0.90000200  0.90676800  1
  O  O90  1  0.40000200  0.23578100  0.59323200  1
  O  O91  1  0.59999800  0.76421900  0.59323200  1
  O  O92  1  0.09999800  0.73578100  0.09323200  1
  O  O93  1  0.90000200  0.26421900  0.09323200  1
  O  O94  1  0.23578100  0.59999800  0.59323200  1
  O  O95  1  0.76421900  0.40000200  0.59323200  1
  O  O96  1  0.73578100  0.90000200  0.09323200  1
  O  O97  1  0.26421900  0.09999800  0.09323200  1
  O  O98  1  0.94971900  0.70289700  0.41083400  1
  O  O99  1  0.05028100  0.29710300  0.41083400  1
  O  O100  1  0.55028100  0.20289700  0.91083400  1
  O  O101  1  0.44971900  0.79710300  0.91083400  1
  O  O102  1  0.70289700  0.05028100  0.41083400  1
  O  O103  1  0.29710300  0.94971900  0.41083400  1
  O  O104  1  0.20289700  0.44971900  0.91083400  1
  O  O105  1  0.79710300  0.55028100  0.91083400  1
  O  O106  1  0.05028100  0.29710300  0.58916600  1
  O  O107  1  0.94971900  0.70289700  0.58916600  1
  O  O108  1  0.44971900  0.79710300  0.08916600  1
  O  O109  1  0.55028100  0.20289700  0.08916600  1
  O  O110  1  0.29710300  0.94971900  0.58916600  1
  O  O111  1  0.70289700  0.05028100  0.58916600  1
  O  O112  1  0.79710300  0.55028100  0.08916600  1
  O  O113  1  0.20289700  0.44971900  0.08916600  1
  O  O114  1  0.50000000  0.50000000  0.50000000  1
  O  O115  1  0.00000000  0.00000000  0.00000000  1
