# generated using pymatgen
data_CoH4C4(NCl2)2
_symmetry_space_group_name_H-M   'P 1'
_cell_length_a   11.37294200
_cell_length_b   7.68652100
_cell_length_c   16.29445224
_cell_angle_alpha   66.29264919
_cell_angle_beta   90.00000000
_cell_angle_gamma   90.00000000
_symmetry_Int_Tables_number   1
_chemical_formula_structural   CoH4C4(NCl2)2
_chemical_formula_sum   'Co4 H16 C16 N8 Cl16'
_cell_volume   1304.22769474
_cell_formula_units_Z   4
loop_
 _symmetry_equiv_pos_site_id
 _symmetry_equiv_pos_as_xyz
  1  'x, y, z'
loop_
 _atom_site_type_symbol
 _atom_site_label
 _atom_site_symmetry_multiplicity
 _atom_site_fract_x
 _atom_site_fract_y
 _atom_site_fract_z
 _atom_site_occupancy
  Co  Co0  1  0.83016100  0.75916800  0.96740300  1
  Co  Co1  1  0.66983900  0.75916800  0.46740300  1
  Co  Co2  1  0.16983900  0.24083200  0.03259700  1
  Co  Co3  1  0.33016100  0.24083200  0.53259700  1
  H  H4  1  0.73010600  0.10286400  0.97662200  1
  H  H5  1  0.76989400  0.10286400  0.47662200  1
  H  H6  1  0.26989400  0.89713600  0.02337800  1
  H  H7  1  0.23010600  0.89713600  0.52337800  1
  H  H8  1  0.76242300  0.40439100  0.10073700  1
  H  H9  1  0.73757700  0.40439100  0.60073700  1
  H  H10  1  0.23757700  0.59560900  0.89926300  1
  H  H11  1  0.26242300  0.59560900  0.39926300  1
  H  H12  1  0.83543500  0.54590000  0.84870300  1
  H  H13  1  0.66456500  0.54590000  0.34870300  1
  H  H14  1  0.16456500  0.45410000  0.15129700  1
  H  H15  1  0.33543500  0.45410000  0.65129700  1
  H  H16  1  0.08464400  0.39789500  0.99468600  1
  H  H17  1  0.41535600  0.39789500  0.49468600  1
  H  H18  1  0.91535600  0.60210500  0.00531400  1
  H  H19  1  0.58464400  0.60210500  0.50531400  1
  C  C20  1  0.71346600  0.01554200  0.15121900  1
  C  C21  1  0.78653400  0.01554200  0.65121900  1
  C  C22  1  0.28653400  0.98445800  0.84878100  1
  C  C23  1  0.21346600  0.98445800  0.34878100  1
  C  C24  1  0.54445900  0.21050600  0.06255000  1
  C  C25  1  0.95554100  0.21050600  0.56255000  1
  C  C26  1  0.45554100  0.78949400  0.93745000  1
  C  C27  1  0.04445900  0.78949400  0.43745000  1
  C  C28  1  0.00061200  0.65546400  0.73787800  1
  C  C29  1  0.49938800  0.65546400  0.23787800  1
  C  C30  1  0.99938800  0.34453600  0.26212200  1
  C  C31  1  0.50061200  0.34453600  0.76212200  1
  C  C32  1  0.97680000  0.30183700  0.79642900  1
  C  C33  1  0.52320000  0.30183700  0.29642900  1
  C  C34  1  0.02320000  0.69816300  0.20357100  1
  C  C35  1  0.47680000  0.69816300  0.70357100  1
  N  N36  1  0.62897200  0.11474000  0.10651600  1
  N  N37  1  0.87102800  0.11474000  0.60651600  1
  N  N38  1  0.37102800  0.88526000  0.89348400  1
  N  N39  1  0.12897200  0.88526000  0.39348400  1
  N  N40  1  0.98983200  0.47789300  0.76732900  1
  N  N41  1  0.51016800  0.47789300  0.26732900  1
  N  N42  1  0.01016800  0.52210700  0.23267100  1
  N  N43  1  0.48983200  0.52210700  0.73267100  1
  Cl  Cl44  1  0.02032300  0.78972600  0.94217900  1
  Cl  Cl45  1  0.47967700  0.78972600  0.44217900  1
  Cl  Cl46  1  0.97967700  0.21027400  0.05782100  1
  Cl  Cl47  1  0.52032300  0.21027400  0.55782100  1
  Cl  Cl48  1  0.72820400  0.56613800  0.10026400  1
  Cl  Cl49  1  0.77179600  0.56613800  0.60026400  1
  Cl  Cl50  1  0.27179600  0.43386200  0.89973600  1
  Cl  Cl51  1  0.22820400  0.43386200  0.39973600  1
  Cl  Cl52  1  0.74101600  0.59747300  0.87799900  1
  Cl  Cl53  1  0.75898400  0.59747300  0.37799900  1
  Cl  Cl54  1  0.25898400  0.40252700  0.12200100  1
  Cl  Cl55  1  0.24101600  0.40252700  0.62200100  1
  Cl  Cl56  1  0.71708800  0.05713600  0.90857000  1
  Cl  Cl57  1  0.78291200  0.05713600  0.40857000  1
  Cl  Cl58  1  0.28291200  0.94286400  0.09143000  1
  Cl  Cl59  1  0.21708800  0.94286400  0.59143000  1
