# generated using pymatgen
data_DySe
_symmetry_space_group_name_H-M   'P 1'
_cell_length_a   4.14611532
_cell_length_b   4.14611532
_cell_length_c   8.49805600
_cell_angle_alpha   90.00000000
_cell_angle_beta   90.00000000
_cell_angle_gamma   119.99998918
_symmetry_Int_Tables_number   1
_chemical_formula_structural   DySe
_chemical_formula_sum   'Dy2 Se2'
_cell_volume   126.51237911
_cell_formula_units_Z   2
loop_
 _symmetry_equiv_pos_site_id
 _symmetry_equiv_pos_as_xyz
  1  'x, y, z'
loop_
 _atom_site_type_symbol
 _atom_site_label
 _atom_site_symmetry_multiplicity
 _atom_site_fract_x
 _atom_site_fract_y
 _atom_site_fract_z
 _atom_site_occupancy
  Dy  Dy0  1  0.66666700  0.33333300  0.52454600  1
  Dy  Dy1  1  0.33333300  0.66666700  0.02454600  1
  Se  Se2  1  0.66666700  0.33333300  0.85045400  1
  Se  Se3  1  0.33333300  0.66666700  0.35045400  1
