# generated using pymatgen
data_VO
_symmetry_space_group_name_H-M   'P 1'
_cell_length_a   3.19710642
_cell_length_b   3.19701044
_cell_length_c   5.13072800
_cell_angle_alpha   89.99940676
_cell_angle_beta   71.84831022
_cell_angle_gamma   119.99798611
_symmetry_Int_Tables_number   1
_chemical_formula_structural   VO
_chemical_formula_sum   'V2 O2'
_cell_volume   42.37678919
_cell_formula_units_Z   2
loop_
 _symmetry_equiv_pos_site_id
 _symmetry_equiv_pos_as_xyz
  1  'x, y, z'
loop_
 _atom_site_type_symbol
 _atom_site_label
 _atom_site_symmetry_multiplicity
 _atom_site_fract_x
 _atom_site_fract_y
 _atom_site_fract_z
 _atom_site_occupancy
  V  V0  1  0.00000000  0.50000000  0.50000000  1
  V  V1  1  0.00000000  0.00000000  0.00000000  1
  O  O2  1  0.49999300  0.74999700  0.75001000  1
  O  O3  1  0.50000700  0.25000300  0.24999000  1
