# generated using pymatgen
data_MoO2
_symmetry_space_group_name_H-M   'P 1'
_cell_length_a   6.49370659
_cell_length_b   6.41884888
_cell_length_c   6.23615796
_cell_angle_alpha   61.72556039
_cell_angle_beta   60.52103475
_cell_angle_gamma   57.75340486
_symmetry_Int_Tables_number   1
_chemical_formula_structural   MoO2
_chemical_formula_sum   'Mo4 O8'
_cell_volume   183.34467321
_cell_formula_units_Z   4
loop_
 _symmetry_equiv_pos_site_id
 _symmetry_equiv_pos_as_xyz
  1  'x, y, z'
loop_
 _atom_site_type_symbol
 _atom_site_label
 _atom_site_symmetry_multiplicity
 _atom_site_fract_x
 _atom_site_fract_y
 _atom_site_fract_z
 _atom_site_occupancy
  Mo  Mo0  1  0.12500000  0.12500000  0.62500000  1
  Mo  Mo1  1  0.62500000  0.12500000  0.12500000  1
  Mo  Mo2  1  0.12500000  0.62500000  0.12500000  1
  Mo  Mo3  1  0.12500000  0.12500000  0.12500000  1
  O  O4  1  0.34493200  0.35616000  0.36361400  1
  O  O5  1  0.35616000  0.34493200  0.93529400  1
  O  O6  1  0.90506800  0.89384000  0.88638600  1
  O  O7  1  0.31470600  0.88638600  0.89384000  1
  O  O8  1  0.89384000  0.90506800  0.31470600  1
  O  O9  1  0.88638600  0.31470600  0.90506800  1
  O  O10  1  0.93529400  0.36361400  0.35616000  1
  O  O11  1  0.36361400  0.93529400  0.34493200  1
