# generated using pymatgen
data_NaH18C9I(NO)3
_symmetry_space_group_name_H-M   'P 1'
_cell_length_a   9.07958700
_cell_length_b   11.64146489
_cell_length_c   11.83679671
_cell_angle_alpha   61.06494190
_cell_angle_beta   87.67374257
_cell_angle_gamma   88.05893905
_symmetry_Int_Tables_number   1
_chemical_formula_structural   NaH18C9I(NO)3
_chemical_formula_sum   'Na2 H36 C18 I2 N6 O6'
_cell_volume   1093.91626654
_cell_formula_units_Z   2
loop_
 _symmetry_equiv_pos_site_id
 _symmetry_equiv_pos_as_xyz
  1  'x, y, z'
loop_
 _atom_site_type_symbol
 _atom_site_label
 _atom_site_symmetry_multiplicity
 _atom_site_fract_x
 _atom_site_fract_y
 _atom_site_fract_z
 _atom_site_occupancy
  Na  Na0  1  0.05932000  0.00957000  0.01548500  1
  Na  Na1  1  0.45190000  0.01004500  0.01761700  1
  H  H2  1  0.75337700  0.74468700  0.87764400  1
  H  H3  1  0.75101800  0.38215200  0.75714600  1
  H  H4  1  0.17802100  0.53927200  0.61630500  1
  H  H5  1  0.78496300  0.90263500  0.37484400  1
  H  H6  1  0.24453300  0.23169200  0.62810300  1
  H  H7  1  0.15151300  0.74595600  0.40464000  1
  H  H8  1  0.34774200  0.74274900  0.40234900  1
  H  H9  1  0.38236800  0.51770700  0.60349400  1
  H  H10  1  0.00686200  0.49903100  0.54107300  1
  H  H11  1  0.25225100  0.81033300  0.25369100  1
  H  H12  1  0.84910300  0.12614600  0.39675600  1
  H  H13  1  0.65125000  0.18235800  0.38225200  1
  H  H14  1  0.64893800  0.14264100  0.60235300  1
  H  H15  1  0.85323900  0.14290200  0.59707400  1
  H  H16  1  0.74762500  0.74938500  0.18851900  1
  H  H17  1  0.53782500  0.63947300  0.22984600  1
  H  H18  1  0.96137100  0.63371100  0.22811200  1
  H  H19  1  0.63174000  0.59593300  0.26572000  1
  H  H20  1  0.87171900  0.59651600  0.26120500  1
  H  H21  1  0.24842300  0.03437800  0.44471000  1
  H  H22  1  0.34716300  0.88030800  0.51902000  1
  H  H23  1  0.15031600  0.88240400  0.52311900  1
  H  H24  1  0.89625200  0.37865700  0.28521200  1
  H  H25  1  0.60205600  0.38858200  0.28607400  1
  H  H26  1  0.25179500  0.62848300  0.12688700  1
  H  H27  1  0.87498400  0.37923400  0.34703100  1
  H  H28  1  0.62327200  0.38532900  0.34803000  1
  H  H29  1  0.35082100  0.58292400  0.87972600  1
  H  H30  1  0.15293800  0.58602000  0.88180700  1
  H  H31  1  0.24971600  0.12919500  0.23752500  1
  H  H32  1  0.91712400  0.28849500  0.11133500  1
  H  H33  1  0.67985600  0.29724300  0.13596100  1
  H  H34  1  0.24900800  0.51728800  0.03086000  1
  H  H35  1  0.54319200  0.19322500  0.13213100  1
  H  H36  1  0.98866300  0.25450800  0.13834000  1
  H  H37  1  0.72024300  0.19986300  0.05920000  1
  C  C38  1  0.75023000  0.76417600  0.96054400  1
  C  C39  1  0.25073500  0.59363400  0.92868600  1
  C  C40  1  0.24770500  0.83503300  0.80789300  1
  C  C41  1  0.28040600  0.38918800  0.80551500  1
  C  C42  1  0.24874500  0.93149000  0.46493100  1
  C  C43  1  0.75147400  0.27888400  0.77554200  1
  C  C44  1  0.24352800  0.22270400  0.72603800  1
  C  C45  1  0.27760500  0.48056200  0.65675600  1
  C  C46  1  0.75292000  0.97740600  0.27645300  1
  C  C47  1  0.25044300  0.79911100  0.35107400  1
  C  C48  1  0.74664200  0.34604400  0.53457700  1
  C  C49  1  0.74986800  0.19190000  0.59889800  1
  C  C50  1  0.74658500  0.64721500  0.20545800  1
  C  C51  1  0.73854900  0.12727600  0.36375500  1
  C  C52  1  0.24874100  0.72805500  0.04060900  1
  C  C53  1  0.75173600  0.53068500  0.08008900  1
  C  C54  1  0.25027300  0.03797100  0.23042200  1
  C  C55  1  0.66158500  0.20270700  0.14119200  1
  I  I56  1  0.75861400  0.65504900  0.66904800  1
  I  I57  1  0.25148800  0.35017700  0.34023600  1
  N  N58  1  0.24897800  0.72625900  0.91991400  1
  N  N59  1  0.25951100  0.34091700  0.72658900  1
  N  N60  1  0.24984100  0.92814900  0.34340200  1
  N  N61  1  0.74727600  0.27252900  0.66051100  1
  N  N62  1  0.75177100  0.64234700  0.08350800  1
  N  N63  1  0.71802100  0.09734200  0.26425000  1
  O  O64  1  0.74305700  0.87133700  0.95509400  1
  O  O65  1  0.75558700  0.17885000  0.88045200  1
  O  O66  1  0.23125700  0.11921900  0.82849000  1
  O  O67  1  0.74520200  0.95163000  0.18570900  1
  O  O68  1  0.24519200  0.82999900  0.04730100  1
  O  O69  1  0.25133500  0.04082400  0.12176400  1
