# generated using pymatgen
data_Ca6La14Mg7Ti13O60
_symmetry_space_group_name_H-M   'P 1'
_cell_length_a   5.56732600
_cell_length_b   5.60201898
_cell_length_c   39.41593456
_cell_angle_alpha   89.87129016
_cell_angle_beta   89.97640339
_cell_angle_gamma   89.61421840
_symmetry_Int_Tables_number   1
_chemical_formula_structural   Ca6La14Mg7Ti13O60
_chemical_formula_sum   'Ca6 La14 Mg7 Ti13 O60'
_cell_volume   1229.28358528
_cell_formula_units_Z   1
loop_
 _symmetry_equiv_pos_site_id
 _symmetry_equiv_pos_as_xyz
  1  'x, y, z'
loop_
 _atom_site_type_symbol
 _atom_site_label
 _atom_site_symmetry_multiplicity
 _atom_site_fract_x
 _atom_site_fract_y
 _atom_site_fract_z
 _atom_site_occupancy
  Ca  Ca0  1  0.51371000  0.54096200  0.35152500  1
  Ca  Ca1  1  0.51246400  0.53917100  0.15213900  1
  Ca  Ca2  1  0.00818200  0.96434500  0.24949300  1
  Ca  Ca3  1  0.00823500  0.96598000  0.44916800  1
  Ca  Ca4  1  0.99962200  0.96944000  0.65387600  1
  Ca  Ca5  1  0.99956400  0.96877700  0.84728300  1
  La  La6  1  0.99433700  0.02640200  0.15349600  1
  La  La7  1  0.99413300  0.02614700  0.35263400  1
  La  La8  1  0.99634400  0.02495200  0.55458500  1
  La  La9  1  0.00027100  0.02498000  0.75064500  1
  La  La10  1  0.00319000  0.02201300  0.94487500  1
  La  La11  1  0.50840500  0.53020600  0.55312700  1
  La  La12  1  0.51565100  0.54400200  0.75059200  1
  La  La13  1  0.51111100  0.54108400  0.94696200  1
  La  La14  1  0.49122200  0.47075400  0.04764800  1
  La  La15  1  0.49024200  0.46368800  0.24809200  1
  La  La16  1  0.49018800  0.44760000  0.65283900  1
  La  La17  1  0.49136300  0.46522700  0.44723500  1
  La  La18  1  0.48878400  0.44644200  0.84826100  1
  La  La19  1  0.00369700  0.97441300  0.04675000  1
  Mg  Mg20  1  0.49978600  0.00058500  0.99869000  1
  Mg  Mg21  1  0.49975700  0.99826200  0.20067500  1
  Mg  Mg22  1  0.50150700  0.99792200  0.60233700  1
  Mg  Mg23  1  0.50035500  0.99880200  0.89813800  1
  Mg  Mg24  1  0.49942400  0.99869700  0.39985700  1
  Mg  Mg25  1  0.50030000  0.99686400  0.69970600  1
  Mg  Mg26  1  0.50006300  0.99726100  0.80078400  1
  Ti  Ti27  1  0.00046800  0.49775500  0.99744500  1
  Ti  Ti28  1  0.99651700  0.49789600  0.10103500  1
  Ti  Ti29  1  0.99917900  0.50102800  0.20059800  1
  Ti  Ti30  1  0.99618000  0.49589200  0.30080100  1
  Ti  Ti31  1  0.99906500  0.50114100  0.40025700  1
  Ti  Ti32  1  0.99698800  0.49882000  0.50026300  1
  Ti  Ti33  1  0.99988700  0.50261500  0.60357500  1
  Ti  Ti34  1  0.00414500  0.50095800  0.70118800  1
  Ti  Ti35  1  0.00333600  0.50061900  0.80010000  1
  Ti  Ti36  1  0.99899800  0.50102400  0.89616000  1
  Ti  Ti37  1  0.49691200  0.99667200  0.10106100  1
  Ti  Ti38  1  0.49584700  0.99291800  0.29961900  1
  Ti  Ti39  1  0.49698400  0.99712500  0.49884700  1
  O  O40  1  0.92014700  0.51245300  0.05294300  1
  O  O41  1  0.91756800  0.52106500  0.25079200  1
  O  O42  1  0.91862900  0.52120700  0.44991500  1
  O  O43  1  0.91589900  0.52574900  0.64889800  1
  O  O44  1  0.91249900  0.52617900  0.85031500  1
  O  O45  1  0.78448600  0.77112400  0.19126600  1
  O  O46  1  0.77355700  0.77362300  0.10929900  1
  O  O47  1  0.77493100  0.77340100  0.30889100  1
  O  O48  1  0.78510400  0.77128000  0.39068200  1
  O  O49  1  0.77243800  0.76962100  0.50813700  1
  O  O50  1  0.77844200  0.76429600  0.58868800  1
  O  O51  1  0.78852500  0.77016400  0.70908900  1
  O  O52  1  0.78754000  0.76959900  0.79064400  1
  O  O53  1  0.78170300  0.76486800  0.91044100  1
  O  O54  1  0.78751700  0.76966500  0.99373500  1
  O  O55  1  0.72732400  0.29084700  0.19099400  1
  O  O56  1  0.72775800  0.28269400  0.30930200  1
  O  O57  1  0.72782500  0.29136800  0.39051400  1
  O  O58  1  0.72971200  0.27584100  0.10981000  1
  O  O59  1  0.73481900  0.28570600  0.58880000  1
  O  O60  1  0.73022900  0.27835900  0.50800000  1
  O  O61  1  0.73187000  0.29010000  0.91076100  1
  O  O62  1  0.72958100  0.29345700  0.70931100  1
  O  O63  1  0.73063200  0.29242500  0.79058400  1
  O  O64  1  0.73555500  0.28321200  0.99410400  1
  O  O65  1  0.57772800  0.01519400  0.05295800  1
  O  O66  1  0.58944300  0.02407400  0.25261300  1
  O  O67  1  0.59821500  0.04246000  0.65013700  1
  O  O68  1  0.58986200  0.02261500  0.45184500  1
  O  O69  1  0.59814300  0.04181700  0.84994600  1
  O  O70  1  0.41779400  0.97985000  0.34730000  1
  O  O71  1  0.41821500  0.97916500  0.14818700  1
  O  O72  1  0.42500200  0.98850900  0.54692700  1
  O  O73  1  0.40784700  0.97207600  0.75010600  1
  O  O74  1  0.41104800  0.97190200  0.94979400  1
  O  O75  1  0.26480300  0.71744800  0.01093300  1
  O  O76  1  0.26870400  0.72959200  0.09131300  1
  O  O77  1  0.26751500  0.71342400  0.20845900  1
  O  O78  1  0.27365500  0.72607000  0.29026900  1
  O  O79  1  0.26770800  0.71260800  0.60543500  1
  O  O80  1  0.26793200  0.71372100  0.40792100  1
  O  O81  1  0.27488100  0.72555600  0.49025400  1
  O  O82  1  0.26686800  0.70887700  0.89262100  1
  O  O83  1  0.26864800  0.70890900  0.69042200  1
  O  O84  1  0.26826400  0.70847600  0.80922100  1
  O  O85  1  0.22233900  0.23517900  0.01096700  1
  O  O86  1  0.22532100  0.22647000  0.09173800  1
  O  O87  1  0.20628100  0.22464800  0.20918600  1
  O  O88  1  0.22121300  0.22477300  0.29046000  1
  O  O89  1  0.20671100  0.22508900  0.40867600  1
  O  O90  1  0.22821100  0.22748400  0.49002300  1
  O  O91  1  0.20724500  0.22744700  0.60630000  1
  O  O92  1  0.20722100  0.22895000  0.69021800  1
  O  O93  1  0.20373500  0.22616100  0.89193900  1
  O  O94  1  0.20646300  0.22818900  0.80949200  1
  O  O95  1  0.08995500  0.48392600  0.14934500  1
  O  O96  1  0.09087200  0.48417800  0.34835400  1
  O  O97  1  0.08026200  0.48798600  0.54675900  1
  O  O98  1  0.08801300  0.48425000  0.74987300  1
  O  O99  1  0.08318200  0.48518300  0.95173900  1
