# generated using pymatgen
data_NaCa4Ti4Nb(SiO5)5
_symmetry_space_group_name_H-M   'P 1'
_cell_length_a   5.51448000
_cell_length_b   5.53124527
_cell_length_c   32.86014942
_cell_angle_alpha   91.62706457
_cell_angle_beta   91.53822422
_cell_angle_gamma   105.28628048
_symmetry_Int_Tables_number   1
_chemical_formula_structural   NaCa4Ti4Nb(SiO5)5
_chemical_formula_sum   'Na2 Ca8 Ti8 Nb2 Si10 O50'
_cell_volume   965.83507902
_cell_formula_units_Z   2
loop_
 _symmetry_equiv_pos_site_id
 _symmetry_equiv_pos_as_xyz
  1  'x, y, z'
loop_
 _atom_site_type_symbol
 _atom_site_label
 _atom_site_symmetry_multiplicity
 _atom_site_fract_x
 _atom_site_fract_y
 _atom_site_fract_z
 _atom_site_occupancy
  Na  Na0  1  0.67322100  0.33288400  0.25390000  1
  Na  Na1  1  0.27089600  0.93255400  0.45464300  1
  Ca  Ca2  1  0.07264600  0.72761600  0.04874700  1
  Ca  Ca3  1  0.87029200  0.52678300  0.64983500  1
  Ca  Ca4  1  0.52960300  0.87312100  0.14676600  1
  Ca  Ca5  1  0.47233400  0.12773900  0.84989300  1
  Ca  Ca6  1  0.13214800  0.47067200  0.34624100  1
  Ca  Ca7  1  0.73054000  0.07001700  0.54882200  1
  Ca  Ca8  1  0.32858500  0.67262900  0.74957000  1
  Ca  Ca9  1  0.92921800  0.27391800  0.94909300  1
  Ti  Ti10  1  0.50318100  0.50082400  0.99824900  1
  Ti  Ti11  1  0.30144300  0.30232500  0.09732300  1
  Ti  Ti12  1  0.89611900  0.89347900  0.30093900  1
  Ti  Ti13  1  0.49236600  0.49059000  0.50338200  1
  Ti  Ti14  1  0.29542300  0.29377800  0.60144100  1
  Ti  Ti15  1  0.09725400  0.09907000  0.70030300  1
  Ti  Ti16  1  0.90160300  0.89920300  0.79954500  1
  Ti  Ti17  1  0.70029900  0.70283200  0.89892400  1
  Nb  Nb18  1  0.10326800  0.10967100  0.20034800  1
  Nb  Nb19  1  0.69663400  0.70381900  0.40277300  1
  Si  Si20  1  0.88031200  0.52095800  0.14704500  1
  Si  Si21  1  0.48120100  0.11787500  0.34870600  1
  Si  Si22  1  0.08043100  0.71626300  0.55164300  1
  Si  Si23  1  0.72081100  0.08086600  0.04855800  1
  Si  Si24  1  0.67930000  0.31865700  0.75049300  1
  Si  Si25  1  0.32314000  0.68804600  0.25070900  1
  Si  Si26  1  0.28071800  0.92011100  0.94952300  1
  Si  Si27  1  0.92004300  0.28471000  0.45248600  1
  Si  Si28  1  0.51723500  0.87765300  0.65078000  1
  Si  Si29  1  0.11931900  0.47992300  0.84985200  1
  O  O30  1  0.71397600  0.83826900  0.01787400  1
  O  O31  1  0.14086800  0.56908400  0.12107700  1
  O  O32  1  0.30853400  0.44954600  0.21829900  1
  O  O33  1  0.33105100  0.46771500  0.04858300  1
  O  O34  1  0.64130300  0.51638200  0.11580200  1
  O  O35  1  0.83725000  0.25946000  0.17219300  1
  O  O36  1  0.74834700  0.16342200  0.32501900  1
  O  O37  1  0.90394200  0.04449300  0.42035400  1
  O  O38  1  0.92939200  0.06582500  0.24922900  1
  O  O39  1  0.76684600  0.33753300  0.02188000  1
  O  O40  1  0.24178400  0.11329200  0.31754300  1
  O  O41  1  0.96137400  0.08844900  0.08005500  1
  O  O42  1  0.43490100  0.85597100  0.37419200  1
  O  O43  1  0.27968600  0.13733700  0.14797500  1
  O  O44  1  0.34501100  0.75906400  0.52728500  1
  O  O45  1  0.46234900  0.03513100  0.07507700  1
  O  O46  1  0.50876900  0.63362400  0.62029500  1
  O  O47  1  0.52641300  0.66431000  0.45154000  1
  O  O48  1  0.36293800  0.93456500  0.22155200  1
  O  O49  1  0.83787400  0.70843000  0.52078400  1
  O  O50  1  0.56259500  0.69900800  0.28172000  1
  O  O51  1  0.03219100  0.45929700  0.57877900  1
  O  O52  1  0.87742900  0.73148100  0.34968500  1
  O  O53  1  0.88619400  0.76099900  0.17829700  1
  O  O54  1  0.93710700  0.36372300  0.72384000  1
  O  O55  1  0.06917300  0.64294100  0.27758600  1
  O  O56  1  0.11183600  0.23686000  0.81913500  1
  O  O57  1  0.12846200  0.26541800  0.65124600  1
  O  O58  1  0.95854000  0.53176200  0.42355100  1
  O  O59  1  0.43659100  0.30965000  0.71953100  1
  O  O60  1  0.16103500  0.29679100  0.48326400  1
  O  O61  1  0.63455200  0.06219200  0.77736400  1
  O  O62  1  0.46515100  0.32441300  0.55175800  1
  O  O63  1  0.48430000  0.35855300  0.38001600  1
  O  O64  1  0.53833800  0.96588800  0.92277900  1
  O  O65  1  0.66748500  0.24153800  0.47983500  1
  O  O66  1  0.73111300  0.86729500  0.85010500  1
  O  O67  1  0.56214700  0.13536900  0.62446600  1
  O  O68  1  0.03852800  0.91199400  0.91850100  1
  O  O69  1  0.75928500  0.88564500  0.68203100  1
  O  O70  1  0.23559200  0.66333700  0.97623500  1
  O  O71  1  0.06662000  0.93004200  0.75057300  1
  O  O72  1  0.08508700  0.95879400  0.58275900  1
  O  O73  1  0.25973800  0.83298400  0.67772000  1
  O  O74  1  0.16488300  0.73638900  0.82306100  1
  O  O75  1  0.36074200  0.48775500  0.88109600  1
  O  O76  1  0.66781200  0.53140400  0.94941400  1
  O  O77  1  0.68623400  0.56112500  0.78140100  1
  O  O78  1  0.86157200  0.43503900  0.87660400  1
  O  O79  1  0.28747500  0.16182300  0.98050600  1
