# generated using pymatgen
data_Sr20P12Cl(O16F)3
_symmetry_space_group_name_H-M   'P 1'
_cell_length_a   7.35995200
_cell_length_b   9.90469101
_cell_length_c   17.15408517
_cell_angle_alpha   90.00811633
_cell_angle_beta   90.00065799
_cell_angle_gamma   90.00231967
_symmetry_Int_Tables_number   1
_chemical_formula_structural   Sr20P12Cl(O16F)3
_chemical_formula_sum   'Sr20 P12 Cl1 O48 F3'
_cell_volume   1250.49935178
_cell_formula_units_Z   1
loop_
 _symmetry_equiv_pos_site_id
 _symmetry_equiv_pos_as_xyz
  1  'x, y, z'
loop_
 _atom_site_type_symbol
 _atom_site_label
 _atom_site_symmetry_multiplicity
 _atom_site_fract_x
 _atom_site_fract_y
 _atom_site_fract_z
 _atom_site_occupancy
  Sr  Sr0  1  0.75481300  0.26857400  0.00594200  1
  Sr  Sr1  1  0.75054200  0.38375700  0.37431200  1
  Sr  Sr2  1  0.49795700  0.49907600  0.16684800  1
  Sr  Sr3  1  0.00208400  0.49840300  0.16741700  1
  Sr  Sr4  1  0.25013900  0.63082100  0.37921100  1
  Sr  Sr5  1  0.74987900  0.74702600  0.50559800  1
  Sr  Sr6  1  0.75411100  0.85704900  0.13190000  1
  Sr  Sr7  1  0.75376700  0.87500800  0.86202000  1
  Sr  Sr8  1  0.50105900  0.00378300  0.33305600  1
  Sr  Sr9  1  0.00152700  0.00161900  0.66597300  1
  Sr  Sr10  1  0.00105100  0.00216500  0.33468200  1
  Sr  Sr11  1  0.49843500  0.00099300  0.66646500  1
  Sr  Sr12  1  0.25459300  0.11551700  0.12538200  1
  Sr  Sr13  1  0.25448500  0.12980400  0.87932400  1
  Sr  Sr14  1  0.25024300  0.25240000  0.49537000  1
  Sr  Sr15  1  0.75044000  0.36780000  0.62057600  1
  Sr  Sr16  1  0.00277200  0.49773400  0.83188300  1
  Sr  Sr17  1  0.50171700  0.49665100  0.83377200  1
  Sr  Sr18  1  0.25013700  0.61641000  0.62563700  1
  Sr  Sr19  1  0.25400400  0.75499500  0.99504800  1
  P  P20  1  0.25004200  0.33168500  0.30117400  1
  P  P21  1  0.25073600  0.38531000  0.01582700  1
  P  P22  1  0.75016400  0.71311600  0.31851700  1
  P  P23  1  0.25084200  0.78402400  0.18506300  1
  P  P24  1  0.25083000  0.83069700  0.79934900  1
  P  P25  1  0.25018500  0.88277500  0.51508800  1
  P  P26  1  0.74998800  0.11699300  0.48494700  1
  P  P27  1  0.75034000  0.16771700  0.20075900  1
  P  P28  1  0.75036300  0.21684600  0.81563200  1
  P  P29  1  0.25018000  0.28561400  0.68348300  1
  P  P30  1  0.75048900  0.61927900  0.98291600  1
  P  P31  1  0.75022700  0.66608800  0.69719900  1
  Cl  Cl32  1  0.64655700  0.00026500  0.00008600  1
  O  O33  1  0.42324700  0.30712900  0.04274600  1
  O  O34  1  0.08141600  0.30377900  0.04316100  1
  O  O35  1  0.24959400  0.32690100  0.21010500  1
  O  O36  1  0.74895800  0.31273300  0.16481000  1
  O  O37  1  0.42160300  0.41124800  0.32798500  1
  O  O38  1  0.07915800  0.41184600  0.32814500  1
  O  O39  1  0.24845700  0.52417500  0.05885800  1
  O  O40  1  0.75033300  0.59327500  0.25944800  1
  O  O41  1  0.74942400  0.59336200  0.07284400  1
  O  O42  1  0.24921100  0.64975400  0.23278300  1
  O  O43  1  0.57913100  0.70929300  0.37146100  1
  O  O44  1  0.92099600  0.70940800  0.37164100  1
  O  O45  1  0.08089500  0.78411100  0.13101700  1
  O  O46  1  0.42303700  0.78308500  0.13234500  1
  O  O47  1  0.07891100  0.80243300  0.54145000  1
  O  O48  1  0.42114000  0.80222000  0.54156400  1
  O  O49  1  0.24910500  0.82638100  0.70837800  1
  O  O50  1  0.75016200  0.81441400  0.66657200  1
  O  O51  1  0.75057800  0.85063000  0.27390300  1
  O  O52  1  0.25043600  0.90354700  0.42500900  1
  O  O53  1  0.42278800  0.91054500  0.82524200  1
  O  O54  1  0.08114900  0.91201600  0.82648000  1
  O  O55  1  0.24979000  0.90949500  0.23979600  1
  O  O56  1  0.75001900  0.97841500  0.44156400  1
  O  O57  1  0.25016400  0.02151500  0.55852400  1
  O  O58  1  0.74872800  0.09022400  0.76125200  1
  O  O59  1  0.91851700  0.08645100  0.17169100  1
  O  O60  1  0.57495300  0.08795300  0.17980600  1
  O  O61  1  0.74969300  0.09624900  0.57507400  1
  O  O62  1  0.24950800  0.15139600  0.73131800  1
  O  O63  1  0.24992900  0.18655700  0.33627600  1
  O  O64  1  0.75849300  0.17492500  0.29180100  1
  O  O65  1  0.92123100  0.19771900  0.45885400  1
  O  O66  1  0.57916100  0.19786500  0.45848100  1
  O  O67  1  0.91884000  0.21376900  0.87066600  1
  O  O68  1  0.57508500  0.22545200  0.86611300  1
  O  O69  1  0.42143200  0.28579100  0.63010500  1
  O  O70  1  0.07947200  0.28594300  0.62977500  1
  O  O71  1  0.75846700  0.34961000  0.76640300  1
  O  O72  1  0.24961000  0.40378000  0.92571000  1
  O  O73  1  0.25045200  0.41080600  0.73848300  1
  O  O74  1  0.75966500  0.48193500  0.93797300  1
  O  O75  1  0.92127600  0.58844900  0.66876500  1
  O  O76  1  0.57924000  0.58829600  0.66888900  1
  O  O77  1  0.24992400  0.68588600  0.83466200  1
  O  O78  1  0.75064700  0.66451600  0.78824000  1
  O  O79  1  0.91822300  0.70463900  0.95848800  1
  O  O80  1  0.57449400  0.69047500  0.95493500  1
  F  F81  1  0.22179000  0.00051100  0.00005100  1
  F  F82  1  0.75012100  0.49962900  0.49995300  1
  F  F83  1  0.25004700  0.49946700  0.49994700  1
