# generated using pymatgen
data_Na2B5H5O12
_symmetry_space_group_name_H-M   'P 1'
_cell_length_a   6.62941500
_cell_length_b   8.62914801
_cell_length_c   9.64737516
_cell_angle_alpha   71.71634213
_cell_angle_beta   76.85328845
_cell_angle_gamma   72.04839873
_symmetry_Int_Tables_number   1
_chemical_formula_structural   Na2B5H5O12
_chemical_formula_sum   'Na4 B10 H10 O24'
_cell_volume   493.26611588
_cell_formula_units_Z   2
loop_
 _symmetry_equiv_pos_site_id
 _symmetry_equiv_pos_as_xyz
  1  'x, y, z'
loop_
 _atom_site_type_symbol
 _atom_site_label
 _atom_site_symmetry_multiplicity
 _atom_site_fract_x
 _atom_site_fract_y
 _atom_site_fract_z
 _atom_site_occupancy
  Na  Na0  1  0.96076800  0.90360600  0.36589500  1
  Na  Na1  1  0.03923200  0.09639400  0.63410500  1
  Na  Na2  1  0.43369300  0.58592700  0.15539000  1
  Na  Na3  1  0.56630700  0.41407300  0.84461000  1
  B  B4  1  0.85419700  0.33429500  0.16100000  1
  B  B5  1  0.14580300  0.66570500  0.83900000  1
  B  B6  1  0.18147700  0.25641500  0.28532200  1
  B  B7  1  0.81852300  0.74358500  0.71467800  1
  B  B8  1  0.84635700  0.46277800  0.35971900  1
  B  B9  1  0.15364300  0.53722200  0.64028100  1
  B  B10  1  0.37418100  0.95331000  0.37126600  1
  B  B11  1  0.62581900  0.04669000  0.62873400  1
  B  B12  1  0.58185300  0.15786600  0.26323600  1
  B  B13  1  0.41814700  0.84213400  0.73676400  1
  H  H14  1  0.84103500  0.51260100  0.95781400  1
  H  H15  1  0.15896500  0.48739900  0.04218600  1
  H  H16  1  0.81435000  0.58362100  0.51519700  1
  H  H17  1  0.18565000  0.41637900  0.48480300  1
  H  H18  1  0.49590900  0.70337900  0.42376100  1
  H  H19  1  0.50409100  0.29662100  0.57623900  1
  H  H20  1  0.71866200  0.80337200  0.97638500  1
  H  H21  1  0.28133800  0.19662800  0.02361500  1
  H  H22  1  0.07890000  0.75327900  0.06971100  1
  H  H23  1  0.92110000  0.24672100  0.93028900  1
  O  O24  1  0.78569200  0.17697300  0.22411400  1
  O  O25  1  0.21430800  0.82302700  0.77588600  1
  O  O26  1  0.79058900  0.40929200  0.01233800  1
  O  O27  1  0.20941100  0.59070800  0.98766200  1
  O  O28  1  0.08819500  0.30157700  0.15000400  1
  O  O29  1  0.91180500  0.69842300  0.84999600  1
  O  O30  1  0.74732900  0.45541600  0.25329600  1
  O  O31  1  0.25267100  0.54458400  0.74670400  1
  O  O32  1  0.73381800  0.57226500  0.44473700  1
  O  O33  1  0.26618200  0.42773500  0.55526300  1
  O  O34  1  0.05110300  0.36632700  0.38468200  1
  O  O35  1  0.94889700  0.63367300  0.61531800  1
  O  O36  1  0.18667600  0.07894700  0.36897800  1
  O  O37  1  0.81332400  0.92105300  0.63102200  1
  O  O38  1  0.39836700  0.28548400  0.24545500  1
  O  O39  1  0.60163300  0.71451600  0.75454500  1
  O  O40  1  0.35530900  0.79147200  0.41498700  1
  O  O41  1  0.64469100  0.20852800  0.58501300  1
  O  O42  1  0.57421900  0.98877600  0.33085300  1
  O  O43  1  0.42578100  0.01122400  0.66914700  1
  O  O44  1  0.58939200  0.82891800  0.05360000  1
  O  O45  1  0.41060800  0.17108200  0.94640000  1
  O  O46  1  0.02799200  0.81205300  0.15158700  1
  O  O47  1  0.97200800  0.18794700  0.84841300  1
