# generated using pymatgen
data_H6Os5Pt2(CO)17
_symmetry_space_group_name_H-M   'P 1'
_cell_length_a   16.41071100
_cell_length_b   9.70148300
_cell_length_c   19.55722500
_cell_angle_alpha   88.82020609
_cell_angle_beta   90.00000000
_cell_angle_gamma   90.00000000
_symmetry_Int_Tables_number   1
_chemical_formula_structural   H6Os5Pt2(CO)17
_chemical_formula_sum   'H24 Os20 Pt8 C68 O68'
_cell_volume   3113.01117264
_cell_formula_units_Z   4
loop_
 _symmetry_equiv_pos_site_id
 _symmetry_equiv_pos_as_xyz
  1  'x, y, z'
loop_
 _atom_site_type_symbol
 _atom_site_label
 _atom_site_symmetry_multiplicity
 _atom_site_fract_x
 _atom_site_fract_y
 _atom_site_fract_z
 _atom_site_occupancy
  H  H0  1  0.59502800  0.55900000  0.08679700  1
  H  H1  1  0.90497200  0.05900000  0.58679700  1
  H  H2  1  0.40497200  0.44100000  0.91320300  1
  H  H3  1  0.09502800  0.94100000  0.41320300  1
  H  H4  1  0.45268100  0.48278900  0.13058000  1
  H  H5  1  0.04731900  0.98278900  0.63058000  1
  H  H6  1  0.54731900  0.51721100  0.86942000  1
  H  H7  1  0.95268100  0.01721100  0.36942000  1
  H  H8  1  0.56285100  0.29936400  0.08061200  1
  H  H9  1  0.93714900  0.79936400  0.58061200  1
  H  H10  1  0.43714900  0.70063600  0.91938800  1
  H  H11  1  0.06285100  0.20063600  0.41938800  1
  H  H12  1  0.63133200  0.23083600  0.26128100  1
  H  H13  1  0.86866800  0.73083600  0.76128100  1
  H  H14  1  0.36866800  0.76916400  0.73871900  1
  H  H15  1  0.13133200  0.26916400  0.23871900  1
  H  H16  1  0.65480400  0.52231800  0.27625700  1
  H  H17  1  0.84519600  0.02231800  0.77625700  1
  H  H18  1  0.34519600  0.47768200  0.72374300  1
  H  H19  1  0.15480400  0.97768200  0.22374300  1
  H  H20  1  0.71424000  0.31295100  0.34019700  1
  H  H21  1  0.78576000  0.81295100  0.84019700  1
  H  H22  1  0.28576000  0.68704900  0.65980300  1
  H  H23  1  0.21424000  0.18704900  0.15980300  1
  Os  Os24  1  0.64799600  0.39958700  0.11143400  1
  Os  Os25  1  0.85200400  0.89958700  0.61143400  1
  Os  Os26  1  0.35200400  0.60041300  0.88856600  1
  Os  Os27  1  0.14799600  0.10041300  0.38856600  1
  Os  Os28  1  0.53102500  0.59904900  0.15899800  1
  Os  Os29  1  0.96897500  0.09904900  0.65899800  1
  Os  Os30  1  0.46897500  0.40095100  0.84100200  1
  Os  Os31  1  0.03102500  0.90095100  0.34100200  1
  Os  Os32  1  0.48550500  0.30430100  0.14729400  1
  Os  Os33  1  0.01449500  0.80430100  0.64729400  1
  Os  Os34  1  0.51449500  0.69569900  0.85270600  1
  Os  Os35  1  0.98550500  0.19569900  0.35270600  1
  Os  Os36  1  0.63184800  0.19050400  0.35183200  1
  Os  Os37  1  0.86815200  0.69050400  0.85183200  1
  Os  Os38  1  0.36815200  0.80949600  0.64816800  1
  Os  Os39  1  0.13184800  0.30949600  0.14816800  1
  Os  Os40  1  0.68250600  0.48341700  0.36594400  1
  Os  Os41  1  0.81749400  0.98341700  0.86594400  1
  Os  Os42  1  0.31749400  0.51658300  0.63405600  1
  Os  Os43  1  0.18250600  0.01658300  0.13405600  1
  Pt  Pt44  1  0.59227500  0.39560800  0.24438100  1
  Pt  Pt45  1  0.90772500  0.89560800  0.74438100  1
  Pt  Pt46  1  0.40772500  0.60439200  0.75561900  1
  Pt  Pt47  1  0.09227500  0.10439200  0.25561900  1
  Pt  Pt48  1  0.52719800  0.39454000  0.39037400  1
  Pt  Pt49  1  0.97280200  0.89454000  0.89037400  1
  Pt  Pt50  1  0.47280200  0.60546000  0.60962600  1
  Pt  Pt51  1  0.02719800  0.10546000  0.10962600  1
  C  C52  1  0.43632400  0.27924200  0.41339300  1
  C  C53  1  0.06367600  0.77924200  0.91339300  1
  C  C54  1  0.56367600  0.72075800  0.58660700  1
  C  C55  1  0.93632400  0.22075800  0.08660700  1
  C  C56  1  0.48757600  0.57346500  0.41246300  1
  C  C57  1  0.01242400  0.07346500  0.91246300  1
  C  C58  1  0.51242400  0.42653500  0.58753700  1
  C  C59  1  0.98757600  0.92653500  0.08753700  1
  C  C60  1  0.68391600  0.40219600  0.01895500  1
  C  C61  1  0.81608400  0.90219600  0.51895500  1
  C  C62  1  0.31608400  0.59780400  0.98104500  1
  C  C63  1  0.18391600  0.09780400  0.48104500  1
  C  C64  1  0.69869000  0.22537000  0.13025800  1
  C  C65  1  0.80131000  0.72537000  0.63025800  1
  C  C66  1  0.30131000  0.77463000  0.86974200  1
  C  C67  1  0.19869000  0.27463000  0.36974200  1
  C  C68  1  0.74191900  0.49956500  0.14082300  1
  C  C69  1  0.75808100  0.99956500  0.64082300  1
  C  C70  1  0.25808100  0.50043500  0.85917700  1
  C  C71  1  0.24191900  0.00043500  0.35917700  1
  C  C72  1  0.48357300  0.72701200  0.09474100  1
  C  C73  1  0.01642700  0.22701200  0.59474100  1
  C  C74  1  0.51642700  0.27298800  0.90525900  1
  C  C75  1  0.98357300  0.77298800  0.40525900  1
  C  C76  1  0.45686300  0.64189100  0.23102100  1
  C  C77  1  0.04313700  0.14189100  0.73102100  1
  C  C78  1  0.54313700  0.35810900  0.76897900  1
  C  C79  1  0.95686300  0.85810900  0.26897900  1
  C  C80  1  0.61196000  0.72453500  0.18983300  1
  C  C81  1  0.88804000  0.22453500  0.68983300  1
  C  C82  1  0.38804000  0.27546500  0.81016700  1
  C  C83  1  0.11196000  0.77546500  0.31016700  1
  C  C84  1  0.51743800  0.11675600  0.16030200  1
  C  C85  1  0.98256200  0.61675600  0.66030200  1
  C  C86  1  0.48256200  0.88324400  0.83969800  1
  C  C87  1  0.01743800  0.38324400  0.33969800  1
  C  C88  1  0.40886000  0.28971900  0.22042400  1
  C  C89  1  0.09114000  0.78971900  0.72042400  1
  C  C90  1  0.59114000  0.71028100  0.77957600  1
  C  C91  1  0.90886000  0.21028100  0.27957600  1
  C  C92  1  0.40868900  0.27105900  0.07574300  1
  C  C93  1  0.09131100  0.77105900  0.57574300  1
  C  C94  1  0.59131100  0.72894100  0.92425700  1
  C  C95  1  0.90868900  0.22894100  0.42425700  1
  C  C96  1  0.64178500  0.13908500  0.44681200  1
  C  C97  1  0.85821500  0.63908500  0.94681200  1
  C  C98  1  0.35821500  0.86091500  0.55318800  1
  C  C99  1  0.14178500  0.36091500  0.05318800  1
  C  C100  1  0.71402700  0.06316100  0.32288700  1
  C  C101  1  0.78597300  0.56316100  0.82288700  1
  C  C102  1  0.28597300  0.93683900  0.67711300  1
  C  C103  1  0.21402700  0.43683900  0.17711300  1
  C  C104  1  0.54408900  0.06565800  0.33840900  1
  C  C105  1  0.95591100  0.56565800  0.83840900  1
  C  C106  1  0.45591100  0.93434200  0.66159100  1
  C  C107  1  0.04408900  0.43434200  0.16159100  1
  C  C108  1  0.65160200  0.67126500  0.37263500  1
  C  C109  1  0.84839800  0.17126500  0.87263500  1
  C  C110  1  0.34839800  0.32873500  0.62736500  1
  C  C111  1  0.15160200  0.82873500  0.12736500  1
  C  C112  1  0.70211400  0.46396100  0.46244200  1
  C  C113  1  0.79788600  0.96396100  0.96244200  1
  C  C114  1  0.29788600  0.53603900  0.53755800  1
  C  C115  1  0.20211400  0.03603900  0.03755800  1
  C  C116  1  0.79226500  0.52578400  0.33929400  1
  C  C117  1  0.70773500  0.02578400  0.83929400  1
  C  C118  1  0.20773500  0.47421600  0.66070600  1
  C  C119  1  0.29226500  0.97421600  0.16070600  1
  O  O120  1  0.38227500  0.21618900  0.43575000  1
  O  O121  1  0.11772500  0.71618900  0.93575000  1
  O  O122  1  0.61772500  0.78381100  0.56425000  1
  O  O123  1  0.88227500  0.28381100  0.06425000  1
  O  O124  1  0.46337300  0.68119700  0.42664200  1
  O  O125  1  0.03662700  0.18119700  0.92664200  1
  O  O126  1  0.53662700  0.31880300  0.57335800  1
  O  O127  1  0.96337300  0.81880300  0.07335800  1
  O  O128  1  0.70674900  0.40223400  0.96259300  1
  O  O129  1  0.79325100  0.90223400  0.46259300  1
  O  O130  1  0.29325100  0.59776600  0.03740700  1
  O  O131  1  0.20674900  0.09776600  0.53740700  1
  O  O132  1  0.72580200  0.11817800  0.14365000  1
  O  O133  1  0.77419800  0.61817800  0.64365000  1
  O  O134  1  0.27419800  0.88182200  0.85635000  1
  O  O135  1  0.22580200  0.38182200  0.35635000  1
  O  O136  1  0.79828800  0.55698000  0.16142200  1
  O  O137  1  0.70171200  0.05698000  0.66142200  1
  O  O138  1  0.20171200  0.44302000  0.83857800  1
  O  O139  1  0.29828800  0.94302000  0.33857800  1
  O  O140  1  0.45657700  0.80683400  0.05568900  1
  O  O141  1  0.04342300  0.30683400  0.55568900  1
  O  O142  1  0.54342300  0.19316600  0.94431100  1
  O  O143  1  0.95657700  0.69316600  0.44431100  1
  O  O144  1  0.41025400  0.66389800  0.27384400  1
  O  O145  1  0.08974600  0.16389800  0.77384400  1
  O  O146  1  0.58974600  0.33610200  0.72615600  1
  O  O147  1  0.91025400  0.83610200  0.22615600  1
  O  O148  1  0.66249800  0.79787100  0.20866900  1
  O  O149  1  0.83750200  0.29787100  0.70866900  1
  O  O150  1  0.33750200  0.20212900  0.79133100  1
  O  O151  1  0.16249800  0.70212900  0.29133100  1
  O  O152  1  0.54108100  0.00474800  0.16653800  1
  O  O153  1  0.95891900  0.50474800  0.66653800  1
  O  O154  1  0.45891900  0.99525200  0.83346200  1
  O  O155  1  0.04108100  0.49525200  0.33346200  1
  O  O156  1  0.36441700  0.27372300  0.26602300  1
  O  O157  1  0.13558300  0.77372300  0.76602300  1
  O  O158  1  0.63558300  0.72627700  0.73397700  1
  O  O159  1  0.86441700  0.22627700  0.23397700  1
  O  O160  1  0.36177400  0.25011300  0.03258500  1
  O  O161  1  0.13822600  0.75011300  0.53258500  1
  O  O162  1  0.63822600  0.74988700  0.96741500  1
  O  O163  1  0.86177400  0.24988700  0.46741500  1
  O  O164  1  0.64857900  0.10120500  0.50335000  1
  O  O165  1  0.85142100  0.60120500  0.00335000  1
  O  O166  1  0.35142100  0.89879500  0.49665000  1
  O  O167  1  0.14857900  0.39879500  0.99665000  1
  O  O168  1  0.76449200  0.98744000  0.30575700  1
  O  O169  1  0.73550800  0.48744000  0.80575700  1
  O  O170  1  0.23550800  0.01256000  0.69424300  1
  O  O171  1  0.26449200  0.51256000  0.19424300  1
  O  O172  1  0.48979100  0.99224500  0.32802500  1
  O  O173  1  0.01020900  0.49224500  0.82802500  1
  O  O174  1  0.51020900  0.00775500  0.67197500  1
  O  O175  1  0.98979100  0.50775500  0.17197500  1
  O  O176  1  0.63096400  0.78587400  0.37415300  1
  O  O177  1  0.86903600  0.28587400  0.87415300  1
  O  O178  1  0.36903600  0.21412600  0.62584700  1
  O  O179  1  0.13096400  0.71412600  0.12584700  1
  O  O180  1  0.71225300  0.46022000  0.52126800  1
  O  O181  1  0.78774700  0.96022000  0.02126800  1
  O  O182  1  0.28774700  0.53978000  0.47873200  1
  O  O183  1  0.21225300  0.03978000  0.97873200  1
  O  O184  1  0.85818200  0.55449700  0.32239000  1
  O  O185  1  0.64181800  0.05449700  0.82239000  1
  O  O186  1  0.14181800  0.44550300  0.67761000  1
  O  O187  1  0.35818200  0.94550300  0.17761000  1
