# generated using pymatgen
data_HOs7C20O19
_symmetry_space_group_name_H-M   'P 1'
_cell_length_a   20.77934400
_cell_length_b   9.95824400
_cell_length_c   15.55633501
_cell_angle_alpha   88.93466374
_cell_angle_beta   90.00000000
_cell_angle_gamma   90.00000000
_symmetry_Int_Tables_number   1
_chemical_formula_structural   HOs7C20O19
_chemical_formula_sum   'H4 Os28 C80 O76'
_cell_volume   3218.45029481
_cell_formula_units_Z   4
loop_
 _symmetry_equiv_pos_site_id
 _symmetry_equiv_pos_as_xyz
  1  'x, y, z'
loop_
 _atom_site_type_symbol
 _atom_site_label
 _atom_site_symmetry_multiplicity
 _atom_site_fract_x
 _atom_site_fract_y
 _atom_site_fract_z
 _atom_site_occupancy
  H  H0  1  0.43467700  0.52399600  0.39726300  1
  H  H1  1  0.06532300  0.02399600  0.89726300  1
  H  H2  1  0.56532300  0.47600400  0.60273700  1
  H  H3  1  0.93467700  0.97600400  0.10273700  1
  Os  Os4  1  0.36079800  0.50580000  0.34434500  1
  Os  Os5  1  0.13920200  0.00580000  0.84434500  1
  Os  Os6  1  0.63920200  0.49420000  0.65565500  1
  Os  Os7  1  0.86079800  0.99420000  0.15565500  1
  Os  Os8  1  0.30093200  0.42810900  0.10419200  1
  Os  Os9  1  0.19906800  0.92810900  0.60419200  1
  Os  Os10  1  0.69906800  0.57189100  0.89580800  1
  Os  Os11  1  0.80093200  0.07189100  0.39580800  1
  Os  Os12  1  0.38814900  0.79154200  0.27981600  1
  Os  Os13  1  0.11185100  0.29154200  0.77981600  1
  Os  Os14  1  0.61185100  0.20845800  0.72018400  1
  Os  Os15  1  0.88814900  0.70845800  0.22018400  1
  Os  Os16  1  0.22962900  0.49755800  0.26248500  1
  Os  Os17  1  0.27037100  0.99755800  0.76248500  1
  Os  Os18  1  0.77037100  0.50244200  0.73751500  1
  Os  Os19  1  0.72962900  0.00244200  0.23751500  1
  Os  Os20  1  0.29141600  0.70620200  0.15031600  1
  Os  Os21  1  0.20858400  0.20620200  0.65031600  1
  Os  Os22  1  0.70858400  0.29379800  0.84968400  1
  Os  Os23  1  0.79141600  0.79379800  0.34968400  1
  Os  Os24  1  0.49149500  0.60044200  0.31439500  1
  Os  Os25  1  0.00850500  0.10044200  0.81439500  1
  Os  Os26  1  0.50850500  0.39955800  0.68560500  1
  Os  Os27  1  0.99149500  0.89955800  0.18560500  1
  Os  Os28  1  0.40948500  0.56569400  0.17667800  1
  Os  Os29  1  0.09051500  0.06569400  0.67667800  1
  Os  Os30  1  0.59051500  0.43430600  0.82332200  1
  Os  Os31  1  0.90948500  0.93430600  0.32332200  1
  C  C32  1  0.32864400  0.50186400  0.45897900  1
  C  C33  1  0.17135600  0.00186400  0.95897900  1
  C  C34  1  0.67135600  0.49813600  0.54102100  1
  C  C35  1  0.82864400  0.99813600  0.04102100  1
  C  C36  1  0.37777000  0.32285300  0.34398500  1
  C  C37  1  0.12223000  0.82285300  0.84398500  1
  C  C38  1  0.62223000  0.67714700  0.65601500  1
  C  C39  1  0.87777000  0.17714700  0.15601500  1
  C  C40  1  0.32343200  0.24803500  0.12824300  1
  C  C41  1  0.17656800  0.74803500  0.62824300  1
  C  C42  1  0.67656800  0.75196500  0.87175700  1
  C  C43  1  0.82343200  0.25196500  0.37175700  1
  C  C44  1  0.22164600  0.36625800  0.05679700  1
  C  C45  1  0.27835400  0.86625800  0.55679700  1
  C  C46  1  0.77835400  0.63374200  0.94320300  1
  C  C47  1  0.72164600  0.13374200  0.44320300  1
  C  C48  1  0.34808500  0.44735800  0.99762700  1
  C  C49  1  0.15191500  0.94735800  0.49762700  1
  C  C50  1  0.65191500  0.55264200  0.00237300  1
  C  C51  1  0.84808500  0.05264200  0.50237300  1
  C  C52  1  0.43257800  0.85704300  0.37891900  1
  C  C53  1  0.06742200  0.35704300  0.87891900  1
  C  C54  1  0.56742200  0.14295700  0.62108100  1
  C  C55  1  0.93257800  0.64295700  0.12108100  1
  C  C56  1  0.43465100  0.90445100  0.20369100  1
  C  C57  1  0.06534900  0.40445100  0.70369100  1
  C  C58  1  0.56534900  0.09554900  0.79630900  1
  C  C59  1  0.93465100  0.59554900  0.29630900  1
  C  C60  1  0.32176600  0.91606300  0.30905100  1
  C  C61  1  0.17823400  0.41606300  0.80905100  1
  C  C62  1  0.67823400  0.08393700  0.69094900  1
  C  C63  1  0.82176600  0.58393700  0.19094900  1
  C  C64  1  0.20408600  0.60063200  0.35875000  1
  C  C65  1  0.29591400  0.10063200  0.85875000  1
  C  C66  1  0.79591400  0.39936800  0.64125000  1
  C  C67  1  0.70408600  0.89936800  0.14125000  1
  C  C68  1  0.20927800  0.32686200  0.31438900  1
  C  C69  1  0.29072200  0.82686200  0.81438900  1
  C  C70  1  0.79072200  0.67313800  0.68561100  1
  C  C71  1  0.70927800  0.17313800  0.18561100  1
  C  C72  1  0.14755700  0.50956200  0.20441400  1
  C  C73  1  0.35244300  0.00956200  0.70441400  1
  C  C74  1  0.85244300  0.49043800  0.79558600  1
  C  C75  1  0.64755700  0.99043800  0.29558600  1
  C  C76  1  0.33596500  0.82749100  0.07363100  1
  C  C77  1  0.16403500  0.32749100  0.57363100  1
  C  C78  1  0.66403500  0.17250900  0.92636900  1
  C  C79  1  0.83596500  0.67250900  0.42636900  1
  C  C80  1  0.22646300  0.82224900  0.19442300  1
  C  C81  1  0.27353700  0.32224900  0.69442300  1
  C  C82  1  0.77353700  0.17775100  0.80557700  1
  C  C83  1  0.72646300  0.67775100  0.30557700  1
  C  C84  1  0.23517600  0.66629200  0.05682300  1
  C  C85  1  0.26482400  0.16629200  0.55682300  1
  C  C86  1  0.76482400  0.33370800  0.94317700  1
  C  C87  1  0.73517600  0.83370800  0.44317700  1
  C  C88  1  0.54263600  0.44311500  0.32141000  1
  C  C89  1  0.95736400  0.94311500  0.82141000  1
  C  C90  1  0.45736400  0.55688500  0.67859000  1
  C  C91  1  0.04263600  0.05688500  0.17859000  1
  C  C92  1  0.53212400  0.66734400  0.41399700  1
  C  C93  1  0.96787600  0.16734400  0.91399700  1
  C  C94  1  0.46787600  0.33265600  0.58600300  1
  C  C95  1  0.03212400  0.83265600  0.08600300  1
  C  C96  1  0.54630000  0.69308500  0.23606100  1
  C  C97  1  0.95370000  0.19308500  0.73606100  1
  C  C98  1  0.45370000  0.30691500  0.76393900  1
  C  C99  1  0.04630000  0.80691500  0.26393900  1
  C  C100  1  0.45880400  0.40470900  0.16962800  1
  C  C101  1  0.04119600  0.90470900  0.66962800  1
  C  C102  1  0.54119600  0.59529100  0.83037200  1
  C  C103  1  0.95880400  0.09529100  0.33037200  1
  C  C104  1  0.45605700  0.64390800  0.08184000  1
  C  C105  1  0.04394300  0.14390800  0.58184000  1
  C  C106  1  0.54394300  0.35609200  0.91816000  1
  C  C107  1  0.95605700  0.85609200  0.41816000  1
  C  C108  1  0.32073600  0.52514200  0.22167300  1
  C  C109  1  0.17926400  0.02514200  0.72167300  1
  C  C110  1  0.67926400  0.47485800  0.77832700  1
  C  C111  1  0.82073600  0.97485800  0.27832700  1
  O  O112  1  0.30627000  0.49603600  0.52793600  1
  O  O113  1  0.19373000  0.99603600  0.02793600  1
  O  O114  1  0.69373000  0.50396400  0.47206400  1
  O  O115  1  0.80627000  0.00396400  0.97206400  1
  O  O116  1  0.39098800  0.20963100  0.33674300  1
  O  O117  1  0.10901200  0.70963100  0.83674300  1
  O  O118  1  0.60901200  0.79036900  0.66325700  1
  O  O119  1  0.89098800  0.29036900  0.16325700  1
  O  O120  1  0.33556600  0.13632100  0.14430200  1
  O  O121  1  0.16443400  0.63632100  0.64430200  1
  O  O122  1  0.66443400  0.86367900  0.85569800  1
  O  O123  1  0.83556600  0.36367900  0.35569800  1
  O  O124  1  0.17485200  0.32404200  0.02642500  1
  O  O125  1  0.32514800  0.82404200  0.52642500  1
  O  O126  1  0.82514800  0.67595800  0.97357500  1
  O  O127  1  0.67485200  0.17595800  0.47357500  1
  O  O128  1  0.37489100  0.46010900  0.93253100  1
  O  O129  1  0.12510900  0.96010900  0.43253100  1
  O  O130  1  0.62510900  0.53989100  0.06746900  1
  O  O131  1  0.87489100  0.03989100  0.56746900  1
  O  O132  1  0.45552800  0.91432300  0.43557100  1
  O  O133  1  0.04447200  0.41432300  0.93557100  1
  O  O134  1  0.54447200  0.08567700  0.56442900  1
  O  O135  1  0.95552800  0.58567700  0.06442900  1
  O  O136  1  0.46567000  0.97186400  0.15793200  1
  O  O137  1  0.03433000  0.47186400  0.65793200  1
  O  O138  1  0.53433000  0.02813600  0.84206800  1
  O  O139  1  0.96567000  0.52813600  0.34206800  1
  O  O140  1  0.28518000  0.99620300  0.33185100  1
  O  O141  1  0.21482000  0.49620300  0.83185100  1
  O  O142  1  0.71482000  0.00379700  0.66814900  1
  O  O143  1  0.78518000  0.50379700  0.16814900  1
  O  O144  1  0.19131800  0.66426700  0.41832600  1
  O  O145  1  0.30868200  0.16426700  0.91832600  1
  O  O146  1  0.80868200  0.33573300  0.58167400  1
  O  O147  1  0.69131800  0.83573300  0.08167400  1
  O  O148  1  0.19737600  0.22367600  0.34674400  1
  O  O149  1  0.30262400  0.72367600  0.84674400  1
  O  O150  1  0.80262400  0.77632400  0.65325600  1
  O  O151  1  0.69737600  0.27632400  0.15325600  1
  O  O152  1  0.09818100  0.51783700  0.16959600  1
  O  O153  1  0.40181900  0.01783700  0.66959600  1
  O  O154  1  0.90181900  0.48216300  0.83040400  1
  O  O155  1  0.59818100  0.98216300  0.33040400  1
  O  O156  1  0.36027600  0.90005600  0.02423000  1
  O  O157  1  0.13972400  0.40005600  0.52423000  1
  O  O158  1  0.63972400  0.09994400  0.97577000  1
  O  O159  1  0.86027600  0.59994400  0.47577000  1
  O  O160  1  0.18522600  0.89276600  0.21642500  1
  O  O161  1  0.31477400  0.39276600  0.71642500  1
  O  O162  1  0.81477400  0.10723400  0.78357500  1
  O  O163  1  0.68522600  0.60723400  0.28357500  1
  O  O164  1  0.19879700  0.66511600  0.99969200  1
  O  O165  1  0.30120300  0.16511600  0.49969200  1
  O  O166  1  0.80120300  0.33488400  0.00030800  1
  O  O167  1  0.69879700  0.83488400  0.50030800  1
  O  O168  1  0.57362200  0.34593800  0.32406700  1
  O  O169  1  0.92637800  0.84593800  0.82406700  1
  O  O170  1  0.42637800  0.65406200  0.67593300  1
  O  O171  1  0.07362200  0.15406200  0.17593300  1
  O  O172  1  0.55762000  0.71153500  0.47370000  1
  O  O173  1  0.94238000  0.21153500  0.97370000  1
  O  O174  1  0.44238000  0.28846500  0.52630000  1
  O  O175  1  0.05762000  0.78846500  0.02630000  1
  O  O176  1  0.57955100  0.75279600  0.18908300  1
  O  O177  1  0.92044900  0.25279600  0.68908300  1
  O  O178  1  0.42044900  0.24720400  0.81091700  1
  O  O179  1  0.07955100  0.74720400  0.31091700  1
  O  O180  1  0.48605500  0.30275300  0.16598800  1
  O  O181  1  0.01394500  0.80275300  0.66598800  1
  O  O182  1  0.51394500  0.69724700  0.83401200  1
  O  O183  1  0.98605500  0.19724700  0.33401200  1
  O  O184  1  0.48396700  0.69114700  0.02373000  1
  O  O185  1  0.01603300  0.19114700  0.52373000  1
  O  O186  1  0.51603300  0.30885300  0.97627000  1
  O  O187  1  0.98396700  0.80885300  0.47627000  1
