# generated using pymatgen
data_K3Na3TeP6(HO4)6
_symmetry_space_group_name_H-M   'P 1'
_cell_length_a   12.71747684
_cell_length_b   12.71747684
_cell_length_c   12.71747742
_cell_angle_alpha   51.25459197
_cell_angle_beta   51.25459197
_cell_angle_gamma   51.25459414
_symmetry_Int_Tables_number   1
_chemical_formula_structural   K3Na3TeP6(HO4)6
_chemical_formula_sum   'K6 Na6 Te2 P12 H12 O48'
_cell_volume   1154.76415594
_cell_formula_units_Z   2
loop_
 _symmetry_equiv_pos_site_id
 _symmetry_equiv_pos_as_xyz
  1  'x, y, z'
loop_
 _atom_site_type_symbol
 _atom_site_label
 _atom_site_symmetry_multiplicity
 _atom_site_fract_x
 _atom_site_fract_y
 _atom_site_fract_z
 _atom_site_occupancy
  K  K0  1  0.25000000  0.87589000  0.62411000  1
  K  K1  1  0.62411000  0.25000000  0.87589000  1
  K  K2  1  0.87589000  0.62411000  0.25000000  1
  K  K3  1  0.12411000  0.37589000  0.75000000  1
  K  K4  1  0.75000000  0.12411000  0.37589000  1
  K  K5  1  0.37589000  0.75000000  0.12411000  1
  Na  Na6  1  0.05333200  0.25000000  0.44666800  1
  Na  Na7  1  0.44666800  0.05333200  0.25000000  1
  Na  Na8  1  0.25000000  0.44666800  0.05333200  1
  Na  Na9  1  0.94666800  0.75000000  0.55333200  1
  Na  Na10  1  0.55333200  0.94666800  0.75000000  1
  Na  Na11  1  0.75000000  0.55333200  0.94666800  1
  Te  Te12  1  0.50000000  0.50000000  0.50000000  1
  Te  Te13  1  0.00000000  0.00000000  0.00000000  1
  P  P14  1  0.33951500  0.18762900  0.49320900  1
  P  P15  1  0.49320900  0.33951500  0.18762900  1
  P  P16  1  0.18762900  0.49320900  0.33951500  1
  P  P17  1  0.99320900  0.68762900  0.83951500  1
  P  P18  1  0.83951500  0.99320900  0.68762900  1
  P  P19  1  0.68762900  0.83951500  0.99320900  1
  P  P20  1  0.66048500  0.81237100  0.50679100  1
  P  P21  1  0.50679100  0.66048500  0.81237100  1
  P  P22  1  0.81237100  0.50679100  0.66048500  1
  P  P23  1  0.00679100  0.31237100  0.16048500  1
  P  P24  1  0.16048500  0.00679100  0.31237100  1
  P  P25  1  0.31237100  0.16048500  0.00679100  1
  H  H26  1  0.30276100  0.70932800  0.40514200  1
  H  H27  1  0.40514200  0.30276100  0.70932800  1
  H  H28  1  0.70932800  0.40514200  0.30276100  1
  H  H29  1  0.90514200  0.20932800  0.80276100  1
  H  H30  1  0.80276100  0.90514200  0.20932800  1
  H  H31  1  0.20932800  0.80276100  0.90514200  1
  H  H32  1  0.69723900  0.29067200  0.59485800  1
  H  H33  1  0.59485800  0.69723900  0.29067200  1
  H  H34  1  0.29067200  0.59485800  0.69723900  1
  H  H35  1  0.09485800  0.79067200  0.19723900  1
  H  H36  1  0.19723900  0.09485800  0.79067200  1
  H  H37  1  0.79067200  0.19723900  0.09485800  1
  O  O38  1  0.37200800  0.39458800  0.63028800  1
  O  O39  1  0.63028800  0.37200800  0.39458800  1
  O  O40  1  0.39458800  0.63028800  0.37200800  1
  O  O41  1  0.13028800  0.89458800  0.87200800  1
  O  O42  1  0.87200800  0.13028800  0.89458800  1
  O  O43  1  0.89458800  0.87200800  0.13028800  1
  O  O44  1  0.62799200  0.60541200  0.36971200  1
  O  O45  1  0.36971200  0.62799200  0.60541200  1
  O  O46  1  0.60541200  0.36971200  0.62799200  1
  O  O47  1  0.86971200  0.10541200  0.12799200  1
  O  O48  1  0.12799200  0.86971200  0.10541200  1
  O  O49  1  0.10541200  0.12799200  0.86971200  1
  O  O50  1  0.36330400  0.10821700  0.63084400  1
  O  O51  1  0.63084400  0.36330400  0.10821700  1
  O  O52  1  0.10821700  0.63084400  0.36330400  1
  O  O53  1  0.13084400  0.60821700  0.86330400  1
  O  O54  1  0.86330400  0.13084400  0.60821700  1
  O  O55  1  0.60821700  0.86330400  0.13084400  1
  O  O56  1  0.63669600  0.89178300  0.36915600  1
  O  O57  1  0.36915600  0.63669600  0.89178300  1
  O  O58  1  0.89178300  0.36915600  0.63669600  1
  O  O59  1  0.86915600  0.39178300  0.13669600  1
  O  O60  1  0.13669600  0.86915600  0.39178300  1
  O  O61  1  0.39178300  0.13669600  0.86915600  1
  O  O62  1  0.29230400  0.12717600  0.46540300  1
  O  O63  1  0.46540300  0.29230400  0.12717600  1
  O  O64  1  0.12717600  0.46540300  0.29230400  1
  O  O65  1  0.96540300  0.62717600  0.79230400  1
  O  O66  1  0.79230400  0.96540300  0.62717600  1
  O  O67  1  0.62717600  0.79230400  0.96540300  1
  O  O68  1  0.70769600  0.87282400  0.53459700  1
  O  O69  1  0.53459700  0.70769600  0.87282400  1
  O  O70  1  0.87282400  0.53459700  0.70769600  1
  O  O71  1  0.03459700  0.37282400  0.20769600  1
  O  O72  1  0.20769600  0.03459700  0.37282400  1
  O  O73  1  0.37282400  0.20769600  0.03459700  1
  O  O74  1  0.22062400  0.35458000  0.48510600  1
  O  O75  1  0.48510600  0.22062400  0.35458000  1
  O  O76  1  0.35458000  0.48510600  0.22062400  1
  O  O77  1  0.98510600  0.85458000  0.72062400  1
  O  O78  1  0.72062400  0.98510600  0.85458000  1
  O  O79  1  0.85458000  0.72062400  0.98510600  1
  O  O80  1  0.77937600  0.64542000  0.51489400  1
  O  O81  1  0.51489400  0.77937600  0.64542000  1
  O  O82  1  0.64542000  0.51489400  0.77937600  1
  O  O83  1  0.01489400  0.14542000  0.27937600  1
  O  O84  1  0.27937600  0.01489400  0.14542000  1
  O  O85  1  0.14542000  0.27937600  0.01489400  1
