# generated using pymatgen
data_NaCa9ScZn9(SiO3)20
_symmetry_space_group_name_H-M   'P 1'
_cell_length_a   6.72141413
_cell_length_b   6.72141413
_cell_length_c   25.68340667
_cell_angle_alpha   85.28903240
_cell_angle_beta   85.28903240
_cell_angle_gamma   83.93355835
_symmetry_Int_Tables_number   1
_chemical_formula_structural   NaCa9ScZn9(SiO3)20
_chemical_formula_sum   'Na1 Ca9 Sc1 Zn9 Si20 O60'
_cell_volume   1146.75157843
_cell_formula_units_Z   1
loop_
 _symmetry_equiv_pos_site_id
 _symmetry_equiv_pos_as_xyz
  1  'x, y, z'
loop_
 _atom_site_type_symbol
 _atom_site_label
 _atom_site_symmetry_multiplicity
 _atom_site_fract_x
 _atom_site_fract_y
 _atom_site_fract_z
 _atom_site_occupancy
  Na  Na0  1  0.25280500  0.74719500  0.00000000  1
  Ca  Ca1  1  0.74772600  0.45916500  0.89884800  1
  Ca  Ca2  1  0.45160300  0.94729400  0.79965300  1
  Ca  Ca3  1  0.94893200  0.65084100  0.70016500  1
  Ca  Ca4  1  0.65127200  0.14895900  0.60020700  1
  Ca  Ca5  1  0.14883800  0.85116200  0.50000000  1
  Ca  Ca6  1  0.85104100  0.34872800  0.39979300  1
  Ca  Ca7  1  0.34915900  0.05106800  0.29983500  1
  Ca  Ca8  1  0.05270600  0.54839700  0.20034700  1
  Ca  Ca9  1  0.54083500  0.25227400  0.10115200  1
  Sc  Sc10  1  0.86363800  0.13636200  0.00000000  1
  Zn  Zn11  1  0.15201300  0.04850200  0.89958200  1
  Zn  Zn12  1  0.05751000  0.34464600  0.80073500  1
  Zn  Zn13  1  0.34379100  0.25688000  0.70043400  1
  Zn  Zn14  1  0.25661500  0.54359500  0.60012400  1
  Zn  Zn15  1  0.54366400  0.45633600  0.50000000  1
  Zn  Zn16  1  0.45640500  0.74338500  0.39987600  1
  Zn  Zn17  1  0.74312000  0.65620900  0.29956600  1
  Zn  Zn18  1  0.65535400  0.94249000  0.19926500  1
  Zn  Zn19  1  0.95149800  0.84798700  0.10041800  1
  Si  Si20  1  0.24244600  0.53628800  0.89725400  1
  Si  Si21  1  0.66754900  0.94974700  0.90297400  1
  Si  Si22  1  0.53187600  0.44775600  0.79722400  1
  Si  Si23  1  0.95624100  0.86668500  0.80319400  1
  Si  Si24  1  0.44599900  0.73329500  0.69677400  1
  Si  Si25  1  0.86717200  0.15422000  0.70358000  1
  Si  Si26  1  0.73338800  0.64611900  0.59679800  1
  Si  Si27  1  0.15430900  0.06703700  0.60348000  1
  Si  Si28  1  0.64601700  0.93321800  0.49669400  1
  Si  Si29  1  0.06678200  0.35398300  0.50330600  1
  Si  Si30  1  0.93296300  0.84569100  0.39652000  1
  Si  Si31  1  0.35388100  0.26661200  0.40320200  1
  Si  Si32  1  0.84578000  0.13282800  0.29642000  1
  Si  Si33  1  0.26670500  0.55400100  0.30322600  1
  Si  Si34  1  0.13331500  0.04375900  0.19680600  1
  Si  Si35  1  0.55224400  0.46812400  0.20277600  1
  Si  Si36  1  0.05025300  0.33245100  0.09702600  1
  Si  Si37  1  0.46371200  0.75755400  0.10274600  1
  Si  Si38  1  0.33562100  0.25136100  0.99595300  1
  Si  Si39  1  0.74863900  0.66437900  0.00404700  1
  O  O40  1  0.37358600  0.43022900  0.94805700  1
  O  O41  1  0.13094600  0.74549100  0.91462900  1
  O  O42  1  0.09775600  0.37683500  0.87989300  1
  O  O43  1  0.81546800  0.10310800  0.92157300  1
  O  O44  1  0.45678500  0.05027700  0.88363900  1
  O  O45  1  0.42672400  0.57408900  0.84912800  1
  O  O46  1  0.77207200  0.82817500  0.85051800  1
  O  O47  1  0.74341600  0.34837400  0.81668200  1
  O  O48  1  0.38069300  0.29698000  0.77945200  1
  O  O49  1  0.10241200  0.02249900  0.82081500  1
  O  O50  1  0.05870400  0.65640900  0.78390300  1
  O  O51  1  0.57069400  0.62977100  0.74920100  1
  O  O52  1  0.82977600  0.97005000  0.75105400  1
  O  O53  1  0.34472700  0.94433500  0.71601600  1
  O  O54  1  0.29760000  0.57957000  0.67912900  1
  O  O55  1  0.02005600  0.30280800  0.72157000  1
  O  O56  1  0.65612000  0.25519300  0.68428000  1
  O  O57  1  0.62962200  0.77091900  0.64920900  1
  O  O58  1  0.97095400  0.02962300  0.65114900  1
  O  O59  1  0.94423700  0.54497700  0.61618800  1
  O  O60  1  0.57995600  0.49747500  0.57907600  1
  O  O61  1  0.30278800  0.22047700  0.62128000  1
  O  O62  1  0.25530100  0.85602700  0.58413100  1
  O  O63  1  0.77085400  0.82948600  0.54912300  1
  O  O64  1  0.02947500  0.17072400  0.55103600  1
  O  O65  1  0.54497300  0.14415100  0.51607700  1
  O  O66  1  0.49736400  0.77981600  0.47894300  1
  O  O67  1  0.22018400  0.50263600  0.52105700  1
  O  O68  1  0.85584900  0.45502700  0.48392300  1
  O  O69  1  0.82927600  0.97052500  0.44896400  1
  O  O70  1  0.17051400  0.22914600  0.45087700  1
  O  O71  1  0.14397300  0.74469900  0.41586900  1
  O  O72  1  0.77952300  0.69721200  0.37872000  1
  O  O73  1  0.50252500  0.42004400  0.42092400  1
  O  O74  1  0.45502300  0.05576300  0.38381200  1
  O  O75  1  0.97037700  0.02904600  0.34885100  1
  O  O76  1  0.22908100  0.37037800  0.35079100  1
  O  O77  1  0.74480700  0.34388000  0.31572000  1
  O  O78  1  0.69719200  0.97994400  0.27843000  1
  O  O79  1  0.42043000  0.70240000  0.32087100  1
  O  O80  1  0.05566500  0.65527300  0.28398400  1
  O  O81  1  0.02995000  0.17022400  0.24894600  1
  O  O82  1  0.37022900  0.42930600  0.25079900  1
  O  O83  1  0.34359100  0.94129600  0.21609700  1
  O  O84  1  0.97750100  0.89758800  0.17918500  1
  O  O85  1  0.70302000  0.61930700  0.22054800  1
  O  O86  1  0.65162600  0.25658400  0.18331800  1
  O  O87  1  0.17182500  0.22792800  0.14948200  1
  O  O88  1  0.42591100  0.57327600  0.15087200  1
  O  O89  1  0.94972300  0.54321500  0.11636100  1
  O  O90  1  0.89689200  0.18453200  0.07842700  1
  O  O91  1  0.62316500  0.90224400  0.12010700  1
  O  O92  1  0.25450900  0.86905400  0.08537100  1
  O  O93  1  0.23376900  0.36361500  0.04987800  1
  O  O94  1  0.56977100  0.62641400  0.05194300  1
  O  O95  1  0.55088300  0.15189000  0.01421200  1
  O  O96  1  0.17754100  0.10530000  0.97869800  1
  O  O97  1  0.89470000  0.82245900  0.02130200  1
  O  O98  1  0.84811000  0.44911700  0.98578800  1
  O  O99  1  0.63638500  0.76623100  0.95012200  1
