# generated using pymatgen
data_KZnH4Br3O2
_symmetry_space_group_name_H-M   'P 1'
_cell_length_a   12.68105500
_cell_length_b   6.81272900
_cell_length_c   11.24981722
_cell_angle_alpha   63.29687362
_cell_angle_beta   90.00000000
_cell_angle_gamma   90.00000000
_symmetry_Int_Tables_number   1
_chemical_formula_structural   KZnH4Br3O2
_chemical_formula_sum   'K4 Zn4 H16 Br12 O8'
_cell_volume   868.24459073
_cell_formula_units_Z   4
loop_
 _symmetry_equiv_pos_site_id
 _symmetry_equiv_pos_as_xyz
  1  'x, y, z'
loop_
 _atom_site_type_symbol
 _atom_site_label
 _atom_site_symmetry_multiplicity
 _atom_site_fract_x
 _atom_site_fract_y
 _atom_site_fract_z
 _atom_site_occupancy
  K  K0  1  0.83148300  0.27859900  0.99165700  1
  K  K1  1  0.33148300  0.72140100  0.50834300  1
  K  K2  1  0.16851700  0.72140100  0.00834300  1
  K  K3  1  0.66851700  0.27859900  0.49165700  1
  Zn  Zn4  1  0.92819600  0.00047800  0.73981800  1
  Zn  Zn5  1  0.42819600  0.99952200  0.76018200  1
  Zn  Zn6  1  0.07180400  0.99952200  0.26018200  1
  Zn  Zn7  1  0.57180400  0.00047800  0.23981800  1
  H  H8  1  0.26245400  0.21770300  0.79708800  1
  H  H9  1  0.76245400  0.78229700  0.70291200  1
  H  H10  1  0.73754600  0.78229700  0.20291200  1
  H  H11  1  0.23754600  0.21770300  0.29708800  1
  H  H12  1  0.32862600  0.10718300  0.93365700  1
  H  H13  1  0.82862600  0.89281700  0.56634300  1
  H  H14  1  0.67137400  0.89281700  0.06634300  1
  H  H15  1  0.17137400  0.10718300  0.43365700  1
  H  H16  1  0.13839800  0.49851100  0.71491300  1
  H  H17  1  0.63839800  0.50148900  0.78508700  1
  H  H18  1  0.86160200  0.50148900  0.28508700  1
  H  H19  1  0.36160200  0.49851100  0.21491300  1
  H  H20  1  0.13766200  0.33958800  0.64996500  1
  H  H21  1  0.63766200  0.66041200  0.85003500  1
  H  H22  1  0.86233800  0.66041200  0.35003500  1
  H  H23  1  0.36233800  0.33958800  0.14996500  1
  Br  Br24  1  0.39877200  0.22596800  0.52556500  1
  Br  Br25  1  0.89877200  0.77403200  0.97443500  1
  Br  Br26  1  0.60122800  0.77403200  0.47443500  1
  Br  Br27  1  0.10122800  0.22596800  0.02556500  1
  Br  Br28  1  0.39412800  0.61820200  0.83002000  1
  Br  Br29  1  0.89412800  0.38179800  0.66998000  1
  Br  Br30  1  0.60587200  0.38179800  0.16998000  1
  Br  Br31  1  0.10587200  0.61820200  0.33002000  1
  Br  Br32  1  0.10019200  0.92815000  0.67461400  1
  Br  Br33  1  0.60019200  0.07185000  0.82538600  1
  Br  Br34  1  0.89980800  0.07185000  0.32538600  1
  Br  Br35  1  0.39980800  0.92815000  0.17461400  1
  O  O36  1  0.80621600  0.91403200  0.64386500  1
  O  O37  1  0.30621600  0.08596800  0.85613500  1
  O  O38  1  0.19378400  0.08596800  0.35613500  1
  O  O39  1  0.69378400  0.91403200  0.14386500  1
  O  O40  1  0.68497900  0.58663800  0.81380200  1
  O  O41  1  0.18497900  0.41336200  0.68619800  1
  O  O42  1  0.31502100  0.41336200  0.18619800  1
  O  O43  1  0.81502100  0.58663800  0.31380200  1
