# generated using pymatgen
data_Ta2IrW
_symmetry_space_group_name_H-M   'P 1'
_cell_length_a   10.47648400
_cell_length_b   10.47648400
_cell_length_c   10.47648400
_cell_angle_alpha   126.82859745
_cell_angle_beta   117.10935364
_cell_angle_gamma   86.84063314
_symmetry_Int_Tables_number   1
_chemical_formula_structural   Ta2IrW
_chemical_formula_sum   'Ta2 Ir1 W1'
_cell_volume   779.96874924
_cell_formula_units_Z   1
loop_
 _symmetry_equiv_pos_site_id
 _symmetry_equiv_pos_as_xyz
  1  'x, y, z'
loop_
 _atom_site_type_symbol
 _atom_site_label
 _atom_site_symmetry_multiplicity
 _atom_site_fract_x
 _atom_site_fract_y
 _atom_site_fract_z
 _atom_site_occupancy
  Ta  Ta0  1  0.00000000  0.25100500  0.25100500  1
  Ta  Ta1  1  0.00000000  0.74899500  0.74899500  1
  Ir  Ir2  1  0.00000000  0.50000000  0.50000000  1
  W  W3  1  0.00000000  0.00000000  0.00000000  1
