# generated using pymatgen
data_CaEr15Si8Se11ClO28
_symmetry_space_group_name_H-M   'P 1'
_cell_length_a   10.86995704
_cell_length_b   10.86995704
_cell_length_c   11.85805854
_cell_angle_alpha   56.99918246
_cell_angle_beta   56.99918246
_cell_angle_gamma   66.14694215
_symmetry_Int_Tables_number   1
_chemical_formula_structural   CaEr15Si8Se11ClO28
_chemical_formula_sum   'Ca1 Er15 Si8 Se11 Cl1 O28'
_cell_volume   973.83943351
_cell_formula_units_Z   1
loop_
 _symmetry_equiv_pos_site_id
 _symmetry_equiv_pos_as_xyz
  1  'x, y, z'
loop_
 _atom_site_type_symbol
 _atom_site_label
 _atom_site_symmetry_multiplicity
 _atom_site_fract_x
 _atom_site_fract_y
 _atom_site_fract_z
 _atom_site_occupancy
  Ca  Ca0  1  0.33106300  0.33106300  0.18144500  1
  Er  Er1  1  0.65598400  0.18531600  0.32949500  1
  Er  Er2  1  0.29975800  0.95231100  0.30122800  1
  Er  Er3  1  0.33046000  0.33046000  0.65827300  1
  Er  Er4  1  0.69980800  0.04842500  0.04735800  1
  Er  Er5  1  0.04740300  0.70418800  0.70386500  1
  Er  Er6  1  0.18531600  0.65598400  0.32949500  1
  Er  Er7  1  0.94731100  0.30179600  0.94926300  1
  Er  Er8  1  0.66902300  0.66902300  0.81897400  1
  Er  Er9  1  0.04842500  0.69980800  0.04735800  1
  Er  Er10  1  0.81674600  0.34471300  0.66958900  1
  Er  Er11  1  0.30179600  0.94731100  0.94926300  1
  Er  Er12  1  0.95231100  0.29975800  0.30122800  1
  Er  Er13  1  0.66974800  0.66974800  0.34168300  1
  Er  Er14  1  0.70418800  0.04740300  0.70386500  1
  Er  Er15  1  0.34471300  0.81674600  0.66958900  1
  Si  Si16  1  0.78478400  0.53644900  0.09011000  1
  Si  Si17  1  0.53644900  0.78478400  0.09011000  1
  Si  Si18  1  0.08976500  0.08976500  0.78466300  1
  Si  Si19  1  0.90932100  0.90932100  0.46386600  1
  Si  Si20  1  0.08946200  0.08946200  0.53608100  1
  Si  Si21  1  0.90893900  0.90893900  0.21694400  1
  Si  Si22  1  0.46366600  0.21501700  0.91011800  1
  Si  Si23  1  0.21501700  0.46366600  0.91011800  1
  Se  Se24  1  0.35406300  0.64487400  0.50171900  1
  Se  Se25  1  0.37740400  0.37740400  0.37885400  1
  Se  Se26  1  0.87635700  0.87635700  0.87515300  1
  Se  Se27  1  0.50261000  0.99612000  0.35801700  1
  Se  Se28  1  0.00047900  0.50165800  0.64348600  1
  Se  Se29  1  0.99612000  0.50261000  0.35801700  1
  Se  Se30  1  0.64890700  0.35711600  0.99510500  1
  Se  Se31  1  0.62580100  0.62580100  0.62420600  1
  Se  Se32  1  0.35711600  0.64890700  0.99510500  1
  Se  Se33  1  0.64487400  0.35406300  0.50171900  1
  Se  Se34  1  0.50165800  0.00047900  0.64348600  1
  Cl  Cl35  1  0.12528100  0.12528100  0.12423400  1
  O  O36  1  0.81971100  0.35111700  0.16468600  1
  O  O37  1  0.57393200  0.85124000  0.16177700  1
  O  O38  1  0.84447500  0.08774600  0.14704400  1
  O  O39  1  0.60787000  0.60787000  0.14322800  1
  O  O40  1  0.16089800  0.91342700  0.57408000  1
  O  O41  1  0.14552000  0.42216700  0.84574400  1
  O  O42  1  0.35111700  0.81971100  0.16468600  1
  O  O43  1  0.16495400  0.16495400  0.82003500  1
  O  O44  1  0.08625400  0.84518800  0.41898700  1
  O  O45  1  0.85231900  0.57430900  0.91383500  1
  O  O46  1  0.14293200  0.14293200  0.60725900  1
  O  O47  1  0.83399300  0.83399300  0.64838700  1
  O  O48  1  0.42447100  0.13842900  0.08617200  1
  O  O49  1  0.08774600  0.84447500  0.14704400  1
  O  O50  1  0.91282800  0.16105900  0.85255500  1
  O  O51  1  0.57430900  0.85231900  0.91383500  1
  O  O52  1  0.16045700  0.16045700  0.35239000  1
  O  O53  1  0.85552600  0.85552600  0.39414100  1
  O  O54  1  0.13842900  0.42447100  0.08617200  1
  O  O55  1  0.91342700  0.16089800  0.57408000  1
  O  O56  1  0.83383500  0.83383500  0.18315900  1
  O  O57  1  0.64848400  0.18491900  0.83208600  1
  O  O58  1  0.85124000  0.57393200  0.16177700  1
  O  O59  1  0.84518800  0.08625500  0.41898700  1
  O  O60  1  0.39228000  0.39228000  0.85697900  1
  O  O61  1  0.16105900  0.91282800  0.85255500  1
  O  O62  1  0.42216700  0.14552000  0.84574400  1
  O  O63  1  0.18491900  0.64848400  0.83208600  1
