# generated using pymatgen
data_Na2Ca6Mg7Fe(SiO3)16
_symmetry_space_group_name_H-M   'P 1'
_cell_length_a   13.33103036
_cell_length_b   13.33103036
_cell_length_c   5.32915299
_cell_angle_alpha   79.00476476
_cell_angle_beta   79.00476476
_cell_angle_gamma   85.12729191
_symmetry_Int_Tables_number   1
_chemical_formula_structural   Na2Ca6Mg7Fe(SiO3)16
_chemical_formula_sum   'Na2 Ca6 Mg7 Fe1 Si16 O48'
_cell_volume   911.46616305
_cell_formula_units_Z   1
loop_
 _symmetry_equiv_pos_site_id
 _symmetry_equiv_pos_as_xyz
  1  'x, y, z'
loop_
 _atom_site_type_symbol
 _atom_site_label
 _atom_site_symmetry_multiplicity
 _atom_site_fract_x
 _atom_site_fract_y
 _atom_site_fract_z
 _atom_site_occupancy
  Na  Na0  1  0.84984300  0.15015700  0.00000000  1
  Na  Na1  1  0.14763900  0.85236100  0.50000000  1
  Ca  Ca2  1  0.34907800  0.65092200  0.00000000  1
  Ca  Ca3  1  0.85088300  0.64937300  0.49991900  1
  Ca  Ca4  1  0.35062700  0.14911700  0.50008100  1
  Ca  Ca5  1  0.15043500  0.35105800  0.99666600  1
  Ca  Ca6  1  0.64894200  0.84956500  0.00333400  1
  Ca  Ca7  1  0.65127200  0.34872800  0.50000000  1
  Mg  Mg8  1  0.04665100  0.95334900  0.00000000  1
  Mg  Mg9  1  0.54669600  0.95436100  0.50064800  1
  Mg  Mg10  1  0.04563900  0.45330400  0.49935200  1
  Mg  Mg11  1  0.54646600  0.45353400  0.00000000  1
  Mg  Mg12  1  0.45411100  0.54588900  0.50000000  1
  Mg  Mg13  1  0.45471500  0.04559100  0.00094500  1
  Mg  Mg14  1  0.95440900  0.54528500  0.99905500  1
  Fe  Fe15  1  0.95046300  0.04953700  0.50000000  1
  Si  Si16  1  0.09697800  0.68839200  0.19548400  1
  Si  Si17  1  0.31160800  0.90302200  0.80451600  1
  Si  Si18  1  0.09606600  0.18998600  0.69363700  1
  Si  Si19  1  0.59702300  0.68918900  0.69486600  1
  Si  Si20  1  0.31081100  0.40297700  0.30513400  1
  Si  Si21  1  0.81001400  0.90393400  0.30636300  1
  Si  Si22  1  0.59873100  0.18868100  0.19500000  1
  Si  Si23  1  0.18888400  0.59808400  0.69301100  1
  Si  Si24  1  0.81131900  0.40126900  0.80500000  1
  Si  Si25  1  0.40191600  0.81111600  0.30698900  1
  Si  Si26  1  0.18763300  0.09762100  0.19647000  1
  Si  Si27  1  0.68997700  0.59578600  0.19496300  1
  Si  Si28  1  0.40421400  0.31002300  0.80503700  1
  Si  Si29  1  0.90237900  0.81236700  0.80353000  1
  Si  Si30  1  0.69059300  0.09688500  0.69654300  1
  Si  Si31  1  0.90311500  0.30940700  0.30345700  1
  O  O32  1  0.32021700  0.83128100  0.09396500  1
  O  O33  1  0.05314800  0.80486900  0.19359700  1
  O  O34  1  0.01334900  0.60074400  0.27760100  1
  O  O35  1  0.31784600  0.33280200  0.60035000  1
  O  O36  1  0.81540900  0.83206700  0.60046500  1
  O  O37  1  0.39925600  0.98665100  0.72239900  1
  O  O38  1  0.05570900  0.30588900  0.70768600  1
  O  O39  1  0.55834800  0.80584000  0.70580800  1
  O  O40  1  0.19513100  0.94685200  0.80640300  1
  O  O41  1  0.01582000  0.09923600  0.76777200  1
  O  O42  1  0.51358000  0.60181200  0.77744300  1
  O  O43  1  0.16871900  0.67978300  0.90603500  1
  O  O44  1  0.81859100  0.33216900  0.09883300  1
  O  O45  1  0.39818800  0.48642000  0.22255700  1
  O  O46  1  0.90076400  0.98418000  0.23222800  1
  O  O47  1  0.55777100  0.30549500  0.20358600  1
  O  O48  1  0.33361800  0.81784300  0.60136200  1
  O  O49  1  0.30562600  0.55700600  0.70349300  1
  O  O50  1  0.19416000  0.44165200  0.29419200  1
  O  O51  1  0.69411100  0.94429100  0.29231400  1
  O  O52  1  0.51412800  0.10189200  0.27707800  1
  O  O53  1  0.66719800  0.68215400  0.39965000  1
  O  O54  1  0.16793300  0.18459100  0.39953500  1
  O  O55  1  0.10159100  0.51406100  0.77550200  1
  O  O56  1  0.89810800  0.48587200  0.72292200  1
  O  O57  1  0.33415200  0.31680800  0.10013600  1
  O  O58  1  0.83210800  0.81852700  0.09940400  1
  O  O59  1  0.48593900  0.89840900  0.22449800  1
  O  O60  1  0.30400900  0.05660800  0.20690100  1
  O  O61  1  0.80653400  0.55667600  0.20647500  1
  O  O62  1  0.69450500  0.44222900  0.79641400  1
  O  O63  1  0.66783100  0.18140900  0.90116700  1
  O  O64  1  0.44299400  0.69437400  0.29650700  1
  O  O65  1  0.09508100  0.01952700  0.27904100  1
  O  O66  1  0.60199500  0.51309800  0.27783400  1
  O  O67  1  0.18215700  0.66638200  0.39863800  1
  O  O68  1  0.83161300  0.31932400  0.59233800  1
  O  O69  1  0.48690200  0.39800500  0.72216600  1
  O  O70  1  0.98047300  0.90491900  0.72095900  1
  O  O71  1  0.80797200  0.05467200  0.69694800  1
  O  O72  1  0.44332400  0.19346600  0.79352500  1
  O  O73  1  0.94339200  0.69599100  0.79309900  1
  O  O74  1  0.60378800  0.01247500  0.77910200  1
  O  O75  1  0.18147300  0.16789200  0.90059600  1
  O  O76  1  0.68319200  0.66584800  0.89986400  1
  O  O77  1  0.98752500  0.39621200  0.22089800  1
  O  O78  1  0.94532800  0.19202800  0.30305200  1
  O  O79  1  0.68067600  0.16838700  0.40766200  1
