# generated using pymatgen
data_NaFe9Si6B3H2O31
_symmetry_space_group_name_H-M   'P 1'
_cell_length_a   9.79767256
_cell_length_b   9.79767256
_cell_length_c   7.60828012
_cell_angle_alpha   74.86882889
_cell_angle_beta   74.86882889
_cell_angle_gamma   113.31275441
_symmetry_Int_Tables_number   1
_chemical_formula_structural   NaFe9Si6B3H2O31
_chemical_formula_sum   'Na1 Fe9 Si6 B3 H2 O31'
_cell_volume   590.26687218
_cell_formula_units_Z   1
loop_
 _symmetry_equiv_pos_site_id
 _symmetry_equiv_pos_as_xyz
  1  'x, y, z'
loop_
 _atom_site_type_symbol
 _atom_site_label
 _atom_site_symmetry_multiplicity
 _atom_site_fract_x
 _atom_site_fract_y
 _atom_site_fract_z
 _atom_site_occupancy
  Na  Na0  1  0.00358000  0.00358000  0.76255100  1
  Fe  Fe1  1  0.55142400  0.33836400  0.09531700  1
  Fe  Fe2  1  0.22622500  0.66712400  0.42110500  1
  Fe  Fe3  1  0.99684300  0.82183300  0.41335700  1
  Fe  Fe4  1  0.18984300  0.18984300  0.23322200  1
  Fe  Fe5  1  0.77212100  0.43847500  0.65142700  1
  Fe  Fe6  1  0.33836400  0.55142400  0.09531700  1
  Fe  Fe7  1  0.82183300  0.99684300  0.41335700  1
  Fe  Fe8  1  0.66712400  0.22622500  0.42110500  1
  Fe  Fe9  1  0.43847500  0.77212100  0.65142700  1
  Si  Si10  1  0.62364700  0.81399300  0.18747400  1
  Si  Si11  1  0.80860200  0.18700600  0.00081000  1
  Si  Si12  1  0.37471000  0.18821800  0.81138500  1
  Si  Si13  1  0.18700600  0.80860200  0.00081000  1
  Si  Si14  1  0.81399300  0.62364700  0.18747400  1
  Si  Si15  1  0.18821800  0.37471000  0.81138500  1
  B  B16  1  0.32808000  0.00080200  0.43468400  1
  B  B17  1  0.67358500  0.67358500  0.76170800  1
  B  B18  1  0.00080200  0.32808000  0.43468400  1
  H  H19  1  0.99952800  0.63047300  0.73458900  1
  H  H20  1  0.63047300  0.99952800  0.73458900  1
  O  O21  1  0.72716400  0.00047200  0.00543900  1
  O  O22  1  0.27932900  0.56223000  0.64455600  1
  O  O23  1  0.71906700  0.43833900  0.20517000  1
  O  O24  1  0.47499900  0.14372500  0.35325500  1
  O  O25  1  0.32610700  0.85371900  0.50019300  1
  O  O26  1  0.72524300  0.72524300  0.11343700  1
  O  O27  1  0.99862900  0.27594500  0.83644400  1
  O  O28  1  0.37707200  0.19585800  0.02229900  1
  O  O29  1  0.17751300  0.79792100  0.22137200  1
  O  O30  1  0.38470400  0.38470400  0.21888500  1
  O  O31  1  0.00007800  0.61460500  0.61286200  1
  O  O32  1  0.18484300  0.00243100  0.44804300  1
  O  O33  1  0.71789200  0.28222000  0.92338500  1
  O  O34  1  0.43833900  0.71906700  0.20517000  1
  O  O35  1  0.19585800  0.37707200  0.02229900  1
  O  O36  1  0.82374700  0.62217300  0.39876500  1
  O  O37  1  0.01205500  0.01205500  0.21471300  1
  O  O38  1  0.14372500  0.47499900  0.35325500  1
  O  O39  1  0.67259400  0.52752600  0.82472800  1
  O  O40  1  0.00243100  0.18484300  0.44804300  1
  O  O41  1  0.81752600  0.81752600  0.63660000  1
  O  O42  1  0.52752600  0.67259400  0.82472800  1
  O  O43  1  0.85371900  0.32610700  0.50019300  1
  O  O44  1  0.62217300  0.82374700  0.39876500  1
  O  O45  1  0.79792100  0.17751300  0.22137200  1
  O  O46  1  0.61460500  0.00007800  0.61286200  1
  O  O47  1  0.00047200  0.72716400  0.00543900  1
  O  O48  1  0.26979700  0.26979700  0.73746800  1
  O  O49  1  0.56223000  0.27932900  0.64455600  1
  O  O50  1  0.28222000  0.71789200  0.92338500  1
  O  O51  1  0.27594500  0.99862900  0.83644400  1
