# generated using pymatgen
data_Na4P2H20O17
_symmetry_space_group_name_H-M   'P 1'
_cell_length_a   10.17683404
_cell_length_b   10.17683404
_cell_length_c   18.97204108
_cell_angle_alpha   61.38412585
_cell_angle_beta   61.38412585
_cell_angle_gamma   34.97003619
_symmetry_Int_Tables_number   1
_chemical_formula_structural   Na4P2H20O17
_chemical_formula_sum   'Na8 P4 H40 O34'
_cell_volume   973.90407910
_cell_formula_units_Z   2
loop_
 _symmetry_equiv_pos_site_id
 _symmetry_equiv_pos_as_xyz
  1  'x, y, z'
loop_
 _atom_site_type_symbol
 _atom_site_label
 _atom_site_symmetry_multiplicity
 _atom_site_fract_x
 _atom_site_fract_y
 _atom_site_fract_z
 _atom_site_occupancy
  Na  Na0  1  0.17490900  0.33437600  0.59660700  1
  Na  Na1  1  0.66562400  0.82509100  0.90339300  1
  Na  Na2  1  0.82509100  0.66562400  0.40339300  1
  Na  Na3  1  0.33437600  0.17490900  0.09660700  1
  Na  Na4  1  0.64927600  0.52387000  0.88039200  1
  Na  Na5  1  0.47613000  0.35072400  0.61960800  1
  Na  Na6  1  0.35072400  0.47613000  0.11960800  1
  Na  Na7  1  0.52387000  0.64927600  0.38039200  1
  P  P8  1  0.23420400  0.47475600  0.88188200  1
  P  P9  1  0.52524400  0.76579600  0.61811800  1
  P  P10  1  0.76579600  0.52524400  0.11811800  1
  P  P11  1  0.47475600  0.23420400  0.38188200  1
  H  H12  1  0.26022500  0.55860500  0.50218800  1
  H  H13  1  0.44139500  0.73977500  0.99781200  1
  H  H14  1  0.73977500  0.44139500  0.49781200  1
  H  H15  1  0.55860500  0.26022500  0.00218800  1
  H  H16  1  0.78042200  0.78892400  0.69867200  1
  H  H17  1  0.21107600  0.21957800  0.80132800  1
  H  H18  1  0.21957800  0.21107600  0.30132800  1
  H  H19  1  0.78892400  0.78042200  0.19867200  1
  H  H20  1  0.72953900  0.80119500  0.52276500  1
  H  H21  1  0.19880500  0.27046100  0.97723500  1
  H  H22  1  0.27046100  0.19880500  0.47723500  1
  H  H23  1  0.80119500  0.72953900  0.02276500  1
  H  H24  1  0.59367200  0.77899300  0.71141800  1
  H  H25  1  0.22100700  0.40632800  0.78858200  1
  H  H26  1  0.40632800  0.22100700  0.28858200  1
  H  H27  1  0.77899300  0.59367200  0.21141800  1
  H  H28  1  0.95593700  0.79268100  0.71867700  1
  H  H29  1  0.20731900  0.04406300  0.78132300  1
  H  H30  1  0.04406300  0.20731900  0.28132300  1
  H  H31  1  0.79268100  0.95593700  0.21867700  1
  H  H32  1  0.95645100  0.83764900  0.67328900  1
  H  H33  1  0.16235100  0.04354900  0.82671100  1
  H  H34  1  0.04354900  0.16235100  0.32671100  1
  H  H35  1  0.83764900  0.95645100  0.17328900  1
  H  H36  1  0.65142100  0.44195700  0.65904900  1
  H  H37  1  0.55804300  0.34857900  0.84095100  1
  H  H38  1  0.34857900  0.55804300  0.34095100  1
  H  H39  1  0.44195700  0.65142100  0.15904900  1
  H  H40  1  0.89654600  0.14026900  0.27725700  1
  H  H41  1  0.85973100  0.10345400  0.22274300  1
  H  H42  1  0.10345400  0.85973100  0.72274300  1
  H  H43  1  0.14026900  0.89654600  0.77725700  1
  H  H44  1  0.86812600  0.96582000  0.04611800  1
  H  H45  1  0.03418000  0.13187400  0.45388200  1
  H  H46  1  0.13187400  0.03418000  0.95388200  1
  H  H47  1  0.96582000  0.86812600  0.54611800  1
  H  H48  1  0.96918500  0.29698700  0.92626600  1
  H  H49  1  0.70301300  0.03081500  0.57373400  1
  H  H50  1  0.03081500  0.70301300  0.07373400  1
  H  H51  1  0.29698700  0.96918500  0.42626600  1
  O  O52  1  0.02292500  0.97707500  0.75000000  1
  O  O53  1  0.97707500  0.02292500  0.25000000  1
  O  O54  1  0.41205300  0.45630900  0.87702100  1
  O  O55  1  0.54369100  0.58794700  0.62297900  1
  O  O56  1  0.58794700  0.54369100  0.12297900  1
  O  O57  1  0.45630900  0.41205300  0.37702100  1
  O  O58  1  0.03655700  0.80794500  0.05217300  1
  O  O59  1  0.19205500  0.96344300  0.44782700  1
  O  O60  1  0.96344300  0.19205500  0.94782700  1
  O  O61  1  0.80794500  0.03655700  0.55217300  1
  O  O62  1  0.28644500  0.45405300  0.79393200  1
  O  O63  1  0.54594700  0.71355500  0.70606800  1
  O  O64  1  0.71355500  0.54594700  0.20606800  1
  O  O65  1  0.45405300  0.28644500  0.29393200  1
  O  O66  1  0.81400600  0.42714300  0.44090800  1
  O  O67  1  0.57285700  0.18599400  0.05909200  1
  O  O68  1  0.18599400  0.57285700  0.55909200  1
  O  O69  1  0.42714300  0.81400600  0.94090800  1
  O  O70  1  0.76364400  0.66862700  0.56061500  1
  O  O71  1  0.33137300  0.23635600  0.93938500  1
  O  O72  1  0.23635600  0.33137300  0.43938500  1
  O  O73  1  0.66862700  0.76364400  0.06061500  1
  O  O74  1  0.61987500  0.87255000  0.71926500  1
  O  O75  1  0.12745000  0.38012500  0.78073500  1
  O  O76  1  0.38012500  0.12745000  0.28073500  1
  O  O77  1  0.87255000  0.61987500  0.21926500  1
  O  O78  1  0.00545300  0.32028100  0.08148500  1
  O  O79  1  0.67971900  0.99454700  0.41851500  1
  O  O80  1  0.99454700  0.67971900  0.91851500  1
  O  O81  1  0.32028100  0.00545300  0.58148500  1
  O  O82  1  0.91412200  0.51797400  0.84268500  1
  O  O83  1  0.48202600  0.08587800  0.65731500  1
  O  O84  1  0.08587800  0.48202600  0.15731500  1
  O  O85  1  0.51797400  0.91412200  0.34268500  1
