# generated using pymatgen
data_Ba2AlTl
_symmetry_space_group_name_H-M   'P 1'
_cell_length_a   14.04674392
_cell_length_b   14.04674392
_cell_length_c   14.04674392
_cell_angle_alpha   126.32125193
_cell_angle_beta   118.01203842
_cell_angle_gamma   86.44715350
_symmetry_Int_Tables_number   1
_chemical_formula_structural   Ba2AlTl
_chemical_formula_sum   'Ba2 Al1 Tl1'
_cell_volume   1878.19318412
_cell_formula_units_Z   1
loop_
 _symmetry_equiv_pos_site_id
 _symmetry_equiv_pos_as_xyz
  1  'x, y, z'
loop_
 _atom_site_type_symbol
 _atom_site_label
 _atom_site_symmetry_multiplicity
 _atom_site_fract_x
 _atom_site_fract_y
 _atom_site_fract_z
 _atom_site_occupancy
  Ba  Ba0  1  0.00000000  0.24648300  0.24648300  1
  Ba  Ba1  1  0.00000000  0.75351700  0.75351700  1
  Al  Al2  1  0.00000000  0.00000000  0.00000000  1
  Tl  Tl3  1  0.00000000  0.50000000  0.50000000  1
