# generated using pymatgen
data_H13S2N3O8
_symmetry_space_group_name_H-M   'P 1'
_cell_length_a   8.37928473
_cell_length_b   8.37928473
_cell_length_c   10.35338843
_cell_angle_alpha   80.34621948
_cell_angle_beta   80.34621948
_cell_angle_gamma   41.16995873
_symmetry_Int_Tables_number   1
_chemical_formula_structural   H13S2N3O8
_chemical_formula_sum   'H26 S4 N6 O16'
_cell_volume   470.79820092
_cell_formula_units_Z   2
loop_
 _symmetry_equiv_pos_site_id
 _symmetry_equiv_pos_as_xyz
  1  'x, y, z'
loop_
 _atom_site_type_symbol
 _atom_site_label
 _atom_site_symmetry_multiplicity
 _atom_site_fract_x
 _atom_site_fract_y
 _atom_site_fract_z
 _atom_site_occupancy
  H  H0  1  0.65365900  0.41068800  0.17522000  1
  H  H1  1  0.41068800  0.65365900  0.67522000  1
  H  H2  1  0.34634100  0.58931200  0.82478000  1
  H  H3  1  0.58931200  0.34634100  0.32478000  1
  H  H4  1  0.86851600  0.22405600  0.28213800  1
  H  H5  1  0.22405600  0.86851600  0.78213800  1
  H  H6  1  0.13148400  0.77594400  0.71786200  1
  H  H7  1  0.77594400  0.13148400  0.21786200  1
  H  H8  1  0.86970100  0.48002400  0.75697300  1
  H  H9  1  0.48002400  0.86970100  0.25697300  1
  H  H10  1  0.13029900  0.51997600  0.24302700  1
  H  H11  1  0.51997600  0.13029900  0.74302700  1
  H  H12  1  0.95441800  0.55828200  0.84414100  1
  H  H13  1  0.55828200  0.95441800  0.34414100  1
  H  H14  1  0.04558200  0.44171800  0.15585900  1
  H  H15  1  0.44171800  0.04558200  0.65585900  1
  H  H16  1  0.76990400  0.54718900  0.91618400  1
  H  H17  1  0.54718900  0.76990400  0.41618400  1
  H  H18  1  0.23009600  0.45281100  0.08381600  1
  H  H19  1  0.45281100  0.23009600  0.58381600  1
  H  H20  1  0.06496400  0.28326100  0.87565200  1
  H  H21  1  0.28326100  0.06496400  0.37565200  1
  H  H22  1  0.93503600  0.71673900  0.12434800  1
  H  H23  1  0.71673900  0.93503600  0.62434800  1
  H  H24  1  0.00000000  0.00000000  0.50000000  1
  H  H25  1  0.00000000  0.00000000  0.00000000  1
  S  S26  1  0.31988500  0.90533600  0.03878500  1
  S  S27  1  0.90533600  0.31988500  0.53878500  1
  S  S28  1  0.68011500  0.09466400  0.96121500  1
  S  S29  1  0.09466400  0.68011500  0.46121500  1
  N  N30  1  0.27671900  0.72328100  0.75000000  1
  N  N31  1  0.72328100  0.27671900  0.25000000  1
  N  N32  1  0.91452500  0.46730700  0.84809100  1
  N  N33  1  0.46730700  0.91452500  0.34809100  1
  N  N34  1  0.08547500  0.53269300  0.15190900  1
  N  N35  1  0.53269300  0.08547500  0.65190900  1
  O  O36  1  0.17198700  0.12692900  0.10770800  1
  O  O37  1  0.12692900  0.17198700  0.60770800  1
  O  O38  1  0.82801300  0.87307100  0.89229200  1
  O  O39  1  0.87307100  0.82801300  0.39229200  1
  O  O40  1  0.18681000  0.84049600  0.05556300  1
  O  O41  1  0.84049600  0.18681000  0.55556300  1
  O  O42  1  0.81319000  0.15950400  0.94443700  1
  O  O43  1  0.15950400  0.81319000  0.44443700  1
  O  O44  1  0.35027100  0.94573200  0.89573400  1
  O  O45  1  0.94573200  0.35027100  0.39573400  1
  O  O46  1  0.64972900  0.05426800  0.10426600  1
  O  O47  1  0.05426800  0.64972900  0.60426600  1
  O  O48  1  0.55766000  0.69228600  0.09695600  1
  O  O49  1  0.69228600  0.55766000  0.59695600  1
  O  O50  1  0.44234000  0.30771400  0.90304400  1
  O  O51  1  0.30771400  0.44234000  0.40304400  1
