# generated using pymatgen
data_Rb2TeH6SO10
_symmetry_space_group_name_H-M   'P 1'
_cell_length_a   7.73476600
_cell_length_b   12.77984600
_cell_length_c   13.20344367
_cell_angle_alpha   76.63867465
_cell_angle_beta   90.00000000
_cell_angle_gamma   90.00000000
_symmetry_Int_Tables_number   1
_chemical_formula_structural   Rb2TeH6SO10
_chemical_formula_sum   'Rb8 Te4 H24 S4 O40'
_cell_volume   1269.82111187
_cell_formula_units_Z   4
loop_
 _symmetry_equiv_pos_site_id
 _symmetry_equiv_pos_as_xyz
  1  'x, y, z'
loop_
 _atom_site_type_symbol
 _atom_site_label
 _atom_site_symmetry_multiplicity
 _atom_site_fract_x
 _atom_site_fract_y
 _atom_site_fract_z
 _atom_site_occupancy
  Rb  Rb0  1  0.57917200  0.64638000  0.68698100  1
  Rb  Rb1  1  0.07917200  0.35362000  0.81301900  1
  Rb  Rb2  1  0.42082800  0.35362000  0.31301900  1
  Rb  Rb3  1  0.92082800  0.64638000  0.18698100  1
  Rb  Rb4  1  0.04862800  0.13518800  0.60351000  1
  Rb  Rb5  1  0.54862800  0.86481200  0.89649000  1
  Rb  Rb6  1  0.95137200  0.86481200  0.39649000  1
  Rb  Rb7  1  0.45137200  0.13518800  0.10351000  1
  Te  Te8  1  0.50000000  0.00000000  0.50000000  1
  Te  Te9  1  0.00000000  0.00000000  0.00000000  1
  Te  Te10  1  0.50000000  0.50000000  0.00000000  1
  Te  Te11  1  0.00000000  0.50000000  0.50000000  1
  H  H12  1  0.26320200  0.05745800  0.86720100  1
  H  H13  1  0.76320200  0.94254200  0.63279900  1
  H  H14  1  0.73679800  0.94254200  0.13279900  1
  H  H15  1  0.23679800  0.05745800  0.36720100  1
  H  H16  1  0.27869700  0.86445800  0.59650600  1
  H  H17  1  0.77869700  0.13554200  0.90349400  1
  H  H18  1  0.72130300  0.13554200  0.40349400  1
  H  H19  1  0.22130300  0.86445800  0.09650600  1
  H  H20  1  0.71658800  0.39023700  0.10227500  1
  H  H21  1  0.21658800  0.60976300  0.39772500  1
  H  H22  1  0.28341200  0.60976300  0.89772500  1
  H  H23  1  0.78341200  0.39023700  0.60227500  1
  H  H24  1  0.06076800  0.61591700  0.97543800  1
  H  H25  1  0.56076800  0.38408300  0.52456200  1
  H  H26  1  0.93923200  0.38408300  0.02456200  1
  H  H27  1  0.43923200  0.61591700  0.47543800  1
  H  H28  1  0.55371200  0.26325700  0.57526500  1
  H  H29  1  0.05371200  0.73674300  0.92473500  1
  H  H30  1  0.44628800  0.73674300  0.42473500  1
  H  H31  1  0.94628800  0.26325700  0.07526500  1
  H  H32  1  0.73916800  0.15771900  0.75914800  1
  H  H33  1  0.23916800  0.84228100  0.74085200  1
  H  H34  1  0.26083200  0.84228100  0.24085200  1
  H  H35  1  0.76083200  0.15771900  0.25914800  1
  S  S36  1  0.97581500  0.78845000  0.71395800  1
  S  S37  1  0.47581500  0.21155000  0.78604200  1
  S  S38  1  0.02418500  0.21155000  0.28604200  1
  S  S39  1  0.52418500  0.78845000  0.21395800  1
  O  O40  1  0.82869600  0.85412300  0.74220600  1
  O  O41  1  0.32869600  0.14587700  0.75779400  1
  O  O42  1  0.17130400  0.14587700  0.25779400  1
  O  O43  1  0.67130400  0.85412300  0.24220600  1
  O  O44  1  0.68940000  0.37959500  0.85819300  1
  O  O45  1  0.18940000  0.62040500  0.64180700  1
  O  O46  1  0.31060000  0.62040500  0.14180700  1
  O  O47  1  0.81060000  0.37959500  0.35819300  1
  O  O48  1  0.64161800  0.18017100  0.71005300  1
  O  O49  1  0.14161800  0.81982900  0.78994700  1
  O  O50  1  0.35838200  0.81982900  0.28994700  1
  O  O51  1  0.85838200  0.18017100  0.21005300  1
  O  O52  1  0.99264300  0.68104300  0.97519200  1
  O  O53  1  0.49264300  0.31895700  0.52480800  1
  O  O54  1  0.00735700  0.31895700  0.02480800  1
  O  O55  1  0.50735700  0.68104300  0.47519200  1
  O  O56  1  0.24053800  0.00311000  0.93418300  1
  O  O57  1  0.74053800  0.99689000  0.56581700  1
  O  O58  1  0.75946200  0.99689000  0.06581700  1
  O  O59  1  0.25946200  0.00311000  0.43418300  1
  O  O60  1  0.39675900  0.87780400  0.62163600  1
  O  O61  1  0.89675900  0.12219600  0.87836400  1
  O  O62  1  0.60324100  0.12219600  0.37836400  1
  O  O63  1  0.10324100  0.87780400  0.12163600  1
  O  O64  1  0.45802700  0.84103800  0.10732000  1
  O  O65  1  0.95802700  0.15896200  0.39268000  1
  O  O66  1  0.54197300  0.15896200  0.89268000  1
  O  O67  1  0.04197300  0.84103800  0.60732000  1
  O  O68  1  0.57091200  0.63477300  0.92533300  1
  O  O69  1  0.07091200  0.36522700  0.57466700  1
  O  O70  1  0.42908800  0.36522700  0.07466700  1
  O  O71  1  0.92908800  0.63477300  0.42533300  1
  O  O72  1  0.05507100  0.55637700  0.64419500  1
  O  O73  1  0.55507100  0.44362300  0.85580500  1
  O  O74  1  0.94492900  0.44362300  0.35580500  1
  O  O75  1  0.44492900  0.55637700  0.14419500  1
  O  O76  1  0.26012600  0.53646100  0.93868600  1
  O  O77  1  0.76012600  0.46353900  0.56131400  1
  O  O78  1  0.73987400  0.46353900  0.06131400  1
  O  O79  1  0.23987400  0.53646100  0.43868600  1
