# generated using pymatgen
data_ZnH3CNO3
_symmetry_space_group_name_H-M   'P 1'
_cell_length_a   5.23911300
_cell_length_b   8.31127900
_cell_length_c   9.44474200
_cell_angle_alpha   90.00000000
_cell_angle_beta   90.00000000
_cell_angle_gamma   90.00000000
_symmetry_Int_Tables_number   1
_chemical_formula_structural   ZnH3CNO3
_chemical_formula_sum   'Zn4 H12 C4 N4 O12'
_cell_volume   411.25929420
_cell_formula_units_Z   4
loop_
 _symmetry_equiv_pos_site_id
 _symmetry_equiv_pos_as_xyz
  1  'x, y, z'
loop_
 _atom_site_type_symbol
 _atom_site_label
 _atom_site_symmetry_multiplicity
 _atom_site_fract_x
 _atom_site_fract_y
 _atom_site_fract_z
 _atom_site_occupancy
  Zn  Zn0  1  0.25439200  0.31685900  0.38109700  1
  Zn  Zn1  1  0.75439200  0.68314100  0.61890300  1
  Zn  Zn2  1  0.75439200  0.81685900  0.11890300  1
  Zn  Zn3  1  0.25439200  0.18314100  0.88109700  1
  H  H4  1  0.12479900  0.60338600  0.15003600  1
  H  H5  1  0.62479900  0.39661400  0.84996400  1
  H  H6  1  0.62479900  0.10338600  0.34996400  1
  H  H7  1  0.12479900  0.89661400  0.65003600  1
  H  H8  1  0.99325200  0.58177300  0.99213100  1
  H  H9  1  0.49325200  0.41822700  0.00786900  1
  H  H10  1  0.49325200  0.08177300  0.50786900  1
  H  H11  1  0.99325200  0.91822700  0.49213100  1
  H  H12  1  0.18903400  0.73492500  0.02582500  1
  H  H13  1  0.68903400  0.26507500  0.97417500  1
  H  H14  1  0.68903400  0.23492500  0.47417500  1
  H  H15  1  0.18903400  0.76507500  0.52582500  1
  C  C16  1  0.98576500  0.12518500  0.15037500  1
  C  C17  1  0.48576500  0.87481500  0.84962500  1
  C  C18  1  0.48576500  0.62518500  0.34962500  1
  C  C19  1  0.98576500  0.37481500  0.65037500  1
  N  N20  1  0.04321000  0.66626300  0.06698200  1
  N  N21  1  0.54321000  0.33373700  0.93301800  1
  N  N22  1  0.54321000  0.16626300  0.43301800  1
  N  N23  1  0.04321000  0.83373700  0.56698200  1
  O  O24  1  0.99025600  0.39278400  0.51227200  1
  O  O25  1  0.49025600  0.60721600  0.48772800  1
  O  O26  1  0.49025600  0.89278400  0.98772800  1
  O  O27  1  0.99025600  0.10721600  0.01227200  1
  O  O28  1  0.06963900  0.25548000  0.20629800  1
  O  O29  1  0.56963900  0.74452000  0.79370200  1
  O  O30  1  0.56963900  0.75548000  0.29370200  1
  O  O31  1  0.06963900  0.24452000  0.70629800  1
  O  O32  1  0.38325300  0.51158500  0.27413900  1
  O  O33  1  0.88325300  0.48841500  0.72586100  1
  O  O34  1  0.88325300  0.01158500  0.22586100  1
  O  O35  1  0.38325300  0.98841500  0.77413900  1
