# generated using pymatgen
data_ZrH7CN4F5
_symmetry_space_group_name_H-M   'P 1'
_cell_length_a   6.75764600
_cell_length_b   7.00543600
_cell_length_c   16.43293200
_cell_angle_alpha   90.00000000
_cell_angle_beta   90.00000000
_cell_angle_gamma   90.00000000
_symmetry_Int_Tables_number   1
_chemical_formula_structural   ZrH7CN4F5
_chemical_formula_sum   'Zr4 H28 C4 N16 F20'
_cell_volume   777.93921697
_cell_formula_units_Z   4
loop_
 _symmetry_equiv_pos_site_id
 _symmetry_equiv_pos_as_xyz
  1  'x, y, z'
loop_
 _atom_site_type_symbol
 _atom_site_label
 _atom_site_symmetry_multiplicity
 _atom_site_fract_x
 _atom_site_fract_y
 _atom_site_fract_z
 _atom_site_occupancy
  Zr  Zr0  1  0.56114200  0.25000000  0.29204500  1
  Zr  Zr1  1  0.06114200  0.25000000  0.20795500  1
  Zr  Zr2  1  0.43885800  0.75000000  0.70795500  1
  Zr  Zr3  1  0.93885800  0.75000000  0.79204500  1
  H  H4  1  0.57107900  0.25000000  0.82312200  1
  H  H5  1  0.07107900  0.25000000  0.67687800  1
  H  H6  1  0.42892100  0.75000000  0.17687800  1
  H  H7  1  0.92892100  0.75000000  0.32312200  1
  H  H8  1  0.74367600  0.36634800  0.65117500  1
  H  H9  1  0.24367600  0.13365200  0.84882500  1
  H  H10  1  0.25632400  0.86634800  0.34882500  1
  H  H11  1  0.75632400  0.63365200  0.15117500  1
  H  H12  1  0.25632400  0.63365200  0.34882500  1
  H  H13  1  0.75632400  0.86634800  0.15117500  1
  H  H14  1  0.74367600  0.13365200  0.65117500  1
  H  H15  1  0.24367600  0.36634800  0.84882500  1
  H  H16  1  0.86957000  0.25000000  0.88632600  1
  H  H17  1  0.36957000  0.25000000  0.61367400  1
  H  H18  1  0.13043000  0.75000000  0.11367400  1
  H  H19  1  0.63043000  0.75000000  0.38632600  1
  H  H20  1  0.89203300  0.25000000  0.99246600  1
  H  H21  1  0.39203300  0.25000000  0.50753400  1
  H  H22  1  0.10796700  0.75000000  0.00753400  1
  H  H23  1  0.60796700  0.75000000  0.49246600  1
  H  H24  1  0.58969300  0.25000000  0.07163700  1
  H  H25  1  0.08969300  0.25000000  0.42836300  1
  H  H26  1  0.41030700  0.75000000  0.92836300  1
  H  H27  1  0.91030700  0.75000000  0.57163700  1
  H  H28  1  0.36234800  0.25000000  0.01929300  1
  H  H29  1  0.86234800  0.25000000  0.48070700  1
  H  H30  1  0.63765200  0.75000000  0.98070700  1
  H  H31  1  0.13765200  0.75000000  0.51929300  1
  C  C32  1  0.60659000  0.25000000  0.94711300  1
  C  C33  1  0.10659000  0.25000000  0.55288700  1
  C  C34  1  0.39341000  0.75000000  0.05288700  1
  C  C35  1  0.89341000  0.75000000  0.44711300  1
  N  N36  1  0.50089100  0.25000000  0.87797700  1
  N  N37  1  0.00089100  0.25000000  0.62202300  1
  N  N38  1  0.49910900  0.75000000  0.12202300  1
  N  N39  1  0.99910900  0.75000000  0.37797700  1
  N  N40  1  0.79378400  0.25000000  0.61965100  1
  N  N41  1  0.29378400  0.25000000  0.88034900  1
  N  N42  1  0.20621600  0.75000000  0.38034900  1
  N  N43  1  0.70621600  0.75000000  0.11965100  1
  N  N44  1  0.80409700  0.25000000  0.94198600  1
  N  N45  1  0.30409700  0.25000000  0.55801400  1
  N  N46  1  0.19590300  0.75000000  0.05801400  1
  N  N47  1  0.69590300  0.75000000  0.44198600  1
  N  N48  1  0.51340800  0.25000000  0.01862300  1
  N  N49  1  0.01340800  0.25000000  0.48137700  1
  N  N50  1  0.48659200  0.75000000  0.98137700  1
  N  N51  1  0.98659200  0.75000000  0.51862300  1
  F  F52  1  0.87028800  0.25000000  0.31673600  1
  F  F53  1  0.37028800  0.25000000  0.18326400  1
  F  F54  1  0.12971200  0.75000000  0.68326400  1
  F  F55  1  0.62971200  0.75000000  0.81673600  1
  F  F56  1  0.74724200  0.25000000  0.17960500  1
  F  F57  1  0.24724200  0.25000000  0.32039500  1
  F  F58  1  0.25275800  0.75000000  0.82039500  1
  F  F59  1  0.75275800  0.75000000  0.67960500  1
  F  F60  1  0.56112200  0.25000000  0.41415000  1
  F  F61  1  0.06112200  0.25000000  0.08585000  1
  F  F62  1  0.43887800  0.75000000  0.58585000  1
  F  F63  1  0.93887800  0.75000000  0.91415000  1
  F  F64  1  0.55373400  0.53674700  0.28264400  1
  F  F65  1  0.05373400  0.96325300  0.21735600  1
  F  F66  1  0.44626600  0.03674700  0.71735600  1
  F  F67  1  0.94626600  0.46325300  0.78264400  1
  F  F68  1  0.44626600  0.46325300  0.71735600  1
  F  F69  1  0.94626600  0.03674700  0.78264400  1
  F  F70  1  0.55373400  0.96325300  0.28264400  1
  F  F71  1  0.05373400  0.53674700  0.21735600  1
