# generated using pymatgen
data_K4Tc2H6C8O21
_symmetry_space_group_name_H-M   'P 1'
_cell_length_a   9.59400100
_cell_length_b   10.11132735
_cell_length_c   12.97084115
_cell_angle_alpha   84.24597862
_cell_angle_beta   87.54362670
_cell_angle_gamma   69.53486275
_symmetry_Int_Tables_number   1
_chemical_formula_structural   K4Tc2H6C8O21
_chemical_formula_sum   'K8 Tc4 H12 C16 O42'
_cell_volume   1172.87965206
_cell_formula_units_Z   2
loop_
 _symmetry_equiv_pos_site_id
 _symmetry_equiv_pos_as_xyz
  1  'x, y, z'
loop_
 _atom_site_type_symbol
 _atom_site_label
 _atom_site_symmetry_multiplicity
 _atom_site_fract_x
 _atom_site_fract_y
 _atom_site_fract_z
 _atom_site_occupancy
  K  K0  1  0.88752300  0.71240300  0.06046800  1
  K  K1  1  0.11247700  0.28759700  0.93953200  1
  K  K2  1  0.58578800  0.59976400  0.63139300  1
  K  K3  1  0.41421200  0.40023600  0.36860700  1
  K  K4  1  0.40126300  0.65591700  0.11023400  1
  K  K5  1  0.59873700  0.34408300  0.88976600  1
  K  K6  1  0.22446200  0.01301100  0.64690000  1
  K  K7  1  0.77553800  0.98698900  0.35310000  1
  Tc  Tc8  1  0.72053200  0.91697700  0.73175400  1
  Tc  Tc9  1  0.27946800  0.08302300  0.26824600  1
  Tc  Tc10  1  0.96859300  0.73850600  0.72200200  1
  Tc  Tc11  1  0.03140700  0.26149400  0.27799800  1
  H  H12  1  0.87135900  0.37067800  0.69788400  1
  H  H13  1  0.12864100  0.62932200  0.30211600  1
  H  H14  1  0.85264000  0.47728700  0.78232200  1
  H  H15  1  0.14736000  0.52271300  0.21767800  1
  H  H16  1  0.81006600  0.64812400  0.30822200  1
  H  H17  1  0.18993400  0.35187600  0.69177800  1
  H  H18  1  0.66888200  0.74174000  0.24783300  1
  H  H19  1  0.33111800  0.25826000  0.75216700  1
  H  H20  1  0.97544000  0.03147500  0.01344900  1
  H  H21  1  0.02456000  0.96852500  0.98655100  1
  H  H22  1  0.94102300  0.00041300  0.70181500  1
  H  H23  1  0.05897700  0.99958700  0.29818500  1
  C  C24  1  0.59170600  0.22144600  0.66568800  1
  C  C25  1  0.40829400  0.77855400  0.33431200  1
  C  C26  1  0.64494100  0.14738700  0.56519300  1
  C  C27  1  0.35505900  0.85261300  0.43480700  1
  C  C28  1  0.45062900  0.92213900  0.83530600  1
  C  C29  1  0.54937100  0.07786100  0.16469400  1
  C  C30  1  0.57319200  0.86641700  0.91919900  1
  C  C31  1  0.42680800  0.13358300  0.08080100  1
  C  C32  1  0.28137400  0.66410900  0.81279400  1
  C  C33  1  0.71862600  0.33589100  0.18720600  1
  C  C34  1  0.23199300  0.61115300  0.91950800  1
  C  C35  1  0.76800700  0.38884700  0.08049200  1
  C  C36  1  0.05181300  0.72368700  0.50086700  1
  C  C37  1  0.94818700  0.27631300  0.49913300  1
  C  C38  1  0.10338200  0.56824700  0.55030300  1
  C  C39  1  0.89661800  0.43175300  0.44969700  1
  O  O40  1  0.61657600  0.13407500  0.74981400  1
  O  O41  1  0.38342400  0.86592500  0.25018600  1
  O  O42  1  0.70796100  0.01026200  0.58070900  1
  O  O43  1  0.29203900  0.98973800  0.41929100  1
  O  O44  1  0.50282600  0.92395900  0.73896200  1
  O  O45  1  0.49717400  0.07604100  0.26103800  1
  O  O46  1  0.70631700  0.86229100  0.88433600  1
  O  O47  1  0.29368300  0.13770900  0.11566400  1
  O  O48  1  0.18587400  0.72643200  0.73804000  1
  O  O49  1  0.81412600  0.27356800  0.26196000  1
  O  O50  1  0.97461700  0.64540700  0.84307500  1
  O  O51  1  0.02538300  0.35459300  0.15692500  1
  O  O52  1  0.00614200  0.81664800  0.56775800  1
  O  O53  1  0.99385800  0.18335200  0.43224200  1
  O  O54  1  0.06195400  0.55369100  0.64736800  1
  O  O55  1  0.93804600  0.44630900  0.35263200  1
  O  O56  1  0.77564500  0.73443600  0.68351800  1
  O  O57  1  0.22435500  0.26556400  0.31648200  1
  O  O58  1  0.91703700  0.94350000  0.76112200  1
  O  O59  1  0.08296300  0.05650000  0.23887800  1
  O  O60  1  0.52986000  0.35126800  0.66416300  1
  O  O61  1  0.47014000  0.64873200  0.33583700  1
  O  O62  1  0.62746100  0.21395600  0.47858000  1
  O  O63  1  0.37253900  0.78604400  0.52142000  1
  O  O64  1  0.31731700  0.96120600  0.85759900  1
  O  O65  1  0.68268300  0.03879400  0.14240100  1
  O  O66  1  0.54880400  0.82900100  0.00906200  1
  O  O67  1  0.45119600  0.17099900  0.99093800  1
  O  O68  1  0.41677000  0.64629600  0.80203400  1
  O  O69  1  0.58323000  0.35370400  0.19796600  1
  O  O70  1  0.27849500  0.47789500  0.93825000  1
  O  O71  1  0.72150500  0.52210500  0.06175000  1
  O  O72  1  0.05559100  0.75240100  0.40537100  1
  O  O73  1  0.94440900  0.24759900  0.59462900  1
  O  O74  1  0.17846900  0.46876900  0.50133600  1
  O  O75  1  0.82153100  0.53123100  0.49866400  1
  O  O76  1  0.81529700  0.40614100  0.76118300  1
  O  O77  1  0.18470300  0.59385900  0.23881700  1
  O  O78  1  0.83524900  0.29602900  0.01963100  1
  O  O79  1  0.16475100  0.70397100  0.98036900  1
  O  O80  1  0.76647800  0.74020300  0.26786800  1
  O  O81  1  0.23352200  0.25979700  0.73213200  1
