# generated using pymatgen
data_CeP2(HO4)2
_symmetry_space_group_name_H-M   'P 1'
_cell_length_a   6.72242900
_cell_length_b   7.08989000
_cell_length_c   15.77047000
_cell_angle_alpha   90.00000000
_cell_angle_beta   90.00000000
_cell_angle_gamma   90.00000000
_symmetry_Int_Tables_number   1
_chemical_formula_structural   CeP2(HO4)2
_chemical_formula_sum   'Ce4 P8 H8 O32'
_cell_volume   751.64082019
_cell_formula_units_Z   4
loop_
 _symmetry_equiv_pos_site_id
 _symmetry_equiv_pos_as_xyz
  1  'x, y, z'
loop_
 _atom_site_type_symbol
 _atom_site_label
 _atom_site_symmetry_multiplicity
 _atom_site_fract_x
 _atom_site_fract_y
 _atom_site_fract_z
 _atom_site_occupancy
  Ce  Ce0  1  0.36583100  0.57175700  0.27405700  1
  Ce  Ce1  1  0.86583100  0.92824300  0.72594300  1
  Ce  Ce2  1  0.63416900  0.07175700  0.22594300  1
  Ce  Ce3  1  0.13416900  0.42824300  0.77405700  1
  P  P4  1  0.38869100  0.78137300  0.07178300  1
  P  P5  1  0.88869100  0.71862700  0.92821700  1
  P  P6  1  0.61130900  0.28137300  0.42821700  1
  P  P7  1  0.11130900  0.21862700  0.57178300  1
  P  P8  1  0.83137400  0.59277400  0.23308800  1
  P  P9  1  0.33137400  0.90722600  0.76691200  1
  P  P10  1  0.16862600  0.09277400  0.26691200  1
  P  P11  1  0.66862600  0.40722600  0.73308800  1
  H  H12  1  0.20985000  0.88510200  0.07274100  1
  H  H13  1  0.70985000  0.61489800  0.92725900  1
  H  H14  1  0.79015000  0.38510200  0.42725900  1
  H  H15  1  0.29015000  0.11489800  0.57274100  1
  H  H16  1  0.88267300  0.63660100  0.14866100  1
  H  H17  1  0.38267300  0.86339900  0.85133900  1
  H  H18  1  0.11732700  0.13660100  0.35133900  1
  H  H19  1  0.61732700  0.36339900  0.64866100  1
  O  O20  1  0.35738600  0.61742100  0.13881800  1
  O  O21  1  0.85738600  0.88257900  0.86118200  1
  O  O22  1  0.64261400  0.11742100  0.36118200  1
  O  O23  1  0.14261400  0.38257900  0.63881800  1
  O  O24  1  0.54864500  0.91802400  0.11344700  1
  O  O25  1  0.04864500  0.58197600  0.88655300  1
  O  O26  1  0.45135500  0.41802400  0.38655300  1
  O  O27  1  0.95135500  0.08197600  0.61344700  1
  O  O28  1  0.44086200  0.71237000  0.98552100  1
  O  O29  1  0.94086200  0.78763000  0.01447900  1
  O  O30  1  0.55913800  0.21237000  0.51447900  1
  O  O31  1  0.05913800  0.28763000  0.48552100  1
  O  O32  1  0.02396400  0.57600600  0.28433000  1
  O  O33  1  0.52396400  0.92399400  0.71567000  1
  O  O34  1  0.97603600  0.07600600  0.21567000  1
  O  O35  1  0.47603600  0.42399400  0.78433000  1
  O  O36  1  0.68960700  0.75081900  0.26814500  1
  O  O37  1  0.18960700  0.74918100  0.73185500  1
  O  O38  1  0.31039300  0.25081900  0.23185500  1
  O  O39  1  0.81039300  0.24918100  0.76814500  1
  O  O40  1  0.69692300  0.41343000  0.23408900  1
  O  O41  1  0.19692300  0.08657000  0.76591100  1
  O  O42  1  0.30307700  0.91343000  0.26591100  1
  O  O43  1  0.80307700  0.58657000  0.73408900  1
  O  O44  1  0.36354200  0.77132300  0.45602700  1
  O  O45  1  0.86354200  0.72867700  0.54397300  1
  O  O46  1  0.63645800  0.27132300  0.04397300  1
  O  O47  1  0.13645800  0.22867700  0.95602700  1
  O  O48  1  0.90399000  0.79421700  0.47357800  1
  O  O49  1  0.40399000  0.70578300  0.52642200  1
  O  O50  1  0.09601000  0.29421700  0.02642200  1
  O  O51  1  0.59601000  0.20578300  0.97357800  1
