# generated using pymatgen
data_FeH16C4S4(N4Cl)2
_symmetry_space_group_name_H-M   'P 1'
_cell_length_a   13.78453900
_cell_length_b   13.78453900
_cell_length_c   9.17549300
_cell_angle_alpha   90.00000000
_cell_angle_beta   90.00000000
_cell_angle_gamma   90.00000000
_symmetry_Int_Tables_number   1
_chemical_formula_structural   FeH16C4S4(N4Cl)2
_chemical_formula_sum   'Fe4 H64 C16 S16 N32 Cl8'
_cell_volume   1743.46768085
_cell_formula_units_Z   4
loop_
 _symmetry_equiv_pos_site_id
 _symmetry_equiv_pos_as_xyz
  1  'x, y, z'
loop_
 _atom_site_type_symbol
 _atom_site_label
 _atom_site_symmetry_multiplicity
 _atom_site_fract_x
 _atom_site_fract_y
 _atom_site_fract_z
 _atom_site_occupancy
  Fe  Fe0  1  0.25000000  0.25000000  0.75000000  1
  Fe  Fe1  1  0.75000000  0.75000000  0.75000000  1
  Fe  Fe2  1  0.25000000  0.75000000  0.25000000  1
  Fe  Fe3  1  0.75000000  0.25000000  0.25000000  1
  H  H4  1  0.91878400  0.05674200  0.73782400  1
  H  H5  1  0.08121600  0.94325800  0.73782400  1
  H  H6  1  0.44325800  0.41878400  0.23782400  1
  H  H7  1  0.55674200  0.58121600  0.23782400  1
  H  H8  1  0.58121600  0.44325800  0.76217600  1
  H  H9  1  0.41878400  0.55674200  0.76217600  1
  H  H10  1  0.05674200  0.08121600  0.26217600  1
  H  H11  1  0.94325800  0.91878400  0.26217600  1
  H  H12  1  0.85779300  0.13730000  0.62002900  1
  H  H13  1  0.14220700  0.86270000  0.62002900  1
  H  H14  1  0.36270000  0.35779300  0.12002900  1
  H  H15  1  0.63730000  0.64220700  0.12002900  1
  H  H16  1  0.64220700  0.36270000  0.87997100  1
  H  H17  1  0.35779300  0.63730000  0.87997100  1
  H  H18  1  0.13730000  0.14220700  0.37997100  1
  H  H19  1  0.86270000  0.85779300  0.37997100  1
  H  H20  1  0.94335100  0.25124000  0.48910800  1
  H  H21  1  0.05664900  0.74876000  0.48910800  1
  H  H22  1  0.24876000  0.44335100  0.98910800  1
  H  H23  1  0.75124000  0.55664900  0.98910800  1
  H  H24  1  0.55664900  0.24876000  0.01089200  1
  H  H25  1  0.44335100  0.75124000  0.01089200  1
  H  H26  1  0.25124000  0.05664900  0.51089200  1
  H  H27  1  0.74876000  0.94335100  0.51089200  1
  H  H28  1  0.06580800  0.27121600  0.53246500  1
  H  H29  1  0.93419200  0.72878400  0.53246500  1
  H  H30  1  0.22878400  0.56580800  0.03246500  1
  H  H31  1  0.77121600  0.43419200  0.03246500  1
  H  H32  1  0.43419200  0.22878400  0.96753500  1
  H  H33  1  0.56580800  0.77121600  0.96753500  1
  H  H34  1  0.27121600  0.93419200  0.46753500  1
  H  H35  1  0.72878400  0.06580800  0.46753500  1
  H  H36  1  0.32892800  0.85797200  0.82456400  1
  H  H37  1  0.67107200  0.14202800  0.82456400  1
  H  H38  1  0.64202800  0.82892800  0.32456400  1
  H  H39  1  0.35797200  0.17107200  0.32456400  1
  H  H40  1  0.17107200  0.64202800  0.67543600  1
  H  H41  1  0.82892800  0.35797200  0.67543600  1
  H  H42  1  0.85797200  0.67107200  0.17543600  1
  H  H43  1  0.14202800  0.32892800  0.17543600  1
  H  H44  1  0.40569000  0.91513000  0.69809400  1
  H  H45  1  0.59431000  0.08487000  0.69809400  1
  H  H46  1  0.58487000  0.90569000  0.19809400  1
  H  H47  1  0.41513000  0.09431000  0.19809400  1
  H  H48  1  0.09431000  0.58487000  0.80190600  1
  H  H49  1  0.90569000  0.41513000  0.80190600  1
  H  H50  1  0.91513000  0.59431000  0.30190600  1
  H  H51  1  0.08487000  0.40569000  0.30190600  1
  H  H52  1  0.24777700  0.07966100  0.97423900  1
  H  H53  1  0.75222300  0.92033900  0.97423900  1
  H  H54  1  0.42033900  0.74777700  0.47423900  1
  H  H55  1  0.57966100  0.25222300  0.47423900  1
  H  H56  1  0.25222300  0.42033900  0.52576100  1
  H  H57  1  0.74777700  0.57966100  0.52576100  1
  H  H58  1  0.07966100  0.75222300  0.02576100  1
  H  H59  1  0.92033900  0.24777700  0.02576100  1
  H  H60  1  0.24455700  0.95230200  0.99399300  1
  H  H61  1  0.75544300  0.04769800  0.99399300  1
  H  H62  1  0.54769800  0.74455700  0.49399300  1
  H  H63  1  0.45230200  0.25544300  0.49399300  1
  H  H64  1  0.25544300  0.54769800  0.50600700  1
  H  H65  1  0.74455700  0.45230200  0.50600700  1
  H  H66  1  0.95230200  0.75544300  0.00600700  1
  H  H67  1  0.04769800  0.24455700  0.00600700  1
  C  C68  1  0.00243200  0.16454400  0.65117800  1
  C  C69  1  0.99756800  0.83545600  0.65117800  1
  C  C70  1  0.33545600  0.50243200  0.15117800  1
  C  C71  1  0.66454400  0.49756800  0.15117800  1
  C  C72  1  0.49756800  0.33545600  0.84882200  1
  C  C73  1  0.50243200  0.66454400  0.84882200  1
  C  C74  1  0.16454400  0.99756800  0.34882200  1
  C  C75  1  0.83545600  0.00243200  0.34882200  1
  C  C76  1  0.32547500  0.00722900  0.82223200  1
  C  C77  1  0.67452500  0.99277100  0.82223200  1
  C  C78  1  0.49277100  0.82547500  0.32223200  1
  C  C79  1  0.50722900  0.17452500  0.32223200  1
  C  C80  1  0.17452500  0.49277100  0.67776800  1
  C  C81  1  0.82547500  0.50722900  0.67776800  1
  C  C82  1  0.00722900  0.67452500  0.17776800  1
  C  C83  1  0.99277100  0.32547500  0.17776800  1
  S  S84  1  0.10448400  0.13263300  0.74830000  1
  S  S85  1  0.89551600  0.86736700  0.74830000  1
  S  S86  1  0.36736700  0.60448400  0.24830000  1
  S  S87  1  0.63263300  0.39551600  0.24830000  1
  S  S88  1  0.39551600  0.36736700  0.75170000  1
  S  S89  1  0.60448400  0.63263300  0.75170000  1
  S  S90  1  0.13263300  0.89551600  0.25170000  1
  S  S91  1  0.86736700  0.10448400  0.25170000  1
  S  S92  1  0.36525200  0.11007400  0.73347700  1
  S  S93  1  0.63474800  0.88992600  0.73347700  1
  S  S94  1  0.38992600  0.86525200  0.23347700  1
  S  S95  1  0.61007400  0.13474800  0.23347700  1
  S  S96  1  0.13474800  0.38992600  0.76652300  1
  S  S97  1  0.86525200  0.61007400  0.76652300  1
  S  S98  1  0.11007400  0.63474800  0.26652300  1
  S  S99  1  0.88992600  0.36525200  0.26652300  1
  N  N100  1  0.91887200  0.11835900  0.67679400  1
  N  N101  1  0.08112800  0.88164100  0.67679400  1
  N  N102  1  0.38164100  0.41887200  0.17679400  1
  N  N103  1  0.61835900  0.58112800  0.17679400  1
  N  N104  1  0.58112800  0.38164100  0.82320600  1
  N  N105  1  0.41887200  0.61835900  0.82320600  1
  N  N106  1  0.11835900  0.08112800  0.32320600  1
  N  N107  1  0.88164100  0.91887200  0.32320600  1
  N  N108  1  0.00324800  0.23412500  0.54961200  1
  N  N109  1  0.99675200  0.76587500  0.54961200  1
  N  N110  1  0.26587500  0.50324800  0.04961200  1
  N  N111  1  0.73412500  0.49675200  0.04961200  1
  N  N112  1  0.49675200  0.26587500  0.95038800  1
  N  N113  1  0.50324800  0.73412500  0.95038800  1
  N  N114  1  0.23412500  0.99675200  0.45038800  1
  N  N115  1  0.76587500  0.00324800  0.45038800  1
  N  N116  1  0.35209900  0.91960700  0.77301600  1
  N  N117  1  0.64790100  0.08039300  0.77301600  1
  N  N118  1  0.58039300  0.85209900  0.27301600  1
  N  N119  1  0.41960700  0.14790100  0.27301600  1
  N  N120  1  0.14790100  0.58039300  0.72698400  1
  N  N121  1  0.85209900  0.41960700  0.72698400  1
  N  N122  1  0.91960700  0.64790100  0.22698400  1
  N  N123  1  0.08039300  0.35209900  0.22698400  1
  N  N124  1  0.26766100  0.01236900  0.93842900  1
  N  N125  1  0.73233900  0.98763100  0.93842900  1
  N  N126  1  0.48763100  0.76766100  0.43842900  1
  N  N127  1  0.51236900  0.23233900  0.43842900  1
  N  N128  1  0.23233900  0.48763100  0.56157100  1
  N  N129  1  0.76766100  0.51236900  0.56157100  1
  N  N130  1  0.01236900  0.73233900  0.06157100  1
  N  N131  1  0.98763100  0.26766100  0.06157100  1
  Cl  Cl132  1  0.24959000  0.24067900  0.02765900  1
  Cl  Cl133  1  0.75041000  0.75932100  0.02765900  1
  Cl  Cl134  1  0.25932100  0.74959000  0.52765900  1
  Cl  Cl135  1  0.74067900  0.25041000  0.52765900  1
  Cl  Cl136  1  0.25041000  0.25932100  0.47234100  1
  Cl  Cl137  1  0.74959000  0.74067900  0.47234100  1
  Cl  Cl138  1  0.24067900  0.75041000  0.97234100  1
  Cl  Cl139  1  0.75932100  0.24959000  0.97234100  1
