# generated using pymatgen
data_Na2Si(H3O2)6
_symmetry_space_group_name_H-M   'P 1'
_cell_length_a   11.79742630
_cell_length_b   11.79742630
_cell_length_c   11.79742630
_cell_angle_alpha   121.50831694
_cell_angle_beta   120.41474880
_cell_angle_gamma   88.34517679
_symmetry_Int_Tables_number   1
_chemical_formula_structural   Na2Si(H3O2)6
_chemical_formula_sum   'Na8 Si4 H72 O48'
_cell_volume   1143.51231432
_cell_formula_units_Z   4
loop_
 _symmetry_equiv_pos_site_id
 _symmetry_equiv_pos_as_xyz
  1  'x, y, z'
loop_
 _atom_site_type_symbol
 _atom_site_label
 _atom_site_symmetry_multiplicity
 _atom_site_fract_x
 _atom_site_fract_y
 _atom_site_fract_z
 _atom_site_occupancy
  Na  Na0  1  0.19249800  0.90621300  0.46627000  1
  Na  Na1  1  0.56005700  0.59378700  0.78628500  1
  Na  Na2  1  0.93994300  0.72622800  0.03373000  1
  Na  Na3  1  0.30750200  0.77377200  0.71371500  1
  Na  Na4  1  0.80750200  0.09378700  0.53373000  1
  Na  Na5  1  0.43994300  0.40621300  0.21371500  1
  Na  Na6  1  0.06005700  0.27377200  0.96627000  1
  Na  Na7  1  0.69249800  0.22622800  0.28628500  1
  Si  Si8  1  0.12861700  0.25000000  0.37861700  1
  Si  Si9  1  0.37138300  0.75000000  0.12138300  1
  Si  Si10  1  0.87138300  0.75000000  0.62138300  1
  Si  Si11  1  0.62861700  0.25000000  0.87861700  1
  H  H12  1  0.24409200  0.35731800  0.64941800  1
  H  H13  1  0.29210000  0.14268200  0.38677400  1
  H  H14  1  0.20790000  0.59467400  0.85058200  1
  H  H15  1  0.25590800  0.90532600  0.11322600  1
  H  H16  1  0.75590800  0.64268200  0.35058200  1
  H  H17  1  0.70790000  0.85731800  0.61322600  1
  H  H18  1  0.79210000  0.40532600  0.14941800  1
  H  H19  1  0.74409200  0.09467400  0.88677400  1
  H  H20  1  0.36054900  0.94559100  0.38181600  1
  H  H21  1  0.43622500  0.55440900  0.91495800  1
  H  H22  1  0.06377500  0.97873300  0.11818400  1
  H  H23  1  0.13945100  0.52126700  0.58504200  1
  H  H24  1  0.63945100  0.05440900  0.61818400  1
  H  H25  1  0.56377500  0.44559100  0.08504200  1
  H  H26  1  0.93622500  0.02126700  0.88181600  1
  H  H27  1  0.86054900  0.47873300  0.41495800  1
  H  H28  1  0.43983800  0.09919900  0.54729200  1
  H  H29  1  0.44809300  0.40080100  0.84063900  1
  H  H30  1  0.05190700  0.89254600  0.95270800  1
  H  H31  1  0.06016200  0.60745400  0.65936100  1
  H  H32  1  0.56016200  0.90080100  0.45270800  1
  H  H33  1  0.55190700  0.59919900  0.15936100  1
  H  H34  1  0.94809300  0.10745400  0.04729200  1
  H  H35  1  0.93983800  0.39254600  0.34063900  1
  H  H36  1  0.33425700  0.18721800  0.76440500  1
  H  H37  1  0.57718700  0.31278200  0.64703800  1
  H  H38  1  0.92281300  0.56985200  0.73559500  1
  H  H39  1  0.16574300  0.93014800  0.85296200  1
  H  H40  1  0.66574300  0.81278200  0.23559500  1
  H  H41  1  0.42281300  0.68721800  0.35296200  1
  H  H42  1  0.07718700  0.43014800  0.26440500  1
  H  H43  1  0.83425700  0.06985200  0.14703800  1
  H  H44  1  0.19279300  0.17384500  0.62302300  1
  H  H45  1  0.44917700  0.32615500  0.51894800  1
  H  H46  1  0.05082300  0.56977000  0.87697700  1
  H  H47  1  0.30720700  0.93023000  0.98105200  1
  H  H48  1  0.80720700  0.82615500  0.37697700  1
  H  H49  1  0.55082300  0.67384500  0.48105200  1
  H  H50  1  0.94917700  0.43023000  0.12302300  1
  H  H51  1  0.69279300  0.06977000  0.01894800  1
  H  H52  1  0.99760900  0.27384500  0.53951400  1
  H  H53  1  0.26567000  0.22615500  0.22376500  1
  H  H54  1  0.23433000  0.45809500  0.96048600  1
  H  H55  1  0.50239100  0.04190500  0.27623500  1
  H  H56  1  0.00239100  0.72615500  0.46048600  1
  H  H57  1  0.73433000  0.77384500  0.77623500  1
  H  H58  1  0.76567000  0.54190500  0.03951400  1
  H  H59  1  0.49760900  0.95809500  0.72376500  1
  H  H60  1  0.92669700  0.35689600  0.62536600  1
  H  H61  1  0.26847100  0.14310400  0.06980100  1
  H  H62  1  0.23152900  0.30133100  0.87463400  1
  H  H63  1  0.57330300  0.19866900  0.43019900  1
  H  H64  1  0.07330300  0.64310400  0.37463400  1
  H  H65  1  0.73152900  0.85689600  0.93019900  1
  H  H66  1  0.76847100  0.69866900  0.12536600  1
  H  H67  1  0.42669700  0.80133100  0.56980100  1
  H  H68  1  0.98656500  0.00049600  0.27186400  1
  H  H69  1  0.27136800  0.49950400  0.48606900  1
  H  H70  1  0.22863200  0.71470100  0.22813600  1
  H  H71  1  0.51343500  0.78529900  0.01393100  1
  H  H72  1  0.01343500  0.99950400  0.72813600  1
  H  H73  1  0.72863200  0.50049600  0.51393100  1
  H  H74  1  0.77136800  0.28529900  0.77186400  1
  H  H75  1  0.48656500  0.21470100  0.98606900  1
  H  H76  1  0.90547700  0.91786700  0.29632400  1
  H  H77  1  0.37845700  0.58213300  0.48761000  1
  H  H78  1  0.12154300  0.60915200  0.20367600  1
  H  H79  1  0.59452300  0.89084800  0.01239000  1
  H  H80  1  0.09452300  0.08213300  0.70367600  1
  H  H81  1  0.62154300  0.41786700  0.51239000  1
  H  H82  1  0.87845700  0.39084800  0.79632400  1
  H  H83  1  0.40547700  0.10915200  0.98761000  1
  O  O84  1  0.15776900  0.27576600  0.54746200  1
  O  O85  1  0.27169700  0.22423400  0.38200300  1
  O  O86  1  0.22830300  0.61030700  0.95253800  1
  O  O87  1  0.34223100  0.88969300  0.11799700  1
  O  O88  1  0.84223100  0.72423400  0.45253800  1
  O  O89  1  0.72830300  0.77576600  0.61799700  1
  O  O90  1  0.77169700  0.38969300  0.04746200  1
  O  O91  1  0.65776900  0.11030700  0.88200300  1
  O  O92  1  0.99964700  0.10726600  0.22002600  1
  O  O93  1  0.11276000  0.39273400  0.39238100  1
  O  O94  1  0.38724000  0.77962100  0.27997400  1
  O  O95  1  0.50035300  0.72037900  0.10761900  1
  O  O96  1  0.00035300  0.89273400  0.77997400  1
  O  O97  1  0.88724000  0.60726600  0.60761900  1
  O  O98  1  0.61276000  0.22037900  0.72002600  1
  O  O99  1  0.49964700  0.27962100  0.89238100  1
  O  O100  1  0.34560700  0.03442200  0.44599300  1
  O  O101  1  0.41157000  0.46557800  0.81118500  1
  O  O102  1  0.08843000  0.89961400  0.05400700  1
  O  O103  1  0.15439300  0.60038600  0.68881500  1
  O  O104  1  0.65439300  0.96557800  0.55400700  1
  O  O105  1  0.58843000  0.53442200  0.18881500  1
  O  O106  1  0.91157000  0.10038600  0.94599300  1
  O  O107  1  0.84560700  0.39961400  0.31118500  1
  O  O108  1  0.23000500  0.14135800  0.69373000  1
  O  O109  1  0.55237200  0.35864200  0.58864700  1
  O  O110  1  0.94762800  0.53627500  0.80627000  1
  O  O111  1  0.26999500  0.96372500  0.91135300  1
  O  O112  1  0.76999500  0.85864200  0.30627000  1
  O  O113  1  0.44762800  0.64135800  0.41135300  1
  O  O114  1  0.05237200  0.46372500  0.19373000  1
  O  O115  1  0.73000500  0.03627500  0.08864700  1
  O  O116  1  0.90905100  0.26684100  0.52917000  1
  O  O117  1  0.26232900  0.23315900  0.14221000  1
  O  O118  1  0.23767100  0.37988100  0.97083000  1
  O  O119  1  0.59094900  0.12011900  0.35779000  1
  O  O120  1  0.09094900  0.73315900  0.47083000  1
  O  O121  1  0.73767100  0.76684100  0.85779000  1
  O  O122  1  0.76232900  0.62011900  0.02917000  1
  O  O123  1  0.40905100  0.87988100  0.64221000  1
  O  O124  1  0.98423400  0.92658200  0.28951900  1
  O  O125  1  0.36293700  0.57341800  0.55765200  1
  O  O126  1  0.13706300  0.69471500  0.21048100  1
  O  O127  1  0.51576600  0.80528500  0.94234800  1
  O  O128  1  0.01576600  0.07341800  0.71048100  1
  O  O129  1  0.63706300  0.42658200  0.44234800  1
  O  O130  1  0.86293700  0.30528500  0.78951900  1
  O  O131  1  0.48423400  0.19471500  0.05765200  1
