# generated using pymatgen
data_Ti3(BiO3)4
_symmetry_space_group_name_H-M   'P 1'
_cell_length_a   5.45390100
_cell_length_b   5.54042800
_cell_length_c   16.89268104
_cell_angle_alpha   80.84303579
_cell_angle_beta   90.00000000
_cell_angle_gamma   90.00000000
_symmetry_Int_Tables_number   1
_chemical_formula_structural   Ti3(BiO3)4
_chemical_formula_sum   'Ti6 Bi8 O24'
_cell_volume   503.94015248
_cell_formula_units_Z   2
loop_
 _symmetry_equiv_pos_site_id
 _symmetry_equiv_pos_as_xyz
  1  'x, y, z'
loop_
 _atom_site_type_symbol
 _atom_site_label
 _atom_site_symmetry_multiplicity
 _atom_site_fract_x
 _atom_site_fract_y
 _atom_site_fract_z
 _atom_site_occupancy
  Ti  Ti0  1  0.75133400  0.04549800  0.99758600  1
  Ti  Ti1  1  0.24866600  0.54549800  0.99758600  1
  Ti  Ti2  1  0.75200300  0.17836100  0.74217700  1
  Ti  Ti3  1  0.24799700  0.67836100  0.74217700  1
  Ti  Ti4  1  0.74838600  0.92887200  0.25471200  1
  Ti  Ti5  1  0.25161400  0.42887200  0.25471200  1
  Bi  Bi6  1  0.25043300  0.06729800  0.86607300  1
  Bi  Bi7  1  0.74956700  0.56729800  0.86607300  1
  Bi  Bi8  1  0.27568100  0.21503300  0.57571500  1
  Bi  Bi9  1  0.72431900  0.71503300  0.57571500  1
  Bi  Bi10  1  0.24940200  0.93704300  0.13186900  1
  Bi  Bi11  1  0.75059800  0.43704300  0.13186900  1
  Bi  Bi12  1  0.22476200  0.78485600  0.42210700  1
  Bi  Bi13  1  0.77523800  0.28485600  0.42210700  1
  O  O14  1  0.47434200  0.31627400  0.97794500  1
  O  O15  1  0.52565800  0.81627400  0.97794500  1
  O  O16  1  0.50654500  0.01982100  0.49699500  1
  O  O17  1  0.49345500  0.51982100  0.49699500  1
  O  O18  1  0.82949900  0.15702000  0.88153100  1
  O  O19  1  0.17050100  0.65702000  0.88153100  1
  O  O20  1  0.69189200  0.23853800  0.63732100  1
  O  O21  1  0.30810800  0.73853800  0.63732100  1
  O  O22  1  0.46908900  0.40369800  0.77750500  1
  O  O23  1  0.53091100  0.90369800  0.77750500  1
  O  O24  1  0.94866100  0.49541400  0.74958600  1
  O  O25  1  0.05133900  0.99541400  0.74958600  1
  O  O26  1  0.96775600  0.35391300  0.01533600  1
  O  O27  1  0.03224400  0.85391300  0.01533600  1
  O  O28  1  0.99255800  0.51939700  0.50074200  1
  O  O29  1  0.00744200  0.01939700  0.50074200  1
  O  O30  1  0.67977100  0.04167800  0.11377100  1
  O  O31  1  0.32022900  0.54167800  0.11377100  1
  O  O32  1  0.81469800  0.89113700  0.35904400  1
  O  O33  1  0.18530200  0.39113700  0.35904400  1
  O  O34  1  0.02194800  0.19632700  0.21870300  1
  O  O35  1  0.97805200  0.69632700  0.21870300  1
  O  O36  1  0.53978500  0.23822200  0.24708200  1
  O  O37  1  0.46021500  0.73822200  0.24708200  1
