# generated using pymatgen
data_BaH6C4O7
_symmetry_space_group_name_H-M   'P 1'
_cell_length_a   6.63192400
_cell_length_b   8.39124781
_cell_length_c   8.64560435
_cell_angle_alpha   103.97947529
_cell_angle_beta   109.45226327
_cell_angle_gamma   109.08207745
_symmetry_Int_Tables_number   1
_chemical_formula_structural   BaH6C4O7
_chemical_formula_sum   'Ba2 H12 C8 O14'
_cell_volume   394.19082880
_cell_formula_units_Z   2
loop_
 _symmetry_equiv_pos_site_id
 _symmetry_equiv_pos_as_xyz
  1  'x, y, z'
loop_
 _atom_site_type_symbol
 _atom_site_label
 _atom_site_symmetry_multiplicity
 _atom_site_fract_x
 _atom_site_fract_y
 _atom_site_fract_z
 _atom_site_occupancy
  Ba  Ba0  1  0.77979400  0.92695700  0.18533300  1
  Ba  Ba1  1  0.22020600  0.07304300  0.81466700  1
  H  H2  1  0.64837900  0.90733200  0.51853000  1
  H  H3  1  0.35162100  0.09266800  0.48147000  1
  H  H4  1  0.26050000  0.88215900  0.44685600  1
  H  H5  1  0.73950000  0.11784100  0.55314400  1
  H  H6  1  0.30127000  0.64691500  0.20491200  1
  H  H7  1  0.69873000  0.35308500  0.79508700  1
  H  H8  1  0.27750700  0.56420700  0.00805700  1
  H  H9  1  0.72249300  0.43579300  0.99194300  1
  H  H10  1  0.09579000  0.75617000  0.01955200  1
  H  H11  1  0.90421000  0.24383000  0.98044800  1
  H  H12  1  0.89949000  0.73309200  0.84028800  1
  H  H13  1  0.10051000  0.26690800  0.15971200  1
  C  C14  1  0.27425200  0.48954500  0.69935900  1
  C  C15  1  0.72574800  0.51045500  0.30064100  1
  C  C16  1  0.22165100  0.43099200  0.50842400  1
  C  C17  1  0.77834900  0.56900800  0.49157600  1
  C  C18  1  0.32134500  0.62341800  0.53083500  1
  C  C19  1  0.67865500  0.37658200  0.46916500  1
  C  C20  1  0.36846900  0.68380600  0.71828700  1
  C  C21  1  0.63153100  0.31619400  0.28171300  1
  O  O22  1  0.21660300  0.98499700  0.46693600  1
  O  O23  1  0.78339700  0.01500300  0.53306400  1
  O  O24  1  0.31050200  0.67669300  0.10259200  1
  O  O25  1  0.68949800  0.32330700  0.89740800  1
  O  O26  1  0.96909700  0.79429500  0.97091400  1
  O  O27  1  0.03090300  0.20570500  0.02908600  1
  O  O28  1  0.75318400  0.59105500  0.19851700  1
  O  O29  1  0.24681600  0.40894500  0.80148300  1
  O  O30  1  0.12495700  0.27978000  0.37799100  1
  O  O31  1  0.87504300  0.72022000  0.62200900  1
  O  O32  1  0.35125000  0.70610800  0.42881100  1
  O  O33  1  0.64875000  0.29389200  0.57118900  1
  O  O34  1  0.45025800  0.83836400  0.84142000  1
  O  O35  1  0.54974200  0.16163600  0.15858000  1
