# generated using pymatgen
data_NaRuO2
_symmetry_space_group_name_H-M   'P 1'
_cell_length_a   5.62753331
_cell_length_b   5.62753331
_cell_length_c   5.62753327
_cell_angle_alpha   32.15618299
_cell_angle_beta   32.15618299
_cell_angle_gamma   32.15618512
_symmetry_Int_Tables_number   1
_chemical_formula_structural   NaRuO2
_chemical_formula_sum   'Na1 Ru1 O2'
_cell_volume   44.86552294
_cell_formula_units_Z   1
loop_
 _symmetry_equiv_pos_site_id
 _symmetry_equiv_pos_as_xyz
  1  'x, y, z'
loop_
 _atom_site_type_symbol
 _atom_site_label
 _atom_site_symmetry_multiplicity
 _atom_site_fract_x
 _atom_site_fract_y
 _atom_site_fract_z
 _atom_site_occupancy
  Na  Na0  1  0.00000000  0.00000000  0.00000000  1
  Ru  Ru1  1  0.50000000  0.50000000  0.50000000  1
  O  O2  1  0.76458400  0.76458400  0.76458400  1
  O  O3  1  0.23541600  0.23541600  0.23541600  1
