# generated using pymatgen
data_B8H10N
_symmetry_space_group_name_H-M   'P 1'
_cell_length_a   11.44064100
_cell_length_b   7.29013900
_cell_length_c   13.00167800
_cell_angle_alpha   59.22351200
_cell_angle_beta   90.00000000
_cell_angle_gamma   90.00000000
_symmetry_Int_Tables_number   1
_chemical_formula_structural   B8H10N
_chemical_formula_sum   'B32 H40 N4'
_cell_volume   931.67544718
_cell_formula_units_Z   4
loop_
 _symmetry_equiv_pos_site_id
 _symmetry_equiv_pos_as_xyz
  1  'x, y, z'
loop_
 _atom_site_type_symbol
 _atom_site_label
 _atom_site_symmetry_multiplicity
 _atom_site_fract_x
 _atom_site_fract_y
 _atom_site_fract_z
 _atom_site_occupancy
  B  B0  1  0.60730700  0.15100600  0.66946600  1
  B  B1  1  0.89269300  0.15100600  0.16946600  1
  B  B2  1  0.39269300  0.84899400  0.33053400  1
  B  B3  1  0.10730700  0.84899400  0.83053400  1
  B  B4  1  0.73578900  0.03637100  0.77526800  1
  B  B5  1  0.76421100  0.03637100  0.27526800  1
  B  B6  1  0.26421100  0.96362900  0.22473200  1
  B  B7  1  0.23578900  0.96362900  0.72473200  1
  B  B8  1  0.79455400  0.39144200  0.67593000  1
  B  B9  1  0.70544600  0.39144200  0.17593000  1
  B  B10  1  0.20544600  0.60855800  0.32407000  1
  B  B11  1  0.29455400  0.60855800  0.82407000  1
  B  B12  1  0.65434700  0.43230200  0.59255200  1
  B  B13  1  0.84565300  0.43230200  0.09255200  1
  B  B14  1  0.34565300  0.56769800  0.40744800  1
  B  B15  1  0.15434700  0.56769800  0.90744800  1
  B  B16  1  0.60274200  0.05454700  0.82010700  1
  B  B17  1  0.89725800  0.05454700  0.32010700  1
  B  B18  1  0.39725800  0.94545300  0.17989300  1
  B  B19  1  0.10274200  0.94545300  0.67989300  1
  B  B20  1  0.67864100  0.50271300  0.69803900  1
  B  B21  1  0.82135900  0.50271300  0.19803900  1
  B  B22  1  0.32135900  0.49728700  0.30196100  1
  B  B23  1  0.17864100  0.49728700  0.80196100  1
  B  B24  1  0.56592400  0.32195400  0.72657000  1
  B  B25  1  0.93407600  0.32195400  0.22657000  1
  B  B26  1  0.43407600  0.67804600  0.27343000  1
  B  B27  1  0.06592400  0.67804600  0.77343000  1
  B  B28  1  0.69436400  0.24401700  0.82967500  1
  B  B29  1  0.80563600  0.24401700  0.32967500  1
  B  B30  1  0.30563600  0.75598300  0.17032500  1
  B  B31  1  0.19436400  0.75598300  0.67032500  1
  H  H32  1  0.79513100  0.20354100  0.58112100  1
  H  H33  1  0.70486900  0.20354100  0.08112100  1
  H  H34  1  0.20486900  0.79645900  0.41887900  1
  H  H35  1  0.29513100  0.79645900  0.91887900  1
  H  H36  1  0.56676100  0.09473100  0.60614500  1
  H  H37  1  0.93323900  0.09473100  0.10614500  1
  H  H38  1  0.43323900  0.90526900  0.39385500  1
  H  H39  1  0.06676100  0.90526900  0.89385500  1
  H  H40  1  0.80349400  0.89319700  0.80924900  1
  H  H41  1  0.69650600  0.89319700  0.30924900  1
  H  H42  1  0.19650600  0.10680300  0.19075100  1
  H  H43  1  0.30349400  0.10680300  0.69075100  1
  H  H44  1  0.89507300  0.43910500  0.65789400  1
  H  H45  1  0.60492700  0.43910500  0.15789400  1
  H  H46  1  0.10492700  0.56089500  0.34210600  1
  H  H47  1  0.39507300  0.56089500  0.84210600  1
  H  H48  1  0.64065600  0.52939200  0.48742900  1
  H  H49  1  0.85934400  0.52939200  0.98742900  1
  H  H50  1  0.35934400  0.47060800  0.51257100  1
  H  H51  1  0.14065600  0.47060800  0.01257100  1
  H  H52  1  0.54659900  0.91708200  0.89941800  1
  H  H53  1  0.95340100  0.91708200  0.39941800  1
  H  H54  1  0.45340100  0.08291800  0.10058200  1
  H  H55  1  0.04659900  0.08291800  0.60058200  1
  H  H56  1  0.80404000  0.18169200  0.82580900  1
  H  H57  1  0.69596000  0.18169200  0.32580900  1
  H  H58  1  0.19596000  0.81830800  0.17419100  1
  H  H59  1  0.30404000  0.81830800  0.67419100  1
  H  H60  1  0.67385700  0.66965900  0.69391800  1
  H  H61  1  0.82614300  0.66965900  0.19391800  1
  H  H62  1  0.32614300  0.33034100  0.30608200  1
  H  H63  1  0.17385700  0.33034100  0.80608200  1
  H  H64  1  0.46914100  0.37219300  0.73635800  1
  H  H65  1  0.03085900  0.37219300  0.23635800  1
  H  H66  1  0.53085900  0.62780700  0.26364200  1
  H  H67  1  0.96914100  0.62780700  0.76364200  1
  H  H68  1  0.70079300  0.23363700  0.92424500  1
  H  H69  1  0.79920700  0.23363700  0.42424500  1
  H  H70  1  0.29920700  0.76636300  0.07575500  1
  H  H71  1  0.20079300  0.76636300  0.57575500  1
  N  N72  1  0.74957700  0.22558100  0.64148400  1
  N  N73  1  0.75042300  0.22558100  0.14148400  1
  N  N74  1  0.25042300  0.77441900  0.35851600  1
  N  N75  1  0.24957700  0.77441900  0.85851600  1
