# generated using pymatgen
data_NdAl3(BO3)4
_symmetry_space_group_name_H-M   'P 1'
_cell_length_a   5.96650044
_cell_length_b   5.96650044
_cell_length_c   5.96650074
_cell_angle_alpha   104.13751332
_cell_angle_beta   104.13751332
_cell_angle_gamma   104.13750555
_symmetry_Int_Tables_number   1
_chemical_formula_structural   NdAl3(BO3)4
_chemical_formula_sum   'Nd1 Al3 B4 O12'
_cell_volume   189.01207995
_cell_formula_units_Z   1
loop_
 _symmetry_equiv_pos_site_id
 _symmetry_equiv_pos_as_xyz
  1  'x, y, z'
loop_
 _atom_site_type_symbol
 _atom_site_label
 _atom_site_symmetry_multiplicity
 _atom_site_fract_x
 _atom_site_fract_y
 _atom_site_fract_z
 _atom_site_occupancy
  Nd  Nd0  1  0.00000000  0.00000000  0.00000000  1
  Al  Al1  1  0.00000000  0.44436500  0.55563500  1
  Al  Al2  1  0.55563500  0.00000000  0.44436500  1
  Al  Al3  1  0.44436500  0.55563500  0.00000000  1
  B  B4  1  0.50000000  0.05819300  0.94180700  1
  B  B5  1  0.94180700  0.50000000  0.05819300  1
  B  B6  1  0.05819300  0.94180700  0.50000000  1
  B  B7  1  0.50000000  0.50000000  0.50000000  1
  O  O8  1  0.37904400  0.22568500  0.97294500  1
  O  O9  1  0.02705500  0.77431500  0.62095600  1
  O  O10  1  0.77431500  0.62095600  0.02705500  1
  O  O11  1  0.62095600  0.02705500  0.77431500  1
  O  O12  1  0.64855500  0.35144500  0.50000000  1
  O  O13  1  0.35144500  0.50000000  0.64855500  1
  O  O14  1  0.50000000  0.64855500  0.35144500  1
  O  O15  1  0.90954000  0.09046000  0.50000000  1
  O  O16  1  0.09046000  0.50000000  0.90954000  1
  O  O17  1  0.50000000  0.90954000  0.09046000  1
  O  O18  1  0.22568500  0.97294500  0.37904400  1
  O  O19  1  0.97294500  0.37904400  0.22568500  1
