# generated using pymatgen
data_H4CSN2
_symmetry_space_group_name_H-M   'P 1'
_cell_length_a   5.64076200
_cell_length_b   7.43541600
_cell_length_c   25.46811000
_cell_angle_alpha   90.00000000
_cell_angle_beta   90.00000000
_cell_angle_gamma   90.00000000
_symmetry_Int_Tables_number   1
_chemical_formula_structural   H4CSN2
_chemical_formula_sum   'H48 C12 S12 N24'
_cell_volume   1068.16849506
_cell_formula_units_Z   12
loop_
 _symmetry_equiv_pos_site_id
 _symmetry_equiv_pos_as_xyz
  1  'x, y, z'
loop_
 _atom_site_type_symbol
 _atom_site_label
 _atom_site_symmetry_multiplicity
 _atom_site_fract_x
 _atom_site_fract_y
 _atom_site_fract_z
 _atom_site_occupancy
  H  H0  1  0.96557200  0.52352800  0.20485600  1
  H  H1  1  0.53442800  0.02352800  0.29514400  1
  H  H2  1  0.03442800  0.47647200  0.70485600  1
  H  H3  1  0.46557200  0.97647200  0.79514400  1
  H  H4  1  0.03442800  0.47647200  0.79514400  1
  H  H5  1  0.46557200  0.97647200  0.70485600  1
  H  H6  1  0.96557200  0.52352800  0.29514400  1
  H  H7  1  0.53442800  0.02352800  0.20485600  1
  H  H8  1  0.22886800  0.49735600  0.16939000  1
  H  H9  1  0.27113200  0.99735600  0.33061000  1
  H  H10  1  0.77113200  0.50264400  0.66939000  1
  H  H11  1  0.72886800  0.00264400  0.83061000  1
  H  H12  1  0.77113200  0.50264400  0.83061000  1
  H  H13  1  0.72886800  0.00264400  0.66939000  1
  H  H14  1  0.22886800  0.49735600  0.33061000  1
  H  H15  1  0.27113200  0.99735600  0.16939000  1
  H  H16  1  0.92550700  0.72670700  0.04599500  1
  H  H17  1  0.57449300  0.22670700  0.45400500  1
  H  H18  1  0.07449300  0.27329300  0.54599500  1
  H  H19  1  0.42550700  0.77329300  0.95400500  1
  H  H20  1  0.07449300  0.27329300  0.95400500  1
  H  H21  1  0.42550700  0.77329300  0.54599500  1
  H  H22  1  0.92550700  0.72670700  0.45400500  1
  H  H23  1  0.57449300  0.22670700  0.04599500  1
  H  H24  1  0.72265300  0.59741600  0.00869400  1
  H  H25  1  0.77734700  0.09741600  0.49130600  1
  H  H26  1  0.27734700  0.40258400  0.50869400  1
  H  H27  1  0.22265300  0.90258400  0.99130600  1
  H  H28  1  0.27734700  0.40258400  0.99130600  1
  H  H29  1  0.22265300  0.90258400  0.50869400  1
  H  H30  1  0.72265300  0.59741600  0.49130600  1
  H  H31  1  0.77734700  0.09741600  0.00869400  1
  H  H32  1  0.85682400  0.78341500  0.13287600  1
  H  H33  1  0.64317600  0.28341500  0.36712400  1
  H  H34  1  0.14317600  0.21658500  0.63287600  1
  H  H35  1  0.35682500  0.71658500  0.86712400  1
  H  H36  1  0.14317600  0.21658500  0.86712400  1
  H  H37  1  0.35682500  0.71658500  0.63287600  1
  H  H38  1  0.85682400  0.78341500  0.36712400  1
  H  H39  1  0.64317600  0.28341500  0.13287600  1
  H  H40  1  0.61502100  0.68304800  0.16482100  1
  H  H41  1  0.88497900  0.18304800  0.33517900  1
  H  H42  1  0.38497900  0.31695200  0.66482100  1
  H  H43  1  0.11502100  0.81695200  0.83517900  1
  H  H44  1  0.38497900  0.31695200  0.83517900  1
  H  H45  1  0.11502100  0.81695200  0.66482100  1
  H  H46  1  0.61502100  0.68304800  0.33517900  1
  H  H47  1  0.88497900  0.18304800  0.16482100  1
  C  C48  1  0.26522100  0.48874900  0.25000000  1
  C  C49  1  0.23477900  0.98874900  0.25000000  1
  C  C50  1  0.73477900  0.51125100  0.75000000  1
  C  C51  1  0.76522100  0.01125100  0.75000000  1
  C  C52  1  0.63132100  0.63488300  0.08573800  1
  C  C53  1  0.86867900  0.13488300  0.41426200  1
  C  C54  1  0.36867900  0.36511700  0.58573800  1
  C  C55  1  0.13132100  0.86511700  0.91426200  1
  C  C56  1  0.36867900  0.36511700  0.91426200  1
  C  C57  1  0.13132100  0.86511700  0.58573800  1
  C  C58  1  0.63132100  0.63488300  0.41426200  1
  C  C59  1  0.86867900  0.13488300  0.08573800  1
  S  S60  1  0.56611600  0.45997900  0.25000000  1
  S  S61  1  0.93388400  0.95997900  0.25000000  1
  S  S62  1  0.43388400  0.54002100  0.75000000  1
  S  S63  1  0.06611600  0.04002100  0.75000000  1
  S  S64  1  0.37329900  0.51341600  0.08208800  1
  S  S65  1  0.12670100  0.01341600  0.41791200  1
  S  S66  1  0.62670100  0.48658400  0.58208800  1
  S  S67  1  0.87329900  0.98658400  0.91791200  1
  S  S68  1  0.62670100  0.48658400  0.91791200  1
  S  S69  1  0.87329900  0.98658400  0.58208800  1
  S  S70  1  0.37329900  0.51341600  0.41791200  1
  S  S71  1  0.12670100  0.01341600  0.08208800  1
  N  N72  1  0.14292200  0.49801000  0.20488300  1
  N  N73  1  0.35707800  0.99801000  0.29511700  1
  N  N74  1  0.85707800  0.50199000  0.70488300  1
  N  N75  1  0.64292200  0.00199000  0.79511700  1
  N  N76  1  0.85707800  0.50199000  0.79511700  1
  N  N77  1  0.64292200  0.00199000  0.70488300  1
  N  N78  1  0.14292200  0.49801000  0.29511700  1
  N  N79  1  0.35707800  0.99801000  0.20488300  1
  N  N80  1  0.77058500  0.65512400  0.04352200  1
  N  N81  1  0.72941500  0.15512400  0.45647800  1
  N  N82  1  0.22941500  0.34487600  0.54352200  1
  N  N83  1  0.27058500  0.84487600  0.95647800  1
  N  N84  1  0.22941500  0.34487600  0.95647800  1
  N  N85  1  0.27058500  0.84487600  0.54352200  1
  N  N86  1  0.77058500  0.65512400  0.45647800  1
  N  N87  1  0.72941500  0.15512400  0.04352200  1
  N  N88  1  0.70094900  0.71282600  0.13076200  1
  N  N89  1  0.79905100  0.21282600  0.36923800  1
  N  N90  1  0.29905100  0.28717400  0.63076200  1
  N  N91  1  0.20094900  0.78717400  0.86923800  1
  N  N92  1  0.29905100  0.28717400  0.86923800  1
  N  N93  1  0.20094900  0.78717400  0.63076200  1
  N  N94  1  0.70094900  0.71282600  0.36923800  1
  N  N95  1  0.79905100  0.21282600  0.13076200  1
