# generated using pymatgen
data_Rb2FeH2C5(N3O)2
_symmetry_space_group_name_H-M   'P 1'
_cell_length_a   8.71139382
_cell_length_b   8.71139382
_cell_length_c   18.25351644
_cell_angle_alpha   73.20946497
_cell_angle_beta   73.20946497
_cell_angle_gamma   72.46977443
_symmetry_Int_Tables_number   1
_chemical_formula_structural   Rb2FeH2C5(N3O)2
_chemical_formula_sum   'Rb8 Fe4 H8 C20 N24 O8'
_cell_volume   1233.28077873
_cell_formula_units_Z   4
loop_
 _symmetry_equiv_pos_site_id
 _symmetry_equiv_pos_as_xyz
  1  'x, y, z'
loop_
 _atom_site_type_symbol
 _atom_site_label
 _atom_site_symmetry_multiplicity
 _atom_site_fract_x
 _atom_site_fract_y
 _atom_site_fract_z
 _atom_site_occupancy
  Rb  Rb0  1  0.06958900  0.85565900  0.12537300  1
  Rb  Rb1  1  0.14434100  0.93041100  0.37462700  1
  Rb  Rb2  1  0.93041100  0.14434100  0.87462700  1
  Rb  Rb3  1  0.85565900  0.06958900  0.62537300  1
  Rb  Rb4  1  0.41773000  0.25198000  0.84061900  1
  Rb  Rb5  1  0.74802000  0.58227000  0.65938100  1
  Rb  Rb6  1  0.58227000  0.74802000  0.15938100  1
  Rb  Rb7  1  0.25198000  0.41773000  0.34061900  1
  Fe  Fe8  1  0.24693700  0.35356400  0.07106600  1
  Fe  Fe9  1  0.64643600  0.75306300  0.42893400  1
  Fe  Fe10  1  0.75306300  0.64643600  0.92893400  1
  Fe  Fe11  1  0.35356400  0.24693700  0.57106600  1
  H  H12  1  0.32484800  0.92411500  0.88294200  1
  H  H13  1  0.07588500  0.67515200  0.61705800  1
  H  H14  1  0.67515200  0.07588500  0.11705800  1
  H  H15  1  0.92411500  0.32484800  0.38294200  1
  H  H16  1  0.32877100  0.92255200  0.79690900  1
  H  H17  1  0.07744800  0.67122900  0.70309100  1
  H  H18  1  0.67122900  0.07744800  0.20309100  1
  H  H19  1  0.92255200  0.32877100  0.29690900  1
  C  C20  1  0.14988400  0.24418500  0.02417000  1
  C  C21  1  0.75581500  0.85011600  0.47583000  1
  C  C22  1  0.85011600  0.75581500  0.97583000  1
  C  C23  1  0.24418500  0.14988400  0.52417000  1
  C  C24  1  0.33837000  0.43745200  0.13202900  1
  C  C25  1  0.56254800  0.66163000  0.36797100  1
  C  C26  1  0.66163000  0.56254800  0.86797100  1
  C  C27  1  0.43745200  0.33837000  0.63202900  1
  C  C28  1  0.25541900  0.15193800  0.15176300  1
  C  C29  1  0.84806200  0.74458100  0.34823700  1
  C  C30  1  0.74458100  0.84806200  0.84823700  1
  C  C31  1  0.15193800  0.25541900  0.65176300  1
  C  C32  1  0.03236600  0.43668300  0.13351200  1
  C  C33  1  0.56331700  0.96763400  0.36648800  1
  C  C34  1  0.96763400  0.56331700  0.86648800  1
  C  C35  1  0.43668300  0.03236600  0.63351200  1
  C  C36  1  0.46561100  0.23990100  0.02497100  1
  C  C37  1  0.76009900  0.53438900  0.47502900  1
  C  C38  1  0.53438900  0.76009900  0.97502900  1
  C  C39  1  0.23990100  0.46561100  0.52497100  1
  N  N40  1  0.24587100  0.51608500  0.99585100  1
  N  N41  1  0.48391500  0.75412900  0.50414900  1
  N  N42  1  0.75412900  0.48391500  0.00414900  1
  N  N43  1  0.51608500  0.24587100  0.49585100  1
  N  N44  1  0.09194500  0.18115400  0.99368400  1
  N  N45  1  0.81884600  0.90805500  0.50631600  1
  N  N46  1  0.90805500  0.81884600  0.00631600  1
  N  N47  1  0.18115400  0.09194500  0.49368400  1
  N  N48  1  0.38690700  0.49926100  0.16708900  1
  N  N49  1  0.50073900  0.61309300  0.33291100  1
  N  N50  1  0.61309300  0.50073900  0.83291100  1
  N  N51  1  0.49926100  0.38690700  0.66708900  1
  N  N52  1  0.26244600  0.02532600  0.19767300  1
  N  N53  1  0.97467400  0.73755400  0.30232700  1
  N  N54  1  0.73755400  0.97467400  0.80232700  1
  N  N55  1  0.02532600  0.26244600  0.69767300  1
  N  N56  1  0.90401000  0.49247500  0.17127400  1
  N  N57  1  0.50752500  0.09599000  0.32872600  1
  N  N58  1  0.09599000  0.50752500  0.82872600  1
  N  N59  1  0.49247500  0.90401000  0.67127400  1
  N  N60  1  0.59900400  0.17539600  0.99492400  1
  N  N61  1  0.82460400  0.40099600  0.50507600  1
  N  N62  1  0.40099600  0.82460400  0.00507600  1
  N  N63  1  0.17539600  0.59900400  0.49492400  1
  O  O64  1  0.25028800  0.62088400  0.94061900  1
  O  O65  1  0.37911600  0.74971200  0.55938100  1
  O  O66  1  0.74971200  0.37911600  0.05938100  1
  O  O67  1  0.62088400  0.25028800  0.44061900  1
  O  O68  1  0.27867300  0.98738400  0.83724800  1
  O  O69  1  0.01261600  0.72132700  0.66275200  1
  O  O70  1  0.72132700  0.01261600  0.16275200  1
  O  O71  1  0.98738400  0.27867300  0.33724800  1
