# generated using pymatgen
data_V3P2H12C3N2O15
_symmetry_space_group_name_H-M   'P 1'
_cell_length_a   8.49655600
_cell_length_b   10.66764900
_cell_length_c   16.90546000
_cell_angle_alpha   90.00000000
_cell_angle_beta   90.00000000
_cell_angle_gamma   90.00000000
_symmetry_Int_Tables_number   1
_chemical_formula_structural   V3P2H12C3N2O15
_chemical_formula_sum   'V12 P8 H48 C12 N8 O60'
_cell_volume   1532.28176827
_cell_formula_units_Z   4
loop_
 _symmetry_equiv_pos_site_id
 _symmetry_equiv_pos_as_xyz
  1  'x, y, z'
loop_
 _atom_site_type_symbol
 _atom_site_label
 _atom_site_symmetry_multiplicity
 _atom_site_fract_x
 _atom_site_fract_y
 _atom_site_fract_z
 _atom_site_occupancy
  V  V0  1  0.32034200  0.72194000  0.25000000  1
  V  V1  1  0.17965800  0.22194000  0.25000000  1
  V  V2  1  0.67965800  0.27806000  0.75000000  1
  V  V3  1  0.82034200  0.77806000  0.75000000  1
  V  V4  1  0.71277400  0.64551400  0.56879100  1
  V  V5  1  0.78722600  0.14551400  0.93120900  1
  V  V6  1  0.28722600  0.35448600  0.06879100  1
  V  V7  1  0.21277400  0.85448600  0.43120900  1
  V  V8  1  0.28722600  0.35448600  0.43120900  1
  V  V9  1  0.21277400  0.85448600  0.06879100  1
  V  V10  1  0.71277400  0.64551400  0.93120900  1
  V  V11  1  0.78722600  0.14551400  0.56879100  1
  P  P12  1  0.46664000  0.63022300  0.41368000  1
  P  P13  1  0.03336000  0.13022300  0.08632000  1
  P  P14  1  0.53336000  0.36977700  0.91368000  1
  P  P15  1  0.96664000  0.86977700  0.58632000  1
  P  P16  1  0.53336000  0.36977700  0.58632000  1
  P  P17  1  0.96664000  0.86977700  0.91368000  1
  P  P18  1  0.46664000  0.63022300  0.08632000  1
  P  P19  1  0.03336000  0.13022300  0.41368000  1
  H  H20  1  0.78934300  0.29747000  0.25000000  1
  H  H21  1  0.71065700  0.79747000  0.25000000  1
  H  H22  1  0.21065700  0.70253000  0.75000000  1
  H  H23  1  0.28934300  0.20253000  0.75000000  1
  H  H24  1  0.86373500  0.91019100  0.25000000  1
  H  H25  1  0.63626500  0.41019100  0.25000000  1
  H  H26  1  0.13626500  0.08980900  0.75000000  1
  H  H27  1  0.36373500  0.58980900  0.75000000  1
  H  H28  1  0.53356500  0.95253800  0.17682900  1
  H  H29  1  0.96643500  0.45253800  0.32317100  1
  H  H30  1  0.46643500  0.04746200  0.67682900  1
  H  H31  1  0.03356500  0.54746200  0.82317100  1
  H  H32  1  0.46643500  0.04746200  0.82317100  1
  H  H33  1  0.03356500  0.54746200  0.67682900  1
  H  H34  1  0.53356500  0.95253800  0.32317100  1
  H  H35  1  0.96643500  0.45253800  0.17682900  1
  H  H36  1  0.68995100  0.06153000  0.17540600  1
  H  H37  1  0.81004900  0.56153000  0.32459400  1
  H  H38  1  0.31004900  0.93847000  0.67540600  1
  H  H39  1  0.18995100  0.43847000  0.82459400  1
  H  H40  1  0.31004900  0.93847000  0.82459400  1
  H  H41  1  0.18995100  0.43847000  0.67540600  1
  H  H42  1  0.68995100  0.06153000  0.32459400  1
  H  H43  1  0.81004900  0.56153000  0.17540600  1
  H  H44  1  0.84379000  0.91274500  0.09866000  1
  H  H45  1  0.65621000  0.41274500  0.40134000  1
  H  H46  1  0.15621000  0.08725500  0.59866000  1
  H  H47  1  0.34379000  0.58725500  0.90134000  1
  H  H48  1  0.15621000  0.08725500  0.90134000  1
  H  H49  1  0.34379000  0.58725500  0.59866000  1
  H  H50  1  0.84379000  0.91274500  0.40134000  1
  H  H51  1  0.65621000  0.41274500  0.09866000  1
  H  H52  1  0.67788400  0.95486800  0.05307400  1
  H  H53  1  0.82211600  0.45486800  0.44692600  1
  H  H54  1  0.32211600  0.04513200  0.55307400  1
  H  H55  1  0.17788400  0.54513200  0.94692600  1
  H  H56  1  0.32211600  0.04513200  0.94692600  1
  H  H57  1  0.17788400  0.54513200  0.55307400  1
  H  H58  1  0.67788400  0.95486800  0.44692600  1
  H  H59  1  0.82211600  0.45486800  0.05307400  1
  H  H60  1  0.69154900  0.81277400  0.09375800  1
  H  H61  1  0.80845100  0.31277400  0.40624200  1
  H  H62  1  0.30845100  0.18722600  0.59375800  1
  H  H63  1  0.19154900  0.68722600  0.90624200  1
  H  H64  1  0.30845100  0.18722600  0.90624200  1
  H  H65  1  0.19154900  0.68722600  0.59375800  1
  H  H66  1  0.69154900  0.81277400  0.40624200  1
  H  H67  1  0.80845100  0.31277400  0.09375800  1
  C  C68  1  0.76529500  0.39898200  0.25000000  1
  C  C69  1  0.73470500  0.89898200  0.25000000  1
  C  C70  1  0.23470500  0.60101800  0.75000000  1
  C  C71  1  0.26529500  0.10101800  0.75000000  1
  C  C72  1  0.83760100  0.46103200  0.17718800  1
  C  C73  1  0.66239900  0.96103200  0.32281200  1
  C  C74  1  0.16239900  0.53896800  0.67718800  1
  C  C75  1  0.33760100  0.03896800  0.82281200  1
  C  C76  1  0.16239900  0.53896800  0.82281200  1
  C  C77  1  0.33760100  0.03896800  0.67718800  1
  C  C78  1  0.83760100  0.46103200  0.32281200  1
  C  C79  1  0.66239900  0.96103200  0.17718800  1
  N  N80  1  0.72200800  0.90635300  0.10196000  1
  N  N81  1  0.77799200  0.40635300  0.39804000  1
  N  N82  1  0.27799200  0.09364700  0.60196000  1
  N  N83  1  0.22200800  0.59364700  0.89804000  1
  N  N84  1  0.27799200  0.09364700  0.89804000  1
  N  N85  1  0.22200800  0.59364700  0.60196000  1
  N  N86  1  0.72200800  0.90635300  0.39804000  1
  N  N87  1  0.77799200  0.40635300  0.10196000  1
  O  O88  1  0.44867600  0.48497900  0.41440300  1
  O  O89  1  0.05132400  0.98497900  0.08559700  1
  O  O90  1  0.55132400  0.51502100  0.91440300  1
  O  O91  1  0.94867600  0.01502100  0.58559700  1
  O  O92  1  0.55132400  0.51502100  0.58559700  1
  O  O93  1  0.94867600  0.01502100  0.91440300  1
  O  O94  1  0.44867600  0.48497900  0.08559700  1
  O  O95  1  0.05132400  0.98497900  0.41440300  1
  O  O96  1  0.62343200  0.66502700  0.45498400  1
  O  O97  1  0.87656800  0.16502700  0.04501600  1
  O  O98  1  0.37656800  0.33497300  0.95498400  1
  O  O99  1  0.12343200  0.83497300  0.54501600  1
  O  O100  1  0.37656800  0.33497300  0.54501600  1
  O  O101  1  0.12343200  0.83497300  0.95498400  1
  O  O102  1  0.62343200  0.66502700  0.04501600  1
  O  O103  1  0.87656800  0.16502700  0.45498400  1
  O  O104  1  0.32455200  0.69446900  0.45383000  1
  O  O105  1  0.17544800  0.19446900  0.04617000  1
  O  O106  1  0.67544800  0.30553100  0.95383000  1
  O  O107  1  0.82455200  0.80553100  0.54617000  1
  O  O108  1  0.67544800  0.30553100  0.54617000  1
  O  O109  1  0.82455200  0.80553100  0.95383000  1
  O  O110  1  0.32455200  0.69446900  0.04617000  1
  O  O111  1  0.17544800  0.19446900  0.45383000  1
  O  O112  1  0.48325600  0.67347900  0.32617000  1
  O  O113  1  0.01674400  0.17347900  0.17383000  1
  O  O114  1  0.51674400  0.32652100  0.82617000  1
  O  O115  1  0.98325600  0.82652100  0.67383000  1
  O  O116  1  0.51674400  0.32652100  0.67383000  1
  O  O117  1  0.98325600  0.82652100  0.82617000  1
  O  O118  1  0.48325600  0.67347900  0.17383000  1
  O  O119  1  0.01674400  0.17347900  0.32617000  1
  O  O120  1  0.25429900  0.83170100  0.17190300  1
  O  O121  1  0.24570100  0.33170100  0.32809700  1
  O  O122  1  0.74570100  0.16829900  0.67190300  1
  O  O123  1  0.75429900  0.66829900  0.82809700  1
  O  O124  1  0.74570100  0.16829900  0.82809700  1
  O  O125  1  0.75429900  0.66829900  0.67190300  1
  O  O126  1  0.25429900  0.83170100  0.32809700  1
  O  O127  1  0.24570100  0.33170100  0.17190300  1
  O  O128  1  0.19424700  0.61021300  0.25000000  1
  O  O129  1  0.30575300  0.11021300  0.25000000  1
  O  O130  1  0.80575300  0.38978700  0.75000000  1
  O  O131  1  0.69424700  0.88978700  0.75000000  1
  O  O132  1  0.35164500  0.95118300  0.03891400  1
  O  O133  1  0.14835500  0.45118300  0.46108600  1
  O  O134  1  0.64835500  0.04881700  0.53891400  1
  O  O135  1  0.85164500  0.54881700  0.96108600  1
  O  O136  1  0.64835500  0.04881700  0.96108600  1
  O  O137  1  0.85164500  0.54881700  0.53891400  1
  O  O138  1  0.35164500  0.95118300  0.46108600  1
  O  O139  1  0.14835500  0.45118300  0.03891400  1
  O  O140  1  0.02577700  0.73618500  0.09253600  1
  O  O141  1  0.47422300  0.23618500  0.40746400  1
  O  O142  1  0.97422300  0.26381500  0.59253600  1
  O  O143  1  0.52577700  0.76381500  0.90746400  1
  O  O144  1  0.97422300  0.26381500  0.90746400  1
  O  O145  1  0.52577700  0.76381500  0.59253600  1
  O  O146  1  0.02577700  0.73618500  0.40746400  1
  O  O147  1  0.47422300  0.23618500  0.09253600  1
