# generated using pymatgen
data_Sr11LaFe6(MoO6)6
_symmetry_space_group_name_H-M   'P 1'
_cell_length_a   5.63675600
_cell_length_b   9.79045791
_cell_length_c   15.08363034
_cell_angle_alpha   78.26031329
_cell_angle_beta   79.42433824
_cell_angle_gamma   73.57342573
_symmetry_Int_Tables_number   1
_chemical_formula_structural   Sr11LaFe6(MoO6)6
_chemical_formula_sum   'Sr11 La1 Fe6 Mo6 O36'
_cell_volume   774.66580360
_cell_formula_units_Z   1
loop_
 _symmetry_equiv_pos_site_id
 _symmetry_equiv_pos_as_xyz
  1  'x, y, z'
loop_
 _atom_site_type_symbol
 _atom_site_label
 _atom_site_symmetry_multiplicity
 _atom_site_fract_x
 _atom_site_fract_y
 _atom_site_fract_z
 _atom_site_occupancy
  Sr  Sr0  1  0.50617400  0.86580500  0.12200800  1
  Sr  Sr1  1  0.16656300  0.37893000  0.28965400  1
  Sr  Sr2  1  0.83295400  0.87616600  0.45866100  1
  Sr  Sr3  1  0.49754400  0.37394000  0.62445200  1
  Sr  Sr4  1  0.17058600  0.86830400  0.79614900  1
  Sr  Sr5  1  0.82331800  0.38860700  0.95882100  1
  Sr  Sr6  1  0.17008900  0.62609500  0.03891900  1
  Sr  Sr7  1  0.83081400  0.12936300  0.20997000  1
  Sr  Sr8  1  0.49912000  0.62280800  0.37274200  1
  Sr  Sr9  1  0.16826900  0.12539900  0.54153100  1
  Sr  Sr10  1  0.50517600  0.11599700  0.87331800  1
  La  La11  1  0.82015300  0.63200600  0.71949000  1
  Fe  Fe12  1  0.00222000  0.50069300  0.50037200  1
  Fe  Fe13  1  0.66761800  0.74751300  0.91798700  1
  Fe  Fe14  1  0.66568400  0.50095100  0.16406900  1
  Fe  Fe15  1  0.33429500  0.99881600  0.33406300  1
  Fe  Fe16  1  0.66336100  0.99868700  0.66801000  1
  Fe  Fe17  1  0.33236100  0.50265200  0.83469800  1
  Mo  Mo18  1  0.00068700  0.99909200  0.99920200  1
  Mo  Mo19  1  0.33102100  0.25169700  0.08425000  1
  Mo  Mo20  1  0.99826100  0.74877800  0.25158800  1
  Mo  Mo21  1  0.66848700  0.25057900  0.41626900  1
  Mo  Mo22  1  0.99978400  0.25274100  0.74834900  1
  Mo  Mo23  1  0.33318300  0.74841000  0.58286400  1
  O  O24  1  0.67038300  0.62401600  0.04233000  1
  O  O25  1  0.33405000  0.12842900  0.20497100  1
  O  O26  1  0.99543200  0.62525700  0.37693000  1
  O  O27  1  0.67292700  0.12227800  0.54171000  1
  O  O28  1  0.33310600  0.62293600  0.70713600  1
  O  O29  1  0.99631000  0.12951100  0.87194300  1
  O  O30  1  0.54381300  0.35670000  0.12025400  1
  O  O31  1  0.20038700  0.85877600  0.28623000  1
  O  O32  1  0.86963200  0.35616400  0.45286000  1
  O  O33  1  0.55946000  0.84903500  0.62082600  1
  O  O34  1  0.20445200  0.35672200  0.78382400  1
  O  O35  1  0.87660400  0.85947100  0.95207700  1
  O  O36  1  0.64167800  0.10730500  0.03655200  1
  O  O37  1  0.31067900  0.60974800  0.20467000  1
  O  O38  1  0.98429200  0.11092000  0.36890300  1
  O  O39  1  0.62945200  0.61122800  0.53666000  1
  O  O40  1  0.31376300  0.10900200  0.70196400  1
  O  O41  1  0.97752900  0.60624100  0.86311800  1
  O  O42  1  0.99955300  0.87162600  0.12767100  1
  O  O43  1  0.66853500  0.37596200  0.29219800  1
  O  O44  1  0.33348600  0.87586200  0.45809900  1
  O  O45  1  0.99242800  0.37913600  0.62473800  1
  O  O46  1  0.67918700  0.86786600  0.78707300  1
  O  O47  1  0.33297000  0.36912600  0.96194500  1
  O  O48  1  0.02535300  0.39169600  0.13106800  1
  O  O49  1  0.68556400  0.89479200  0.29783700  1
  O  O50  1  0.35238300  0.39008000  0.46432600  1
  O  O51  1  0.03701400  0.88599100  0.62945300  1
  O  O52  1  0.69051000  0.39890600  0.79382100  1
  O  O53  1  0.35566400  0.89353800  0.96238400  1
  O  O54  1  0.11906800  0.14246400  0.04825000  1
  O  O55  1  0.79726800  0.64237700  0.21726600  1
  O  O56  1  0.46228200  0.14593800  0.38067900  1
  O  O57  1  0.10680300  0.64260700  0.55217400  1
  O  O58  1  0.79762300  0.14516900  0.71291900  1
  O  O59  1  0.46263500  0.63909700  0.87770500  1
