# generated using pymatgen
data_SrMoAsH3O8
_symmetry_space_group_name_H-M   'P 1'
_cell_length_a   9.39048338
_cell_length_b   9.39048338
_cell_length_c   9.91700649
_cell_angle_alpha   64.78643638
_cell_angle_beta   64.78643638
_cell_angle_gamma   67.29509301
_symmetry_Int_Tables_number   1
_chemical_formula_structural   SrMoAsH3O8
_chemical_formula_sum   'Sr4 Mo4 As4 H12 O32'
_cell_volume   693.09562471
_cell_formula_units_Z   4
loop_
 _symmetry_equiv_pos_site_id
 _symmetry_equiv_pos_as_xyz
  1  'x, y, z'
loop_
 _atom_site_type_symbol
 _atom_site_label
 _atom_site_symmetry_multiplicity
 _atom_site_fract_x
 _atom_site_fract_y
 _atom_site_fract_z
 _atom_site_occupancy
  Sr  Sr0  1  0.63979100  0.18042500  0.12526000  1
  Sr  Sr1  1  0.81957500  0.36020900  0.37474000  1
  Sr  Sr2  1  0.36020900  0.81957500  0.87474000  1
  Sr  Sr3  1  0.18042500  0.63979100  0.62526000  1
  Mo  Mo4  1  0.06009500  0.24406800  0.72805000  1
  Mo  Mo5  1  0.75593200  0.93990500  0.77195000  1
  Mo  Mo6  1  0.93990500  0.75593200  0.27195000  1
  Mo  Mo7  1  0.24406800  0.06009500  0.22805000  1
  As  As8  1  0.22952100  0.39441600  0.32282000  1
  As  As9  1  0.60558400  0.77047900  0.17718000  1
  As  As10  1  0.77047900  0.60558400  0.67718000  1
  As  As11  1  0.39441600  0.22952100  0.82282000  1
  H  H12  1  0.36804000  0.59941800  0.17898300  1
  H  H13  1  0.40058200  0.63196000  0.32101700  1
  H  H14  1  0.63196000  0.40058200  0.82101700  1
  H  H15  1  0.59941800  0.36804000  0.67898300  1
  H  H16  1  0.74950800  0.52152200  0.03574700  1
  H  H17  1  0.47847800  0.25049200  0.46425300  1
  H  H18  1  0.25049200  0.47847800  0.96425300  1
  H  H19  1  0.52152200  0.74950800  0.53574700  1
  H  H20  1  0.88824700  0.36136100  0.02747800  1
  H  H21  1  0.63863900  0.11175300  0.47252200  1
  H  H22  1  0.11175300  0.63863900  0.97252200  1
  H  H23  1  0.36136100  0.88824700  0.52747800  1
  O  O24  1  0.24366900  0.38742900  0.49161900  1
  O  O25  1  0.61257100  0.75633100  0.00838100  1
  O  O26  1  0.75633100  0.61257100  0.50838100  1
  O  O27  1  0.38742900  0.24366900  0.99161900  1
  O  O28  1  0.05170300  0.49151400  0.28011300  1
  O  O29  1  0.50848600  0.94829700  0.21988700  1
  O  O30  1  0.94829700  0.50848600  0.71988700  1
  O  O31  1  0.49151400  0.05170300  0.78011300  1
  O  O32  1  0.32072600  0.20943100  0.29239800  1
  O  O33  1  0.79056900  0.67927400  0.20760200  1
  O  O34  1  0.67927400  0.79056900  0.70760200  1
  O  O35  1  0.20943100  0.32072600  0.79239800  1
  O  O36  1  0.37830300  0.50065200  0.16234900  1
  O  O37  1  0.49934800  0.62169700  0.33765100  1
  O  O38  1  0.62169700  0.49934800  0.83765100  1
  O  O39  1  0.50065200  0.37830300  0.66234900  1
  O  O40  1  0.94610000  0.27972800  0.60737400  1
  O  O41  1  0.72027200  0.05390000  0.89262600  1
  O  O42  1  0.05390000  0.72027200  0.39262600  1
  O  O43  1  0.27972800  0.94610000  0.10737400  1
  O  O44  1  0.20823300  0.06029100  0.71349500  1
  O  O45  1  0.93970900  0.79176700  0.78650500  1
  O  O46  1  0.79176700  0.93970900  0.28650500  1
  O  O47  1  0.06029100  0.20823300  0.21349500  1
  O  O48  1  0.92598100  0.19221600  0.92123400  1
  O  O49  1  0.80778400  0.07401900  0.57876600  1
  O  O50  1  0.07401900  0.80778400  0.07876600  1
  O  O51  1  0.19221600  0.92598100  0.42123400  1
  O  O52  1  0.78598900  0.40806500  0.09741400  1
  O  O53  1  0.59193500  0.21401100  0.40258600  1
  O  O54  1  0.21401100  0.59193500  0.90258600  1
  O  O55  1  0.40806500  0.78598900  0.59741400  1
