# generated using pymatgen
data_Ca2Mn3P3H6O17
_symmetry_space_group_name_H-M   'P 1'
_cell_length_a   9.20839270
_cell_length_b   13.43873500
_cell_length_c   11.85580243
_cell_angle_alpha   89.99816957
_cell_angle_beta   104.96367182
_cell_angle_gamma   90.00203673
_symmetry_Int_Tables_number   1
_chemical_formula_structural   Ca2Mn3P3H6O17
_chemical_formula_sum   'Ca8 Mn12 P12 H24 O68'
_cell_volume   1417.39417206
_cell_formula_units_Z   4
loop_
 _symmetry_equiv_pos_site_id
 _symmetry_equiv_pos_as_xyz
  1  'x, y, z'
loop_
 _atom_site_type_symbol
 _atom_site_label
 _atom_site_symmetry_multiplicity
 _atom_site_fract_x
 _atom_site_fract_y
 _atom_site_fract_z
 _atom_site_occupancy
  Ca  Ca0  1  0.34219600  0.12532900  0.05223500  1
  Ca  Ca1  1  0.65782400  0.62533500  0.44777200  1
  Ca  Ca2  1  0.65780400  0.87467100  0.94776500  1
  Ca  Ca3  1  0.34217600  0.37466500  0.55222800  1
  Ca  Ca4  1  0.65390000  0.37989500  0.90791200  1
  Ca  Ca5  1  0.34612700  0.87991200  0.59207200  1
  Ca  Ca6  1  0.34609900  0.62010500  0.09208800  1
  Ca  Ca7  1  0.65387200  0.12008800  0.40792800  1
  Mn  Mn8  1  0.00000000  0.50000000  0.50000000  1
  Mn  Mn9  1  0.00000000  0.00000000  0.00000000  1
  Mn  Mn10  1  0.00000000  0.50000000  0.00000000  1
  Mn  Mn11  1  0.00000000  0.00000000  0.50000000  1
  Mn  Mn12  1  0.00014800  0.37557700  0.73778100  1
  Mn  Mn13  1  0.99983600  0.87556200  0.76226400  1
  Mn  Mn14  1  0.99985200  0.62442300  0.26221900  1
  Mn  Mn15  1  0.00016400  0.12443800  0.23773600  1
  Mn  Mn16  1  0.00138100  0.25977800  0.98492800  1
  Mn  Mn17  1  0.99867600  0.75979100  0.51505300  1
  Mn  Mn18  1  0.99861900  0.74022200  0.01507200  1
  Mn  Mn19  1  0.00132400  0.24020900  0.48494700  1
  P  P20  1  0.27618400  0.37886100  0.95152100  1
  P  P21  1  0.72387800  0.87885100  0.54849500  1
  P  P22  1  0.72381600  0.62113900  0.04847900  1
  P  P23  1  0.27612200  0.12114900  0.45150500  1
  P  P24  1  0.05169700  0.37577700  0.26114200  1
  P  P25  1  0.94828900  0.87580400  0.23885400  1
  P  P26  1  0.94830300  0.62422300  0.73885800  1
  P  P27  1  0.05171100  0.12419600  0.76114600  1
  P  P28  1  0.72583200  0.36941600  0.51752100  1
  P  P29  1  0.27414600  0.86942100  0.98249600  1
  P  P30  1  0.27416800  0.63058400  0.48247900  1
  P  P31  1  0.72585400  0.13057900  0.01750400  1
  H  H32  1  0.38572000  0.54143300  0.76138900  1
  H  H33  1  0.61421400  0.04143700  0.73858400  1
  H  H34  1  0.61428000  0.45856700  0.23861100  1
  H  H35  1  0.38578600  0.95856300  0.26141600  1
  H  H36  1  0.64992700  0.45981700  0.69047600  1
  H  H37  1  0.35010600  0.95980400  0.80952800  1
  H  H38  1  0.35007300  0.54018300  0.30952400  1
  H  H39  1  0.64989400  0.04019600  0.19047200  1
  H  H40  1  0.69415800  0.19825400  0.73096300  1
  H  H41  1  0.30583600  0.69825300  0.76903900  1
  H  H42  1  0.30584200  0.80174600  0.26903700  1
  H  H43  1  0.69416400  0.30174700  0.23096100  1
  H  H44  1  0.28833000  0.17310800  0.78821200  1
  H  H45  1  0.71167600  0.67309800  0.71177900  1
  H  H46  1  0.71167000  0.82689200  0.21178800  1
  H  H47  1  0.28832400  0.32690200  0.28822100  1
  H  H48  1  0.69014800  0.25398400  0.72876200  1
  H  H49  1  0.30987700  0.75398300  0.77123700  1
  H  H50  1  0.30985200  0.74601600  0.27123800  1
  H  H51  1  0.69012300  0.24601700  0.22876300  1
  H  H52  1  0.55673000  0.08497800  0.61421100  1
  H  H53  1  0.44321400  0.58496600  0.88577700  1
  H  H54  1  0.44327000  0.91502200  0.38578900  1
  H  H55  1  0.55678600  0.41503400  0.11422300  1
  O  O56  1  0.44614700  0.37359500  0.98108800  1
  O  O57  1  0.55388500  0.87356600  0.51892400  1
  O  O58  1  0.55385300  0.62640500  0.01891200  1
  O  O59  1  0.44611500  0.12643400  0.48107600  1
  O  O60  1  0.22075400  0.28453500  0.00989600  1
  O  O61  1  0.77931500  0.78453600  0.49011700  1
  O  O62  1  0.77924600  0.71546500  0.99010400  1
  O  O63  1  0.22068500  0.21546400  0.50988300  1
  O  O64  1  0.21911800  0.47368200  0.00395700  1
  O  O65  1  0.78089900  0.97367800  0.49605400  1
  O  O66  1  0.78088200  0.52631800  0.99604300  1
  O  O67  1  0.21910100  0.02632200  0.50394600  1
  O  O68  1  0.20788300  0.37076800  0.81694000  1
  O  O69  1  0.79212300  0.87076300  0.68307000  1
  O  O70  1  0.79211700  0.62923200  0.18306000  1
  O  O71  1  0.20787700  0.12923700  0.31693000  1
  O  O72  1  0.23459300  0.37849500  0.31945600  1
  O  O73  1  0.76538700  0.87848600  0.18055700  1
  O  O74  1  0.76540700  0.62150500  0.68054400  1
  O  O75  1  0.23461300  0.12151400  0.81944300  1
  O  O76  1  0.99314500  0.27947000  0.30184100  1
  O  O77  1  0.00683900  0.77946400  0.19814900  1
  O  O78  1  0.00685500  0.72053000  0.69815900  1
  O  O79  1  0.99316100  0.22053600  0.80185100  1
  O  O80  1  0.02094800  0.37873000  0.12848300  1
  O  O81  1  0.97906400  0.87872900  0.37151700  1
  O  O82  1  0.97905200  0.62127000  0.87151700  1
  O  O83  1  0.02093600  0.12127100  0.62848300  1
  O  O84  1  0.00009200  0.46821800  0.31481600  1
  O  O85  1  0.99988600  0.96821300  0.18518500  1
  O  O86  1  0.99990800  0.53178200  0.68518400  1
  O  O87  1  0.00011400  0.03178700  0.81481500  1
  O  O88  1  0.55637200  0.36814100  0.48491700  1
  O  O89  1  0.44360900  0.86812600  0.01511200  1
  O  O90  1  0.44362800  0.63185900  0.51508300  1
  O  O91  1  0.55639100  0.13187400  0.98488800  1
  O  O92  1  0.78788700  0.27085200  0.47561100  1
  O  O93  1  0.21204900  0.77086500  0.02440800  1
  O  O94  1  0.21211300  0.72914800  0.52438900  1
  O  O95  1  0.78795100  0.22913500  0.97559200  1
  O  O96  1  0.79044000  0.37929300  0.65287600  1
  O  O97  1  0.20955000  0.87929000  0.84714600  1
  O  O98  1  0.20956000  0.62070700  0.34712400  1
  O  O99  1  0.79045000  0.12071000  0.15285400  1
  O  O100  1  0.78242800  0.46382900  0.46163000  1
  O  O101  1  0.21757100  0.96383400  0.03838400  1
  O  O102  1  0.21757200  0.53617100  0.53837000  1
  O  O103  1  0.78242900  0.03616600  0.96161600  1
  O  O104  1  0.93900200  0.38743400  0.89579000  1
  O  O105  1  0.06103700  0.88744000  0.60421600  1
  O  O106  1  0.06099800  0.61256600  0.10421000  1
  O  O107  1  0.93896300  0.11256000  0.39578400  1
  O  O108  1  0.05831400  0.36578000  0.57070900  1
  O  O109  1  0.94163200  0.86579000  0.92930900  1
  O  O110  1  0.94168600  0.63422000  0.42929100  1
  O  O111  1  0.05836800  0.13421000  0.07069100  1
  O  O112  1  0.56480800  0.47262900  0.72577100  1
  O  O113  1  0.43522900  0.97260500  0.77425200  1
  O  O114  1  0.43519200  0.52737100  0.27422900  1
  O  O115  1  0.56477100  0.02739500  0.22574800  1
  O  O116  1  0.50136700  0.37080300  0.72893600  1
  O  O117  1  0.49862000  0.87076600  0.77105700  1
  O  O118  1  0.49863300  0.62919700  0.27106400  1
  O  O119  1  0.50138000  0.12923400  0.22894300  1
  O  O120  1  0.64724800  0.05852400  0.66942300  1
  O  O121  1  0.35267400  0.55851900  0.83055900  1
  O  O122  1  0.35275200  0.94147600  0.33057700  1
  O  O123  1  0.64732600  0.44148100  0.16944100  1
