# generated using pymatgen
data_BaNaFe4P6H3O25
_symmetry_space_group_name_H-M   'P 1'
_cell_length_a   9.42900652
_cell_length_b   22.91314004
_cell_length_c   9.14172682
_cell_angle_alpha   90.00000000
_cell_angle_beta   91.89775149
_cell_angle_gamma   90.00000000
_symmetry_Int_Tables_number   1
_chemical_formula_structural   BaNaFe4P6H3O25
_chemical_formula_sum   'Ba4 Na4 Fe16 P24 H12 O100'
_cell_volume   1973.96985329
_cell_formula_units_Z   4
loop_
 _symmetry_equiv_pos_site_id
 _symmetry_equiv_pos_as_xyz
  1  'x, y, z'
loop_
 _atom_site_type_symbol
 _atom_site_label
 _atom_site_symmetry_multiplicity
 _atom_site_fract_x
 _atom_site_fract_y
 _atom_site_fract_z
 _atom_site_occupancy
  Ba  Ba0  1  0.34214531  0.08249041  0.96341300  1
  Ba  Ba1  1  0.65785469  0.58249041  0.53658700  1
  Ba  Ba2  1  0.65785469  0.91750959  0.03658700  1
  Ba  Ba3  1  0.34214531  0.41750959  0.46341300  1
  Na  Na4  1  0.28554429  0.51136162  0.88131407  1
  Na  Na5  1  0.71445571  0.01136162  0.61868593  1
  Na  Na6  1  0.71445571  0.48863838  0.11868593  1
  Na  Na7  1  0.28554429  0.98863838  0.38131407  1
  Fe  Fe8  1  0.08276908  0.21088988  0.71811153  1
  Fe  Fe9  1  0.91723092  0.71088988  0.78188847  1
  Fe  Fe10  1  0.91723092  0.78911012  0.28188847  1
  Fe  Fe11  1  0.08276908  0.28911012  0.21811153  1
  Fe  Fe12  1  0.83434102  0.12433736  0.45983639  1
  Fe  Fe13  1  0.16565898  0.62433736  0.04016361  1
  Fe  Fe14  1  0.16565898  0.87566264  0.54016361  1
  Fe  Fe15  1  0.83434102  0.37566264  0.95983639  1
  Fe  Fe16  1  0.33657971  0.37592616  0.96698110  1
  Fe  Fe17  1  0.66342029  0.87592616  0.53301890  1
  Fe  Fe18  1  0.66342029  0.62407384  0.03301890  1
  Fe  Fe19  1  0.33657971  0.12407384  0.46698110  1
  Fe  Fe20  1  0.58200163  0.20847471  0.20633817  1
  Fe  Fe21  1  0.41799837  0.70847471  0.29366183  1
  Fe  Fe22  1  0.41799837  0.79152529  0.79366183  1
  Fe  Fe23  1  0.58200163  0.29152529  0.70633817  1
  P  P24  1  0.83212106  0.25187996  0.96114063  1
  P  P25  1  0.16787894  0.75187996  0.53885937  1
  P  P26  1  0.16787894  0.74812004  0.03885937  1
  P  P27  1  0.83212106  0.24812004  0.46114063  1
  P  P28  1  0.33257533  0.25445395  0.96280594  1
  P  P29  1  0.66742467  0.75445395  0.53719406  1
  P  P30  1  0.66742467  0.74554605  0.03719406  1
  P  P31  1  0.33257533  0.24554605  0.46280594  1
  P  P32  1  0.08836741  0.35874128  0.71013890  1
  P  P33  1  0.91163259  0.85874128  0.78986110  1
  P  P34  1  0.91163259  0.64125872  0.28986110  1
  P  P35  1  0.08836741  0.14125872  0.21013890  1
  P  P36  1  0.08448494  0.06902589  0.65102173  1
  P  P37  1  0.91551506  0.56902589  0.84897827  1
  P  P38  1  0.91551506  0.93097411  0.34897827  1
  P  P39  1  0.08448494  0.43097411  0.15102173  1
  P  P40  1  0.58330784  0.14330053  0.71303859  1
  P  P41  1  0.41669216  0.64330053  0.78696141  1
  P  P42  1  0.41669216  0.85669947  0.28696141  1
  P  P43  1  0.58330784  0.35669947  0.21303859  1
  P  P44  1  0.57617319  0.43465296  0.77065107  1
  P  P45  1  0.42382681  0.93465296  0.72934893  1
  P  P46  1  0.42382681  0.56534704  0.22934893  1
  P  P47  1  0.57617319  0.06534704  0.27065107  1
  H  H48  1  0.16885137  0.98300678  0.72287214  1
  H  H49  1  0.83114863  0.48300678  0.77712786  1
  H  H50  1  0.83114863  0.01699322  0.27712786  1
  H  H51  1  0.16885137  0.51699322  0.22287214  1
  H  H52  1  0.66907722  0.14665295  0.93789718  1
  H  H53  1  0.33092278  0.64665295  0.56210282  1
  H  H54  1  0.33092278  0.85334705  0.06210282  1
  H  H55  1  0.66907722  0.35334705  0.43789718  1
  H  H56  1  0.99925842  0.13227128  0.98476135  1
  H  H57  1  0.00074158  0.63227128  0.51523865  1
  H  H58  1  0.00074158  0.86772872  0.01523865  1
  H  H59  1  0.99925842  0.36772872  0.48476135  1
  O  O60  1  0.91689762  0.20255385  0.56134708  1
  O  O61  1  0.08310238  0.70255385  0.93865292  1
  O  O62  1  0.08310238  0.79744615  0.43865292  1
  O  O63  1  0.91689762  0.29744615  0.06134708  1
  O  O64  1  0.25128668  0.21466393  0.85483587  1
  O  O65  1  0.74871332  0.71466393  0.64516413  1
  O  O66  1  0.74871332  0.78533607  0.14516413  1
  O  O67  1  0.25128668  0.28533607  0.35483587  1
  O  O68  1  0.23066778  0.20044864  0.53794496  1
  O  O69  1  0.76933222  0.70044864  0.96205504  1
  O  O70  1  0.76933222  0.79955136  0.46205504  1
  O  O71  1  0.23066778  0.29955136  0.03794496  1
  O  O72  1  0.93260002  0.21379723  0.87323996  1
  O  O73  1  0.06739998  0.71379723  0.62676004  1
  O  O74  1  0.06739998  0.78620277  0.12676004  1
  O  O75  1  0.93260002  0.28620277  0.37323996  1
  O  O76  1  0.08302646  0.29334517  0.68049546  1
  O  O77  1  0.91697354  0.79334517  0.81950454  1
  O  O78  1  0.91697354  0.70665483  0.31950454  1
  O  O79  1  0.08302646  0.20665483  0.18049546  1
  O  O80  1  0.09660618  0.12502300  0.74382353  1
  O  O81  1  0.90339382  0.62502300  0.75617647  1
  O  O82  1  0.90339382  0.87497700  0.25617647  1
  O  O83  1  0.09660618  0.37497700  0.24382353  1
  O  O84  1  0.68877742  0.11718744  0.60854203  1
  O  O85  1  0.31122258  0.61718744  0.89145797  1
  O  O86  1  0.31122258  0.88281256  0.39145797  1
  O  O87  1  0.68877742  0.38281256  0.10854203  1
  O  O88  1  0.97594328  0.12144263  0.31371299  1
  O  O89  1  0.02405672  0.62144263  0.18628701  1
  O  O90  1  0.02405672  0.87855737  0.68628701  1
  O  O91  1  0.97594328  0.37855737  0.81371299  1
  O  O92  1  0.93612752  0.06308704  0.57852279  1
  O  O93  1  0.06387248  0.56308704  0.92147721  1
  O  O94  1  0.06387248  0.93691296  0.42147721  1
  O  O95  1  0.93612752  0.43691296  0.07852279  1
  O  O96  1  0.74477649  0.20149723  0.36570456  1
  O  O97  1  0.25522351  0.70149723  0.13429544  1
  O  O98  1  0.25522351  0.79850277  0.63429544  1
  O  O99  1  0.74477649  0.29850277  0.86570456  1
  O  O100  1  0.72834041  0.43869492  0.84452729  1
  O  O101  1  0.27165959  0.93869492  0.65547271  1
  O  O102  1  0.27165959  0.56130508  0.15547271  1
  O  O103  1  0.72834041  0.06130508  0.34452729  1
  O  O104  1  0.73318571  0.21046590  0.04396941  1
  O  O105  1  0.26681429  0.71046590  0.45603059  1
  O  O106  1  0.26681429  0.78953410  0.95603059  1
  O  O107  1  0.73318571  0.28953410  0.54396941  1
  O  O108  1  0.43648386  0.20063087  0.38927632  1
  O  O109  1  0.56351614  0.70063087  0.11072368  1
  O  O110  1  0.56351614  0.79936913  0.61072368  1
  O  O111  1  0.43648386  0.29936913  0.88927632  1
  O  O112  1  0.41379954  0.21343408  0.06861286  1
  O  O113  1  0.58620046  0.71343408  0.43138714  1
  O  O114  1  0.58620046  0.78656592  0.93138714  1
  O  O115  1  0.41379954  0.28656592  0.56861286  1
  O  O116  1  0.23682031  0.11896910  0.25785014  1
  O  O117  1  0.76317969  0.61896910  0.24214986  1
  O  O118  1  0.76317969  0.88103090  0.74214986  1
  O  O119  1  0.23682031  0.38103090  0.75785014  1
  O  O120  1  0.43237414  0.12210645  0.67427114  1
  O  O121  1  0.56762586  0.62210645  0.82572886  1
  O  O122  1  0.56762586  0.87789355  0.32572886  1
  O  O123  1  0.43237414  0.37789355  0.17427114  1
  O  O124  1  0.46775856  0.43520671  0.89642512  1
  O  O125  1  0.53224144  0.93520671  0.60357488  1
  O  O126  1  0.53224144  0.56479329  0.10357488  1
  O  O127  1  0.46775856  0.06479329  0.39642512  1
  O  O128  1  0.20063268  0.06634922  0.53537286  1
  O  O129  1  0.79936732  0.56634922  0.96462714  1
  O  O130  1  0.79936732  0.93365078  0.46462714  1
  O  O131  1  0.20063268  0.43365078  0.03537286  1
  O  O132  1  0.06085838  0.10991339  0.05384402  1
  O  O133  1  0.93914162  0.60991339  0.44615598  1
  O  O134  1  0.93914162  0.89008661  0.94615598  1
  O  O135  1  0.06085838  0.39008661  0.55384402  1
  O  O136  1  0.11271749  0.01751322  0.76363221  1
  O  O137  1  0.88728251  0.51751322  0.73636779  1
  O  O138  1  0.88728251  0.98248678  0.23636779  1
  O  O139  1  0.11271749  0.48248678  0.26363221  1
  O  O140  1  0.56371147  0.12403832  0.18589089  1
  O  O141  1  0.43628853  0.62403832  0.31410911  1
  O  O142  1  0.43628853  0.87596168  0.81410911  1
  O  O143  1  0.56371147  0.37596168  0.68589089  1
  O  O144  1  0.59620042  0.20909802  0.72991824  1
  O  O145  1  0.40379958  0.70909802  0.77008176  1
  O  O146  1  0.40379958  0.79090198  0.27008176  1
  O  O147  1  0.59620042  0.29090198  0.22991824  1
  O  O148  1  0.61794029  0.11734077  0.87419569  1
  O  O149  1  0.38205971  0.61734077  0.62580431  1
  O  O150  1  0.38205971  0.88265923  0.12580431  1
  O  O151  1  0.61794029  0.38265923  0.37419569  1
  O  O152  1  0.45428738  0.98495816  0.83466051  1
  O  O153  1  0.54571262  0.48495816  0.66533949  1
  O  O154  1  0.54571262  0.01504184  0.16533949  1
  O  O155  1  0.45428738  0.51504184  0.33466051  1
  O  O156  1  0.21043916  0.99068349  0.11946136  1
  O  O157  1  0.78956084  0.49068349  0.38053864  1
  O  O158  1  0.78956084  0.00931651  0.88053864  1
  O  O159  1  0.21043916  0.50931651  0.61946136  1
