# generated using pymatgen
data_CoH22S2N5O9
_symmetry_space_group_name_H-M   'P 1'
_cell_length_a   6.89104500
_cell_length_b   13.04954700
_cell_length_c   21.76715300
_cell_angle_alpha   90.00000000
_cell_angle_beta   90.00000000
_cell_angle_gamma   90.00000000
_symmetry_Int_Tables_number   1
_chemical_formula_structural   CoH22S2N5O9
_chemical_formula_sum   'Co4 H88 S8 N20 O36'
_cell_volume   1957.41157324
_cell_formula_units_Z   4
loop_
 _symmetry_equiv_pos_site_id
 _symmetry_equiv_pos_as_xyz
  1  'x, y, z'
loop_
 _atom_site_type_symbol
 _atom_site_label
 _atom_site_symmetry_multiplicity
 _atom_site_fract_x
 _atom_site_fract_y
 _atom_site_fract_z
 _atom_site_occupancy
  Co  Co0  1  0.34209100  0.87227300  0.69181600  1
  Co  Co1  1  0.84209100  0.62772700  0.30818400  1
  Co  Co2  1  0.65790900  0.37227300  0.80818400  1
  Co  Co3  1  0.15790900  0.12772700  0.19181600  1
  H  H4  1  0.07325900  0.67380400  0.91420500  1
  H  H5  1  0.57325900  0.82619600  0.08579500  1
  H  H6  1  0.92674100  0.17380400  0.58579500  1
  H  H7  1  0.42674100  0.32619600  0.41420500  1
  H  H8  1  0.34691000  0.17454900  0.48068200  1
  H  H9  1  0.84691000  0.32545100  0.51931800  1
  H  H10  1  0.65309000  0.67454900  0.01931800  1
  H  H11  1  0.15309000  0.82545100  0.98068200  1
  H  H12  1  0.96699700  0.67289100  0.90630400  1
  H  H13  1  0.46699700  0.82710900  0.09369600  1
  H  H14  1  0.03300300  0.17289100  0.59369600  1
  H  H15  1  0.53300300  0.32710900  0.40630400  1
  H  H16  1  0.69782800  0.66729900  0.98819000  1
  H  H17  1  0.19782800  0.83270100  0.01181000  1
  H  H18  1  0.30217200  0.16729900  0.51181000  1
  H  H19  1  0.80217200  0.33270100  0.48819000  1
  H  H20  1  0.56996600  0.87499300  0.85747600  1
  H  H21  1  0.06996600  0.62500700  0.14252400  1
  H  H22  1  0.43003400  0.37499300  0.64252400  1
  H  H23  1  0.93003400  0.12500700  0.35747600  1
  H  H24  1  0.81014600  0.90496700  0.95937200  1
  H  H25  1  0.31014600  0.59503300  0.04062800  1
  H  H26  1  0.18985400  0.40496700  0.54062800  1
  H  H27  1  0.68985400  0.09503300  0.45937200  1
  H  H28  1  0.00552600  0.68509600  0.70278300  1
  H  H29  1  0.50552600  0.81490400  0.29721700  1
  H  H30  1  0.99447400  0.18509600  0.79721700  1
  H  H31  1  0.49447400  0.31490400  0.20278300  1
  H  H32  1  0.36550700  0.55298800  0.47302500  1
  H  H33  1  0.86550700  0.94701200  0.52697500  1
  H  H34  1  0.63449300  0.05298800  0.02697500  1
  H  H35  1  0.13449300  0.44701200  0.97302500  1
  H  H36  1  0.98910600  0.69486000  0.61325000  1
  H  H37  1  0.48910600  0.80514000  0.38675000  1
  H  H38  1  0.01089400  0.19486000  0.88675000  1
  H  H39  1  0.51089400  0.30514000  0.11325000  1
  H  H40  1  0.70814300  0.52161900  0.72923600  1
  H  H41  1  0.20814300  0.97838100  0.27076400  1
  H  H42  1  0.29185700  0.02161900  0.77076400  1
  H  H43  1  0.79185700  0.47838100  0.22923600  1
  H  H44  1  0.61083300  0.78211800  0.45986600  1
  H  H45  1  0.11083300  0.71788200  0.54013400  1
  H  H46  1  0.38916700  0.28211800  0.04013400  1
  H  H47  1  0.88916700  0.21788200  0.95986600  1
  H  H48  1  0.28342900  0.16951300  0.24065500  1
  H  H49  1  0.78342900  0.33048700  0.75934500  1
  H  H50  1  0.71657100  0.66951300  0.25934500  1
  H  H51  1  0.21657100  0.83048700  0.74065500  1
  H  H52  1  0.70452600  0.90437300  0.60079200  1
  H  H53  1  0.20452600  0.59562700  0.39920800  1
  H  H54  1  0.29547400  0.40437300  0.89920800  1
  H  H55  1  0.79547400  0.09562700  0.10079200  1
  H  H56  1  0.62282100  0.77777100  0.71990500  1
  H  H57  1  0.12282100  0.72222900  0.28009500  1
  H  H58  1  0.37717900  0.27777100  0.78009500  1
  H  H59  1  0.87717900  0.22222900  0.21990500  1
  H  H60  1  0.75312900  0.29558600  0.99055000  1
  H  H61  1  0.25312900  0.20441400  0.00945000  1
  H  H62  1  0.24687100  0.79558600  0.50945000  1
  H  H63  1  0.74687100  0.70441400  0.49055000  1
  H  H64  1  0.86707500  0.82262200  0.58917300  1
  H  H65  1  0.36707500  0.67737800  0.41082700  1
  H  H66  1  0.13292500  0.32262200  0.91082700  1
  H  H67  1  0.63292500  0.17737800  0.08917300  1
  H  H68  1  0.16545100  0.65146300  0.74782000  1
  H  H69  1  0.66545100  0.84853700  0.25218000  1
  H  H70  1  0.83454900  0.15146300  0.75218000  1
  H  H71  1  0.33454900  0.34853700  0.24782000  1
  H  H72  1  0.84822100  0.67029600  0.80236100  1
  H  H73  1  0.34822100  0.82970400  0.19763900  1
  H  H74  1  0.15177900  0.17029600  0.69763900  1
  H  H75  1  0.65177900  0.32970400  0.30236100  1
  H  H76  1  0.45879300  0.81880800  0.96586200  1
  H  H77  1  0.95879300  0.68119200  0.03413800  1
  H  H78  1  0.54120700  0.31880800  0.53413800  1
  H  H79  1  0.04120700  0.18119200  0.46586200  1
  H  H80  1  0.50280800  0.98723600  0.85013500  1
  H  H81  1  0.00280800  0.51276400  0.14986500  1
  H  H82  1  0.49719200  0.48723600  0.64986500  1
  H  H83  1  0.99719200  0.01276400  0.35013500  1
  H  H84  1  0.75880700  0.98532400  0.86988700  1
  H  H85  1  0.25880700  0.51467600  0.13011300  1
  H  H86  1  0.24119300  0.48532400  0.63011300  1
  H  H87  1  0.74119300  0.01467600  0.36988700  1
  H  H88  1  0.96244200  0.14197700  0.89074100  1
  H  H89  1  0.46244200  0.35802300  0.10925900  1
  H  H90  1  0.03755800  0.64197700  0.60925900  1
  H  H91  1  0.53755800  0.85802300  0.39074100  1
  S  S92  1  0.41653600  0.07946200  0.68309500  1
  S  S93  1  0.91653600  0.42053800  0.31690500  1
  S  S94  1  0.58346400  0.57946200  0.81690500  1
  S  S95  1  0.08346400  0.92053800  0.18309500  1
  S  S96  1  0.39725900  0.97829700  0.60831700  1
  S  S97  1  0.89725900  0.52170300  0.39168300  1
  S  S98  1  0.60274100  0.47829700  0.89168300  1
  S  S99  1  0.10274100  0.02170300  0.10831700  1
  N  N100  1  0.00754100  0.20790900  0.42104600  1
  N  N101  1  0.50754100  0.29209100  0.57895400  1
  N  N102  1  0.99245900  0.70790900  0.07895400  1
  N  N103  1  0.49245900  0.79209100  0.92104600  1
  N  N104  1  0.68471400  0.01606500  0.46048700  1
  N  N105  1  0.18471400  0.48393500  0.53951300  1
  N  N106  1  0.31528600  0.51606500  0.03951300  1
  N  N107  1  0.81528600  0.98393500  0.96048700  1
  N  N108  1  0.29039800  0.00265600  0.72525700  1
  N  N109  1  0.79039800  0.49734400  0.27474300  1
  N  N110  1  0.70960200  0.50265600  0.77474300  1
  N  N111  1  0.20960200  0.99734400  0.22525700  1
  N  N112  1  0.48538000  0.75949000  0.70232900  1
  N  N113  1  0.98538000  0.74051000  0.29767100  1
  N  N114  1  0.51462000  0.25949000  0.79767100  1
  N  N115  1  0.01462000  0.24051000  0.20232900  1
  N  N116  1  0.37072300  0.51754400  0.51742800  1
  N  N117  1  0.87072300  0.98245600  0.48257200  1
  N  N118  1  0.62927700  0.01754400  0.98257200  1
  N  N119  1  0.12927700  0.48245600  0.01742800  1
  O  O120  1  0.27975200  0.18201800  0.67609700  1
  O  O121  1  0.77975200  0.31798200  0.32390300  1
  O  O122  1  0.72024800  0.68201800  0.82390300  1
  O  O123  1  0.22024800  0.81798200  0.17609700  1
  O  O124  1  0.60347200  0.21472700  0.59007600  1
  O  O125  1  0.10347200  0.28527300  0.40992400  1
  O  O126  1  0.39652800  0.71472700  0.90992400  1
  O  O127  1  0.89652800  0.78527300  0.09007600  1
  O  O128  1  0.54717900  0.16351100  0.79487700  1
  O  O129  1  0.04717900  0.33648900  0.20512300  1
  O  O130  1  0.45282100  0.66351100  0.70512300  1
  O  O131  1  0.95282100  0.83648900  0.29487700  1
  O  O132  1  0.84643300  0.89550400  0.59649800  1
  O  O133  1  0.34643300  0.60449600  0.40350200  1
  O  O134  1  0.15356700  0.39550400  0.90350200  1
  O  O135  1  0.65356700  0.10449600  0.09649800  1
  O  O136  1  0.12629100  0.75819000  0.50276100  1
  O  O137  1  0.62629100  0.74181000  0.49723900  1
  O  O138  1  0.87370900  0.25819000  0.99723900  1
  O  O139  1  0.37370900  0.24181000  0.00276100  1
  O  O140  1  0.01805100  0.97451200  0.44848700  1
  O  O141  1  0.51805100  0.52548800  0.55151300  1
  O  O142  1  0.98194900  0.47451200  0.05151300  1
  O  O143  1  0.48194900  0.02548800  0.94848700  1
  O  O144  1  0.02651900  0.66681600  0.74570400  1
  O  O145  1  0.52651900  0.83318400  0.25429600  1
  O  O146  1  0.97348100  0.16681600  0.75429600  1
  O  O147  1  0.47348100  0.33318400  0.24570400  1
  O  O148  1  0.58919200  0.93677600  0.83102900  1
  O  O149  1  0.08919200  0.56322400  0.16897100  1
  O  O150  1  0.41080800  0.43677600  0.66897100  1
  O  O151  1  0.91080800  0.06322400  0.33102900  1
  O  O152  1  0.85542600  0.01737600  0.90012200  1
  O  O153  1  0.35542600  0.48262400  0.09987800  1
  O  O154  1  0.14457400  0.51737600  0.59987800  1
  O  O155  1  0.64457400  0.98262400  0.40012200  1
