# generated using pymatgen
data_H24RuC7S3NCl3O4
_symmetry_space_group_name_H-M   'P 1'
_cell_length_a   15.11741000
_cell_length_b   8.31874100
_cell_length_c   16.83033802
_cell_angle_alpha   61.91285108
_cell_angle_beta   90.00000000
_cell_angle_gamma   90.00000000
_symmetry_Int_Tables_number   1
_chemical_formula_structural   H24RuC7S3NCl3O4
_chemical_formula_sum   'H96 Ru4 C28 S12 N4 Cl12 O16'
_cell_volume   1867.28616769
_cell_formula_units_Z   4
loop_
 _symmetry_equiv_pos_site_id
 _symmetry_equiv_pos_as_xyz
  1  'x, y, z'
loop_
 _atom_site_type_symbol
 _atom_site_label
 _atom_site_symmetry_multiplicity
 _atom_site_fract_x
 _atom_site_fract_y
 _atom_site_fract_z
 _atom_site_occupancy
  H  H0  1  0.45288400  0.67284600  0.52563800  1
  H  H1  1  0.04711600  0.67284600  0.02563800  1
  H  H2  1  0.54711600  0.32715400  0.47436200  1
  H  H3  1  0.95288400  0.32715400  0.97436200  1
  H  H4  1  0.42245700  0.80686600  0.58175700  1
  H  H5  1  0.07754300  0.80686600  0.08175700  1
  H  H6  1  0.57754300  0.19313400  0.41824300  1
  H  H7  1  0.92245700  0.19313400  0.91824300  1
  H  H8  1  0.35930300  0.60874000  0.60137100  1
  H  H9  1  0.14069700  0.60874000  0.10137100  1
  H  H10  1  0.64069700  0.39126000  0.39862900  1
  H  H11  1  0.85930300  0.39126000  0.89862900  1
  H  H12  1  0.45162800  0.00435100  0.37247800  1
  H  H13  1  0.04837200  0.00435100  0.87247800  1
  H  H14  1  0.54837200  0.99564900  0.62752200  1
  H  H15  1  0.95162800  0.99564900  0.12752200  1
  H  H16  1  0.35833800  0.15486200  0.34289800  1
  H  H17  1  0.14166200  0.15486200  0.84289800  1
  H  H18  1  0.64166200  0.84513800  0.65710200  1
  H  H19  1  0.85833800  0.84513800  0.15710200  1
  H  H20  1  0.41972900  0.10410400  0.44419700  1
  H  H21  1  0.08027100  0.10410400  0.94419700  1
  H  H22  1  0.58027100  0.89589600  0.55580300  1
  H  H23  1  0.91972900  0.89589600  0.05580300  1
  H  H24  1  0.12029400  0.93487400  0.20670600  1
  H  H25  1  0.37970600  0.93487400  0.70670600  1
  H  H26  1  0.87970600  0.06512600  0.79329400  1
  H  H27  1  0.62029400  0.06512600  0.29329400  1
  H  H28  1  0.06952300  0.72341200  0.28194000  1
  H  H29  1  0.43047700  0.72341200  0.78194000  1
  H  H30  1  0.93047700  0.27658800  0.71806000  1
  H  H31  1  0.56952300  0.27658800  0.21806000  1
  H  H32  1  0.01711200  0.93608800  0.26320100  1
  H  H33  1  0.48288800  0.93608800  0.76320100  1
  H  H34  1  0.98288800  0.06391200  0.73679900  1
  H  H35  1  0.51711200  0.06391200  0.23679900  1
  H  H36  1  0.18983200  0.16498100  0.26115200  1
  H  H37  1  0.31016800  0.16498100  0.76115200  1
  H  H38  1  0.81016800  0.83501900  0.73884800  1
  H  H39  1  0.68983200  0.83501900  0.23884800  1
  H  H40  1  0.07760700  0.15423800  0.30298100  1
  H  H41  1  0.42239300  0.15423800  0.80298100  1
  H  H42  1  0.92239300  0.84576200  0.69701900  1
  H  H43  1  0.57760700  0.84576200  0.19701900  1
  H  H44  1  0.17180600  0.12387900  0.37514400  1
  H  H45  1  0.32819400  0.12387900  0.87514400  1
  H  H46  1  0.82819400  0.87612100  0.62485600  1
  H  H47  1  0.67180600  0.87612100  0.12485600  1
  H  H48  1  0.08445600  0.46645200  0.47494800  1
  H  H49  1  0.41554400  0.46645200  0.97494800  1
  H  H50  1  0.91554400  0.53354800  0.52505200  1
  H  H51  1  0.58445600  0.53354800  0.02505200  1
  H  H52  1  0.14953700  0.32219300  0.44411700  1
  H  H53  1  0.35046300  0.32219300  0.94411700  1
  H  H54  1  0.85046300  0.67780700  0.55588300  1
  H  H55  1  0.64953700  0.67780700  0.05588300  1
  H  H56  1  0.12464600  0.24976400  0.56186400  1
  H  H57  1  0.37535400  0.24976400  0.06186400  1
  H  H58  1  0.87535400  0.75023600  0.43813600  1
  H  H59  1  0.62464600  0.75023600  0.93813600  1
  H  H60  1  0.32326800  0.27451300  0.47568600  1
  H  H61  1  0.17673200  0.27451300  0.97568600  1
  H  H62  1  0.67673200  0.72548700  0.52431400  1
  H  H63  1  0.82326800  0.72548700  0.02431400  1
  H  H64  1  0.37527800  0.33090800  0.55526900  1
  H  H65  1  0.12472200  0.33090800  0.05526900  1
  H  H66  1  0.62472200  0.66909200  0.44473100  1
  H  H67  1  0.87527800  0.66909200  0.94473100  1
  H  H68  1  0.28312400  0.16948400  0.59112000  1
  H  H69  1  0.21687600  0.16948400  0.09112000  1
  H  H70  1  0.71687600  0.83051600  0.40888000  1
  H  H71  1  0.78312400  0.83051600  0.90888000  1
  H  H72  1  0.35946800  0.76824800  0.18206900  1
  H  H73  1  0.14053200  0.76824800  0.68206900  1
  H  H74  1  0.64053200  0.23175200  0.81793100  1
  H  H75  1  0.85946800  0.23175200  0.31793100  1
  H  H76  1  0.33403000  0.71581500  0.09918400  1
  H  H77  1  0.16597000  0.71581500  0.59918400  1
  H  H78  1  0.66597000  0.28418500  0.90081600  1
  H  H79  1  0.83403000  0.28418500  0.40081600  1
  H  H80  1  0.43335400  0.87914200  0.01804200  1
  H  H81  1  0.06664600  0.87914200  0.51804200  1
  H  H82  1  0.56664600  0.12085800  0.98195800  1
  H  H83  1  0.93335400  0.12085800  0.48195800  1
  H  H84  1  0.39125200  0.45475000  0.22682300  1
  H  H85  1  0.10874800  0.45475000  0.72682300  1
  H  H86  1  0.60874800  0.54525000  0.77317700  1
  H  H87  1  0.89125200  0.54525000  0.27317700  1
  H  H88  1  0.46254600  0.52543800  0.13055700  1
  H  H89  1  0.03745400  0.52543800  0.63055700  1
  H  H90  1  0.53745400  0.47456200  0.86944300  1
  H  H91  1  0.96254600  0.47456200  0.36944300  1
  H  H92  1  0.49046200  0.57882500  0.22051300  1
  H  H93  1  0.00953800  0.57882500  0.72051300  1
  H  H94  1  0.50953800  0.42117500  0.77948700  1
  H  H95  1  0.99046200  0.42117500  0.27948700  1
  Ru  Ru96  1  0.27739500  0.72876000  0.37834500  1
  Ru  Ru97  1  0.22260500  0.72876000  0.87834500  1
  Ru  Ru98  1  0.72260500  0.27124000  0.62165500  1
  Ru  Ru99  1  0.77739500  0.27124000  0.12165500  1
  C  C100  1  0.43731600  0.55913400  0.18198400  1
  C  C101  1  0.06268400  0.55913400  0.68198400  1
  C  C102  1  0.56268400  0.44086600  0.81801600  1
  C  C103  1  0.93731600  0.44086600  0.31801600  1
  C  C104  1  0.39894800  0.72218900  0.55206800  1
  C  C105  1  0.10105200  0.72218900  0.05206800  1
  C  C106  1  0.60105200  0.27781100  0.44793200  1
  C  C107  1  0.89894800  0.27781100  0.94793200  1
  C  C108  1  0.39697600  0.05199600  0.39875600  1
  C  C109  1  0.10302400  0.05199600  0.89875600  1
  C  C110  1  0.60302400  0.94800400  0.60124400  1
  C  C111  1  0.89697600  0.94800400  0.10124400  1
  C  C112  1  0.07966000  0.86485700  0.26759700  1
  C  C113  1  0.42034000  0.86485700  0.76759700  1
  C  C114  1  0.92034000  0.13514300  0.73240300  1
  C  C115  1  0.57966000  0.13514300  0.23240300  1
  C  C116  1  0.14571600  0.10407000  0.31966300  1
  C  C117  1  0.35428400  0.10407000  0.81966300  1
  C  C118  1  0.85428400  0.89593000  0.68033700  1
  C  C119  1  0.64571600  0.89593000  0.18033700  1
  C  C120  1  0.13774200  0.36564900  0.49532600  1
  C  C121  1  0.36225800  0.36564900  0.99532600  1
  C  C122  1  0.86225800  0.63435100  0.50467400  1
  C  C123  1  0.63774200  0.63435100  0.00467400  1
  C  C124  1  0.31308100  0.29113400  0.53582700  1
  C  C125  1  0.18691900  0.29113400  0.03582700  1
  C  C126  1  0.68691900  0.70886600  0.46417300  1
  C  C127  1  0.81308100  0.70886600  0.96417300  1
  S  S128  1  0.32455600  0.86112100  0.46157900  1
  S  S129  1  0.17544400  0.86112100  0.96157900  1
  S  S130  1  0.67544400  0.13887900  0.53842100  1
  S  S131  1  0.82455600  0.13887900  0.03842100  1
  S  S132  1  0.14184200  0.86113500  0.36012600  1
  S  S133  1  0.35815800  0.86113500  0.86012600  1
  S  S134  1  0.85815800  0.13886500  0.63987400  1
  S  S135  1  0.64184200  0.13886500  0.13987400  1
  S  S136  1  0.23626400  0.47601400  0.50606700  1
  S  S137  1  0.26373600  0.47601400  0.00606700  1
  S  S138  1  0.76373600  0.52398600  0.49393300  1
  S  S139  1  0.73626400  0.52398600  0.99393300  1
  N  N140  1  0.38596000  0.73047600  0.13583300  1
  N  N141  1  0.11404000  0.73047600  0.63583300  1
  N  N142  1  0.61404000  0.26952400  0.86416700  1
  N  N143  1  0.88596000  0.26952400  0.36416700  1
  Cl  Cl144  1  0.23541800  0.56989600  0.29269700  1
  Cl  Cl145  1  0.26458200  0.56989600  0.79269700  1
  Cl  Cl146  1  0.76458200  0.43010400  0.70730300  1
  Cl  Cl147  1  0.73541800  0.43010400  0.20730300  1
  Cl  Cl148  1  0.42865700  0.62201000  0.38046300  1
  Cl  Cl149  1  0.07134300  0.62201000  0.88046300  1
  Cl  Cl150  1  0.57134300  0.37799000  0.61953700  1
  Cl  Cl151  1  0.92865700  0.37799000  0.11953700  1
  Cl  Cl152  1  0.32253100  0.98298700  0.23364300  1
  Cl  Cl153  1  0.17746900  0.98298700  0.73364300  1
  Cl  Cl154  1  0.67746900  0.01701300  0.76635700  1
  Cl  Cl155  1  0.82253100  0.01701300  0.26635700  1
  O  O156  1  0.43946000  0.88037400  0.07674900  1
  O  O157  1  0.06054000  0.88037400  0.57674900  1
  O  O158  1  0.56054000  0.11962600  0.92325100  1
  O  O159  1  0.93946000  0.11962600  0.42325100  1
  O  O160  1  0.25579400  0.92777200  0.50285500  1
  O  O161  1  0.24420600  0.92777200  0.00285500  1
  O  O162  1  0.74420600  0.07222800  0.49714500  1
  O  O163  1  0.75579400  0.07222800  0.99714500  1
  O  O164  1  0.07939300  0.78840100  0.43939500  1
  O  O165  1  0.42060700  0.78840100  0.93939500  1
  O  O166  1  0.92060700  0.21159900  0.56060500  1
  O  O167  1  0.57939300  0.21159900  0.06060500  1
  O  O168  1  0.22312600  0.49749900  0.58867000  1
  O  O169  1  0.27687400  0.49749900  0.08867000  1
  O  O170  1  0.77687400  0.50250100  0.41133000  1
  O  O171  1  0.72312600  0.50250100  0.91133000  1
