# generated using pymatgen
data_H5C2NO3
_symmetry_space_group_name_H-M   'P 1'
_cell_length_a   14.54920017
_cell_length_b   14.54920017
_cell_length_c   16.28480013
_cell_angle_alpha   84.86147904
_cell_angle_beta   84.86147904
_cell_angle_gamma   14.75696244
_symmetry_Int_Tables_number   1
_chemical_formula_structural   H5C2NO3
_chemical_formula_sum   'H40 C16 N8 O24'
_cell_volume   874.46902988
_cell_formula_units_Z   8
loop_
 _symmetry_equiv_pos_site_id
 _symmetry_equiv_pos_as_xyz
  1  'x, y, z'
loop_
 _atom_site_type_symbol
 _atom_site_label
 _atom_site_symmetry_multiplicity
 _atom_site_fract_x
 _atom_site_fract_y
 _atom_site_fract_z
 _atom_site_occupancy
  H  H0  1  0.71472600  0.50686600  0.50875800  1
  H  H1  1  0.49313400  0.28527400  0.99124200  1
  H  H2  1  0.28527400  0.49313400  0.49124200  1
  H  H3  1  0.50686600  0.71472600  0.00875800  1
  H  H4  1  0.21140800  0.85914900  0.46547300  1
  H  H5  1  0.14085100  0.78859200  0.03452700  1
  H  H6  1  0.78859200  0.14085100  0.53452700  1
  H  H7  1  0.85914900  0.21140800  0.96547300  1
  H  H8  1  0.37555700  0.95485900  0.37899100  1
  H  H9  1  0.04514100  0.62444300  0.12100900  1
  H  H10  1  0.62444300  0.04514100  0.62100900  1
  H  H11  1  0.95485900  0.37555700  0.87899100  1
  H  H12  1  0.71421100  0.81205900  0.56373100  1
  H  H13  1  0.18794100  0.28578900  0.93626900  1
  H  H14  1  0.28578900  0.18794100  0.43626900  1
  H  H15  1  0.81205900  0.71421100  0.06373100  1
  H  H16  1  0.00905400  0.42205500  0.71508200  1
  H  H17  1  0.57794500  0.99094600  0.78491800  1
  H  H18  1  0.99094600  0.57794500  0.28491800  1
  H  H19  1  0.42205500  0.00905400  0.21508200  1
  H  H20  1  0.92715000  0.46645700  0.61524200  1
  H  H21  1  0.53354400  0.07285000  0.88475800  1
  H  H22  1  0.07285000  0.53354400  0.38475800  1
  H  H23  1  0.46645600  0.92715000  0.11524200  1
  H  H24  1  0.13305400  0.59152700  0.73057700  1
  H  H25  1  0.40847300  0.86694600  0.76942300  1
  H  H26  1  0.86694600  0.40847300  0.26942300  1
  H  H27  1  0.59152700  0.13305400  0.23057700  1
  H  H28  1  0.94395600  0.87895100  0.86839400  1
  H  H29  1  0.12104900  0.05604400  0.63160600  1
  H  H30  1  0.05604400  0.12104900  0.13160600  1
  H  H31  1  0.87895100  0.94395600  0.36839400  1
  H  H32  1  0.28987600  0.67097300  0.32170000  1
  H  H33  1  0.32902700  0.71012400  0.17830000  1
  H  H34  1  0.71012400  0.32902700  0.67830000  1
  H  H35  1  0.67097300  0.28987600  0.82170000  1
  H  H36  1  0.44820800  0.65286300  0.36999600  1
  H  H37  1  0.34713700  0.55179200  0.13000400  1
  H  H38  1  0.55179200  0.34713700  0.63000400  1
  H  H39  1  0.65286300  0.44820800  0.86999600  1
  C  C40  1  0.63638300  0.64966600  0.47689700  1
  C  C41  1  0.35033400  0.36361700  0.02310300  1
  C  C42  1  0.36361700  0.35033400  0.52310300  1
  C  C43  1  0.64966600  0.63638300  0.97689700  1
  C  C44  1  0.79166600  0.72925800  0.62892300  1
  C  C45  1  0.27074200  0.20833400  0.87107700  1
  C  C46  1  0.20833400  0.27074200  0.37107700  1
  C  C47  1  0.72925800  0.79166600  0.12892300  1
  C  C48  1  0.12851900  0.65738000  0.76605700  1
  C  C49  1  0.34262000  0.87148100  0.73394300  1
  C  C50  1  0.87148100  0.34262000  0.23394300  1
  C  C51  1  0.65738000  0.12851900  0.26605700  1
  C  C52  1  0.18701500  0.78365800  0.38320600  1
  C  C53  1  0.21634200  0.81298500  0.11679400  1
  C  C54  1  0.81298500  0.21634200  0.61679400  1
  C  C55  1  0.78365800  0.18701500  0.88320600  1
  N  N56  1  0.92734500  0.51671100  0.65527700  1
  N  N57  1  0.48328900  0.07265500  0.84472300  1
  N  N58  1  0.07265500  0.48328900  0.34472300  1
  N  N59  1  0.51671100  0.92734500  0.15527700  1
  N  N60  1  0.29819000  0.75443100  0.40988100  1
  N  N61  1  0.24556900  0.70181000  0.09011900  1
  N  N62  1  0.70181000  0.24556900  0.59011900  1
  N  N63  1  0.75443100  0.29819000  0.90988100  1
  O  O64  1  0.72175000  0.64109600  0.50214100  1
  O  O65  1  0.35890400  0.27825000  0.99785900  1
  O  O66  1  0.27825000  0.35890400  0.49785900  1
  O  O67  1  0.64109600  0.72175000  0.00214100  1
  O  O68  1  0.44616400  0.82315800  0.40992200  1
  O  O69  1  0.17684200  0.55383600  0.09007800  1
  O  O70  1  0.55383600  0.17684200  0.59007800  1
  O  O71  1  0.82315800  0.44616400  0.90992200  1
  O  O72  1  0.74836100  0.83848100  0.67245700  1
  O  O73  1  0.16151900  0.25163900  0.82754300  1
  O  O74  1  0.25163900  0.16151900  0.32754300  1
  O  O75  1  0.83848100  0.74836100  0.17245700  1
  O  O76  1  0.27013900  0.59373400  0.74043900  1
  O  O77  1  0.40626600  0.72986100  0.75956100  1
  O  O78  1  0.72986100  0.40626600  0.25956100  1
  O  O79  1  0.59373400  0.27013900  0.24043900  1
  O  O80  1  0.95161800  0.81236800  0.83706000  1
  O  O81  1  0.18763200  0.04838200  0.66294000  1
  O  O82  1  0.04838200  0.18763200  0.16294000  1
  O  O83  1  0.81236800  0.95161800  0.33706000  1
  O  O84  1  0.98106300  0.92460300  0.42301400  1
  O  O85  1  0.07539700  0.01893700  0.07698600  1
  O  O86  1  0.01893700  0.07539700  0.57698600  1
  O  O87  1  0.92460300  0.98106300  0.92301400  1
