# generated using pymatgen
data_K5YH8(CO2)8
_symmetry_space_group_name_H-M   'P 1'
_cell_length_a   8.53013790
_cell_length_b   8.53013790
_cell_length_c   15.15832008
_cell_angle_alpha   76.20514362
_cell_angle_beta   76.20514362
_cell_angle_gamma   89.82725915
_symmetry_Int_Tables_number   1
_chemical_formula_structural   K5YH8(CO2)8
_chemical_formula_sum   'K10 Y2 H16 C16 O32'
_cell_volume   1038.56111924
_cell_formula_units_Z   2
loop_
 _symmetry_equiv_pos_site_id
 _symmetry_equiv_pos_as_xyz
  1  'x, y, z'
loop_
 _atom_site_type_symbol
 _atom_site_label
 _atom_site_symmetry_multiplicity
 _atom_site_fract_x
 _atom_site_fract_y
 _atom_site_fract_z
 _atom_site_occupancy
  K  K0  1  0.00000000  0.00000000  0.00000000  1
  K  K1  1  0.00000000  0.00000000  0.50000000  1
  K  K2  1  0.59906600  0.21595200  0.97968800  1
  K  K3  1  0.78404800  0.40093400  0.52031200  1
  K  K4  1  0.40093400  0.78404800  0.02031200  1
  K  K5  1  0.21595200  0.59906600  0.47968800  1
  K  K6  1  0.79230800  0.59473500  0.99954800  1
  K  K7  1  0.40526500  0.20769200  0.50045200  1
  K  K8  1  0.20769200  0.40526500  0.00045200  1
  K  K9  1  0.59473500  0.79230800  0.49954800  1
  Y  Y10  1  0.19477600  0.80522400  0.75000000  1
  Y  Y11  1  0.80522400  0.19477600  0.25000000  1
  H  H12  1  0.99609600  0.39865400  0.78046500  1
  H  H13  1  0.60134600  0.00390400  0.71953500  1
  H  H14  1  0.00390400  0.60134600  0.21953500  1
  H  H15  1  0.39865400  0.99609600  0.28046500  1
  H  H16  1  0.36044300  0.41795900  0.74334800  1
  H  H17  1  0.58204100  0.63955700  0.75665200  1
  H  H18  1  0.63955700  0.58204100  0.25665200  1
  H  H19  1  0.41795900  0.36044300  0.24334800  1
  H  H20  1  0.81225400  0.96144900  0.75534000  1
  H  H21  1  0.03855100  0.18774600  0.74466000  1
  H  H22  1  0.18774600  0.03855100  0.24466000  1
  H  H23  1  0.96144900  0.81225400  0.25534000  1
  H  H24  1  0.97864000  0.54611000  0.64849700  1
  H  H25  1  0.45389000  0.02136000  0.85150300  1
  H  H26  1  0.02136000  0.45389000  0.35150300  1
  H  H27  1  0.54611000  0.97864000  0.14849700  1
  C  C28  1  0.99433800  0.42112300  0.84982000  1
  C  C29  1  0.57887700  0.00566200  0.65018000  1
  C  C30  1  0.00566200  0.57887700  0.15018000  1
  C  C31  1  0.42112300  0.99433800  0.34982000  1
  C  C32  1  0.38192800  0.48647900  0.66894700  1
  C  C33  1  0.51352100  0.61807200  0.83105300  1
  C  C34  1  0.61807200  0.51352100  0.33105300  1
  C  C35  1  0.48647900  0.38192800  0.16894700  1
  C  C36  1  0.81343100  0.92497900  0.83067600  1
  C  C37  1  0.07502100  0.18656900  0.66932400  1
  C  C38  1  0.18656900  0.07502100  0.16932400  1
  C  C39  1  0.92497900  0.81343100  0.33067600  1
  C  C40  1  0.93029800  0.66820500  0.63959300  1
  C  C41  1  0.33179500  0.06970200  0.86040700  1
  C  C42  1  0.06970200  0.33179500  0.36040700  1
  C  C43  1  0.66820500  0.93029800  0.13959300  1
  O  O44  1  0.06384100  0.55372500  0.84963300  1
  O  O45  1  0.44627500  0.93615900  0.65036700  1
  O  O46  1  0.93615900  0.44627500  0.15036700  1
  O  O47  1  0.55372500  0.06384100  0.34963300  1
  O  O48  1  0.92428600  0.31613900  0.92272900  1
  O  O49  1  0.68386100  0.07571400  0.57727100  1
  O  O50  1  0.07571400  0.68386100  0.07727100  1
  O  O51  1  0.31613900  0.92428600  0.42272900  1
  O  O52  1  0.32492200  0.62757000  0.65339900  1
  O  O53  1  0.37243000  0.67507800  0.84660100  1
  O  O54  1  0.67507800  0.37243000  0.34660100  1
  O  O55  1  0.62757000  0.32492200  0.15339900  1
  O  O56  1  0.69299100  0.95166300  0.89070100  1
  O  O57  1  0.04833700  0.30700900  0.60929900  1
  O  O58  1  0.30700900  0.04833700  0.10929900  1
  O  O59  1  0.95166300  0.69299100  0.39070100  1
  O  O60  1  0.93998900  0.85695900  0.84854700  1
  O  O61  1  0.14304100  0.06001100  0.65145300  1
  O  O62  1  0.06001100  0.14304100  0.15145300  1
  O  O63  1  0.85695900  0.93998900  0.34854700  1
  O  O64  1  0.00747300  0.77604500  0.66136700  1
  O  O65  1  0.22395500  0.99252700  0.83863300  1
  O  O66  1  0.99252700  0.22395500  0.33863300  1
  O  O67  1  0.77604500  0.00747300  0.16136700  1
  O  O68  1  0.81071300  0.68941300  0.60423800  1
  O  O69  1  0.31058700  0.18928700  0.89576200  1
  O  O70  1  0.18928700  0.31058700  0.39576200  1
  O  O71  1  0.68941300  0.81071300  0.10423800  1
  O  O72  1  0.45855900  0.42124100  0.60673000  1
  O  O73  1  0.57875900  0.54144100  0.89327000  1
  O  O74  1  0.54144200  0.57875900  0.39327000  1
  O  O75  1  0.42124100  0.45855800  0.10673000  1
