# generated using pymatgen
data_H12OsC4N(OF)3
_symmetry_space_group_name_H-M   'P 1'
_cell_length_a   10.79201149
_cell_length_b   10.79201149
_cell_length_c   11.60960625
_cell_angle_alpha   57.52168291
_cell_angle_beta   57.52168291
_cell_angle_gamma   78.83764200
_symmetry_Int_Tables_number   1
_chemical_formula_structural   H12OsC4N(OF)3
_chemical_formula_sum   'H48 Os4 C16 N4 O12 F12'
_cell_volume   953.68628559
_cell_formula_units_Z   4
loop_
 _symmetry_equiv_pos_site_id
 _symmetry_equiv_pos_as_xyz
  1  'x, y, z'
loop_
 _atom_site_type_symbol
 _atom_site_label
 _atom_site_symmetry_multiplicity
 _atom_site_fract_x
 _atom_site_fract_y
 _atom_site_fract_z
 _atom_site_occupancy
  H  H0  1  0.66993600  0.31915000  0.88527300  1
  H  H1  1  0.68085000  0.33006400  0.61472700  1
  H  H2  1  0.33006400  0.68085000  0.11472700  1
  H  H3  1  0.31915000  0.66993600  0.38527300  1
  H  H4  1  0.65893300  0.12092100  0.00314000  1
  H  H5  1  0.87907900  0.34106700  0.49686000  1
  H  H6  1  0.34106700  0.87907900  0.99686000  1
  H  H7  1  0.12092100  0.65893300  0.50314000  1
  H  H8  1  0.55313200  0.20037700  0.90793100  1
  H  H9  1  0.79962300  0.44686800  0.59206900  1
  H  H10  1  0.44686800  0.79962300  0.09206900  1
  H  H11  1  0.20037700  0.55313200  0.40793100  1
  H  H12  1  0.09599800  0.87577100  0.63253000  1
  H  H13  1  0.12422900  0.90400200  0.86747000  1
  H  H14  1  0.90400200  0.12422900  0.36747000  1
  H  H15  1  0.87577100  0.09599800  0.13253000  1
  H  H16  1  0.29253800  0.89026600  0.50233000  1
  H  H17  1  0.10973400  0.70746200  0.99767000  1
  H  H18  1  0.70746200  0.10973400  0.49767000  1
  H  H19  1  0.89026600  0.29253800  0.00233000  1
  H  H20  1  0.22184000  0.00776800  0.58332900  1
  H  H21  1  0.99223200  0.77816000  0.91667100  1
  H  H22  1  0.77816000  0.99223200  0.41667100  1
  H  H23  1  0.00776800  0.22184000  0.08332900  1
  H  H24  1  0.38334300  0.91872800  0.69460600  1
  H  H25  1  0.08127200  0.61665700  0.80539400  1
  H  H26  1  0.61665700  0.08127200  0.30539400  1
  H  H27  1  0.91872800  0.38334300  0.19460600  1
  H  H28  1  0.45440800  0.80142800  0.61229400  1
  H  H29  1  0.19857200  0.54559200  0.88770600  1
  H  H30  1  0.54559200  0.19857200  0.38770600  1
  H  H31  1  0.80142800  0.45440800  0.11229400  1
  H  H32  1  0.37542900  0.72324800  0.82173500  1
  H  H33  1  0.27675200  0.62457100  0.67826500  1
  H  H34  1  0.62457100  0.27675200  0.17826500  1
  H  H35  1  0.72324800  0.37542900  0.32173500  1
  H  H36  1  0.66593400  0.05847400  0.77281900  1
  H  H37  1  0.94152600  0.33406600  0.72718100  1
  H  H38  1  0.33406600  0.94152600  0.22718100  1
  H  H39  1  0.05847400  0.66593400  0.27281900  1
  H  H40  1  0.77045000  0.97926300  0.87022800  1
  H  H41  1  0.02073700  0.22955000  0.62977200  1
  H  H42  1  0.22955000  0.02073700  0.12977200  1
  H  H43  1  0.97926300  0.77045000  0.37022800  1
  H  H44  1  0.86457200  0.07372600  0.65630300  1
  H  H45  1  0.92627400  0.13542800  0.84369700  1
  H  H46  1  0.13542800  0.92627400  0.34369700  1
  H  H47  1  0.07372600  0.86457200  0.15630300  1
  Os  Os48  1  0.26560500  0.33281800  0.20169200  1
  Os  Os49  1  0.66718200  0.73439500  0.29830800  1
  Os  Os50  1  0.73439500  0.66718200  0.79830800  1
  Os  Os51  1  0.33281800  0.26560500  0.70169200  1
  C  C52  1  0.65770600  0.21350600  0.89737700  1
  C  C53  1  0.78649400  0.34229400  0.60262300  1
  C  C54  1  0.34229400  0.78649400  0.10262300  1
  C  C55  1  0.21350600  0.65770600  0.39737700  1
  C  C56  1  0.20598700  0.89764200  0.60652700  1
  C  C57  1  0.10235800  0.79401300  0.89347300  1
  C  C58  1  0.79401300  0.10235800  0.39347300  1
  C  C59  1  0.89764200  0.20598700  0.10652700  1
  C  C60  1  0.36876700  0.80859500  0.71682600  1
  C  C61  1  0.19140500  0.63123300  0.78317400  1
  C  C62  1  0.63123300  0.19140500  0.28317400  1
  C  C63  1  0.80859500  0.36876700  0.21682600  1
  C  C64  1  0.76978800  0.07084600  0.76363800  1
  C  C65  1  0.92915400  0.23021200  0.73636200  1
  C  C66  1  0.23021200  0.92915400  0.23636200  1
  C  C67  1  0.07084600  0.76978800  0.26363800  1
  N  N68  1  0.78518300  0.21481700  0.75000000  1
  N  N69  1  0.21481700  0.78518300  0.25000000  1
  N  N70  1  0.21756000  0.78244000  0.75000000  1
  N  N71  1  0.78244000  0.21756000  0.25000000  1
  O  O72  1  0.37893100  0.46848100  0.00351000  1
  O  O73  1  0.53151900  0.62106900  0.49649000  1
  O  O74  1  0.62106900  0.53151900  0.99649000  1
  O  O75  1  0.46848100  0.37893100  0.50351000  1
  O  O76  1  0.36134600  0.18225900  0.21483200  1
  O  O77  1  0.81774100  0.63865400  0.28516800  1
  O  O78  1  0.63865400  0.81774100  0.78516800  1
  O  O79  1  0.18225900  0.36134600  0.71483200  1
  O  O80  1  0.30277000  0.38298000  0.29983700  1
  O  O81  1  0.61702000  0.69723000  0.20016300  1
  O  O82  1  0.69723000  0.61702000  0.70016300  1
  O  O83  1  0.38298000  0.30277000  0.79983700  1
  F  F84  1  0.11041900  0.47076600  0.21204700  1
  F  F85  1  0.52923400  0.88958100  0.28795300  1
  F  F86  1  0.88958100  0.52923400  0.78795300  1
  F  F87  1  0.47076600  0.11041900  0.71204700  1
  F  F88  1  0.08960900  0.19617200  0.41237100  1
  F  F89  1  0.80382800  0.91039100  0.08762900  1
  F  F90  1  0.91039100  0.80382800  0.58762900  1
  F  F91  1  0.19617200  0.08960900  0.91237100  1
  F  F92  1  0.16146800  0.27896400  0.13269000  1
  F  F93  1  0.72103600  0.83853200  0.36731000  1
  F  F94  1  0.83853200  0.72103600  0.86731000  1
  F  F95  1  0.27896400  0.16146800  0.63269000  1
