# generated using pymatgen
data_Ba2HgAu
_symmetry_space_group_name_H-M   'P 1'
_cell_length_a   13.53428162
_cell_length_b   13.53428162
_cell_length_c   13.53428162
_cell_angle_alpha   120.49367960
_cell_angle_beta   118.66710023
_cell_angle_gamma   90.73552240
_symmetry_Int_Tables_number   1
_chemical_formula_structural   Ba2HgAu
_chemical_formula_sum   'Ba2 Hg1 Au1'
_cell_volume   1763.44472992
_cell_formula_units_Z   1
loop_
 _symmetry_equiv_pos_site_id
 _symmetry_equiv_pos_as_xyz
  1  'x, y, z'
loop_
 _atom_site_type_symbol
 _atom_site_label
 _atom_site_symmetry_multiplicity
 _atom_site_fract_x
 _atom_site_fract_y
 _atom_site_fract_z
 _atom_site_occupancy
  Ba  Ba0  1  0.23049500  0.00000000  0.23049500  1
  Ba  Ba1  1  0.76950500  0.00000000  0.76950500  1
  Hg  Hg2  1  0.50000000  0.00000000  0.50000000  1
  Au  Au3  1  0.00000000  0.00000000  0.00000000  1
