# generated using pymatgen
data_K6Te2P6(H4O11)3
_symmetry_space_group_name_H-M   'P 1'
_cell_length_a   13.93864784
_cell_length_b   13.93864784
_cell_length_c   13.93864747
_cell_angle_alpha   56.67735559
_cell_angle_beta   56.67735559
_cell_angle_gamma   56.67735739
_symmetry_Int_Tables_number   1
_chemical_formula_structural   K6Te2P6(H4O11)3
_chemical_formula_sum   'K12 Te4 P12 H24 O66'
_cell_volume   1767.96694653
_cell_formula_units_Z   2
loop_
 _symmetry_equiv_pos_site_id
 _symmetry_equiv_pos_as_xyz
  1  'x, y, z'
loop_
 _atom_site_type_symbol
 _atom_site_label
 _atom_site_symmetry_multiplicity
 _atom_site_fract_x
 _atom_site_fract_y
 _atom_site_fract_z
 _atom_site_occupancy
  K  K0  1  0.81378100  0.68621900  0.25000000  1
  K  K1  1  0.25000000  0.81378100  0.68621900  1
  K  K2  1  0.68621900  0.25000000  0.81378100  1
  K  K3  1  0.75000000  0.18621900  0.31378100  1
  K  K4  1  0.31378100  0.75000000  0.18621900  1
  K  K5  1  0.18621900  0.31378100  0.75000000  1
  K  K6  1  0.50000000  0.50000000  0.00000000  1
  K  K7  1  0.00000000  0.50000000  0.50000000  1
  K  K8  1  0.50000000  0.00000000  0.50000000  1
  K  K9  1  0.50000000  0.00000000  0.00000000  1
  K  K10  1  0.00000000  0.50000000  0.00000000  1
  K  K11  1  0.00000000  0.00000000  0.50000000  1
  Te  Te12  1  0.36100900  0.36100900  0.36100900  1
  Te  Te13  1  0.86100900  0.86100900  0.86100900  1
  Te  Te14  1  0.63899100  0.63899100  0.63899100  1
  Te  Te15  1  0.13899100  0.13899100  0.13899100  1
  P  P16  1  0.17325300  0.75755200  0.02236000  1
  P  P17  1  0.02236000  0.17325300  0.75755200  1
  P  P18  1  0.75755200  0.02236000  0.17325300  1
  P  P19  1  0.52236000  0.25755200  0.67325300  1
  P  P20  1  0.67325300  0.52236000  0.25755200  1
  P  P21  1  0.25755200  0.67325300  0.52236000  1
  P  P22  1  0.82674700  0.24244800  0.97764000  1
  P  P23  1  0.97764000  0.82674700  0.24244800  1
  P  P24  1  0.24244800  0.97764000  0.82674700  1
  P  P25  1  0.47764000  0.74244800  0.32674700  1
  P  P26  1  0.32674700  0.47764000  0.74244800  1
  P  P27  1  0.74244800  0.32674700  0.47764000  1
  H  H28  1  0.21965800  0.24187500  0.53802700  1
  H  H29  1  0.53802700  0.21965800  0.24187500  1
  H  H30  1  0.24187500  0.53802700  0.21965800  1
  H  H31  1  0.03802700  0.74187500  0.71965800  1
  H  H32  1  0.71965800  0.03802700  0.74187500  1
  H  H33  1  0.74187500  0.71965800  0.03802700  1
  H  H34  1  0.78034200  0.75812500  0.46197300  1
  H  H35  1  0.46197300  0.78034200  0.75812500  1
  H  H36  1  0.75812500  0.46197300  0.78034200  1
  H  H37  1  0.96197300  0.25812500  0.28034200  1
  H  H38  1  0.28034200  0.96197300  0.25812500  1
  H  H39  1  0.25812500  0.28034200  0.96197300  1
  H  H40  1  0.48941600  0.53669100  0.73777700  1
  H  H41  1  0.73777700  0.48941600  0.53669100  1
  H  H42  1  0.53669100  0.73777700  0.48941600  1
  H  H43  1  0.23777700  0.03669100  0.98941600  1
  H  H44  1  0.98941600  0.23777700  0.03669100  1
  H  H45  1  0.03669100  0.98941600  0.23777700  1
  H  H46  1  0.51058400  0.46330900  0.26222300  1
  H  H47  1  0.26222300  0.51058400  0.46330900  1
  H  H48  1  0.46330900  0.26222300  0.51058400  1
  H  H49  1  0.76222300  0.96330900  0.01058400  1
  H  H50  1  0.01058400  0.76222300  0.96330900  1
  H  H51  1  0.96330900  0.01058400  0.76222300  1
  O  O52  1  0.03601600  0.27167500  0.20425800  1
  O  O53  1  0.20425800  0.03601600  0.27167500  1
  O  O54  1  0.27167500  0.20425800  0.03601600  1
  O  O55  1  0.70425800  0.77167500  0.53601600  1
  O  O56  1  0.53601600  0.70425800  0.77167500  1
  O  O57  1  0.77167500  0.53601600  0.70425800  1
  O  O58  1  0.96398400  0.72832500  0.79574200  1
  O  O59  1  0.79574200  0.96398400  0.72832500  1
  O  O60  1  0.72832500  0.79574200  0.96398400  1
  O  O61  1  0.29574200  0.22832500  0.46398400  1
  O  O62  1  0.46398400  0.29574200  0.22832500  1
  O  O63  1  0.22832500  0.46398400  0.29574200  1
  O  O64  1  0.25607900  0.42949400  0.49259700  1
  O  O65  1  0.49259700  0.25607900  0.42949400  1
  O  O66  1  0.42949400  0.49259700  0.25607900  1
  O  O67  1  0.99259700  0.92949400  0.75607900  1
  O  O68  1  0.75607900  0.99259700  0.92949400  1
  O  O69  1  0.92949400  0.75607900  0.99259700  1
  O  O70  1  0.74392100  0.57050600  0.50740300  1
  O  O71  1  0.50740300  0.74392100  0.57050600  1
  O  O72  1  0.57050600  0.50740300  0.74392100  1
  O  O73  1  0.00740300  0.07050600  0.24392100  1
  O  O74  1  0.24392100  0.00740300  0.07050600  1
  O  O75  1  0.07050600  0.24392100  0.00740300  1
  O  O76  1  0.08742700  0.26288800  0.65549700  1
  O  O77  1  0.65549700  0.08742700  0.26288800  1
  O  O78  1  0.26288800  0.65549700  0.08742700  1
  O  O79  1  0.15549700  0.76288800  0.58742700  1
  O  O80  1  0.58742700  0.15549700  0.76288800  1
  O  O81  1  0.76288800  0.58742700  0.15549700  1
  O  O82  1  0.91257300  0.73711200  0.34450300  1
  O  O83  1  0.34450300  0.91257300  0.73711200  1
  O  O84  1  0.73711200  0.34450300  0.91257300  1
  O  O85  1  0.84450300  0.23711200  0.41257300  1
  O  O86  1  0.41257300  0.84450300  0.23711200  1
  O  O87  1  0.23711200  0.41257300  0.84450300  1
  O  O88  1  0.75544400  0.34166700  0.56765600  1
  O  O89  1  0.56765600  0.75544400  0.34166700  1
  O  O90  1  0.34166700  0.56765600  0.75544400  1
  O  O91  1  0.06765600  0.84166700  0.25544400  1
  O  O92  1  0.25544400  0.06765600  0.84166700  1
  O  O93  1  0.84166700  0.25544400  0.06765600  1
  O  O94  1  0.24455600  0.65833300  0.43234400  1
  O  O95  1  0.43234400  0.24455600  0.65833300  1
  O  O96  1  0.65833300  0.43234400  0.24455600  1
  O  O97  1  0.93234400  0.15833300  0.74455600  1
  O  O98  1  0.74455600  0.93234400  0.15833300  1
  O  O99  1  0.15833300  0.74455600  0.93234400  1
  O  O100  1  0.70646900  0.46354400  0.37815900  1
  O  O101  1  0.37815900  0.70646900  0.46354400  1
  O  O102  1  0.46354400  0.37815900  0.70646900  1
  O  O103  1  0.87815900  0.96354400  0.20646900  1
  O  O104  1  0.20646900  0.87815900  0.96354400  1
  O  O105  1  0.96354400  0.20646900  0.87815900  1
  O  O106  1  0.29353100  0.53645600  0.62184100  1
  O  O107  1  0.62184100  0.29353100  0.53645600  1
  O  O108  1  0.53645600  0.62184100  0.29353100  1
  O  O109  1  0.12184100  0.03645600  0.79353100  1
  O  O110  1  0.79353100  0.12184100  0.03645600  1
  O  O111  1  0.03645600  0.79353100  0.12184100  1
  O  O112  1  0.03892700  0.46107300  0.25000000  1
  O  O113  1  0.25000000  0.03892700  0.46107300  1
  O  O114  1  0.46107300  0.25000000  0.03892700  1
  O  O115  1  0.75000000  0.96107300  0.53892700  1
  O  O116  1  0.53892700  0.75000000  0.96107300  1
  O  O117  1  0.96107300  0.53892700  0.75000000  1
