# generated using pymatgen
data_NaAl(H2N)4
_symmetry_space_group_name_H-M   'P 1'
_cell_length_a   6.28335000
_cell_length_b   9.36137200
_cell_length_c   14.67742147
_cell_angle_alpha   84.10461666
_cell_angle_beta   90.00000000
_cell_angle_gamma   90.00000000
_symmetry_Int_Tables_number   1
_chemical_formula_structural   NaAl(H2N)4
_chemical_formula_sum   'Na4 Al4 H32 N16'
_cell_volume   858.77122356
_cell_formula_units_Z   4
loop_
 _symmetry_equiv_pos_site_id
 _symmetry_equiv_pos_as_xyz
  1  'x, y, z'
loop_
 _atom_site_type_symbol
 _atom_site_label
 _atom_site_symmetry_multiplicity
 _atom_site_fract_x
 _atom_site_fract_y
 _atom_site_fract_z
 _atom_site_occupancy
  Na  Na0  1  0.69980600  0.19987900  0.71121200  1
  Na  Na1  1  0.19980600  0.80012100  0.78878800  1
  Na  Na2  1  0.30019400  0.80012100  0.28878800  1
  Na  Na3  1  0.80019400  0.19987900  0.21121200  1
  Al  Al4  1  0.70805100  0.76415500  0.61928500  1
  Al  Al5  1  0.20805100  0.23584500  0.88071500  1
  Al  Al6  1  0.29194900  0.23584500  0.38071500  1
  Al  Al7  1  0.79194900  0.76415500  0.11928500  1
  H  H8  1  0.26480700  0.48913100  0.55846300  1
  H  H9  1  0.76480700  0.51086900  0.94153700  1
  H  H10  1  0.73519300  0.51086900  0.44153700  1
  H  H11  1  0.23519300  0.48913100  0.05846300  1
  H  H12  1  0.32094100  0.43220800  0.53510600  1
  H  H13  1  0.82094100  0.56779200  0.96489400  1
  H  H14  1  0.67905900  0.56779200  0.46489400  1
  H  H15  1  0.17905900  0.43220800  0.03510600  1
  H  H16  1  0.65556400  0.29406600  0.89079900  1
  H  H17  1  0.15556400  0.70593400  0.60920100  1
  H  H18  1  0.34443600  0.70593400  0.10920100  1
  H  H19  1  0.84443600  0.29406600  0.39079900  1
  H  H20  1  0.14583500  0.16567100  0.61668600  1
  H  H21  1  0.64583500  0.83432900  0.88331400  1
  H  H22  1  0.85416500  0.83432900  0.38331400  1
  H  H23  1  0.35416500  0.16567100  0.11668600  1
  H  H24  1  0.24635000  0.98028100  0.58616000  1
  H  H25  1  0.74635000  0.01971900  0.91384000  1
  H  H26  1  0.75365000  0.01971900  0.41384000  1
  H  H27  1  0.25365000  0.98028100  0.08616000  1
  H  H28  1  0.21671200  0.94444200  0.04542800  1
  H  H29  1  0.71671200  0.05555800  0.45457200  1
  H  H30  1  0.78328800  0.05555800  0.95457200  1
  H  H31  1  0.28328800  0.94444200  0.54542800  1
  H  H32  1  0.73731000  0.30865000  0.92630900  1
  H  H33  1  0.23731000  0.69135000  0.57369100  1
  H  H34  1  0.26269000  0.69135000  0.07369100  1
  H  H35  1  0.76269000  0.30865000  0.42630900  1
  H  H36  1  0.62372800  0.75629500  0.89721900  1
  H  H37  1  0.12372800  0.24370500  0.60278100  1
  H  H38  1  0.37627200  0.24370500  0.10278100  1
  H  H39  1  0.87627200  0.75629500  0.39721900  1
  N  N40  1  0.49852700  0.56083400  0.72903700  1
  N  N41  1  0.99852700  0.43916600  0.77096300  1
  N  N42  1  0.50147300  0.43916600  0.27096300  1
  N  N43  1  0.00147300  0.56083400  0.22903700  1
  N  N44  1  0.77014800  0.95192600  0.67768500  1
  N  N45  1  0.27014800  0.04807400  0.82231500  1
  N  N46  1  0.22985200  0.04807400  0.32231500  1
  N  N47  1  0.72985200  0.95192600  0.17768500  1
  N  N48  1  0.57790200  0.93159900  0.68158600  1
  N  N49  1  0.07790200  0.06840100  0.81841400  1
  N  N50  1  0.42209800  0.06840100  0.31841400  1
  N  N51  1  0.92209800  0.93159900  0.18158600  1
  N  N52  1  0.02207000  0.55867100  0.77638800  1
  N  N53  1  0.52207000  0.44132900  0.72361200  1
  N  N54  1  0.97793000  0.44132900  0.22361200  1
  N  N55  1  0.47793000  0.55867100  0.27638800  1
