# generated using pymatgen
data_MnP3H10C3NO9
_symmetry_space_group_name_H-M   'P 1'
_cell_length_a   8.52515200
_cell_length_b   9.24845600
_cell_length_c   15.34326690
_cell_angle_alpha   61.35248043
_cell_angle_beta   90.00000000
_cell_angle_gamma   90.00000000
_symmetry_Int_Tables_number   1
_chemical_formula_structural   MnP3H10C3NO9
_chemical_formula_sum   'Mn4 P12 H40 C12 N4 O36'
_cell_volume   1061.64354465
_cell_formula_units_Z   4
loop_
 _symmetry_equiv_pos_site_id
 _symmetry_equiv_pos_as_xyz
  1  'x, y, z'
loop_
 _atom_site_type_symbol
 _atom_site_label
 _atom_site_symmetry_multiplicity
 _atom_site_fract_x
 _atom_site_fract_y
 _atom_site_fract_z
 _atom_site_occupancy
  Mn  Mn0  1  0.53482300  0.53681500  0.74560200  1
  Mn  Mn1  1  0.96517700  0.53681500  0.24560200  1
  Mn  Mn2  1  0.46517700  0.46318500  0.25439800  1
  Mn  Mn3  1  0.03482300  0.46318500  0.75439800  1
  P  P4  1  0.29969700  0.42962500  0.94199800  1
  P  P5  1  0.20030300  0.42962500  0.44199800  1
  P  P6  1  0.70030300  0.57037500  0.05800200  1
  P  P7  1  0.79969700  0.57037500  0.55800200  1
  P  P8  1  0.17433900  0.20394100  0.25529700  1
  P  P9  1  0.32566100  0.20394100  0.75529700  1
  P  P10  1  0.82566100  0.79605900  0.74470300  1
  P  P11  1  0.67433900  0.79605900  0.24470300  1
  P  P12  1  0.20368700  0.83217100  0.08335800  1
  P  P13  1  0.29631300  0.83217100  0.58335800  1
  P  P14  1  0.79631300  0.16782900  0.91664200  1
  P  P15  1  0.70368700  0.16782900  0.41664200  1
  H  H16  1  0.35570600  0.54740700  0.03205500  1
  H  H17  1  0.14429400  0.54740700  0.53205500  1
  H  H18  1  0.64429400  0.45259300  0.96794500  1
  H  H19  1  0.85570600  0.45259300  0.46794500  1
  H  H20  1  0.39130700  0.20975900  0.10121500  1
  H  H21  1  0.10869300  0.20975900  0.60121500  1
  H  H22  1  0.60869300  0.79024100  0.89878500  1
  H  H23  1  0.89130700  0.79024100  0.39878500  1
  H  H24  1  0.25155500  0.97209700  0.38830200  1
  H  H25  1  0.24844500  0.97209700  0.88830200  1
  H  H26  1  0.74844500  0.02790300  0.61169800  1
  H  H27  1  0.75155500  0.02790300  0.11169800  1
  H  H28  1  0.45653700  0.81164000  0.11370300  1
  H  H29  1  0.04346300  0.81164000  0.61370300  1
  H  H30  1  0.54346300  0.18836000  0.88629700  1
  H  H31  1  0.95653700  0.18836000  0.38629700  1
  H  H32  1  0.36698200  0.14155300  0.01175400  1
  H  H33  1  0.13301800  0.14155300  0.51175400  1
  H  H34  1  0.63301800  0.85844700  0.98824600  1
  H  H35  1  0.86698200  0.85844700  0.48824600  1
  H  H36  1  0.07469200  0.15632100  0.03257400  1
  H  H37  1  0.42530800  0.15632100  0.53257400  1
  H  H38  1  0.92530800  0.84367900  0.96742600  1
  H  H39  1  0.57469200  0.84367900  0.46742600  1
  H  H40  1  0.06447600  0.34662400  0.09161500  1
  H  H41  1  0.43552400  0.34662400  0.59161500  1
  H  H42  1  0.93552400  0.65337600  0.90838500  1
  H  H43  1  0.56447600  0.65337600  0.40838500  1
  H  H44  1  0.96651900  0.15740700  0.16632000  1
  H  H45  1  0.53348100  0.15740700  0.66632000  1
  H  H46  1  0.03348100  0.84259300  0.83368000  1
  H  H47  1  0.46651900  0.84259300  0.33368000  1
  H  H48  1  0.25801200  0.91856100  0.20571500  1
  H  H49  1  0.24198800  0.91856100  0.70571500  1
  H  H50  1  0.74198800  0.08143900  0.79428500  1
  H  H51  1  0.75801200  0.08143900  0.29428500  1
  H  H52  1  0.05355700  0.90999200  0.18691200  1
  H  H53  1  0.44644300  0.90999200  0.68691200  1
  H  H54  1  0.94644300  0.09000800  0.81308800  1
  H  H55  1  0.55355700  0.09000800  0.31308800  1
  C  C56  1  0.31365400  0.21526300  0.04243900  1
  C  C57  1  0.18634600  0.21526300  0.54243900  1
  C  C58  1  0.68634600  0.78473700  0.95756100  1
  C  C59  1  0.81365400  0.78473700  0.45756100  1
  C  C60  1  0.08245000  0.21520500  0.14391500  1
  C  C61  1  0.41755000  0.21520500  0.64391500  1
  C  C62  1  0.91755000  0.78479500  0.85608500  1
  C  C63  1  0.58245000  0.78479500  0.35608500  1
  C  C64  1  0.16671300  0.95213900  0.14887000  1
  C  C65  1  0.33328700  0.95213900  0.64887000  1
  C  C66  1  0.83328700  0.04786100  0.85113000  1
  C  C67  1  0.66671300  0.04786100  0.35113000  1
  N  N68  1  0.15893900  0.13744800  0.08780900  1
  N  N69  1  0.34106100  0.13744800  0.58780900  1
  N  N70  1  0.84106100  0.86255200  0.91219100  1
  N  N71  1  0.65893900  0.86255200  0.41219100  1
  O  O72  1  0.46249600  0.47186300  0.89516300  1
  O  O73  1  0.03750400  0.47186300  0.39516300  1
  O  O74  1  0.53750400  0.52813700  0.10483700  1
  O  O75  1  0.96249600  0.52813700  0.60483700  1
  O  O76  1  0.26422900  0.54054800  0.99370900  1
  O  O77  1  0.23577100  0.54054800  0.49370900  1
  O  O78  1  0.73577100  0.45945200  0.00629100  1
  O  O79  1  0.76422900  0.45945200  0.50629100  1
  O  O80  1  0.15951200  0.44164500  0.87920900  1
  O  O81  1  0.34048800  0.44164500  0.37920900  1
  O  O82  1  0.84048800  0.55835500  0.12079100  1
  O  O83  1  0.65951200  0.55835500  0.62079100  1
  O  O84  1  0.04993400  0.28778700  0.28756900  1
  O  O85  1  0.45006600  0.28778700  0.78756900  1
  O  O86  1  0.95006600  0.71221300  0.71243100  1
  O  O87  1  0.54993400  0.71221300  0.21243100  1
  O  O88  1  0.17826200  0.01127800  0.32927500  1
  O  O89  1  0.32173800  0.01127800  0.82927500  1
  O  O90  1  0.82173800  0.98872200  0.67072500  1
  O  O91  1  0.67826200  0.98872200  0.17072500  1
  O  O92  1  0.33787300  0.27606800  0.23899100  1
  O  O93  1  0.16212700  0.27606800  0.73899100  1
  O  O94  1  0.66212700  0.72393200  0.76100900  1
  O  O95  1  0.83787300  0.72393200  0.26100900  1
  O  O96  1  0.38339400  0.86068700  0.05410000  1
  O  O97  1  0.11660600  0.86068700  0.55410000  1
  O  O98  1  0.61660600  0.13931300  0.94590000  1
  O  O99  1  0.88339400  0.13931300  0.44590000  1
  O  O100  1  0.17204100  0.65635900  0.16471100  1
  O  O101  1  0.32795900  0.65635900  0.66471100  1
  O  O102  1  0.82795900  0.34364100  0.83528900  1
  O  O103  1  0.67204100  0.34364100  0.33528900  1
  O  O104  1  0.11750600  0.89722300  0.98545400  1
  O  O105  1  0.38249400  0.89722300  0.48545400  1
  O  O106  1  0.88249400  0.10277700  0.01454600  1
  O  O107  1  0.61750600  0.10277700  0.51454600  1
