# generated using pymatgen
data_HfTaOs2
_symmetry_space_group_name_H-M   'P 1'
_cell_length_a   10.47853786
_cell_length_b   10.47853786
_cell_length_c   10.47853786
_cell_angle_alpha   126.29688183
_cell_angle_beta   118.37464416
_cell_angle_gamma   86.14657878
_symmetry_Int_Tables_number   1
_chemical_formula_structural   HfTaOs2
_chemical_formula_sum   'Hf1 Ta1 Os2'
_cell_volume   777.80317600
_cell_formula_units_Z   1
loop_
 _symmetry_equiv_pos_site_id
 _symmetry_equiv_pos_as_xyz
  1  'x, y, z'
loop_
 _atom_site_type_symbol
 _atom_site_label
 _atom_site_symmetry_multiplicity
 _atom_site_fract_x
 _atom_site_fract_y
 _atom_site_fract_z
 _atom_site_occupancy
  Hf  Hf0  1  0.00000000  0.00000000  0.00000000  1
  Ta  Ta1  1  0.00000000  0.50000000  0.50000000  1
  Os  Os2  1  0.00000000  0.25669200  0.25669200  1
  Os  Os3  1  0.00000000  0.74330800  0.74330800  1
