# generated using pymatgen
data_Ca4Y2Al7Cr2SiO24
_symmetry_space_group_name_H-M   'P 1'
_cell_length_a   10.51509500
_cell_length_b   10.53306954
_cell_length_c   10.53389319
_cell_angle_alpha   109.43976257
_cell_angle_beta   109.21564294
_cell_angle_gamma   109.58146762
_symmetry_Int_Tables_number   1
_chemical_formula_structural   Ca4Y2Al7Cr2SiO24
_chemical_formula_sum   'Ca8 Y4 Al14 Cr4 Si2 O48'
_cell_volume   900.06886198
_cell_formula_units_Z   2
loop_
 _symmetry_equiv_pos_site_id
 _symmetry_equiv_pos_as_xyz
  1  'x, y, z'
loop_
 _atom_site_type_symbol
 _atom_site_label
 _atom_site_symmetry_multiplicity
 _atom_site_fract_x
 _atom_site_fract_y
 _atom_site_fract_z
 _atom_site_occupancy
  Ca  Ca0  1  0.37824900  0.62547500  0.75267800  1
  Ca  Ca1  1  0.12455100  0.75447100  0.87734700  1
  Ca  Ca2  1  0.87448400  0.24702000  0.12461800  1
  Ca  Ca3  1  0.62235700  0.37262800  0.24658300  1
  Ca  Ca4  1  0.74838800  0.62756200  0.87551300  1
  Ca  Ca5  1  0.87283000  0.11989700  0.74428400  1
  Ca  Ca6  1  0.37488400  0.25298600  0.62942400  1
  Ca  Ca7  1  0.75043600  0.12221800  0.37778200  1
  Y  Y8  1  0.62596600  0.74743900  0.37089700  1
  Y  Y9  1  0.25236700  0.88069400  0.62443900  1
  Y  Y10  1  0.12829000  0.88208400  0.25534100  1
  Y  Y11  1  0.24965300  0.36941900  0.12316100  1
  Al  Al12  1  0.87566800  0.75523000  0.62967200  1
  Al  Al13  1  0.37827300  0.75123500  0.12825200  1
  Al  Al14  1  0.25127000  0.62811800  0.37435500  1
  Al  Al15  1  0.99890900  0.99906400  0.99749500  1
  Al  Al16  1  0.87347300  0.62767100  0.25376500  1
  Al  Al17  1  0.12731800  0.37085000  0.74654500  1
  Al  Al18  1  0.49969900  0.49835600  0.99994200  1
  Al  Al19  1  0.61888800  0.24897600  0.87176600  1
  Al  Al20  1  0.74724900  0.36955200  0.62436400  1
  Al  Al21  1  0.12593900  0.24594900  0.37010400  1
  Al  Al22  1  0.24865000  0.12587300  0.87433900  1
  Al  Al23  1  0.49942000  0.00295800  0.50062100  1
  Al  Al24  1  0.37208800  0.12294100  0.24809600  1
  Al  Al25  1  0.00362600  0.00303400  0.50202700  1
  Cr  Cr26  1  0.50125200  0.00019300  0.00222800  1
  Cr  Cr27  1  0.99741200  0.49802800  0.99669000  1
  Cr  Cr28  1  0.99895000  0.49859900  0.50064700  1
  Cr  Cr29  1  0.49955500  0.49819900  0.49946400  1
  Si  Si30  1  0.62580500  0.87499200  0.74879200  1
  Si  Si31  1  0.75011600  0.87337100  0.12617400  1
  O  O32  1  0.87735000  0.89446300  0.56938500  1
  O  O33  1  0.49094500  0.88484300  0.79602000  1
  O  O34  1  0.30430400  0.98259700  0.87914500  1
  O  O35  1  0.61022100  0.90862000  0.60293900  1
  O  O36  1  0.80005300  0.91120600  0.30705500  1
  O  O37  1  0.51811400  0.89522700  0.32508400  1
  O  O38  1  0.29915900  0.82051300  0.41807900  1
  O  O39  1  0.39960100  0.58039600  0.37765900  1
  O  O40  1  0.01638200  0.69765500  0.61185400  1
  O  O41  1  0.19662600  0.61927900  0.51664800  1
  O  O42  1  0.60711200  0.69400400  0.99628600  1
  O  O43  1  0.17522900  0.98219900  0.10298500  1
  O  O44  1  0.02150900  0.82087100  0.40074400  1
  O  O45  1  0.38540500  0.80487900  0.98492700  1
  O  O46  1  0.41752600  0.59758400  0.11837500  1
  O  O47  1  0.17957800  0.69673700  0.08327300  1
  O  O48  1  0.58498800  0.69385900  0.70040500  1
  O  O49  1  0.89517300  0.88784100  0.08945200  1
  O  O50  1  0.67908900  0.60236900  0.48448800  1
  O  O51  1  0.10247200  0.48431700  0.17839600  1
  O  O52  1  0.89040900  0.48696200  0.30869500  1
  O  O53  1  0.92524500  0.61773700  0.10417300  1
  O  O54  1  0.32324900  0.42540700  0.80724500  1
  O  O55  1  0.92011600  0.80509500  0.82174500  1
  O  O56  1  0.07921800  0.19794500  0.17629900  1
  O  O57  1  0.68062900  0.58415800  0.20180000  1
  O  O58  1  0.08466700  0.38972900  0.90386400  1
  O  O59  1  0.10847300  0.51220900  0.68997800  1
  O  O60  1  0.90136200  0.51155100  0.82101400  1
  O  O61  1  0.32028400  0.40438300  0.51314100  1
  O  O62  1  0.09940300  0.11825000  0.92151400  1
  O  O63  1  0.41477000  0.31745500  0.29810900  1
  O  O64  1  0.82211000  0.31179400  0.92286000  1
  O  O65  1  0.58482900  0.40492200  0.88967300  1
  O  O66  1  0.61759200  0.19217800  0.01445400  1
  O  O67  1  0.98526600  0.17932300  0.59788800  1
  O  O68  1  0.39726000  0.31974100  0.01709800  1
  O  O69  1  0.80553100  0.00477700  0.89149700  1
  O  O70  1  0.80723300  0.38890200  0.48756100  1
  O  O71  1  0.98927900  0.30945800  0.38935600  1
  O  O72  1  0.60293000  0.42338500  0.61557900  1
  O  O73  1  0.69450200  0.17853300  0.58342400  1
  O  O74  1  0.47976400  0.09451700  0.67986200  1
  O  O75  1  0.19354800  0.07361800  0.67870100  1
  O  O76  1  0.38143500  0.07604800  0.39629900  1
  O  O77  1  0.70216300  0.00634200  0.11640400  1
  O  O78  1  0.51524400  0.11378000  0.19516500  1
  O  O79  1  0.11664000  0.09725900  0.41600000  1
