# generated using pymatgen
data_YGaCu2
_symmetry_space_group_name_H-M   'P 1'
_cell_length_a   10.78591409
_cell_length_b   10.78591409
_cell_length_c   10.78591409
_cell_angle_alpha   122.41239914
_cell_angle_beta   119.12157844
_cell_angle_gamma   88.70076866
_symmetry_Int_Tables_number   1
_chemical_formula_structural   YGaCu2
_chemical_formula_sum   'Y1 Ga1 Cu2'
_cell_volume   875.80956840
_cell_formula_units_Z   1
loop_
 _symmetry_equiv_pos_site_id
 _symmetry_equiv_pos_as_xyz
  1  'x, y, z'
loop_
 _atom_site_type_symbol
 _atom_site_label
 _atom_site_symmetry_multiplicity
 _atom_site_fract_x
 _atom_site_fract_y
 _atom_site_fract_z
 _atom_site_occupancy
  Y  Y0  1  0.00000000  0.50000000  0.50000000  1
  Ga  Ga1  1  0.00000000  0.00000000  0.00000000  1
  Cu  Cu2  1  0.00000000  0.23183300  0.23183300  1
  Cu  Cu3  1  0.00000000  0.76816700  0.76816700  1
