# generated using pymatgen
data_Ca2YFe4SbO12
_symmetry_space_group_name_H-M   'P 1'
_cell_length_a   10.97387200
_cell_length_b   10.98281436
_cell_length_c   10.98925732
_cell_angle_alpha   109.49117703
_cell_angle_beta   109.35776240
_cell_angle_gamma   109.38311480
_symmetry_Int_Tables_number   1
_chemical_formula_structural   Ca2YFe4SbO12
_chemical_formula_sum   'Ca8 Y4 Fe16 Sb4 O48'
_cell_volume   1021.85449365
_cell_formula_units_Z   4
loop_
 _symmetry_equiv_pos_site_id
 _symmetry_equiv_pos_as_xyz
  1  'x, y, z'
loop_
 _atom_site_type_symbol
 _atom_site_label
 _atom_site_symmetry_multiplicity
 _atom_site_fract_x
 _atom_site_fract_y
 _atom_site_fract_z
 _atom_site_occupancy
  Ca  Ca0  1  0.25008700  0.62191400  0.87983100  1
  Ca  Ca1  1  0.61883200  0.23957900  0.37386100  1
  Ca  Ca2  1  0.87590200  0.12120600  0.24179300  1
  Ca  Ca3  1  0.24962900  0.12067200  0.36882800  1
  Ca  Ca4  1  0.75037100  0.87932800  0.63117200  1
  Ca  Ca5  1  0.12409800  0.87879400  0.75820700  1
  Ca  Ca6  1  0.38116800  0.76042100  0.62613900  1
  Ca  Ca7  1  0.74991300  0.37808600  0.12016900  1
  Y  Y8  1  0.63019400  0.36817700  0.75471600  1
  Y  Y9  1  0.12439100  0.25487200  0.88384500  1
  Y  Y10  1  0.36980600  0.63182300  0.24528400  1
  Y  Y11  1  0.87560900  0.74512800  0.11615500  1
  Fe  Fe12  1  0.87677800  0.63046100  0.75484300  1
  Fe  Fe13  1  0.62639900  0.74902700  0.87559800  1
  Fe  Fe14  1  0.24946700  0.87350600  0.12882400  1
  Fe  Fe15  1  0.87292600  0.25361800  0.62853800  1
  Fe  Fe16  1  0.25086900  0.37424400  0.62986800  1
  Fe  Fe17  1  0.00000000  0.00000000  0.00000000  1
  Fe  Fe18  1  0.50000000  0.50000000  0.00000000  1
  Fe  Fe19  1  0.62367500  0.87283700  0.24910500  1
  Fe  Fe20  1  0.37632500  0.12716400  0.75089500  1
  Fe  Fe21  1  0.50000000  0.00000000  0.50000000  1
  Fe  Fe22  1  0.12707400  0.74638200  0.37146200  1
  Fe  Fe23  1  0.75053300  0.12649400  0.87117600  1
  Fe  Fe24  1  0.74913100  0.62575600  0.37013200  1
  Fe  Fe25  1  0.00000000  0.50000000  0.00000000  1
  Fe  Fe26  1  0.37360100  0.25097300  0.12440200  1
  Fe  Fe27  1  0.12322200  0.36953900  0.24515700  1
  Sb  Sb28  1  0.50000000  0.00000000  0.00000000  1
  Sb  Sb29  1  0.00000000  0.50000000  0.50000000  1
  Sb  Sb30  1  0.00000000  0.00000000  0.50000000  1
  Sb  Sb31  1  0.50000000  0.50000000  0.50000000  1
  O  O32  1  0.30179100  0.88216300  0.97861000  1
  O  O33  1  0.67496600  0.47748100  0.60088500  1
  O  O34  1  0.42196500  0.30258900  0.32590100  1
  O  O35  1  0.02272400  0.61749200  0.69945000  1
  O  O36  1  0.47770100  0.80083300  0.88175700  1
  O  O37  1  0.19907200  0.52102500  0.61716900  1
  O  O38  1  0.88172300  0.30158800  0.47806900  1
  O  O39  1  0.02479200  0.39841500  0.82443300  1
  O  O40  1  0.40353200  0.02414500  0.32244200  1
  O  O41  1  0.67847200  0.20948200  0.58743900  1
  O  O42  1  0.62035000  0.02303600  0.19862900  1
  O  O43  1  0.62613900  0.59587600  0.91911100  1
  O  O44  1  0.08161700  0.17717900  0.20218500  1
  O  O45  1  0.40745100  0.38292700  0.58423200  1
  O  O46  1  0.29350300  0.41364400  0.82271500  1
  O  O47  1  0.09692000  0.17541400  0.47822100  1
  O  O48  1  0.87310200  0.58001300  0.90329800  1
  O  O49  1  0.82185600  0.89805200  0.02592700  1
  O  O50  1  0.92387000  0.09951600  0.62224400  1
  O  O51  1  0.20587600  0.67599500  0.08491900  1
  O  O52  1  0.57804200  0.87406400  0.39921500  1
  O  O53  1  0.82556500  0.91808600  0.29954300  1
  O  O54  1  0.52607900  0.32413400  0.89952100  1
  O  O55  1  0.08960100  0.90971500  0.11935200  1
  O  O56  1  0.91039900  0.09028500  0.88064800  1
  O  O57  1  0.47392100  0.67586600  0.10047900  1
  O  O58  1  0.17443500  0.08191400  0.70045700  1
  O  O59  1  0.42195800  0.12593600  0.60078500  1
  O  O60  1  0.79412300  0.32400500  0.91508100  1
  O  O61  1  0.07613000  0.90048400  0.37775600  1
  O  O62  1  0.17814400  0.10194800  0.97407300  1
  O  O63  1  0.12689800  0.41998700  0.09670200  1
  O  O64  1  0.90308000  0.82458600  0.52177900  1
  O  O65  1  0.70649700  0.58635600  0.17728500  1
  O  O66  1  0.59254900  0.61707300  0.41576800  1
  O  O67  1  0.91838300  0.82282100  0.79781500  1
  O  O68  1  0.37386100  0.40412400  0.08088900  1
  O  O69  1  0.37965000  0.97696400  0.80137100  1
  O  O70  1  0.32152800  0.79051800  0.41256100  1
  O  O71  1  0.59646800  0.97585500  0.67755800  1
  O  O72  1  0.97520800  0.60158500  0.17556700  1
  O  O73  1  0.11827700  0.69841200  0.52193100  1
  O  O74  1  0.80092800  0.47897500  0.38283100  1
  O  O75  1  0.52229900  0.19916700  0.11824300  1
  O  O76  1  0.97727600  0.38250800  0.30055000  1
  O  O77  1  0.57803500  0.69741100  0.67409900  1
  O  O78  1  0.32503400  0.52251900  0.39911500  1
  O  O79  1  0.69820900  0.11783700  0.02139000  1
