# generated using pymatgen
data_CoH16C3N8O7
_symmetry_space_group_name_H-M   'P 1'
_cell_length_a   8.24638729
_cell_length_b   8.24638729
_cell_length_c   10.37821739
_cell_angle_alpha   67.63107922
_cell_angle_beta   67.63107922
_cell_angle_gamma   83.62280131
_symmetry_Int_Tables_number   1
_chemical_formula_structural   CoH16C3N8O7
_chemical_formula_sum   'Co2 H32 C6 N16 O14'
_cell_volume   603.06298793
_cell_formula_units_Z   2
loop_
 _symmetry_equiv_pos_site_id
 _symmetry_equiv_pos_as_xyz
  1  'x, y, z'
loop_
 _atom_site_type_symbol
 _atom_site_label
 _atom_site_symmetry_multiplicity
 _atom_site_fract_x
 _atom_site_fract_y
 _atom_site_fract_z
 _atom_site_occupancy
  Co  Co0  1  0.92277400  0.07296400  0.00575000  1
  Co  Co1  1  0.07296400  0.92277400  0.50575000  1
  H  H2  1  0.62167300  0.98537600  0.00201300  1
  H  H3  1  0.98537600  0.62167300  0.50201300  1
  H  H4  1  0.77431700  0.90339700  0.88864600  1
  H  H5  1  0.90339700  0.77431700  0.38864600  1
  H  H6  1  0.64426600  0.65459000  0.10941500  1
  H  H7  1  0.65459000  0.64426600  0.60941500  1
  H  H8  1  0.14105400  0.85956500  0.89325300  1
  H  H9  1  0.85956500  0.14105400  0.39325300  1
  H  H10  1  0.14813400  0.04270200  0.74468800  1
  H  H11  1  0.04270200  0.14813400  0.24468800  1
  H  H12  1  0.41143600  0.98489900  0.82520100  1
  H  H13  1  0.98489900  0.41143600  0.32520100  1
  H  H14  1  0.03244200  0.39440800  0.77901700  1
  H  H15  1  0.39440800  0.03244200  0.27901700  1
  H  H16  1  0.85986100  0.32270000  0.76566300  1
  H  H17  1  0.32270000  0.85986100  0.26566300  1
  H  H18  1  0.75384600  0.53829400  0.87079100  1
  H  H19  1  0.53829400  0.75384600  0.37079100  1
  H  H20  1  0.31904300  0.53077200  0.07566700  1
  H  H21  1  0.53077200  0.31904300  0.57566700  1
  H  H22  1  0.42173900  0.61334600  0.89160800  1
  H  H23  1  0.61334600  0.42173900  0.39160800  1
  H  H24  1  0.35802700  0.39314000  0.97932200  1
  H  H25  1  0.39314000  0.35802700  0.47932200  1
  H  H26  1  0.07072700  0.47173300  0.02592500  1
  H  H27  1  0.47173300  0.07072700  0.52592500  1
  H  H28  1  0.17832300  0.59327500  0.85001300  1
  H  H29  1  0.59327500  0.17832300  0.35001300  1
  H  H30  1  0.14364400  0.74952300  0.17840500  1
  H  H31  1  0.74952300  0.14364400  0.67840500  1
  H  H32  1  0.22728800  0.60550600  0.28357100  1
  H  H33  1  0.60550600  0.22728800  0.78357100  1
  C  C34  1  0.81652700  0.70859800  0.19049200  1
  C  C35  1  0.70859800  0.81652700  0.69049200  1
  C  C36  1  0.28460000  0.13470700  0.95208000  1
  C  C37  1  0.13470700  0.28460000  0.45208000  1
  C  C38  1  0.68781300  0.33651900  0.07401900  1
  C  C39  1  0.33651900  0.68781300  0.57401900  1
  N  N40  1  0.73763200  0.92046400  0.98933000  1
  N  N41  1  0.92046400  0.73763200  0.48933000  1
  N  N42  1  0.71044600  0.75498900  0.10800900  1
  N  N43  1  0.75498900  0.71044600  0.60800900  1
  N  N44  1  0.14535100  0.99502900  0.85300900  1
  N  N45  1  0.99502900  0.14535100  0.35300900  1
  N  N46  1  0.30087300  0.05647200  0.85164900  1
  N  N47  1  0.05647200  0.30087300  0.35164900  1
  N  N48  1  0.91176500  0.32987200  0.84017200  1
  N  N49  1  0.32987200  0.91176500  0.34017200  1
  N  N50  1  0.80032400  0.42471300  0.92678100  1
  N  N51  1  0.42471300  0.80032400  0.42678100  1
  N  N52  1  0.32349800  0.51984200  0.97828000  1
  N  N53  1  0.51984200  0.32349800  0.47828000  1
  N  N54  1  0.15926500  0.57555700  0.95868200  1
  N  N55  1  0.57555700  0.15926500  0.45868200  1
  O  O56  1  0.92173400  0.82647200  0.17384900  1
  O  O57  1  0.82647200  0.92173400  0.67384900  1
  O  O58  1  0.79872400  0.55234800  0.28571000  1
  O  O59  1  0.55234800  0.79872400  0.78571000  1
  O  O60  1  0.13098700  0.16746500  0.03091700  1
  O  O61  1  0.16746500  0.13098700  0.53091700  1
  O  O62  1  0.42657900  0.17714300  0.95691900  1
  O  O63  1  0.17714300  0.42657900  0.45691900  1
  O  O64  1  0.71533400  0.17344800  0.13920900  1
  O  O65  1  0.17344800  0.71533400  0.63920900  1
  O  O66  1  0.57035100  0.42409400  0.13517100  1
  O  O67  1  0.42409400  0.57035100  0.63517100  1
  O  O68  1  0.25755800  0.70828000  0.18714500  1
  O  O69  1  0.70828000  0.25755800  0.68714500  1
