# generated using pymatgen
data_Sc2TlIn
_symmetry_space_group_name_H-M   'P 1'
_cell_length_a   11.96839953
_cell_length_b   11.96839953
_cell_length_c   11.96839953
_cell_angle_alpha   122.96000892
_cell_angle_beta   120.07231054
_cell_angle_gamma   87.41243921
_symmetry_Int_Tables_number   1
_chemical_formula_structural   Sc2TlIn
_chemical_formula_sum   'Sc2 Tl1 In1'
_cell_volume   1182.16649983
_cell_formula_units_Z   1
loop_
 _symmetry_equiv_pos_site_id
 _symmetry_equiv_pos_as_xyz
  1  'x, y, z'
loop_
 _atom_site_type_symbol
 _atom_site_label
 _atom_site_symmetry_multiplicity
 _atom_site_fract_x
 _atom_site_fract_y
 _atom_site_fract_z
 _atom_site_occupancy
  Sc  Sc0  1  0.00000000  0.24986300  0.24986300  1
  Sc  Sc1  1  0.00000000  0.75013700  0.75013700  1
  Tl  Tl2  1  0.00000000  0.50000000  0.50000000  1
  In  In3  1  0.00000000  0.00000000  0.00000000  1
