# generated using pymatgen
data_CsVH24(SO10)2
_symmetry_space_group_name_H-M   'P 1'
_cell_length_a   12.52485478
_cell_length_b   12.52485478
_cell_length_c   12.52485478
_cell_angle_alpha   90.00000000
_cell_angle_beta   90.00000000
_cell_angle_gamma   90.00000000
_symmetry_Int_Tables_number   1
_chemical_formula_structural   CsVH24(SO10)2
_chemical_formula_sum   'Cs4 V4 H96 S8 O80'
_cell_volume   1964.79885948
_cell_formula_units_Z   4
loop_
 _symmetry_equiv_pos_site_id
 _symmetry_equiv_pos_as_xyz
  1  'x, y, z'
loop_
 _atom_site_type_symbol
 _atom_site_label
 _atom_site_symmetry_multiplicity
 _atom_site_fract_x
 _atom_site_fract_y
 _atom_site_fract_z
 _atom_site_occupancy
  Cs  Cs0  1  0.00000000  0.00000000  0.50000000  1
  Cs  Cs1  1  0.00000000  0.50000000  0.00000000  1
  Cs  Cs2  1  0.50000000  0.00000000  0.00000000  1
  Cs  Cs3  1  0.50000000  0.50000000  0.50000000  1
  V  V4  1  0.50000000  0.50000000  0.00000000  1
  V  V5  1  0.50000000  0.00000000  0.50000000  1
  V  V6  1  0.00000000  0.50000000  0.50000000  1
  V  V7  1  0.00000000  0.00000000  0.00000000  1
  H  H8  1  0.21971569  0.50766346  0.23127327  1
  H  H9  1  0.78028431  0.00766346  0.26872673  1
  H  H10  1  0.28028431  0.49233654  0.73127327  1
  H  H11  1  0.71971569  0.99233654  0.76872673  1
  H  H12  1  0.23127327  0.21971569  0.50766346  1
  H  H13  1  0.26872673  0.78028431  0.00766346  1
  H  H14  1  0.73127327  0.28028431  0.49233654  1
  H  H15  1  0.76872673  0.71971569  0.99233654  1
  H  H16  1  0.50766346  0.23127327  0.21971569  1
  H  H17  1  0.00766346  0.26872673  0.78028431  1
  H  H18  1  0.49233654  0.73127327  0.28028431  1
  H  H19  1  0.99233654  0.76872673  0.71971569  1
  H  H20  1  0.78028431  0.49233654  0.76872673  1
  H  H21  1  0.21971569  0.99233654  0.73127327  1
  H  H22  1  0.71971569  0.50766346  0.26872673  1
  H  H23  1  0.28028431  0.00766346  0.23127327  1
  H  H24  1  0.76872673  0.78028431  0.49233654  1
  H  H25  1  0.73127327  0.21971569  0.99233654  1
  H  H26  1  0.26872673  0.71971569  0.50766346  1
  H  H27  1  0.23127327  0.28028431  0.00766346  1
  H  H28  1  0.49233654  0.76872673  0.78028431  1
  H  H29  1  0.99233654  0.73127327  0.21971569  1
  H  H30  1  0.50766346  0.26872673  0.71971569  1
  H  H31  1  0.00766346  0.23127327  0.28028431  1
  H  H32  1  0.18105572  0.62590134  0.22250737  1
  H  H33  1  0.81894428  0.12590134  0.27749263  1
  H  H34  1  0.31894428  0.37409866  0.72250737  1
  H  H35  1  0.68105572  0.87409866  0.77749263  1
  H  H36  1  0.22250737  0.18105572  0.62590134  1
  H  H37  1  0.27749263  0.81894428  0.12590134  1
  H  H38  1  0.72250737  0.31894428  0.37409866  1
  H  H39  1  0.77749263  0.68105572  0.87409866  1
  H  H40  1  0.62590134  0.22250737  0.18105572  1
  H  H41  1  0.12590134  0.27749263  0.81894428  1
  H  H42  1  0.37409866  0.72250737  0.31894428  1
  H  H43  1  0.87409866  0.77749263  0.68105572  1
  H  H44  1  0.81894428  0.37409866  0.77749263  1
  H  H45  1  0.18105572  0.87409866  0.72250737  1
  H  H46  1  0.68105572  0.62590134  0.27749263  1
  H  H47  1  0.31894428  0.12590134  0.22250737  1
  H  H48  1  0.77749263  0.81894428  0.37409866  1
  H  H49  1  0.72250737  0.18105572  0.87409866  1
  H  H50  1  0.27749263  0.68105572  0.62590134  1
  H  H51  1  0.22250737  0.31894428  0.12590134  1
  H  H52  1  0.37409866  0.77749263  0.81894428  1
  H  H53  1  0.87409866  0.72250737  0.18105572  1
  H  H54  1  0.62590134  0.27749263  0.68105572  1
  H  H55  1  0.12590134  0.22250737  0.31894428  1
  H  H56  1  0.47892960  0.70898083  0.93685941  1
  H  H57  1  0.52107040  0.20898083  0.56314059  1
  H  H58  1  0.02107040  0.29101917  0.43685941  1
  H  H59  1  0.97892960  0.79101917  0.06314059  1
  H  H60  1  0.93685941  0.47892960  0.70898083  1
  H  H61  1  0.56314059  0.52107040  0.20898083  1
  H  H62  1  0.43685941  0.02107040  0.29101917  1
  H  H63  1  0.06314059  0.97892960  0.79101917  1
  H  H64  1  0.70898083  0.93685941  0.47892960  1
  H  H65  1  0.20898083  0.56314059  0.52107040  1
  H  H66  1  0.29101917  0.43685941  0.02107040  1
  H  H67  1  0.79101917  0.06314059  0.97892960  1
  H  H68  1  0.52107040  0.29101917  0.06314059  1
  H  H69  1  0.47892960  0.79101917  0.43685941  1
  H  H70  1  0.97892960  0.70898083  0.56314059  1
  H  H71  1  0.02107040  0.20898083  0.93685941  1
  H  H72  1  0.06314059  0.52107040  0.29101917  1
  H  H73  1  0.43685941  0.47892960  0.79101917  1
  H  H74  1  0.56314059  0.97892960  0.70898083  1
  H  H75  1  0.93685941  0.02107040  0.20898083  1
  H  H76  1  0.29101917  0.06314059  0.52107040  1
  H  H77  1  0.79101917  0.43685941  0.47892960  1
  H  H78  1  0.70898083  0.56314059  0.97892960  1
  H  H79  1  0.20898083  0.93685941  0.02107040  1
  H  H80  1  0.52574082  0.70544321  0.06107473  1
  H  H81  1  0.47425918  0.20544321  0.43892527  1
  H  H82  1  0.97425918  0.29455679  0.56107473  1
  H  H83  1  0.02574082  0.79455679  0.93892527  1
  H  H84  1  0.06107473  0.52574082  0.70544321  1
  H  H85  1  0.43892527  0.47425918  0.20544321  1
  H  H86  1  0.56107473  0.97425918  0.29455679  1
  H  H87  1  0.93892527  0.02574082  0.79455679  1
  H  H88  1  0.70544321  0.06107473  0.52574082  1
  H  H89  1  0.20544321  0.43892527  0.47425918  1
  H  H90  1  0.29455679  0.56107473  0.97425918  1
  H  H91  1  0.79455679  0.93892527  0.02574082  1
  H  H92  1  0.47425918  0.29455679  0.93892527  1
  H  H93  1  0.52574082  0.79455679  0.56107473  1
  H  H94  1  0.02574082  0.70544321  0.43892527  1
  H  H95  1  0.97425918  0.20544321  0.06107473  1
  H  H96  1  0.93892527  0.47425918  0.29455679  1
  H  H97  1  0.56107473  0.52574082  0.79455679  1
  H  H98  1  0.43892527  0.02574082  0.70544321  1
  H  H99  1  0.06107473  0.97425918  0.20544321  1
  H  H100  1  0.29455679  0.93892527  0.47425918  1
  H  H101  1  0.79455679  0.56107473  0.52574082  1
  H  H102  1  0.70544321  0.43892527  0.02574082  1
  H  H103  1  0.20544321  0.06107473  0.97425918  1
  S  S104  1  0.17285179  0.82714821  0.32714821  1
  S  S105  1  0.82714821  0.32714821  0.17285179  1
  S  S106  1  0.32714821  0.17285179  0.82714821  1
  S  S107  1  0.67285179  0.67285179  0.67285179  1
  S  S108  1  0.82714821  0.17285179  0.67285179  1
  S  S109  1  0.17285179  0.67285179  0.82714821  1
  S  S110  1  0.67285179  0.82714821  0.17285179  1
  S  S111  1  0.32714821  0.32714821  0.32714821  1
  O  O112  1  0.24202064  0.75797936  0.25797936  1
  O  O113  1  0.75797936  0.25797936  0.24202064  1
  O  O114  1  0.25797936  0.24202064  0.75797936  1
  O  O115  1  0.74202064  0.74202064  0.74202064  1
  O  O116  1  0.75797936  0.24202064  0.74202064  1
  O  O117  1  0.24202064  0.74202064  0.75797936  1
  O  O118  1  0.74202064  0.75797936  0.24202064  1
  O  O119  1  0.25797936  0.25797936  0.25797936  1
  O  O120  1  0.06411801  0.77883680  0.33662153  1
  O  O121  1  0.93588199  0.27883680  0.16337847  1
  O  O122  1  0.43588199  0.22116320  0.83662153  1
  O  O123  1  0.56411801  0.72116320  0.66337847  1
  O  O124  1  0.33662153  0.06411801  0.77883680  1
  O  O125  1  0.16337847  0.93588199  0.27883680  1
  O  O126  1  0.83662153  0.43588199  0.22116320  1
  O  O127  1  0.66337847  0.56411801  0.72116320  1
  O  O128  1  0.77883680  0.33662153  0.06411801  1
  O  O129  1  0.27883680  0.16337847  0.93588199  1
  O  O130  1  0.22116320  0.83662153  0.43588199  1
  O  O131  1  0.72116320  0.66337847  0.56411801  1
  O  O132  1  0.93588199  0.22116320  0.66337847  1
  O  O133  1  0.06411801  0.72116320  0.83662153  1
  O  O134  1  0.56411801  0.77883680  0.16337847  1
  O  O135  1  0.43588199  0.27883680  0.33662153  1
  O  O136  1  0.66337847  0.93588199  0.22116320  1
  O  O137  1  0.83662153  0.06411801  0.72116320  1
  O  O138  1  0.16337847  0.56411801  0.77883680  1
  O  O139  1  0.33662153  0.43588199  0.27883680  1
  O  O140  1  0.22116320  0.66337847  0.93588199  1
  O  O141  1  0.72116320  0.83662153  0.06411801  1
  O  O142  1  0.77883680  0.16337847  0.56411801  1
  O  O143  1  0.27883680  0.33662153  0.43588199  1
  O  O144  1  0.15717619  0.55131605  0.21107108  1
  O  O145  1  0.84282381  0.05131605  0.28892892  1
  O  O146  1  0.34282381  0.44868395  0.71107108  1
  O  O147  1  0.65717619  0.94868395  0.78892892  1
  O  O148  1  0.21107108  0.15717619  0.55131605  1
  O  O149  1  0.28892892  0.84282381  0.05131605  1
  O  O150  1  0.71107108  0.34282381  0.44868395  1
  O  O151  1  0.78892892  0.65717619  0.94868395  1
  O  O152  1  0.55131605  0.21107108  0.15717619  1
  O  O153  1  0.05131605  0.28892892  0.84282381  1
  O  O154  1  0.44868395  0.71107108  0.34282381  1
  O  O155  1  0.94868395  0.78892892  0.65717619  1
  O  O156  1  0.84282381  0.44868395  0.78892892  1
  O  O157  1  0.15717619  0.94868395  0.71107108  1
  O  O158  1  0.65717619  0.55131605  0.28892892  1
  O  O159  1  0.34282381  0.05131605  0.21107108  1
  O  O160  1  0.78892892  0.84282381  0.44868395  1
  O  O161  1  0.71107108  0.15717619  0.94868395  1
  O  O162  1  0.28892892  0.65717619  0.55131605  1
  O  O163  1  0.21107108  0.34282381  0.05131605  1
  O  O164  1  0.44868395  0.78892892  0.84282381  1
  O  O165  1  0.94868395  0.71107108  0.15717619  1
  O  O166  1  0.55131605  0.28892892  0.65717619  1
  O  O167  1  0.05131605  0.21107108  0.34282381  1
  O  O168  1  0.50119201  0.66142138  0.99905563  1
  O  O169  1  0.49880799  0.16142138  0.50094437  1
  O  O170  1  0.99880799  0.33857862  0.49905563  1
  O  O171  1  0.00119201  0.83857862  0.00094437  1
  O  O172  1  0.99905563  0.50119201  0.66142138  1
  O  O173  1  0.50094437  0.49880799  0.16142138  1
  O  O174  1  0.49905563  0.99880799  0.33857862  1
  O  O175  1  0.00094437  0.00119201  0.83857862  1
  O  O176  1  0.66142138  0.99905563  0.50119201  1
  O  O177  1  0.16142138  0.50094437  0.49880799  1
  O  O178  1  0.33857862  0.49905563  0.99880799  1
  O  O179  1  0.83857862  0.00094437  0.00119201  1
  O  O180  1  0.49880799  0.33857862  0.00094437  1
  O  O181  1  0.50119201  0.83857862  0.49905563  1
  O  O182  1  0.00119201  0.66142138  0.50094437  1
  O  O183  1  0.99880799  0.16142138  0.99905563  1
  O  O184  1  0.00094437  0.49880799  0.33857862  1
  O  O185  1  0.49905563  0.50119201  0.83857862  1
  O  O186  1  0.50094437  0.00119201  0.66142138  1
  O  O187  1  0.99905563  0.99880799  0.16142138  1
  O  O188  1  0.33857862  0.00094437  0.49880799  1
  O  O189  1  0.83857862  0.49905563  0.50119201  1
  O  O190  1  0.66142138  0.50094437  0.00119201  1
  O  O191  1  0.16142138  0.99905563  0.99880799  1
