# generated using pymatgen
data_NiH18C4S6(N2O)4
_symmetry_space_group_name_H-M   'P 1'
_cell_length_a   9.08787000
_cell_length_b   10.56892900
_cell_length_c   19.31207600
_cell_angle_alpha   90.00000000
_cell_angle_beta   90.00000000
_cell_angle_gamma   90.00000000
_symmetry_Int_Tables_number   1
_chemical_formula_structural   NiH18C4S6(N2O)4
_chemical_formula_sum   'Ni4 H72 C16 S24 N32 O16'
_cell_volume   1854.90660723
_cell_formula_units_Z   4
loop_
 _symmetry_equiv_pos_site_id
 _symmetry_equiv_pos_as_xyz
  1  'x, y, z'
loop_
 _atom_site_type_symbol
 _atom_site_label
 _atom_site_symmetry_multiplicity
 _atom_site_fract_x
 _atom_site_fract_y
 _atom_site_fract_z
 _atom_site_occupancy
  Ni  Ni0  1  0.31284700  0.17442000  0.84661000  1
  Ni  Ni1  1  0.81284700  0.32558000  0.15339000  1
  Ni  Ni2  1  0.18715300  0.82558000  0.34661000  1
  Ni  Ni3  1  0.68715300  0.67442000  0.65339000  1
  H  H4  1  0.45579800  0.20359900  0.59259700  1
  H  H5  1  0.95579800  0.29640100  0.40740300  1
  H  H6  1  0.04420200  0.79640100  0.09259700  1
  H  H7  1  0.54420200  0.70359900  0.90740300  1
  H  H8  1  0.39832900  0.05132900  0.57063800  1
  H  H9  1  0.89832900  0.44867100  0.42936200  1
  H  H10  1  0.10167100  0.94867100  0.07063800  1
  H  H11  1  0.60167100  0.55132900  0.92936200  1
  H  H12  1  0.32583400  0.96286500  0.74538800  1
  H  H13  1  0.82583400  0.53713500  0.25461200  1
  H  H14  1  0.17416600  0.03713500  0.24538800  1
  H  H15  1  0.67416600  0.46286500  0.75461200  1
  H  H16  1  0.33049600  0.90892900  0.65971300  1
  H  H17  1  0.83049600  0.59107100  0.34028700  1
  H  H18  1  0.16950400  0.09107100  0.15971300  1
  H  H19  1  0.66950400  0.40892900  0.84028700  1
  H  H20  1  0.01918600  0.26256900  0.89817500  1
  H  H21  1  0.51918600  0.23743100  0.10182500  1
  H  H22  1  0.48081400  0.73743100  0.39817500  1
  H  H23  1  0.98081400  0.76256900  0.60182500  1
  H  H24  1  0.92229600  0.37736200  0.94620100  1
  H  H25  1  0.42229600  0.12263800  0.05379900  1
  H  H26  1  0.57770400  0.62263800  0.44620100  1
  H  H27  1  0.07770400  0.87736200  0.55379900  1
  H  H28  1  0.17280700  0.62508300  0.91438100  1
  H  H29  1  0.67280700  0.87491700  0.08561900  1
  H  H30  1  0.32719300  0.37491700  0.41438100  1
  H  H31  1  0.82719300  0.12508300  0.58561900  1
  H  H32  1  0.01251800  0.57995900  0.95589400  1
  H  H33  1  0.51251800  0.92004100  0.04410600  1
  H  H34  1  0.48748200  0.42004100  0.45589400  1
  H  H35  1  0.98748200  0.07995900  0.54410600  1
  H  H36  1  0.78666900  0.24591300  0.70467400  1
  H  H37  1  0.28666900  0.25408700  0.29532600  1
  H  H38  1  0.71333100  0.75408700  0.20467400  1
  H  H39  1  0.21333100  0.74591300  0.79532600  1
  H  H40  1  0.77729500  0.12896500  0.76859500  1
  H  H41  1  0.27729500  0.37103500  0.23140500  1
  H  H42  1  0.72270500  0.87103500  0.26859500  1
  H  H43  1  0.22270500  0.62896500  0.73140500  1
  H  H44  1  0.16792600  0.29900700  0.72673500  1
  H  H45  1  0.66792600  0.20099300  0.27326500  1
  H  H46  1  0.33207400  0.70099300  0.22673500  1
  H  H47  1  0.83207400  0.79900700  0.77326500  1
  H  H48  1  0.00541300  0.35685000  0.68873000  1
  H  H49  1  0.50541300  0.14315000  0.31127000  1
  H  H50  1  0.49458700  0.64315000  0.18873000  1
  H  H51  1  0.99458700  0.85685000  0.81127000  1
  H  H52  1  0.86637300  0.05692600  0.96102800  1
  H  H53  1  0.36637300  0.44307400  0.03897200  1
  H  H54  1  0.63362700  0.94307400  0.46102800  1
  H  H55  1  0.13362700  0.55692600  0.53897200  1
  H  H56  1  0.79174200  0.19976800  0.99001200  1
  H  H57  1  0.29174200  0.30023200  0.00998800  1
  H  H58  1  0.70825800  0.80023200  0.49001200  1
  H  H59  1  0.20825800  0.69976800  0.50998800  1
  H  H60  1  0.75023100  0.94375600  0.87987500  1
  H  H61  1  0.25023100  0.55624400  0.12012500  1
  H  H62  1  0.74976900  0.05624400  0.37987500  1
  H  H63  1  0.24976900  0.44375600  0.62012500  1
  H  H64  1  0.58949700  0.99586700  0.84071800  1
  H  H65  1  0.08949700  0.50413300  0.15928200  1
  H  H66  1  0.91050300  0.00413300  0.34071800  1
  H  H67  1  0.41050300  0.49586700  0.65928200  1
  H  H68  1  0.37841000  0.71420500  0.01934700  1
  H  H69  1  0.87841000  0.78579500  0.98065300  1
  H  H70  1  0.12159000  0.28579500  0.51934700  1
  H  H71  1  0.62159000  0.21420500  0.48065300  1
  H  H72  1  0.48697400  0.65887500  0.07341400  1
  H  H73  1  0.98697400  0.84112500  0.92658600  1
  H  H74  1  0.01302600  0.34112500  0.57341400  1
  H  H75  1  0.51302600  0.15887500  0.42658600  1
  C  C76  1  0.38775100  0.09555000  0.67505300  1
  C  C77  1  0.88775100  0.40445000  0.32494700  1
  C  C78  1  0.11224900  0.90445000  0.17505300  1
  C  C79  1  0.61224900  0.59555000  0.82494700  1
  C  C80  1  0.11436500  0.43810400  0.90057200  1
  C  C81  1  0.61436500  0.06189600  0.09942800  1
  C  C82  1  0.38563500  0.56189600  0.40057200  1
  C  C83  1  0.88563500  0.93810400  0.59942800  1
  C  C84  1  0.98226500  0.20394100  0.75293000  1
  C  C85  1  0.48226500  0.29605900  0.24707000  1
  C  C86  1  0.51773500  0.79605900  0.25293000  1
  C  C87  1  0.01773500  0.70394100  0.74707000  1
  C  C88  1  0.68149200  0.11770600  0.90902300  1
  C  C89  1  0.18149200  0.38229400  0.09097700  1
  C  C90  1  0.81850800  0.88229400  0.40902300  1
  C  C91  1  0.31850800  0.61770600  0.59097700  1
  S  S92  1  0.42541200  0.21176800  0.73504300  1
  S  S93  1  0.92541200  0.28823200  0.26495700  1
  S  S94  1  0.07458800  0.78823200  0.23504300  1
  S  S95  1  0.57458800  0.71176800  0.76495700  1
  S  S96  1  0.27203400  0.39847200  0.85656900  1
  S  S97  1  0.77203400  0.10152800  0.14343100  1
  S  S98  1  0.22796600  0.60152800  0.35656900  1
  S  S99  1  0.72796600  0.89847200  0.64343100  1
  S  S100  1  0.06738000  0.10689700  0.81190400  1
  S  S101  1  0.56738000  0.39310300  0.18809600  1
  S  S102  1  0.43262000  0.89310300  0.31190400  1
  S  S103  1  0.93262000  0.60689700  0.68809600  1
  S  S104  1  0.54622200  0.23098200  0.90675600  1
  S  S105  1  0.04622200  0.26901800  0.09324400  1
  S  S106  1  0.95377800  0.76901800  0.40675600  1
  S  S107  1  0.45377800  0.73098200  0.59324400  1
  S  S108  1  0.21892300  0.06634800  0.96797100  1
  S  S109  1  0.71892300  0.43365200  0.03202900  1
  S  S110  1  0.28107700  0.93365200  0.46797100  1
  S  S111  1  0.78107700  0.56634800  0.53202900  1
  S  S112  1  0.30319400  0.91651300  0.91506500  1
  S  S113  1  0.80319400  0.58348700  0.08493500  1
  S  S114  1  0.19680600  0.08348700  0.41506500  1
  S  S115  1  0.69680600  0.41651300  0.58493500  1
  N  N116  1  0.41347600  0.11880600  0.60792900  1
  N  N117  1  0.91347600  0.38119400  0.39207100  1
  N  N118  1  0.08652400  0.88119400  0.10792900  1
  N  N119  1  0.58652400  0.61880600  0.89207100  1
  N  N120  1  0.33506400  0.98270100  0.69390700  1
  N  N121  1  0.83506400  0.51729900  0.30609300  1
  N  N122  1  0.16493600  0.01729900  0.19390700  1
  N  N123  1  0.66493600  0.48270100  0.80609300  1
  N  N124  1  0.00837000  0.35395300  0.91451500  1
  N  N125  1  0.50837000  0.14604700  0.08548500  1
  N  N126  1  0.49163000  0.64604700  0.41451500  1
  N  N127  1  0.99163000  0.85395300  0.58548500  1
  N  N128  1  0.09505700  0.55727700  0.92210700  1
  N  N129  1  0.59505700  0.94272300  0.07789300  1
  N  N130  1  0.40494300  0.44272300  0.42210700  1
  N  N131  1  0.90494300  0.05727700  0.57789300  1
  N  N132  1  0.83633600  0.19727400  0.74382500  1
  N  N133  1  0.33633600  0.30272600  0.25617500  1
  N  N134  1  0.66366400  0.80272600  0.24382500  1
  N  N135  1  0.16366400  0.69727400  0.75617500  1
  N  N136  1  0.05848500  0.28914900  0.71656300  1
  N  N137  1  0.55848500  0.21085100  0.28343700  1
  N  N138  1  0.44151500  0.71085100  0.21656300  1
  N  N139  1  0.94151500  0.78914900  0.78343700  1
  N  N140  1  0.79181500  0.12851500  0.95471000  1
  N  N141  1  0.29181500  0.37148500  0.04529000  1
  N  N142  1  0.70818500  0.87148500  0.45471000  1
  N  N143  1  0.20818500  0.62851500  0.54529000  1
  N  N144  1  0.68586300  0.01870800  0.86477200  1
  N  N145  1  0.18586300  0.48129200  0.13522800  1
  N  N146  1  0.81413700  0.98129200  0.36477200  1
  N  N147  1  0.31413700  0.51870800  0.63522800  1
  O  O148  1  0.36532900  0.97176100  0.84923600  1
  O  O149  1  0.86532900  0.52823900  0.15076400  1
  O  O150  1  0.13467100  0.02823900  0.34923600  1
  O  O151  1  0.63467100  0.47176100  0.65076400  1
  O  O152  1  0.18473400  0.82467100  0.89754800  1
  O  O153  1  0.68473400  0.67532900  0.10245200  1
  O  O154  1  0.31526600  0.17532900  0.39754800  1
  O  O155  1  0.81526600  0.32467100  0.60245200  1
  O  O156  1  0.41982100  0.85273600  0.95609100  1
  O  O157  1  0.91982100  0.64726400  0.04390900  1
  O  O158  1  0.08017900  0.14726400  0.45609100  1
  O  O159  1  0.58017900  0.35273600  0.54390900  1
  O  O160  1  0.38775500  0.64683800  0.05416400  1
  O  O161  1  0.88775500  0.85316200  0.94583600  1
  O  O162  1  0.11224500  0.35316200  0.55416400  1
  O  O163  1  0.61224500  0.14683800  0.44583600  1
