# generated using pymatgen
data_VH7N2O5
_symmetry_space_group_name_H-M   'P 1'
_cell_length_a   6.88170200
_cell_length_b   8.53859400
_cell_length_c   9.45437400
_cell_angle_alpha   90.00000000
_cell_angle_beta   90.00000000
_cell_angle_gamma   90.00000000
_symmetry_Int_Tables_number   1
_chemical_formula_structural   VH7N2O5
_chemical_formula_sum   'V4 H28 N8 O20'
_cell_volume   555.53957790
_cell_formula_units_Z   4
loop_
 _symmetry_equiv_pos_site_id
 _symmetry_equiv_pos_as_xyz
  1  'x, y, z'
loop_
 _atom_site_type_symbol
 _atom_site_label
 _atom_site_symmetry_multiplicity
 _atom_site_fract_x
 _atom_site_fract_y
 _atom_site_fract_z
 _atom_site_occupancy
  V  V0  1  0.25000000  0.73279000  0.27422000  1
  V  V1  1  0.25000000  0.23279000  0.22578000  1
  V  V2  1  0.75000000  0.26721000  0.72578000  1
  V  V3  1  0.75000000  0.76721000  0.77422000  1
  H  H4  1  0.25000000  0.56405100  0.98813900  1
  H  H5  1  0.25000000  0.06405100  0.51186100  1
  H  H6  1  0.75000000  0.43594900  0.01186100  1
  H  H7  1  0.75000000  0.93594900  0.48813900  1
  H  H8  1  0.25000000  0.68608800  0.84632600  1
  H  H9  1  0.25000000  0.18608800  0.65367400  1
  H  H10  1  0.75000000  0.31391200  0.15367400  1
  H  H11  1  0.75000000  0.81391200  0.34632600  1
  H  H12  1  0.12851300  0.51409200  0.83865500  1
  H  H13  1  0.37148700  0.01409200  0.66134500  1
  H  H14  1  0.62851300  0.48590800  0.16134500  1
  H  H15  1  0.87148700  0.98590800  0.33865500  1
  H  H16  1  0.87148700  0.48590800  0.16134500  1
  H  H17  1  0.62851300  0.98590800  0.33865500  1
  H  H18  1  0.37148700  0.51409200  0.83865500  1
  H  H19  1  0.12851300  0.01409200  0.66134500  1
  H  H20  1  0.25000000  0.48699400  0.44424400  1
  H  H21  1  0.25000000  0.98699400  0.05575600  1
  H  H22  1  0.75000000  0.51300600  0.55575600  1
  H  H23  1  0.75000000  0.01300600  0.94424400  1
  H  H24  1  0.12951700  0.63313000  0.52577000  1
  H  H25  1  0.37048300  0.13313000  0.97423000  1
  H  H26  1  0.62951700  0.36687000  0.47423000  1
  H  H27  1  0.87048300  0.86687000  0.02577000  1
  H  H28  1  0.87048300  0.36687000  0.47423000  1
  H  H29  1  0.62951700  0.86687000  0.02577000  1
  H  H30  1  0.37048300  0.63313000  0.52577000  1
  H  H31  1  0.12951700  0.13313000  0.97423000  1
  N  N32  1  0.25000000  0.60416300  0.46616000  1
  N  N33  1  0.25000000  0.10416300  0.03384000  1
  N  N34  1  0.75000000  0.39583700  0.53384000  1
  N  N35  1  0.75000000  0.89583700  0.96616000  1
  N  N36  1  0.25000000  0.57069400  0.87877800  1
  N  N37  1  0.25000000  0.07069400  0.62122200  1
  N  N38  1  0.75000000  0.42930600  0.12122200  1
  N  N39  1  0.75000000  0.92930600  0.37877800  1
  O  O40  1  0.44460300  0.73561300  0.13053600  1
  O  O41  1  0.05539700  0.23561300  0.36946400  1
  O  O42  1  0.94460300  0.26438700  0.86946400  1
  O  O43  1  0.55539700  0.76438700  0.63053600  1
  O  O44  1  0.55539700  0.26438700  0.86946400  1
  O  O45  1  0.94460300  0.76438700  0.63053600  1
  O  O46  1  0.05539700  0.73561300  0.13053600  1
  O  O47  1  0.44460300  0.23561300  0.36946400  1
  O  O48  1  0.51356800  0.66444200  0.26281600  1
  O  O49  1  0.98643200  0.16444200  0.23718400  1
  O  O50  1  0.01356800  0.33555800  0.73718400  1
  O  O51  1  0.48643200  0.83555800  0.76281600  1
  O  O52  1  0.48643200  0.33555800  0.73718400  1
  O  O53  1  0.01356800  0.83555800  0.76281600  1
  O  O54  1  0.98643200  0.66444200  0.26281600  1
  O  O55  1  0.51356800  0.16444200  0.23718400  1
  O  O56  1  0.25000000  0.90903300  0.34444600  1
  O  O57  1  0.25000000  0.40903300  0.15555400  1
  O  O58  1  0.75000000  0.09096700  0.65555400  1
  O  O59  1  0.75000000  0.59096700  0.84444600  1
