# generated using pymatgen
data_NbTcMo2
_symmetry_space_group_name_H-M   'P 1'
_cell_length_a   10.64324369
_cell_length_b   10.64324369
_cell_length_c   10.64324369
_cell_angle_alpha   129.29030497
_cell_angle_beta   117.07147682
_cell_angle_gamma   84.93121684
_symmetry_Int_Tables_number   1
_chemical_formula_structural   NbTcMo2
_chemical_formula_sum   'Nb1 Tc1 Mo2'
_cell_volume   795.17820362
_cell_formula_units_Z   1
loop_
 _symmetry_equiv_pos_site_id
 _symmetry_equiv_pos_as_xyz
  1  'x, y, z'
loop_
 _atom_site_type_symbol
 _atom_site_label
 _atom_site_symmetry_multiplicity
 _atom_site_fract_x
 _atom_site_fract_y
 _atom_site_fract_z
 _atom_site_occupancy
  Nb  Nb0  1  0.00000000  0.00000000  0.00000000  1
  Tc  Tc1  1  0.00000000  0.50000000  0.50000000  1
  Mo  Mo2  1  0.00000000  0.25304500  0.25304500  1
  Mo  Mo3  1  0.00000000  0.74695500  0.74695500  1
