# generated using pymatgen
data_Ca5Gd3Ti5Mn3O24
_symmetry_space_group_name_H-M   'P 1'
_cell_length_a   5.41523900
_cell_length_b   5.64092197
_cell_length_c   15.29679791
_cell_angle_alpha   90.12263836
_cell_angle_beta   90.09280867
_cell_angle_gamma   90.85425945
_symmetry_Int_Tables_number   1
_chemical_formula_structural   Ca5Gd3Ti5Mn3O24
_chemical_formula_sum   'Ca5 Gd3 Ti5 Mn3 O24'
_cell_volume   467.21673460
_cell_formula_units_Z   1
loop_
 _symmetry_equiv_pos_site_id
 _symmetry_equiv_pos_as_xyz
  1  'x, y, z'
loop_
 _atom_site_type_symbol
 _atom_site_label
 _atom_site_symmetry_multiplicity
 _atom_site_fract_x
 _atom_site_fract_y
 _atom_site_fract_z
 _atom_site_occupancy
  Ca  Ca0  1  0.01340700  0.04952600  0.62398600  1
  Ca  Ca1  1  0.01365300  0.05740300  0.12722000  1
  Ca  Ca2  1  0.49429800  0.55196500  0.62321400  1
  Ca  Ca3  1  0.50989600  0.45294300  0.87195300  1
  Ca  Ca4  1  0.99280200  0.95697600  0.87176400  1
  Gd  Gd5  1  0.48659900  0.56718600  0.12846100  1
  Gd  Gd6  1  0.51306200  0.43112200  0.37488900  1
  Gd  Gd7  1  0.98029600  0.93145100  0.37491600  1
  Ti  Ti8  1  0.98955900  0.51888600  0.99992500  1
  Ti  Ti9  1  0.01810200  0.49968000  0.74846800  1
  Ti  Ti10  1  0.00666600  0.49739300  0.50273600  1
  Ti  Ti11  1  0.51663300  0.99112500  0.75032800  1
  Ti  Ti12  1  0.50362700  0.02488600  0.00066200  1
  Mn  Mn13  1  0.00161700  0.49506900  0.24957600  1
  Mn  Mn14  1  0.49732700  0.00024100  0.25018100  1
  Mn  Mn15  1  0.49546000  0.99511400  0.50117400  1
  O  O16  1  0.07912600  0.52394800  0.87541800  1
  O  O17  1  0.09940200  0.52611400  0.37541200  1
  O  O18  1  0.19294900  0.79783800  0.52170800  1
  O  O19  1  0.21087600  0.78204200  0.02474300  1
  O  O20  1  0.20245700  0.79035700  0.72878000  1
  O  O21  1  0.21406700  0.81398900  0.22449200  1
  O  O22  1  0.28946000  0.31527200  0.52129800  1
  O  O23  1  0.28434000  0.29748200  0.72942900  1
  O  O24  1  0.29646500  0.32072900  0.22719600  1
  O  O25  1  0.30366100  0.29134300  0.02444100  1
  O  O26  1  0.41626900  0.02172100  0.87561800  1
  O  O27  1  0.39404200  0.02503600  0.37877000  1
  O  O28  1  0.58020200  0.97559400  0.62527200  1
  O  O29  1  0.59310700  0.97066900  0.12171200  1
  O  O30  1  0.70869900  0.70005300  0.97972300  1
  O  O31  1  0.70405400  0.71787000  0.77198300  1
  O  O32  1  0.71072900  0.67939400  0.27383700  1
  O  O33  1  0.71385000  0.68721400  0.47104900  1
  O  O34  1  0.78289700  0.21278000  0.77193800  1
  O  O35  1  0.78464600  0.18198000  0.27921300  1
  O  O36  1  0.79424100  0.20426600  0.97657700  1
  O  O37  1  0.79519400  0.19994200  0.47376700  1
  O  O38  1  0.91233300  0.47355700  0.62562200  1
  O  O39  1  0.90392900  0.46984400  0.12254600  1
