# generated using pymatgen
data_VH8N2O5F
_symmetry_space_group_name_H-M   'P 1'
_cell_length_a   11.50642800
_cell_length_b   6.21026000
_cell_length_c   8.12439380
_cell_angle_alpha   89.66872274
_cell_angle_beta   90.00000000
_cell_angle_gamma   90.00000000
_symmetry_Int_Tables_number   1
_chemical_formula_structural   VH8N2O5F
_chemical_formula_sum   'V4 H32 N8 O20 F4'
_cell_volume   580.54249334
_cell_formula_units_Z   4
loop_
 _symmetry_equiv_pos_site_id
 _symmetry_equiv_pos_as_xyz
  1  'x, y, z'
loop_
 _atom_site_type_symbol
 _atom_site_label
 _atom_site_symmetry_multiplicity
 _atom_site_fract_x
 _atom_site_fract_y
 _atom_site_fract_z
 _atom_site_occupancy
  V  V0  1  0.25634500  0.20058200  0.95882700  1
  V  V1  1  0.75634500  0.79941800  0.54117300  1
  V  V2  1  0.74365500  0.79941800  0.04117300  1
  V  V3  1  0.24365500  0.20058200  0.45882700  1
  H  H4  1  0.47461600  0.73864900  0.72297700  1
  H  H5  1  0.97461600  0.26135100  0.77702300  1
  H  H6  1  0.52538400  0.26135100  0.27702300  1
  H  H7  1  0.02538400  0.73864900  0.22297700  1
  H  H8  1  0.33897000  0.81617800  0.66886300  1
  H  H9  1  0.83897000  0.18382200  0.83113700  1
  H  H10  1  0.66103000  0.18382200  0.33113700  1
  H  H11  1  0.16103000  0.81617800  0.16886300  1
  H  H12  1  0.36184900  0.67893700  0.84837100  1
  H  H13  1  0.86184900  0.32106300  0.65162900  1
  H  H14  1  0.63815100  0.32106300  0.15162900  1
  H  H15  1  0.13815100  0.67893700  0.34837100  1
  H  H16  1  0.37473800  0.55646800  0.66042900  1
  H  H17  1  0.87473800  0.44353200  0.83957100  1
  H  H18  1  0.62526200  0.44353200  0.33957100  1
  H  H19  1  0.12526200  0.55646800  0.16042900  1
  H  H20  1  0.49809500  0.77670800  0.13498600  1
  H  H21  1  0.99809500  0.22329200  0.36501400  1
  H  H22  1  0.50190500  0.22329200  0.86501400  1
  H  H23  1  0.00190500  0.77670800  0.63498600  1
  H  H24  1  0.49697300  0.80119600  0.34632500  1
  H  H25  1  0.99697300  0.19880400  0.15367500  1
  H  H26  1  0.50302700  0.19880400  0.65367500  1
  H  H27  1  0.00302700  0.80119600  0.84632500  1
  H  H28  1  0.39785300  0.64093500  0.25040400  1
  H  H29  1  0.89785300  0.35906500  0.24959600  1
  H  H30  1  0.60214700  0.35906500  0.74959600  1
  H  H31  1  0.10214700  0.64093500  0.75040400  1
  H  H32  1  0.38963200  0.91013600  0.22817800  1
  H  H33  1  0.88963200  0.08986400  0.27182200  1
  H  H34  1  0.61036800  0.08986400  0.77182200  1
  H  H35  1  0.11036800  0.91013600  0.72817800  1
  N  N36  1  0.38782100  0.69737400  0.72792500  1
  N  N37  1  0.88782100  0.30262600  0.77207500  1
  N  N38  1  0.61217900  0.30262600  0.27207500  1
  N  N39  1  0.11217900  0.69737400  0.22792500  1
  N  N40  1  0.44532100  0.78073100  0.24109400  1
  N  N41  1  0.94532100  0.21926900  0.25890600  1
  N  N42  1  0.55467900  0.21926900  0.75890600  1
  N  N43  1  0.05467900  0.78073100  0.74109400  1
  O  O44  1  0.35781300  0.42005400  0.03232300  1
  O  O45  1  0.85781300  0.57994600  0.46767700  1
  O  O46  1  0.64218700  0.57994600  0.96767700  1
  O  O47  1  0.14218700  0.42005400  0.53232300  1
  O  O48  1  0.13277900  0.40666900  0.96494300  1
  O  O49  1  0.63277900  0.59333100  0.53505700  1
  O  O50  1  0.86722100  0.59333100  0.03505700  1
  O  O51  1  0.36722100  0.40666900  0.46494300  1
  O  O52  1  0.08726300  0.18604800  0.96697600  1
  O  O53  1  0.58726300  0.81395200  0.53302400  1
  O  O54  1  0.91273700  0.81395200  0.03302400  1
  O  O55  1  0.41273700  0.18604800  0.46697600  1
  O  O56  1  0.28393000  0.18577000  0.75922700  1
  O  O57  1  0.78393000  0.81423000  0.74077300  1
  O  O58  1  0.71607000  0.81423000  0.24077300  1
  O  O59  1  0.21607000  0.18577000  0.25922700  1
  O  O60  1  0.41385600  0.20888300  0.04496100  1
  O  O61  1  0.91385600  0.79111700  0.45503900  1
  O  O62  1  0.58614400  0.79111700  0.95503900  1
  O  O63  1  0.08614400  0.20888300  0.54496100  1
  F  F64  1  0.25622700  0.89179500  0.00303600  1
  F  F65  1  0.75622700  0.10820500  0.49696400  1
  F  F66  1  0.74377300  0.10820500  0.99696400  1
  F  F67  1  0.24377300  0.89179500  0.50303600  1
