# generated using pymatgen
data_PuCoH24C4N6O13
_symmetry_space_group_name_H-M   'P 1'
_cell_length_a   8.27777297
_cell_length_b   8.55841983
_cell_length_c   14.60870248
_cell_angle_alpha   102.20258561
_cell_angle_beta   100.75694298
_cell_angle_gamma   107.32606356
_symmetry_Int_Tables_number   1
_chemical_formula_structural   PuCoH24C4N6O13
_chemical_formula_sum   'Pu2 Co2 H48 C8 N12 O26'
_cell_volume   930.47556592
_cell_formula_units_Z   2
loop_
 _symmetry_equiv_pos_site_id
 _symmetry_equiv_pos_as_xyz
  1  'x, y, z'
loop_
 _atom_site_type_symbol
 _atom_site_label
 _atom_site_symmetry_multiplicity
 _atom_site_fract_x
 _atom_site_fract_y
 _atom_site_fract_z
 _atom_site_occupancy
  Pu  Pu0  1  0.64023300  0.48777600  0.63548700  1
  Pu  Pu1  1  0.35976700  0.51222400  0.36451300  1
  Co  Co2  1  0.00000000  0.00000000  0.50000000  1
  Co  Co3  1  0.50000000  0.50000000  0.00000000  1
  H  H4  1  0.30501900  0.92502700  0.86190000  1
  H  H5  1  0.69498100  0.07497300  0.13810000  1
  H  H6  1  0.28171900  0.94714600  0.97074400  1
  H  H7  1  0.71828100  0.05285400  0.02925600  1
  H  H8  1  0.15290500  0.76350400  0.02828700  1
  H  H9  1  0.84709500  0.23649600  0.97171300  1
  H  H10  1  0.21388000  0.93396900  0.11232700  1
  H  H11  1  0.78612000  0.06603100  0.88767300  1
  H  H12  1  0.86390600  0.86548200  0.77112100  1
  H  H13  1  0.13609400  0.13451800  0.22887900  1
  H  H14  1  0.04034800  0.96864400  0.85255400  1
  H  H15  1  0.95965200  0.03135600  0.14744600  1
  H  H16  1  0.90913900  0.70764200  0.52660500  1
  H  H17  1  0.09086100  0.29235800  0.47339500  1
  H  H18  1  0.80325600  0.69375400  0.41630900  1
  H  H19  1  0.19674400  0.30624600  0.58369100  1
  H  H20  1  0.01025200  0.70307300  0.43662100  1
  H  H21  1  0.98974800  0.29692700  0.56337900  1
  H  H22  1  0.67681100  0.92536000  0.49120100  1
  H  H23  1  0.32318900  0.07464000  0.50879900  1
  H  H24  1  0.78162400  0.90860000  0.59437400  1
  H  H25  1  0.21837600  0.09140000  0.40562600  1
  H  H26  1  0.78991600  0.10181800  0.58220600  1
  H  H27  1  0.21008400  0.89818200  0.41779400  1
  H  H28  1  0.74668700  0.89111800  0.34988900  1
  H  H29  1  0.25331300  0.10888200  0.65011100  1
  H  H30  1  0.85068700  0.09161300  0.36113600  1
  H  H31  1  0.14931300  0.90838700  0.63886400  1
  H  H32  1  0.92971600  0.94247200  0.31529500  1
  H  H33  1  0.07028400  0.05752800  0.68470500  1
  H  H34  1  0.21716100  0.38909700  0.05039600  1
  H  H35  1  0.78283900  0.61090300  0.94960400  1
  H  H36  1  0.16916800  0.38632500  0.93419000  1
  H  H37  1  0.83083200  0.61367500  0.06581000  1
  H  H38  1  0.23559400  0.23567200  0.96660300  1
  H  H39  1  0.76440600  0.76432800  0.03339700  1
  H  H40  1  0.48642400  0.78077400  0.97946700  1
  H  H41  1  0.51357600  0.21922600  0.02053300  1
  H  H42  1  0.47007400  0.65967600  0.87082400  1
  H  H43  1  0.52992600  0.34032400  0.12917600  1
  H  H44  1  0.29687900  0.62700600  0.91582300  1
  H  H45  1  0.70312100  0.37299400  0.08417700  1
  H  H46  1  0.57516100  0.40600400  0.84106500  1
  H  H47  1  0.42483900  0.59399600  0.15893500  1
  H  H48  1  0.48283500  0.23508100  0.87407000  1
  H  H49  1  0.51716500  0.76491900  0.12593000  1
  H  H50  1  0.35963100  0.33459400  0.82502200  1
  H  H51  1  0.64036900  0.66540600  0.17497800  1
  C  C52  1  0.98071000  0.40208900  0.74616700  1
  C  C53  1  0.01929000  0.59791100  0.25383300  1
  C  C54  1  0.93906500  0.51376000  0.83117100  1
  C  C55  1  0.06093500  0.48624000  0.16882900  1
  C  C56  1  0.40697700  0.72820300  0.70700100  1
  C  C57  1  0.59302300  0.27179700  0.29299900  1
  C  C58  1  0.36848200  0.70216500  0.59511700  1
  C  C59  1  0.63151800  0.29783500  0.40488300  1
  N  N60  1  0.92352200  0.74810700  0.46622000  1
  N  N61  1  0.07647800  0.25189300  0.53378000  1
  N  N62  1  0.78854100  0.98339300  0.54775400  1
  N  N63  1  0.21145900  0.01660700  0.45224600  1
  N  N64  1  0.87044100  0.98076500  0.36714000  1
  N  N65  1  0.12955900  0.01923500  0.63286000  1
  N  N66  1  0.25322900  0.36319800  0.98660400  1
  N  N67  1  0.74677100  0.63680200  0.01339600  1
  N  N68  1  0.43138600  0.65841100  0.93416300  1
  N  N69  1  0.56861400  0.34158900  0.06583700  1
  N  N70  1  0.47745500  0.35201000  0.87112700  1
  N  N71  1  0.52254500  0.64799000  0.12887300  1
  O  O72  1  0.46886900  0.28799000  0.63071100  1
  O  O73  1  0.53113100  0.71201000  0.36928900  1
  O  O74  1  0.80864800  0.69192200  0.64210200  1
  O  O75  1  0.19135200  0.30807800  0.35789800  1
  O  O76  1  0.86969700  0.36240800  0.66280100  1
  O  O77  1  0.13030300  0.63759200  0.33719900  1
  O  O78  1  0.79154800  0.53669600  0.81107200  1
  O  O79  1  0.20845200  0.46330400  0.18892800  1
  O  O80  1  0.11129800  0.35805800  0.76304900  1
  O  O81  1  0.88870200  0.64194200  0.23695100  1
  O  O82  1  0.04865100  0.57149300  0.91294000  1
  O  O83  1  0.95134900  0.42850700  0.08706000  1
  O  O84  1  0.50926700  0.65496000  0.74150400  1
  O  O85  1  0.49073300  0.34504000  0.25849600  1
  O  O86  1  0.42046900  0.58715600  0.54859700  1
  O  O87  1  0.57953100  0.41284400  0.45140300  1
  O  O88  1  0.33521000  0.81509400  0.75295500  1
  O  O89  1  0.66479000  0.18490600  0.24704500  1
  O  O90  1  0.29266200  0.78518000  0.55614800  1
  O  O91  1  0.70733800  0.21482000  0.44385200  1
  O  O92  1  0.28071600  0.99963100  0.91558900  1
  O  O93  1  0.71928400  0.00036900  0.08441100  1
  O  O94  1  0.25691500  0.86377800  0.06667100  1
  O  O95  1  0.74308500  0.13622200  0.93332900  1
  O  O96  1  0.92779400  0.97604100  0.82019500  1
  O  O97  1  0.07220600  0.02395900  0.17980500  1
