# generated using pymatgen
data_Cr3H24C8(NO5)2
_symmetry_space_group_name_H-M   'P 1'
_cell_length_a   8.66782900
_cell_length_b   11.61453800
_cell_length_c   20.56256284
_cell_angle_alpha   75.95731139
_cell_angle_beta   90.00000000
_cell_angle_gamma   90.00000000
_symmetry_Int_Tables_number   1
_chemical_formula_structural   Cr3H24C8(NO5)2
_chemical_formula_sum   'Cr12 H96 C32 N8 O40'
_cell_volume   2008.22713584
_cell_formula_units_Z   4
loop_
 _symmetry_equiv_pos_site_id
 _symmetry_equiv_pos_as_xyz
  1  'x, y, z'
loop_
 _atom_site_type_symbol
 _atom_site_label
 _atom_site_symmetry_multiplicity
 _atom_site_fract_x
 _atom_site_fract_y
 _atom_site_fract_z
 _atom_site_occupancy
  Cr  Cr0  1  0.73520500  0.70341100  0.65970700  1
  Cr  Cr1  1  0.76479500  0.20341100  0.15970700  1
  Cr  Cr2  1  0.26479500  0.29658900  0.34029300  1
  Cr  Cr3  1  0.23520500  0.79658900  0.84029300  1
  Cr  Cr4  1  0.76436400  0.56398800  0.53791500  1
  Cr  Cr5  1  0.73563600  0.06398800  0.03791500  1
  Cr  Cr6  1  0.23563600  0.43601200  0.46208500  1
  Cr  Cr7  1  0.26436400  0.93601200  0.96208500  1
  Cr  Cr8  1  0.73809900  0.25968500  0.57943600  1
  Cr  Cr9  1  0.76190100  0.75968500  0.07943600  1
  Cr  Cr10  1  0.26190100  0.74031500  0.42056400  1
  Cr  Cr11  1  0.23809900  0.24031500  0.92056400  1
  H  H12  1  0.02317500  0.46300000  0.68335300  1
  H  H13  1  0.47682500  0.96300000  0.18335300  1
  H  H14  1  0.97682500  0.53700000  0.31664700  1
  H  H15  1  0.52317500  0.03700000  0.81664700  1
  H  H16  1  0.13738000  0.36789600  0.64605700  1
  H  H17  1  0.36262000  0.86789600  0.14605700  1
  H  H18  1  0.86262000  0.63210400  0.35394300  1
  H  H19  1  0.63738000  0.13210400  0.85394300  1
  H  H20  1  0.12098000  0.33804200  0.73629000  1
  H  H21  1  0.37902000  0.83804200  0.23629000  1
  H  H22  1  0.87902000  0.66195800  0.26371000  1
  H  H23  1  0.62098000  0.16195800  0.76371000  1
  H  H24  1  0.75012700  0.03286400  0.70290200  1
  H  H25  1  0.74987300  0.53286400  0.20290200  1
  H  H26  1  0.24987300  0.96713600  0.29709800  1
  H  H27  1  0.25012700  0.46713600  0.79709800  1
  H  H28  1  0.86012400  0.90787300  0.74877900  1
  H  H29  1  0.63987600  0.40787300  0.24877900  1
  H  H30  1  0.13987600  0.09212700  0.25122100  1
  H  H31  1  0.36012400  0.59212700  0.75122100  1
  H  H32  1  0.65297400  0.90605000  0.75420200  1
  H  H33  1  0.84702600  0.40605000  0.25420200  1
  H  H34  1  0.34702600  0.09395000  0.24579800  1
  H  H35  1  0.15297400  0.59395000  0.74579800  1
  H  H36  1  0.40802300  0.34315800  0.74536800  1
  H  H37  1  0.09197700  0.84315800  0.24536800  1
  H  H38  1  0.59197700  0.65684200  0.25463200  1
  H  H39  1  0.90802300  0.15684200  0.75463200  1
  H  H40  1  0.41036800  0.36484000  0.65540700  1
  H  H41  1  0.08963200  0.86484000  0.15540700  1
  H  H42  1  0.58963200  0.63516000  0.34459300  1
  H  H43  1  0.91036800  0.13516000  0.84459300  1
  H  H44  1  0.50933500  0.46704600  0.69353600  1
  H  H45  1  0.99066500  0.96704600  0.19353600  1
  H  H46  1  0.49066500  0.53295400  0.30646400  1
  H  H47  1  0.00933500  0.03295400  0.80646400  1
  H  H48  1  0.16497300  0.63254300  0.62511400  1
  H  H49  1  0.33502700  0.13254300  0.12511400  1
  H  H50  1  0.83502700  0.36745700  0.37488600  1
  H  H51  1  0.66497300  0.86745700  0.87488600  1
  H  H52  1  0.37288300  0.63620000  0.63094800  1
  H  H53  1  0.12711700  0.13620000  0.13094800  1
  H  H54  1  0.62711700  0.36380000  0.36905200  1
  H  H55  1  0.87288300  0.86380000  0.86905200  1
  H  H56  1  0.28089600  0.54094700  0.58582500  1
  H  H57  1  0.21910400  0.04094700  0.08582500  1
  H  H58  1  0.71910400  0.45905300  0.41417500  1
  H  H59  1  0.78089600  0.95905300  0.91417500  1
  H  H60  1  0.00587400  0.98625000  0.60073000  1
  H  H61  1  0.49412600  0.48625000  0.10073000  1
  H  H62  1  0.99412600  0.01375000  0.39927000  1
  H  H63  1  0.50587400  0.51375000  0.89927000  1
  H  H64  1  0.11285100  0.87339800  0.57369500  1
  H  H65  1  0.38714900  0.37339800  0.07369500  1
  H  H66  1  0.88714900  0.12660200  0.42630500  1
  H  H67  1  0.61285100  0.62660200  0.92630500  1
  H  H68  1  0.10367400  0.87289300  0.66143400  1
  H  H69  1  0.39632600  0.37289300  0.16143400  1
  H  H70  1  0.89632600  0.12710700  0.33856600  1
  H  H71  1  0.60367400  0.62710700  0.83856600  1
  H  H72  1  0.39545200  0.87115500  0.58140100  1
  H  H73  1  0.10454800  0.37115500  0.08140100  1
  H  H74  1  0.60454800  0.12884500  0.41859900  1
  H  H75  1  0.89545200  0.62884500  0.91859900  1
  H  H76  1  0.49290800  0.98415100  0.61219100  1
  H  H77  1  0.00709200  0.48415100  0.11219100  1
  H  H78  1  0.50709200  0.01584900  0.38780900  1
  H  H79  1  0.99290800  0.51584900  0.88780900  1
  H  H80  1  0.38258300  0.87267900  0.66870500  1
  H  H81  1  0.11741700  0.37267900  0.16870500  1
  H  H82  1  0.61741700  0.12732100  0.33129500  1
  H  H83  1  0.88258300  0.62732100  0.83129500  1
  H  H84  1  0.22948300  0.02703600  0.70091500  1
  H  H85  1  0.27051700  0.52703600  0.20091500  1
  H  H86  1  0.77051700  0.97296400  0.29908500  1
  H  H87  1  0.72948300  0.47296400  0.79908500  1
  H  H88  1  0.35008100  0.13458700  0.64572100  1
  H  H89  1  0.14991900  0.63458700  0.14572100  1
  H  H90  1  0.64991900  0.86541300  0.35427900  1
  H  H91  1  0.85008100  0.36541300  0.85427900  1
  H  H92  1  0.14252600  0.14301500  0.63678100  1
  H  H93  1  0.35747400  0.64301500  0.13678100  1
  H  H94  1  0.85747400  0.85698500  0.36321900  1
  H  H95  1  0.64252600  0.35698500  0.86321900  1
  H  H96  1  0.73176000  0.97999700  0.50250400  1
  H  H97  1  0.76824000  0.47999700  0.00250400  1
  H  H98  1  0.26824000  0.02000300  0.49749600  1
  H  H99  1  0.23176000  0.52000300  0.99749600  1
  H  H100  1  0.64092400  0.86236300  0.47298500  1
  H  H101  1  0.85907600  0.36236300  0.97298500  1
  H  H102  1  0.35907600  0.13763700  0.52701500  1
  H  H103  1  0.14092400  0.63763700  0.02701500  1
  H  H104  1  0.84661600  0.86756400  0.47921600  1
  H  H105  1  0.65338400  0.36756400  0.97921600  1
  H  H106  1  0.15338400  0.13243600  0.52078400  1
  H  H107  1  0.34661600  0.63243600  0.02078400  1
  C  C108  1  0.12636500  0.40697200  0.68929700  1
  C  C109  1  0.37363500  0.90697200  0.18929700  1
  C  C110  1  0.87363500  0.59302800  0.31070300  1
  C  C111  1  0.62636500  0.09302800  0.81070300  1
  C  C112  1  0.75636400  0.96184000  0.74889400  1
  C  C113  1  0.74363600  0.46184000  0.24889400  1
  C  C114  1  0.24363600  0.03816000  0.25110600  1
  C  C115  1  0.25636400  0.53816000  0.75110600  1
  C  C116  1  0.40880700  0.40872700  0.69693400  1
  C  C117  1  0.09119300  0.90872700  0.19693400  1
  C  C118  1  0.59119300  0.59127300  0.30306600  1
  C  C119  1  0.90880700  0.09127300  0.80306600  1
  C  C120  1  0.27164600  0.58103600  0.62860200  1
  C  C121  1  0.22835400  0.08103600  0.12860200  1
  C  C122  1  0.72835400  0.41896400  0.37139800  1
  C  C123  1  0.77164600  0.91896400  0.87139800  1
  C  C124  1  0.10732600  0.92840700  0.61006500  1
  C  C125  1  0.39267400  0.42840700  0.11006500  1
  C  C126  1  0.89267400  0.07159300  0.38993500  1
  C  C127  1  0.60732600  0.57159300  0.88993500  1
  C  C128  1  0.39069600  0.92720900  0.61724400  1
  C  C129  1  0.10930400  0.42720900  0.11724400  1
  C  C130  1  0.60930400  0.07279100  0.38275600  1
  C  C131  1  0.89069600  0.57279100  0.88275600  1
  C  C132  1  0.24226800  0.08381500  0.65016400  1
  C  C133  1  0.25773200  0.58381500  0.15016400  1
  C  C134  1  0.75773200  0.91618500  0.34983600  1
  C  C135  1  0.74226800  0.41618500  0.84983600  1
  C  C136  1  0.74139800  0.92096000  0.46848000  1
  C  C137  1  0.75860200  0.42096000  0.96848000  1
  C  C138  1  0.25860200  0.07904000  0.53152000  1
  C  C139  1  0.24139800  0.57904000  0.03152000  1
  N  N140  1  0.26557900  0.48341800  0.69180100  1
  N  N141  1  0.23442100  0.98341800  0.19180100  1
  N  N142  1  0.73442100  0.51658200  0.30819900  1
  N  N143  1  0.76557900  0.01658200  0.80819900  1
  N  N144  1  0.75026000  0.99540800  0.39774200  1
  N  N145  1  0.74974000  0.49540800  0.89774200  1
  N  N146  1  0.24974000  0.00459200  0.60225800  1
  N  N147  1  0.25026000  0.50459200  0.10225800  1
  O  O148  1  0.75948200  0.84353400  0.62465400  1
  O  O149  1  0.74051800  0.34353400  0.12465400  1
  O  O150  1  0.24051800  0.15646600  0.37534600  1
  O  O151  1  0.25948200  0.65646600  0.87534600  1
  O  O152  1  0.59859900  0.68490900  0.71589900  1
  O  O153  1  0.90140100  0.18490900  0.21589900  1
  O  O154  1  0.40140100  0.31509100  0.28410100  1
  O  O155  1  0.09859900  0.81509100  0.78410100  1
  O  O156  1  0.67097800  0.62831800  0.59566400  1
  O  O157  1  0.82902200  0.12831800  0.09566400  1
  O  O158  1  0.32902200  0.37168200  0.40433600  1
  O  O159  1  0.17097800  0.87168200  0.90433600  1
  O  O160  1  0.72191800  0.63662400  0.46277900  1
  O  O161  1  0.77808200  0.13662400  0.96277900  1
  O  O162  1  0.27808200  0.36337600  0.53722100  1
  O  O163  1  0.22191800  0.86337600  0.03722100  1
  O  O164  1  0.59649800  0.20601000  0.63009100  1
  O  O165  1  0.90350200  0.70601000  0.13009100  1
  O  O166  1  0.40350200  0.79399000  0.36990900  1
  O  O167  1  0.09649800  0.29399000  0.86990900  1
  O  O168  1  0.70271200  0.41875000  0.54893400  1
  O  O169  1  0.79728800  0.91875000  0.04893400  1
  O  O170  1  0.29728800  0.58125000  0.45106600  1
  O  O171  1  0.20271200  0.08125000  0.95106600  1
  O  O172  1  0.90036200  0.23304300  0.61990800  1
  O  O173  1  0.59963800  0.73304300  0.11990800  1
  O  O174  1  0.09963800  0.76695700  0.38009200  1
  O  O175  1  0.40036200  0.26695700  0.88009200  1
  O  O176  1  0.89498500  0.64455500  0.69376500  1
  O  O177  1  0.60501500  0.14455500  0.19376500  1
  O  O178  1  0.10501500  0.35544500  0.30623500  1
  O  O179  1  0.39498500  0.85544500  0.80623500  1
  O  O180  1  0.94622300  0.56998400  0.54911300  1
  O  O181  1  0.55377700  0.06998400  0.04911300  1
  O  O182  1  0.05377700  0.43001600  0.45088700  1
  O  O183  1  0.44622300  0.93001600  0.95088700  1
  O  O184  1  0.73796500  0.20101800  0.51502200  1
  O  O185  1  0.76203500  0.70101800  0.01502200  1
  O  O186  1  0.26203500  0.79898200  0.48497800  1
  O  O187  1  0.23796500  0.29898200  0.98497800  1
