# generated using pymatgen
data_CrH12N3(OF2)3
_symmetry_space_group_name_H-M   'P 1'
_cell_length_a   6.86241800
_cell_length_b   7.10065833
_cell_length_c   9.53353051
_cell_angle_alpha   80.23057933
_cell_angle_beta   82.82832006
_cell_angle_gamma   69.34562514
_symmetry_Int_Tables_number   1
_chemical_formula_structural   CrH12N3(OF2)3
_chemical_formula_sum   'Cr2 H24 N6 O6 F12'
_cell_volume   427.31942957
_cell_formula_units_Z   2
loop_
 _symmetry_equiv_pos_site_id
 _symmetry_equiv_pos_as_xyz
  1  'x, y, z'
loop_
 _atom_site_type_symbol
 _atom_site_label
 _atom_site_symmetry_multiplicity
 _atom_site_fract_x
 _atom_site_fract_y
 _atom_site_fract_z
 _atom_site_occupancy
  Cr  Cr0  1  0.50000000  0.50000000  0.50000000  1
  Cr  Cr1  1  0.00000000  0.00000000  0.00000000  1
  H  H2  1  0.28015000  0.90632400  0.64407700  1
  H  H3  1  0.71985000  0.09367600  0.35592300  1
  H  H4  1  0.22669600  0.16155700  0.62766200  1
  H  H5  1  0.77330400  0.83844300  0.37233800  1
  H  H6  1  0.03091600  0.06968200  0.62825000  1
  H  H7  1  0.96908400  0.93031800  0.37175000  1
  H  H8  1  0.33396900  0.93399600  0.42224200  1
  H  H9  1  0.66603100  0.06600400  0.57775800  1
  H  H10  1  0.88074400  0.69393300  0.80865900  1
  H  H11  1  0.11925600  0.30606700  0.19134100  1
  H  H12  1  0.76049100  0.56971600  0.72804300  1
  H  H13  1  0.23950900  0.43028400  0.27195700  1
  H  H14  1  0.09888900  0.53784200  0.62568700  1
  H  H15  1  0.90111100  0.46215800  0.37431300  1
  H  H16  1  0.88305900  0.45849200  0.88715500  1
  H  H17  1  0.11694100  0.54150800  0.11284500  1
  H  H18  1  0.59186700  0.19091800  0.85955500  1
  H  H19  1  0.40813300  0.80908200  0.14044500  1
  H  H20  1  0.33765200  0.19125000  0.90260700  1
  H  H21  1  0.66234800  0.80875000  0.09739300  1
  H  H22  1  0.39060400  0.51560500  0.81340400  1
  H  H23  1  0.60939600  0.48439500  0.18659600  1
  H  H24  1  0.50189200  0.18967000  0.02669100  1
  H  H25  1  0.49810800  0.81033000  0.97330900  1
  N  N26  1  0.18693400  0.04732300  0.59621600  1
  N  N27  1  0.81306600  0.95267700  0.40378400  1
  N  N28  1  0.88275400  0.55479500  0.78788000  1
  N  N29  1  0.11724600  0.44520500  0.21212000  1
  N  N30  1  0.45258200  0.24535000  0.92424900  1
  N  N31  1  0.54741800  0.75465000  0.07575100  1
  O  O32  1  0.21268300  0.06084300  0.44505000  1
  O  O33  1  0.78731700  0.93915700  0.55495000  1
  O  O34  1  0.07662600  0.45244600  0.71926500  1
  O  O35  1  0.92337400  0.54755400  0.28073500  1
  O  O36  1  0.37604500  0.45868500  0.91596700  1
  O  O37  1  0.62395500  0.54131500  0.08403300  1
  F  F38  1  0.80032800  0.39389000  0.51609400  1
  F  F39  1  0.19967200  0.60611000  0.48390600  1
  F  F40  1  0.51907500  0.74888700  0.38203400  1
  F  F41  1  0.48092500  0.25111300  0.61796600  1
  F  F42  1  0.54012500  0.35844800  0.33246100  1
  F  F43  1  0.45987500  0.64155200  0.66753900  1
  F  F44  1  0.84521700  0.07227400  0.82654700  1
  F  F45  1  0.15478300  0.92772600  0.17345300  1
  F  F46  1  0.00964000  0.72519700  0.99609400  1
  F  F47  1  0.99036000  0.27480300  0.00390600  1
  F  F48  1  0.73430300  0.03648700  0.11890000  1
  F  F49  1  0.26569700  0.96351300  0.88110000  1
