# generated using pymatgen
data_MnZn2Si(HO3)2
_symmetry_space_group_name_H-M   'P 1'
_cell_length_a   5.31766200
_cell_length_b   8.89154600
_cell_length_c   11.66706966
_cell_angle_alpha   80.71893950
_cell_angle_beta   90.00000000
_cell_angle_gamma   90.00000000
_symmetry_Int_Tables_number   1
_chemical_formula_structural   MnZn2Si(HO3)2
_chemical_formula_sum   'Mn4 Zn8 Si4 H8 O24'
_cell_volume   544.42360270
_cell_formula_units_Z   4
loop_
 _symmetry_equiv_pos_site_id
 _symmetry_equiv_pos_as_xyz
  1  'x, y, z'
loop_
 _atom_site_type_symbol
 _atom_site_label
 _atom_site_symmetry_multiplicity
 _atom_site_fract_x
 _atom_site_fract_y
 _atom_site_fract_z
 _atom_site_occupancy
  Mn  Mn0  1  0.85948600  0.01026700  0.61066700  1
  Mn  Mn1  1  0.35948600  0.48973300  0.38933300  1
  Mn  Mn2  1  0.14051400  0.98973300  0.38933300  1
  Mn  Mn3  1  0.64051400  0.51026700  0.61066700  1
  Zn  Zn4  1  0.61063900  0.58878700  0.10608400  1
  Zn  Zn5  1  0.11063900  0.91121300  0.89391600  1
  Zn  Zn6  1  0.38936100  0.41121300  0.89391600  1
  Zn  Zn7  1  0.88936100  0.08878700  0.10608400  1
  Zn  Zn8  1  0.64459600  0.80505900  0.33040400  1
  Zn  Zn9  1  0.14459600  0.69494100  0.66959600  1
  Zn  Zn10  1  0.35540400  0.19494100  0.66959600  1
  Zn  Zn11  1  0.85540400  0.30505900  0.33040400  1
  Si  Si12  1  0.66164500  0.69284000  0.84498600  1
  Si  Si13  1  0.16164500  0.80716000  0.15501400  1
  Si  Si14  1  0.33835500  0.30716000  0.15501400  1
  Si  Si15  1  0.83835500  0.19284000  0.84498600  1
  H  H16  1  0.87153900  0.55469000  0.38472800  1
  H  H17  1  0.37153900  0.94531000  0.61527200  1
  H  H18  1  0.12846100  0.44531000  0.61527200  1
  H  H19  1  0.62846100  0.05469000  0.38472800  1
  H  H20  1  0.40905400  0.09152700  0.07560100  1
  H  H21  1  0.90905400  0.40847300  0.92439900  1
  H  H22  1  0.59094600  0.90847300  0.92439900  1
  H  H23  1  0.09094600  0.59152700  0.07560100  1
  O  O24  1  0.52029200  0.37718000  0.24802000  1
  O  O25  1  0.02029200  0.12282000  0.75198000  1
  O  O26  1  0.47970800  0.62282000  0.75198000  1
  O  O27  1  0.97970800  0.87718000  0.24802000  1
  O  O28  1  0.49574200  0.99609500  0.66414400  1
  O  O29  1  0.99574200  0.50390500  0.33585600  1
  O  O30  1  0.50425800  0.00390500  0.33585600  1
  O  O31  1  0.00425800  0.49609500  0.66414400  1
  O  O32  1  0.51131300  0.18245300  0.09255800  1
  O  O33  1  0.01131300  0.31754700  0.90744200  1
  O  O34  1  0.48868700  0.81754700  0.90744200  1
  O  O35  1  0.98868700  0.68245300  0.09255800  1
  O  O36  1  0.57356000  0.27724400  0.80030200  1
  O  O37  1  0.07356000  0.22275600  0.19969800  1
  O  O38  1  0.42644000  0.72275600  0.19969800  1
  O  O39  1  0.92644000  0.77724400  0.80030200  1
  O  O40  1  0.63825000  0.62530100  0.44114900  1
  O  O41  1  0.13825000  0.87469900  0.55885100  1
  O  O42  1  0.36175000  0.37469900  0.55885100  1
  O  O43  1  0.86175000  0.12530100  0.44114900  1
  O  O44  1  0.71289000  0.54112700  0.94575600  1
  O  O45  1  0.21289000  0.95887300  0.05424400  1
  O  O46  1  0.28711000  0.45887300  0.05424400  1
  O  O47  1  0.78711000  0.04112700  0.94575600  1
