# generated using pymatgen
data_NiH44C12N8(ClO5)2
_symmetry_space_group_name_H-M   'P 1'
_cell_length_a   9.39967666
_cell_length_b   9.44952503
_cell_length_c   9.50482452
_cell_angle_alpha   119.55337591
_cell_angle_beta   93.94873921
_cell_angle_gamma   101.19505500
_symmetry_Int_Tables_number   1
_chemical_formula_structural   NiH44C12N8(ClO5)2
_chemical_formula_sum   'Ni1 H44 C12 N8 Cl2 O10'
_cell_volume   706.89571082
_cell_formula_units_Z   1
loop_
 _symmetry_equiv_pos_site_id
 _symmetry_equiv_pos_as_xyz
  1  'x, y, z'
loop_
 _atom_site_type_symbol
 _atom_site_label
 _atom_site_symmetry_multiplicity
 _atom_site_fract_x
 _atom_site_fract_y
 _atom_site_fract_z
 _atom_site_occupancy
  Ni  Ni0  1  0.00000000  0.00000000  0.00000000  1
  H  H1  1  0.86351100  0.89595600  0.18696500  1
  H  H2  1  0.13648900  0.10404400  0.81303500  1
  H  H3  1  0.80657800  0.05417800  0.22019000  1
  H  H4  1  0.19342200  0.94582200  0.77981000  1
  H  H5  1  0.87634300  0.73737100  0.67925900  1
  H  H6  1  0.12365700  0.26262900  0.32074100  1
  H  H7  1  0.80742100  0.68680600  0.80330400  1
  H  H8  1  0.19257900  0.31319400  0.19669600  1
  H  H9  1  0.79691500  0.08812600  0.85473000  1
  H  H10  1  0.20308500  0.91187400  0.14527000  1
  H  H11  1  0.88110600  0.24922000  0.02919800  1
  H  H12  1  0.11889400  0.75078000  0.97080200  1
  H  H13  1  0.54816600  0.98838800  0.67248300  1
  H  H14  1  0.45183400  0.01161200  0.32751700  1
  H  H15  1  0.66754300  0.09480500  0.62895200  1
  H  H16  1  0.33245700  0.90519500  0.37104800  1
  H  H17  1  0.58843500  0.49990700  0.77731900  1
  H  H18  1  0.41156500  0.50009300  0.22268100  1
  H  H19  1  0.70440800  0.41010500  0.68056800  1
  H  H20  1  0.29559200  0.58989500  0.31943200  1
  H  H21  1  0.98529800  0.44761600  0.62544700  1
  H  H22  1  0.01470200  0.55238400  0.37455300  1
  H  H23  1  0.14373500  0.59263000  0.63009200  1
  H  H24  1  0.85626500  0.40737000  0.36990800  1
  H  H25  1  0.36205000  0.50667700  0.56169600  1
  H  H26  1  0.63795000  0.49332300  0.43830400  1
  H  H27  1  0.36983500  0.29506800  0.49925500  1
  H  H28  1  0.63016500  0.70493200  0.50074500  1
  H  H29  1  0.36145800  0.64005300  0.99080700  1
  H  H30  1  0.63854200  0.35994700  0.00919300  1
  H  H31  1  0.36143600  0.70297000  0.84042800  1
  H  H32  1  0.63856400  0.29703000  0.15957200  1
  H  H33  1  0.99206300  0.16913300  0.54552100  1
  H  H34  1  0.00793700  0.83086700  0.45447900  1
  H  H35  1  0.15712500  0.10181600  0.49213800  1
  H  H36  1  0.84287500  0.89818400  0.50786200  1
  H  H37  1  0.36885500  0.35808200  0.90991700  1
  H  H38  1  0.63114500  0.64191800  0.09008300  1
  H  H39  1  0.37182500  0.20989700  0.69948200  1
  H  H40  1  0.62817500  0.79010300  0.30051800  1
  H  H41  1  0.15097300  0.44837000  0.98211300  1
  H  H42  1  0.84902700  0.55163000  0.01788700  1
  H  H43  1  0.98897900  0.36650600  0.82491800  1
  H  H44  1  0.01102100  0.63349400  0.17508200  1
  C  C45  1  0.10650800  0.48896200  0.65205400  1
  C  C46  1  0.89349200  0.51103800  0.34794600  1
  C  C47  1  0.32620000  0.40068900  0.58084500  1
  C  C48  1  0.67380000  0.59931100  0.41915500  1
  C  C49  1  0.32318900  0.59865100  0.86140800  1
  C  C50  1  0.67681100  0.40134900  0.13859200  1
  C  C51  1  0.11353700  0.20761500  0.57291100  1
  C  C52  1  0.88646300  0.79238500  0.42708900  1
  C  C53  1  0.32937800  0.31675800  0.78082300  1
  C  C54  1  0.67062200  0.68324200  0.21917700  1
  C  C55  1  0.11022700  0.40700300  0.85337500  1
  C  C56  1  0.88977300  0.59299700  0.14662500  1
  N  N57  1  0.16300800  0.34528500  0.54055400  1
  N  N58  1  0.83699200  0.65471500  0.45944600  1
  N  N59  1  0.38422100  0.45754400  0.75406700  1
  N  N60  1  0.61577900  0.54245600  0.24593300  1
  N  N61  1  0.15976100  0.54899400  0.82687800  1
  N  N62  1  0.84023900  0.45100600  0.17312200  1
  N  N63  1  0.16621700  0.26116600  0.74595400  1
  N  N64  1  0.83378300  0.73883400  0.25404600  1
  Cl  Cl65  1  0.68890500  0.17555600  0.44141100  1
  Cl  Cl66  1  0.31109500  0.82444400  0.55858900  1
  O  O67  1  0.84730300  0.96543600  0.13855000  1
  O  O68  1  0.15269700  0.03456400  0.86145000  1
  O  O69  1  0.88365000  0.77284000  0.79782200  1
  O  O70  1  0.11635000  0.22716000  0.20217800  1
  O  O71  1  0.88906100  0.13805300  0.93940100  1
  O  O72  1  0.11093900  0.86194700  0.06059900  1
  O  O73  1  0.65268100  0.05365300  0.70579200  1
  O  O74  1  0.34731900  0.94634700  0.29420800  1
  O  O75  1  0.69733600  0.51086200  0.78277700  1
  O  O76  1  0.30266400  0.48913800  0.21722300  1
