# generated using pymatgen
data_CoH12SO10
_symmetry_space_group_name_H-M   'P 1'
_cell_length_a   6.21037279
_cell_length_b   6.21037279
_cell_length_c   24.79430029
_cell_angle_alpha   82.78866899
_cell_angle_beta   82.78866899
_cell_angle_gamma   73.04003097
_symmetry_Int_Tables_number   1
_chemical_formula_structural   CoH12SO10
_chemical_formula_sum   'Co4 H48 S4 O40'
_cell_volume   903.46733540
_cell_formula_units_Z   4
loop_
 _symmetry_equiv_pos_site_id
 _symmetry_equiv_pos_as_xyz
  1  'x, y, z'
loop_
 _atom_site_type_symbol
 _atom_site_label
 _atom_site_symmetry_multiplicity
 _atom_site_fract_x
 _atom_site_fract_y
 _atom_site_fract_z
 _atom_site_occupancy
  Co  Co0  1  0.00000000  0.00000000  0.50000000  1
  Co  Co1  1  0.00000000  0.00000000  0.00000000  1
  Co  Co2  1  0.98368400  0.01631600  0.75000000  1
  Co  Co3  1  0.01631600  0.98368400  0.25000000  1
  H  H4  1  0.02487400  0.65842600  0.57983300  1
  H  H5  1  0.34157400  0.97512600  0.92016700  1
  H  H6  1  0.97512600  0.34157400  0.42016700  1
  H  H7  1  0.65842600  0.02487400  0.07983300  1
  H  H8  1  0.28113100  0.64822000  0.55731000  1
  H  H9  1  0.35178000  0.71886900  0.94269000  1
  H  H10  1  0.71886900  0.35178000  0.44269000  1
  H  H11  1  0.64822000  0.28113100  0.05731000  1
  H  H12  1  0.73001100  0.30687200  0.56675300  1
  H  H13  1  0.69312800  0.26998900  0.93324700  1
  H  H14  1  0.26998900  0.69312800  0.43324700  1
  H  H15  1  0.30687200  0.73001100  0.06675300  1
  H  H16  1  0.67268900  0.07261500  0.58435400  1
  H  H17  1  0.92738500  0.32731100  0.91564600  1
  H  H18  1  0.32731100  0.92738500  0.41564600  1
  H  H19  1  0.07261500  0.67268900  0.08435400  1
  H  H20  1  0.29614100  0.24696300  0.49720100  1
  H  H21  1  0.75303700  0.70385900  0.00279900  1
  H  H22  1  0.70385900  0.75303700  0.50279900  1
  H  H23  1  0.24696300  0.29614100  0.99720100  1
  H  H24  1  0.33045700  0.06825800  0.55150000  1
  H  H25  1  0.93174200  0.66954300  0.94850000  1
  H  H26  1  0.66954300  0.93174200  0.44850000  1
  H  H27  1  0.06825800  0.33045700  0.05150000  1
  H  H28  1  0.31215700  0.05349000  0.80231600  1
  H  H29  1  0.94651000  0.68784300  0.69768400  1
  H  H30  1  0.68784300  0.94651000  0.19768400  1
  H  H31  1  0.05349000  0.31215700  0.30231600  1
  H  H32  1  0.34677300  0.78942000  0.79919100  1
  H  H33  1  0.21058000  0.65322700  0.70080900  1
  H  H34  1  0.65322700  0.21058000  0.20080900  1
  H  H35  1  0.78942000  0.34677300  0.29919100  1
  H  H36  1  0.96260100  0.44825100  0.78075500  1
  H  H37  1  0.55174900  0.03739900  0.71924500  1
  H  H38  1  0.03739900  0.55174900  0.21924500  1
  H  H39  1  0.44825100  0.96260100  0.28075500  1
  H  H40  1  0.88935700  0.28318300  0.82919300  1
  H  H41  1  0.71681700  0.11064300  0.67080700  1
  H  H42  1  0.11064300  0.71681700  0.17080700  1
  H  H43  1  0.28318300  0.88935700  0.32919300  1
  H  H44  1  0.25074400  0.07698600  0.65556500  1
  H  H45  1  0.92301400  0.74925600  0.84443500  1
  H  H46  1  0.74925600  0.92301400  0.34443500  1
  H  H47  1  0.07698600  0.25074400  0.15556500  1
  H  H48  1  0.12705900  0.31473400  0.67921200  1
  H  H49  1  0.68526600  0.87294100  0.82078800  1
  H  H50  1  0.87294100  0.68526600  0.32078800  1
  H  H51  1  0.31473400  0.12705900  0.17921200  1
  S  S52  1  0.57841700  0.69128300  0.62234000  1
  S  S53  1  0.30871700  0.42158300  0.87766000  1
  S  S54  1  0.42158300  0.30871700  0.37766000  1
  S  S55  1  0.69128300  0.57841700  0.12234000  1
  O  O56  1  0.81417500  0.65087600  0.63573100  1
  O  O57  1  0.34912400  0.18582500  0.86426900  1
  O  O58  1  0.18582500  0.34912400  0.36426900  1
  O  O59  1  0.65087600  0.81417500  0.13573100  1
  O  O60  1  0.44592700  0.58872000  0.66598700  1
  O  O61  1  0.41128000  0.55407300  0.83401300  1
  O  O62  1  0.55407300  0.41128000  0.33401300  1
  O  O63  1  0.58872000  0.44592700  0.16598700  1
  O  O64  1  0.57883000  0.59907900  0.56903200  1
  O  O65  1  0.40092100  0.42117000  0.93096800  1
  O  O66  1  0.42117000  0.40092100  0.43096800  1
  O  O67  1  0.59907900  0.57883000  0.06903200  1
  O  O68  1  0.46874100  0.94621300  0.61433700  1
  O  O69  1  0.05378700  0.53125900  0.88566300  1
  O  O70  1  0.53125900  0.05378700  0.38566300  1
  O  O71  1  0.94621300  0.46874100  0.11433700  1
  O  O72  1  0.12602000  0.67993200  0.54653800  1
  O  O73  1  0.32006800  0.87398000  0.95346200  1
  O  O74  1  0.87398000  0.32006800  0.45346200  1
  O  O75  1  0.67993200  0.12602000  0.04653800  1
  O  O76  1  0.79777900  0.14000900  0.57043300  1
  O  O77  1  0.85999100  0.20222100  0.92956700  1
  O  O78  1  0.20222100  0.85999100  0.42956700  1
  O  O79  1  0.14000900  0.79777900  0.07043300  1
  O  O80  1  0.24672200  0.12389700  0.51887800  1
  O  O81  1  0.87610300  0.75327800  0.98112200  1
  O  O82  1  0.75327800  0.87610300  0.48112200  1
  O  O83  1  0.12389700  0.24672200  0.01887800  1
  O  O84  1  0.31517600  0.94136200  0.77683000  1
  O  O85  1  0.05863800  0.68482400  0.72317000  1
  O  O86  1  0.68482400  0.05863800  0.22317000  1
  O  O87  1  0.94136200  0.31517600  0.27683000  1
  O  O88  1  0.90337100  0.31634600  0.78960100  1
  O  O89  1  0.68365400  0.09662900  0.71039900  1
  O  O90  1  0.09662900  0.68365400  0.21039900  1
  O  O91  1  0.31634600  0.90337100  0.28960100  1
  O  O92  1  0.11473600  0.16277400  0.67817800  1
  O  O93  1  0.83722600  0.88526400  0.82182200  1
  O  O94  1  0.88526400  0.83722600  0.32182200  1
  O  O95  1  0.16277400  0.11473600  0.17817800  1
