# generated using pymatgen
data_Cs2KNa
_symmetry_space_group_name_H-M   'P 1'
_cell_length_a   16.04743451
_cell_length_b   16.04743451
_cell_length_c   16.04743451
_cell_angle_alpha   123.46081327
_cell_angle_beta   112.89583590
_cell_angle_gamma   93.41550278
_symmetry_Int_Tables_number   1
_chemical_formula_structural   Cs2KNa
_chemical_formula_sum   'Cs2 K1 Na1'
_cell_volume   2967.15175700
_cell_formula_units_Z   1
loop_
 _symmetry_equiv_pos_site_id
 _symmetry_equiv_pos_as_xyz
  1  'x, y, z'
loop_
 _atom_site_type_symbol
 _atom_site_label
 _atom_site_symmetry_multiplicity
 _atom_site_fract_x
 _atom_site_fract_y
 _atom_site_fract_z
 _atom_site_occupancy
  Cs  Cs0  1  0.76294800  0.00000000  0.76294800  1
  Cs  Cs1  1  0.23705200  0.00000000  0.23705200  1
  K  K2  1  0.50000000  0.00000000  0.50000000  1
  Na  Na3  1  0.00000000  0.00000000  0.00000000  1
