# generated using pymatgen
data_H12WN3O3F5
_symmetry_space_group_name_H-M   'P 1'
_cell_length_a   7.89576800
_cell_length_b   17.90604100
_cell_length_c   18.44195900
_cell_angle_alpha   90.00000000
_cell_angle_beta   90.00000000
_cell_angle_gamma   90.00000000
_symmetry_Int_Tables_number   1
_chemical_formula_structural   H12WN3O3F5
_chemical_formula_sum   'H96 W8 N24 O24 F40'
_cell_volume   2607.36004289
_cell_formula_units_Z   8
loop_
 _symmetry_equiv_pos_site_id
 _symmetry_equiv_pos_as_xyz
  1  'x, y, z'
loop_
 _atom_site_type_symbol
 _atom_site_label
 _atom_site_symmetry_multiplicity
 _atom_site_fract_x
 _atom_site_fract_y
 _atom_site_fract_z
 _atom_site_occupancy
  H  H0  1  0.22512200  0.76946200  0.33997000  1
  H  H1  1  0.77487800  0.26946200  0.16003000  1
  H  H2  1  0.27487800  0.23053800  0.83997000  1
  H  H3  1  0.72512200  0.73053800  0.66003000  1
  H  H4  1  0.77487800  0.23053800  0.66003000  1
  H  H5  1  0.22512200  0.73053800  0.83997000  1
  H  H6  1  0.72512200  0.76946200  0.16003000  1
  H  H7  1  0.27487800  0.26946200  0.33997000  1
  H  H8  1  0.38322600  0.67716000  0.27264700  1
  H  H9  1  0.61677400  0.17716000  0.22735300  1
  H  H10  1  0.11677400  0.32284000  0.77264700  1
  H  H11  1  0.88322600  0.82284000  0.72735300  1
  H  H12  1  0.61677400  0.32284000  0.72735300  1
  H  H13  1  0.38322600  0.82284000  0.77264700  1
  H  H14  1  0.88322600  0.67716000  0.22735300  1
  H  H15  1  0.11677400  0.17716000  0.27264700  1
  H  H16  1  0.31618800  0.80440400  0.26771800  1
  H  H17  1  0.68381200  0.30440400  0.23228200  1
  H  H18  1  0.18381200  0.19559600  0.76771800  1
  H  H19  1  0.81618800  0.69559600  0.73228200  1
  H  H20  1  0.68381200  0.19559600  0.73228200  1
  H  H21  1  0.31618800  0.69559600  0.76771800  1
  H  H22  1  0.81618800  0.80440400  0.23228200  1
  H  H23  1  0.18381200  0.30440400  0.26771800  1
  H  H24  1  0.42885400  0.78935500  0.34168800  1
  H  H25  1  0.57114600  0.28935500  0.15831200  1
  H  H26  1  0.07114600  0.21064500  0.84168800  1
  H  H27  1  0.92885400  0.71064500  0.65831200  1
  H  H28  1  0.57114600  0.21064500  0.65831200  1
  H  H29  1  0.42885400  0.71064500  0.84168800  1
  H  H30  1  0.92885400  0.78935500  0.15831200  1
  H  H31  1  0.07114600  0.28935500  0.34168800  1
  H  H32  1  0.24798200  0.76351800  0.08059400  1
  H  H33  1  0.75201800  0.26351800  0.41940600  1
  H  H34  1  0.25201800  0.23648200  0.58059400  1
  H  H35  1  0.74798200  0.73648200  0.91940600  1
  H  H36  1  0.75201800  0.23648200  0.91940600  1
  H  H37  1  0.24798200  0.73648200  0.58059400  1
  H  H38  1  0.74798200  0.76351800  0.41940600  1
  H  H39  1  0.25201800  0.26351800  0.08059400  1
  H  H40  1  0.01596800  0.94375500  0.04722000  1
  H  H41  1  0.98403200  0.44375500  0.45278000  1
  H  H42  1  0.48403200  0.05624500  0.54722000  1
  H  H43  1  0.51596800  0.55624500  0.95278000  1
  H  H44  1  0.98403200  0.05624500  0.95278000  1
  H  H45  1  0.01596800  0.55624500  0.54722000  1
  H  H46  1  0.51596800  0.94375500  0.45278000  1
  H  H47  1  0.48403200  0.44375500  0.04722000  1
  H  H48  1  0.50352800  0.87216600  0.12728100  1
  H  H49  1  0.49647200  0.37216600  0.37271900  1
  H  H50  1  0.99647200  0.12783400  0.62728100  1
  H  H51  1  0.00352800  0.62783400  0.87271900  1
  H  H52  1  0.49647200  0.12783400  0.87271900  1
  H  H53  1  0.50352800  0.62783400  0.62728100  1
  H  H54  1  0.00352800  0.87216600  0.37271900  1
  H  H55  1  0.99647200  0.37216600  0.12728100  1
  H  H56  1  0.20589700  0.01712800  0.86822600  1
  H  H57  1  0.79410300  0.51712800  0.63177400  1
  H  H58  1  0.29410300  0.98287200  0.36822600  1
  H  H59  1  0.70589700  0.48287200  0.13177400  1
  H  H60  1  0.79410300  0.98287200  0.13177400  1
  H  H61  1  0.20589700  0.48287200  0.36822600  1
  H  H62  1  0.70589700  0.01712800  0.63177400  1
  H  H63  1  0.29410300  0.51712800  0.86822600  1
  H  H64  1  0.28858200  0.54442600  0.30174400  1
  H  H65  1  0.71141800  0.04442600  0.19825600  1
  H  H66  1  0.21141800  0.45557400  0.80174400  1
  H  H67  1  0.78858200  0.95557400  0.69825600  1
  H  H68  1  0.71141800  0.45557400  0.69825600  1
  H  H69  1  0.28858200  0.95557400  0.80174400  1
  H  H70  1  0.78858200  0.54442600  0.19825600  1
  H  H71  1  0.21141800  0.04442600  0.30174400  1
  H  H72  1  0.38115900  0.63171100  0.19320700  1
  H  H73  1  0.61884100  0.13171100  0.30679300  1
  H  H74  1  0.11884100  0.36828900  0.69320700  1
  H  H75  1  0.88115900  0.86828900  0.80679300  1
  H  H76  1  0.61884100  0.36828900  0.80679300  1
  H  H77  1  0.38115900  0.86828900  0.69320700  1
  H  H78  1  0.88115900  0.63171100  0.30679300  1
  H  H79  1  0.11884100  0.13171100  0.19320700  1
  H  H80  1  0.38309700  0.53500600  0.38157700  1
  H  H81  1  0.61690300  0.03500600  0.11842300  1
  H  H82  1  0.11690300  0.46499400  0.88157700  1
  H  H83  1  0.88309700  0.96499400  0.61842300  1
  H  H84  1  0.61690300  0.46499400  0.61842300  1
  H  H85  1  0.38309700  0.96499400  0.88157700  1
  H  H86  1  0.88309700  0.53500600  0.11842300  1
  H  H87  1  0.11690300  0.03500600  0.38157700  1
  H  H88  1  0.38867600  0.46278600  0.32475300  1
  H  H89  1  0.61132400  0.96278600  0.17524700  1
  H  H90  1  0.11132400  0.53721400  0.82475300  1
  H  H91  1  0.88867600  0.03721400  0.67524700  1
  H  H92  1  0.61132400  0.53721400  0.67524700  1
  H  H93  1  0.38867600  0.03721400  0.82475300  1
  H  H94  1  0.88867600  0.46278600  0.17524700  1
  H  H95  1  0.11132400  0.96278600  0.32475300  1
  W  W96  1  0.23800000  0.60853800  0.01090700  1
  W  W97  1  0.76200000  0.10853800  0.48909300  1
  W  W98  1  0.26200000  0.39146200  0.51090700  1
  W  W99  1  0.73800000  0.89146200  0.98909300  1
  W  W100  1  0.76200000  0.39146200  0.98909300  1
  W  W101  1  0.23800000  0.89146200  0.51090700  1
  W  W102  1  0.73800000  0.60853800  0.48909300  1
  W  W103  1  0.26200000  0.10853800  0.01090700  1
  N  N104  1  0.33379800  0.76814400  0.30991200  1
  N  N105  1  0.66620200  0.26814400  0.19008800  1
  N  N106  1  0.16620200  0.23185600  0.80991200  1
  N  N107  1  0.83379800  0.73185600  0.69008800  1
  N  N108  1  0.66620200  0.23185600  0.69008800  1
  N  N109  1  0.33379800  0.73185600  0.80991200  1
  N  N110  1  0.83379800  0.76814400  0.19008800  1
  N  N111  1  0.16620200  0.26814400  0.30991200  1
  N  N112  1  0.39349300  0.62326100  0.24810400  1
  N  N113  1  0.60650700  0.12326100  0.25189600  1
  N  N114  1  0.10650700  0.37673900  0.74810400  1
  N  N115  1  0.89349300  0.87673900  0.75189600  1
  N  N116  1  0.60650700  0.37673900  0.75189600  1
  N  N117  1  0.39349300  0.87673900  0.74810400  1
  N  N118  1  0.89349300  0.62326100  0.25189600  1
  N  N119  1  0.10650700  0.12326100  0.24810400  1
  N  N120  1  0.31197500  0.50599200  0.34377800  1
  N  N121  1  0.68802500  0.00599200  0.15622200  1
  N  N122  1  0.18802500  0.49400800  0.84377800  1
  N  N123  1  0.81197500  0.99400800  0.65622200  1
  N  N124  1  0.68802500  0.49400800  0.65622200  1
  N  N125  1  0.31197500  0.99400800  0.84377800  1
  N  N126  1  0.81197500  0.50599200  0.15622200  1
  N  N127  1  0.18802500  0.00599200  0.34377800  1
  O  O128  1  0.09877800  0.63882600  0.94109300  1
  O  O129  1  0.90122200  0.13882600  0.55890700  1
  O  O130  1  0.40122200  0.36117400  0.44109300  1
  O  O131  1  0.59877800  0.86117400  0.05890700  1
  O  O132  1  0.90122200  0.36117400  0.05890700  1
  O  O133  1  0.09877800  0.86117400  0.44109300  1
  O  O134  1  0.59877800  0.63882600  0.55890700  1
  O  O135  1  0.40122200  0.13882600  0.94109300  1
  O  O136  1  0.40548300  0.57816500  0.94007900  1
  O  O137  1  0.59451700  0.07816500  0.55992100  1
  O  O138  1  0.09451700  0.42183500  0.44007900  1
  O  O139  1  0.90548300  0.92183500  0.05992100  1
  O  O140  1  0.59451700  0.42183500  0.05992100  1
  O  O141  1  0.40548300  0.92183500  0.44007900  1
  O  O142  1  0.90548300  0.57816500  0.55992100  1
  O  O143  1  0.09451700  0.07816500  0.94007900  1
  O  O144  1  0.32764700  0.68693300  0.05352000  1
  O  O145  1  0.67235300  0.18693300  0.44648000  1
  O  O146  1  0.17235300  0.31306700  0.55352000  1
  O  O147  1  0.82764700  0.81306700  0.94648000  1
  O  O148  1  0.67235300  0.31306700  0.94648000  1
  O  O149  1  0.32764700  0.81306700  0.55352000  1
  O  O150  1  0.82764700  0.68693300  0.44648000  1
  O  O151  1  0.17235300  0.18693300  0.05352000  1
  F  F152  1  0.04654500  0.58894300  0.07560200  1
  F  F153  1  0.95345500  0.08894300  0.42439800  1
  F  F154  1  0.45345500  0.41105700  0.57560200  1
  F  F155  1  0.54654500  0.91105700  0.92439800  1
  F  F156  1  0.95345500  0.41105700  0.92439800  1
  F  F157  1  0.04654500  0.91105700  0.57560200  1
  F  F158  1  0.54654500  0.58894300  0.42439800  1
  F  F159  1  0.45345500  0.08894300  0.07560200  1
  F  F160  1  0.07484100  0.60661200  0.24703400  1
  F  F161  1  0.92515900  0.10661200  0.25296600  1
  F  F162  1  0.42515900  0.39338800  0.74703400  1
  F  F163  1  0.57484100  0.89338800  0.75296600  1
  F  F164  1  0.92515900  0.39338800  0.75296600  1
  F  F165  1  0.07484100  0.89338800  0.74703400  1
  F  F166  1  0.57484100  0.60661200  0.25296600  1
  F  F167  1  0.42515900  0.10661200  0.24703400  1
  F  F168  1  0.18926000  0.80565200  0.10228900  1
  F  F169  1  0.81074000  0.30565200  0.39771100  1
  F  F170  1  0.31074000  0.19434800  0.60228900  1
  F  F171  1  0.68926000  0.69434800  0.89771100  1
  F  F172  1  0.81074000  0.19434800  0.89771100  1
  F  F173  1  0.18926000  0.69434800  0.60228900  1
  F  F174  1  0.68926000  0.80565200  0.39771100  1
  F  F175  1  0.31074000  0.30565200  0.10228900  1
  F  F176  1  0.31233700  0.51482600  0.05880400  1
  F  F177  1  0.68766300  0.01482600  0.44119600  1
  F  F178  1  0.18766300  0.48517400  0.55880400  1
  F  F179  1  0.81233700  0.98517400  0.94119600  1
  F  F180  1  0.68766300  0.48517400  0.94119600  1
  F  F181  1  0.31233700  0.98517400  0.55880400  1
  F  F182  1  0.81233700  0.51482600  0.44119600  1
  F  F183  1  0.18766300  0.01482600  0.05880400  1
  F  F184  1  0.96971600  0.88796900  0.32276000  1
  F  F185  1  0.03028400  0.38796900  0.17724000  1
  F  F186  1  0.53028400  0.11203100  0.82276000  1
  F  F187  1  0.46971600  0.61203100  0.67724000  1
  F  F188  1  0.03028400  0.11203100  0.67724000  1
  F  F189  1  0.96971600  0.61203100  0.82276000  1
  F  F190  1  0.46971600  0.88796900  0.17724000  1
  F  F191  1  0.53028400  0.38796900  0.32276000  1
