# generated using pymatgen
data_CoH8(ClO2)2
_symmetry_space_group_name_H-M   'P 1'
_cell_length_a   10.37952800
_cell_length_b   6.02168900
_cell_length_c   12.29002556
_cell_angle_alpha   83.44878456
_cell_angle_beta   90.00000000
_cell_angle_gamma   90.00000000
_symmetry_Int_Tables_number   1
_chemical_formula_structural   CoH8(ClO2)2
_chemical_formula_sum   'Co4 H32 Cl8 O16'
_cell_volume   763.13889279
_cell_formula_units_Z   4
loop_
 _symmetry_equiv_pos_site_id
 _symmetry_equiv_pos_as_xyz
  1  'x, y, z'
loop_
 _atom_site_type_symbol
 _atom_site_label
 _atom_site_symmetry_multiplicity
 _atom_site_fract_x
 _atom_site_fract_y
 _atom_site_fract_z
 _atom_site_occupancy
  Co  Co0  1  0.38827400  0.81146700  0.75497000  1
  Co  Co1  1  0.88827400  0.18853300  0.74503000  1
  Co  Co2  1  0.61172600  0.18853300  0.24503000  1
  Co  Co3  1  0.11172600  0.81146700  0.25497000  1
  H  H4  1  0.28294500  0.53310400  0.61156400  1
  H  H5  1  0.78294500  0.46689600  0.88843600  1
  H  H6  1  0.71705500  0.46689600  0.38843600  1
  H  H7  1  0.21705500  0.53310400  0.11156400  1
  H  H8  1  0.25106100  0.12488500  0.68803900  1
  H  H9  1  0.75106100  0.87511500  0.81196100  1
  H  H10  1  0.74893900  0.87511500  0.31196100  1
  H  H11  1  0.24893900  0.12488500  0.18803900  1
  H  H12  1  0.66470400  0.96857900  0.71187900  1
  H  H13  1  0.16470400  0.03142100  0.78812100  1
  H  H14  1  0.33529600  0.03142100  0.28812100  1
  H  H15  1  0.83529600  0.96857900  0.21187900  1
  H  H16  1  0.37776200  0.86843800  0.95655000  1
  H  H17  1  0.87776200  0.13156200  0.54345000  1
  H  H18  1  0.62223800  0.13156200  0.04345000  1
  H  H19  1  0.12223800  0.86843800  0.45655000  1
  H  H20  1  0.64184400  0.62785800  0.58252900  1
  H  H21  1  0.14184400  0.37214200  0.91747100  1
  H  H22  1  0.35815600  0.37214200  0.41747100  1
  H  H23  1  0.85815600  0.62785800  0.08252900  1
  H  H24  1  0.50243400  0.00479300  0.53023500  1
  H  H25  1  0.00243400  0.99520700  0.96976500  1
  H  H26  1  0.49756600  0.99520700  0.46976500  1
  H  H27  1  0.99756600  0.00479300  0.03023500  1
  H  H28  1  0.48972600  0.25567700  0.05883300  1
  H  H29  1  0.98972600  0.74432300  0.44116700  1
  H  H30  1  0.51027400  0.74432300  0.94116700  1
  H  H31  1  0.01027400  0.25567700  0.55883300  1
  H  H32  1  0.68460000  0.42082400  0.79448100  1
  H  H33  1  0.18460000  0.57917600  0.70551900  1
  H  H34  1  0.31540000  0.57917600  0.20551900  1
  H  H35  1  0.81540000  0.42082400  0.29448100  1
  Cl  Cl36  1  0.06862200  0.53120200  0.86292200  1
  Cl  Cl37  1  0.56862200  0.46879800  0.63707800  1
  Cl  Cl38  1  0.93137800  0.46879800  0.13707800  1
  Cl  Cl39  1  0.43137800  0.53120200  0.36292200  1
  Cl  Cl40  1  0.20794600  0.21510800  0.52286800  1
  Cl  Cl41  1  0.70794600  0.78489200  0.97713200  1
  Cl  Cl42  1  0.79205400  0.78489200  0.47713200  1
  Cl  Cl43  1  0.29205400  0.21510800  0.02286800  1
  O  O44  1  0.26808400  0.62388700  0.67257600  1
  O  O45  1  0.76808400  0.37611300  0.82742400  1
  O  O46  1  0.73191600  0.37611300  0.32742400  1
  O  O47  1  0.23191600  0.62388700  0.17257600  1
  O  O48  1  0.25933700  0.05559700  0.76572000  1
  O  O49  1  0.75933700  0.94440300  0.73428000  1
  O  O50  1  0.74066300  0.94440300  0.23428000  1
  O  O51  1  0.24066300  0.05559700  0.26572000  1
  O  O52  1  0.51832900  0.95480900  0.70869300  1
  O  O53  1  0.01832900  0.04519100  0.79130700  1
  O  O54  1  0.48167100  0.04519100  0.29130700  1
  O  O55  1  0.98167100  0.95480900  0.20869300  1
  O  O56  1  0.41665100  0.74609100  0.92083300  1
  O  O57  1  0.91665100  0.25390900  0.57916700  1
  O  O58  1  0.58334900  0.25390900  0.07916700  1
  O  O59  1  0.08334900  0.74609100  0.42083300  1
