# generated using pymatgen
data_MnHC3O4
_symmetry_space_group_name_H-M   'P 1'
_cell_length_a   9.29857510
_cell_length_b   9.29857510
_cell_length_c   14.09534700
_cell_angle_alpha   90.00000000
_cell_angle_beta   90.00000000
_cell_angle_gamma   119.99999362
_symmetry_Int_Tables_number   1
_chemical_formula_structural   MnHC3O4
_chemical_formula_sum   'Mn8 H8 C24 O32'
_cell_volume   1055.45382414
_cell_formula_units_Z   8
loop_
 _symmetry_equiv_pos_site_id
 _symmetry_equiv_pos_as_xyz
  1  'x, y, z'
loop_
 _atom_site_type_symbol
 _atom_site_label
 _atom_site_symmetry_multiplicity
 _atom_site_fract_x
 _atom_site_fract_y
 _atom_site_fract_z
 _atom_site_occupancy
  Mn  Mn0  1  0.66666700  0.33333300  0.89037800  1
  Mn  Mn1  1  0.33333300  0.66666700  0.10962200  1
  Mn  Mn2  1  0.84882700  0.29793100  0.70156600  1
  Mn  Mn3  1  0.44910400  0.15117300  0.70156600  1
  Mn  Mn4  1  0.70206900  0.55089600  0.70156600  1
  Mn  Mn5  1  0.15117300  0.70206900  0.29843400  1
  Mn  Mn6  1  0.55089600  0.84882700  0.29843400  1
  Mn  Mn7  1  0.29793100  0.44910400  0.29843400  1
  H  H8  1  0.63309500  0.05796700  0.81108600  1
  H  H9  1  0.42487200  0.36690500  0.81108600  1
  H  H10  1  0.94203300  0.57512800  0.81108600  1
  H  H11  1  0.36690500  0.94203300  0.18891400  1
  H  H12  1  0.57512800  0.63309500  0.18891400  1
  H  H13  1  0.05796700  0.42487200  0.18891400  1
  H  H14  1  0.66666700  0.33333300  0.56645500  1
  H  H15  1  0.33333300  0.66666700  0.43354500  1
  C  C16  1  0.81371600  0.31243900  0.96720200  1
  C  C17  1  0.49872300  0.18628400  0.96720200  1
  C  C18  1  0.68756100  0.50127700  0.96720200  1
  C  C19  1  0.18628400  0.68756100  0.03279800  1
  C  C20  1  0.50127700  0.81371600  0.03279800  1
  C  C21  1  0.31243900  0.49872300  0.03279800  1
  C  C22  1  0.00138100  0.27355700  0.77068900  1
  C  C23  1  0.27217500  0.99861900  0.77068900  1
  C  C24  1  0.72644300  0.72782500  0.77068900  1
  C  C25  1  0.99861900  0.72644300  0.22931100  1
  C  C26  1  0.72782500  0.00138100  0.22931100  1
  C  C27  1  0.27355700  0.27217500  0.22931100  1
  C  C28  1  0.81582700  0.11841100  0.63052400  1
  C  C29  1  0.30258500  0.18417300  0.63052400  1
  C  C30  1  0.88158900  0.69741500  0.63052400  1
  C  C31  1  0.18417300  0.88158900  0.36947600  1
  C  C32  1  0.69741500  0.81582700  0.36947600  1
  C  C33  1  0.11841100  0.30258500  0.36947600  1
  C  C34  1  0.01924600  0.43368300  0.62257000  1
  C  C35  1  0.41443700  0.98075400  0.62257000  1
  C  C36  1  0.56631700  0.58556300  0.62257000  1
  C  C37  1  0.98075400  0.56631700  0.37743000  1
  C  C38  1  0.58556300  0.01924600  0.37743000  1
  C  C39  1  0.43368300  0.41443700  0.37743000  1
  O  O40  1  0.64058500  0.15997400  0.78706600  1
  O  O41  1  0.51938900  0.35941500  0.78706600  1
  O  O42  1  0.84002600  0.48061100  0.78706600  1
  O  O43  1  0.35941500  0.84002600  0.21293400  1
  O  O44  1  0.48061100  0.64058500  0.21293400  1
  O  O45  1  0.15997400  0.51938900  0.21293400  1
  O  O46  1  0.66666700  0.33333300  0.63583800  1
  O  O47  1  0.33333300  0.66666700  0.36416200  1
  O  O48  1  0.90517400  0.30332100  0.01993300  1
  O  O49  1  0.39814700  0.09482600  0.01993300  1
  O  O50  1  0.69667900  0.60185300  0.01993300  1
  O  O51  1  0.09482600  0.69667900  0.98006700  1
  O  O52  1  0.60185300  0.90517400  0.98006700  1
  O  O53  1  0.30332100  0.39814700  0.98006700  1
  O  O54  1  0.10622600  0.26002400  0.80800400  1
  O  O55  1  0.15379900  0.89377400  0.80800400  1
  O  O56  1  0.73997600  0.84620100  0.80800400  1
  O  O57  1  0.89377400  0.73997600  0.19199600  1
  O  O58  1  0.84620100  0.10622600  0.19199600  1
  O  O59  1  0.26002400  0.15379900  0.19199600  1
  O  O60  1  0.79699800  0.00304100  0.58854300  1
  O  O61  1  0.20604300  0.20300200  0.58854300  1
  O  O62  1  0.99695900  0.79395700  0.58854300  1
  O  O63  1  0.20300200  0.99695900  0.41145700  1
  O  O64  1  0.79395700  0.79699800  0.41145700  1
  O  O65  1  0.00304100  0.20604300  0.41145700  1
  O  O66  1  0.13000800  0.51377800  0.57223400  1
  O  O67  1  0.38377000  0.86999200  0.57223400  1
  O  O68  1  0.48622200  0.61623000  0.57223400  1
  O  O69  1  0.86999200  0.48622200  0.42776600  1
  O  O70  1  0.61623000  0.13000800  0.42776600  1
  O  O71  1  0.51377800  0.38377000  0.42776600  1
