# generated using pymatgen
data_VH8C2NO3
_symmetry_space_group_name_H-M   'P 1'
_cell_length_a   7.55348900
_cell_length_b   11.01602860
_cell_length_c   14.51481059
_cell_angle_alpha   90.12053176
_cell_angle_beta   100.30127068
_cell_angle_gamma   91.59881071
_symmetry_Int_Tables_number   1
_chemical_formula_structural   VH8C2NO3
_chemical_formula_sum   'V8 H64 C16 N8 O24'
_cell_volume   1187.80796568
_cell_formula_units_Z   8
loop_
 _symmetry_equiv_pos_site_id
 _symmetry_equiv_pos_as_xyz
  1  'x, y, z'
loop_
 _atom_site_type_symbol
 _atom_site_label
 _atom_site_symmetry_multiplicity
 _atom_site_fract_x
 _atom_site_fract_y
 _atom_site_fract_z
 _atom_site_occupancy
  V  V0  1  0.66266000  0.08806200  0.82596000  1
  V  V1  1  0.33734000  0.91193800  0.17404000  1
  V  V2  1  0.69047900  0.40216400  0.83246800  1
  V  V3  1  0.30952100  0.59783600  0.16753200  1
  V  V4  1  0.81733000  0.58719900  0.67506100  1
  V  V5  1  0.18267000  0.41280100  0.32493900  1
  V  V6  1  0.85818200  0.90292100  0.69362000  1
  V  V7  1  0.14181800  0.09707900  0.30638000  1
  H  H8  1  0.13485700  0.54648300  0.84682100  1
  H  H9  1  0.86514300  0.45351700  0.15317900  1
  H  H10  1  0.34056900  0.51642000  0.90632200  1
  H  H11  1  0.65943100  0.48358000  0.09367800  1
  H  H12  1  0.17237600  0.54728200  0.96654700  1
  H  H13  1  0.82762400  0.45271800  0.03345300  1
  H  H14  1  0.25580600  0.93899000  0.62303100  1
  H  H15  1  0.74419400  0.06101000  0.37696900  1
  H  H16  1  0.29462000  0.96097300  0.51039400  1
  H  H17  1  0.70538000  0.03902700  0.48960600  1
  H  H18  1  0.47011700  0.94516200  0.59823800  1
  H  H19  1  0.52988300  0.05483800  0.40176200  1
  H  H20  1  0.08864300  0.01524200  0.86703100  1
  H  H21  1  0.91135700  0.98475800  0.13296900  1
  H  H22  1  0.27438500  0.00744500  0.95291700  1
  H  H23  1  0.72561500  0.99255500  0.04708300  1
  H  H24  1  0.29684700  0.03988200  0.84018500  1
  H  H25  1  0.70315300  0.96011800  0.15981500  1
  H  H26  1  0.40843600  0.46719000  0.66131800  1
  H  H27  1  0.59156400  0.53281000  0.33868200  1
  H  H28  1  0.25637000  0.43605700  0.56120700  1
  H  H29  1  0.74363000  0.56394300  0.43879300  1
  H  H30  1  0.18337000  0.48363100  0.66142000  1
  H  H31  1  0.81663000  0.51636900  0.33858000  1
  H  H32  1  0.15353100  0.75197900  0.89178900  1
  H  H33  1  0.84646900  0.24802100  0.10821100  1
  H  H34  1  0.35008400  0.72737200  0.97584500  1
  H  H35  1  0.64991600  0.27262800  0.02415500  1
  H  H36  1  0.44731600  0.81369700  0.82854800  1
  H  H37  1  0.55268400  0.18630300  0.17145200  1
  H  H38  1  0.50975800  0.65970500  0.84629000  1
  H  H39  1  0.49024200  0.34029500  0.15371000  1
  H  H40  1  0.31680600  0.69654600  0.76230200  1
  H  H41  1  0.68319400  0.30345400  0.23769800  1
  H  H42  1  0.39598500  0.74161000  0.62605800  1
  H  H43  1  0.60401500  0.25839000  0.37394200  1
  H  H44  1  0.18543500  0.75299400  0.55034000  1
  H  H45  1  0.81456500  0.24700600  0.44966000  1
  H  H46  1  0.40750900  0.64840400  0.46673500  1
  H  H47  1  0.59249100  0.35159600  0.53326500  1
  H  H48  1  0.56338300  0.77226800  0.49778600  1
  H  H49  1  0.43661700  0.22773200  0.50221400  1
  H  H50  1  0.36055200  0.79255800  0.41482900  1
  H  H51  1  0.63944800  0.20744200  0.58517100  1
  H  H52  1  0.33484000  0.22772800  0.92066600  1
  H  H53  1  0.66516100  0.77227200  0.07933400  1
  H  H54  1  0.11617300  0.22514200  0.85119600  1
  H  H55  1  0.88382700  0.77485800  0.14880400  1
  H  H56  1  0.20369300  0.15078700  0.05853800  1
  H  H57  1  0.79630700  0.84921300  0.94146200  1
  H  H58  1  0.11142700  0.29319100  0.01964200  1
  H  H59  1  0.88857300  0.70680900  0.98035800  1
  H  H60  1  0.98343100  0.15532200  0.99030100  1
  H  H61  1  0.01656900  0.84467800  0.00969900  1
  H  H62  1  0.37834400  0.25371300  0.65305900  1
  H  H63  1  0.62165600  0.74628700  0.34694100  1
  H  H64  1  0.27700500  0.30880100  0.74414000  1
  H  H65  1  0.72299500  0.69119900  0.25586000  1
  H  H66  1  0.05464000  0.16058600  0.65069400  1
  H  H67  1  0.94536000  0.83941400  0.34930600  1
  H  H68  1  0.08546000  0.23213900  0.54504500  1
  H  H69  1  0.91454000  0.76786100  0.45495500  1
  H  H70  1  0.97470100  0.30947800  0.62627900  1
  H  H71  1  0.02529900  0.69052200  0.37372100  1
  C  C72  1  0.27874700  0.70146300  0.90573900  1
  C  C73  1  0.72125300  0.29853700  0.09426100  1
  C  C74  1  0.39508400  0.72005400  0.83144500  1
  C  C75  1  0.60491600  0.27994600  0.16855500  1
  C  C76  1  0.32796800  0.78149000  0.56045100  1
  C  C77  1  0.67203200  0.21851000  0.43954900  1
  C  C78  1  0.41980000  0.74681100  0.47974900  1
  C  C79  1  0.58020000  0.25318900  0.52025100  1
  C  C80  1  0.20014100  0.18483600  0.91249400  1
  C  C81  1  0.79985900  0.81516400  0.08750600  1
  C  C82  1  0.11951200  0.19723600  0.00050900  1
  C  C83  1  0.88048800  0.80276400  0.99949100  1
  C  C84  1  0.26310900  0.30388500  0.66766300  1
  C  C85  1  0.73689100  0.69611500  0.33233700  1
  C  C86  1  0.08407300  0.24799700  0.61975200  1
  C  C87  1  0.91592700  0.75200300  0.38024800  1
  N  N88  1  0.22733800  0.56909300  0.90717900  1
  N  N89  1  0.77266200  0.43090700  0.09282100  1
  N  N90  1  0.33736300  0.91654700  0.57435400  1
  N  N91  1  0.66263700  0.08345300  0.42564600  1
  N  N92  1  0.21629500  0.05237500  0.89143100  1
  N  N93  1  0.78370500  0.94762500  0.10856900  1
  N  N94  1  0.28020200  0.43215300  0.63506800  1
  N  N95  1  0.71979800  0.56784700  0.36493200  1
  O  O96  1  0.46149000  0.04978700  0.76235800  1
  O  O97  1  0.53851000  0.95021300  0.23764200  1
  O  O98  1  0.65064100  0.07055300  0.93898400  1
  O  O99  1  0.34935900  0.92944700  0.06101600  1
  O  O100  1  0.72454000  0.24457600  0.80280600  1
  O  O101  1  0.27546000  0.75542400  0.19719400  1
  O  O102  1  0.83992100  0.98809600  0.80004600  1
  O  O103  1  0.16007900  0.01190400  0.19995400  1
  O  O104  1  0.50541300  0.41272000  0.88029600  1
  O  O105  1  0.49458700  0.58728000  0.11970400  1
  O  O106  1  0.86633600  0.45558100  0.90878400  1
  O  O107  1  0.13366400  0.54441900  0.09121600  1
  O  O108  1  0.65318500  0.49286000  0.72358100  1
  O  O109  1  0.34681500  0.50714000  0.27641900  1
  O  O110  1  0.77794800  0.56789900  0.55937300  1
  O  O111  1  0.22205200  0.43210100  0.44062700  1
  O  O112  1  0.02860500  0.54411700  0.71925700  1
  O  O113  1  0.97139500  0.45588300  0.28074300  1
  O  O114  1  0.78778400  0.74489800  0.70437400  1
  O  O115  1  0.21221600  0.25510200  0.29562600  1
  O  O116  1  0.72849700  0.96470600  0.59923000  1
  O  O117  1  0.27150300  0.03529400  0.40077000  1
  O  O118  1  0.07355000  0.91279800  0.68420600  1
  O  O119  1  0.92645000  0.08720200  0.31579400  1
