# generated using pymatgen
data_Ca12Mn8Si7(H5O16)3
_symmetry_space_group_name_H-M   'P 1'
_cell_length_a   11.55092900
_cell_length_b   11.56961202
_cell_length_c   12.13331476
_cell_angle_alpha   91.44858873
_cell_angle_beta   117.34753719
_cell_angle_gamma   119.20570187
_symmetry_Int_Tables_number   1
_chemical_formula_structural   Ca12Mn8Si7(H5O16)3
_chemical_formula_sum   'Ca12 Mn8 Si7 H15 O48'
_cell_volume   1190.33482949
_cell_formula_units_Z   1
loop_
 _symmetry_equiv_pos_site_id
 _symmetry_equiv_pos_as_xyz
  1  'x, y, z'
loop_
 _atom_site_type_symbol
 _atom_site_label
 _atom_site_symmetry_multiplicity
 _atom_site_fract_x
 _atom_site_fract_y
 _atom_site_fract_z
 _atom_site_occupancy
  Ca  Ca0  1  0.93745300  0.78400500  0.10669500  1
  Ca  Ca1  1  0.76840200  0.62223400  0.29525700  1
  Ca  Ca2  1  0.42399900  0.18080400  0.77740700  1
  Ca  Ca3  1  0.86454700  0.61558000  0.75835900  1
  Ca  Ca4  1  0.76676500  0.10842900  0.89221100  1
  Ca  Ca5  1  0.62996300  0.30808000  0.42599100  1
  Ca  Ca6  1  0.35164600  0.79774200  0.70913000  1
  Ca  Ca7  1  0.34160400  0.87238400  0.18467900  1
  Ca  Ca8  1  0.12430900  0.39317800  0.23299300  1
  Ca  Ca9  1  0.64863800  0.83204100  0.15441000  1
  Ca  Ca10  1  0.22297600  0.41244700  0.66991800  1
  Ca  Ca11  1  0.15870800  0.33060600  0.93793600  1
  Mn  Mn12  1  0.05891600  0.07922300  0.58220300  1
  Mn  Mn13  1  0.00341600  0.99944000  0.92983700  1
  Mn  Mn14  1  0.53813800  0.08948600  0.01547600  1
  Mn  Mn15  1  0.99714600  0.48645900  0.44879100  1
  Mn  Mn16  1  0.51100400  0.98381700  0.55296800  1
  Mn  Mn17  1  0.92999200  0.45356200  0.97055000  1
  Mn  Mn18  1  0.53958200  0.52872100  0.92967400  1
  Mn  Mn19  1  0.50062900  0.51800400  0.44896600  1
  Si  Si20  1  0.39618800  0.19994100  0.13445000  1
  Si  Si21  1  0.13600200  0.76271500  0.36187000  1
  Si  Si22  1  0.16810700  0.85332100  0.83850000  1
  Si  Si23  1  0.85706200  0.19332200  0.26588800  1
  Si  Si24  1  0.88320000  0.14580800  0.66924300  1
  Si  Si25  1  0.62505500  0.75519000  0.76083200  1
  Si  Si26  1  0.46385200  0.64286100  0.24131800  1
  H  H27  1  0.21302400  0.06015700  0.89545800  1
  H  H28  1  0.81091500  0.05474000  0.39916400  1
  H  H29  1  0.69483600  0.38493400  0.76491400  1
  H  H30  1  0.56948200  0.55874600  0.66168200  1
  H  H31  1  0.44530800  0.78714200  0.40309100  1
  H  H32  1  0.96314600  0.63985100  0.56063000  1
  H  H33  1  0.44039700  0.44004600  0.17459800  1
  H  H34  1  0.71797600  0.03134800  0.06078500  1
  H  H35  1  0.75081100  0.52235400  0.92021500  1
  H  H36  1  0.91441700  0.32581600  0.56482200  1
  H  H37  1  0.63117300  0.20528600  0.70178800  1
  H  H38  1  0.31730300  0.28150300  0.28311200  1
  H  H39  1  0.10391500  0.63615100  0.18021800  1
  H  H40  1  0.02163700  0.86242500  0.58278900  1
  H  H41  1  0.96009400  0.07718600  0.10457400  1
  O  O42  1  0.81206600  0.80394500  0.83998500  1
  O  O43  1  0.01798300  0.91574600  0.51897500  1
  O  O44  1  0.56279500  0.42309500  0.84518400  1
  O  O45  1  0.86825300  0.58767900  0.96102800  1
  O  O46  1  0.65327100  0.71731000  0.31781500  1
  O  O47  1  0.16105000  0.77306100  0.94394300  1
  O  O48  1  0.52661700  0.36567000  0.22998100  1
  O  O49  1  0.02604600  0.30800500  0.71062800  1
  O  O50  1  0.34930000  0.43249700  0.88812800  1
  O  O51  1  0.90442100  0.57422800  0.46966400  1
  O  O52  1  0.31325900  0.33528200  0.34232300  1
  O  O53  1  0.53223600  0.11506700  0.67729900  1
  O  O54  1  0.18926500  0.13229200  0.74320000  1
  O  O55  1  0.92202700  0.10054400  0.80341000  1
  O  O56  1  0.02733600  0.75057800  0.68923100  1
  O  O57  1  0.58904500  0.87344700  0.72409600  1
  O  O58  1  0.29756300  0.85940100  0.51088600  1
  O  O59  1  0.63982000  0.47490100  0.55003500  1
  O  O60  1  0.08301100  0.54397000  0.14552600  1
  O  O61  1  0.42297500  0.16402200  0.01715200  1
  O  O62  1  0.85545800  0.33165600  0.47662600  1
  O  O63  1  0.11833700  0.96423900  0.86681500  1
  O  O64  1  0.33587300  0.94722400  0.84379500  1
  O  O65  1  0.63291300  0.19009400  0.93932900  1
  O  O66  1  0.42426600  0.73755300  0.15467200  1
  O  O67  1  0.69135200  0.18615300  0.19085600  1
  O  O68  1  0.91883300  0.99462000  0.03574800  1
  O  O69  1  0.07363400  0.59918100  0.36137300  1
  O  O70  1  0.59894200  0.96082800  0.00569800  1
  O  O71  1  0.78473600  0.38413800  0.77848100  1
  O  O72  1  0.40101800  0.60323100  0.34220500  1
  O  O73  1  0.71559300  0.13141500  0.59963200  1
  O  O74  1  0.41074900  0.10555300  0.23137000  1
  O  O75  1  0.16855900  0.56901000  0.61180300  1
  O  O76  1  0.16489300  0.78943800  0.24092200  1
  O  O77  1  0.81080400  0.05252300  0.31698800  1
  O  O78  1  0.48797700  0.88592600  0.40974700  1
  O  O79  1  0.54899200  0.62522200  0.62232500  1
  O  O80  1  0.01336400  0.34801600  0.37146300  1
  O  O81  1  0.69000100  0.66189400  0.08411300  1
  O  O82  1  0.99076900  0.78109300  0.31203800  1
  O  O83  1  0.51616300  0.66047400  0.81530600  1
  O  O84  1  0.89680900  0.16320400  0.15952900  1
  O  O85  1  0.15658500  0.20768300  0.53619900  1
  O  O86  1  0.98620700  0.32616000  0.98602900  1
  O  O87  1  0.38084800  0.48697300  0.13821700  1
  O  O88  1  0.88084800  0.05200100  0.55877500  1
  O  O89  1  0.21451800  0.17178200  0.05206600  1
