# generated using pymatgen
data_Ti5O9
_symmetry_space_group_name_H-M   'P 1'
_cell_length_a   5.61974200
_cell_length_b   7.18326257
_cell_length_c   8.55562153
_cell_angle_alpha   69.48555809
_cell_angle_beta   75.18853072
_cell_angle_gamma   71.30848203
_symmetry_Int_Tables_number   1
_chemical_formula_structural   Ti5O9
_chemical_formula_sum   'Ti10 O18'
_cell_volume   302.38588499
_cell_formula_units_Z   2
loop_
 _symmetry_equiv_pos_site_id
 _symmetry_equiv_pos_as_xyz
  1  'x, y, z'
loop_
 _atom_site_type_symbol
 _atom_site_label
 _atom_site_symmetry_multiplicity
 _atom_site_fract_x
 _atom_site_fract_y
 _atom_site_fract_z
 _atom_site_occupancy
  Ti  Ti0  1  0.72180200  0.32550500  0.42517700  1
  Ti  Ti1  1  0.27819800  0.67449500  0.57482300  1
  Ti  Ti2  1  0.71893000  0.82886800  0.42182900  1
  Ti  Ti3  1  0.28107000  0.17113200  0.57817100  1
  Ti  Ti4  1  0.34697100  0.65678100  0.20539500  1
  Ti  Ti5  1  0.65302900  0.34321900  0.79460500  1
  Ti  Ti6  1  0.34514800  0.15865300  0.20463300  1
  Ti  Ti7  1  0.65485200  0.84134700  0.79536700  1
  Ti  Ti8  1  0.00000000  0.00000000  0.00000000  1
  Ti  Ti9  1  0.00000000  0.50000000  0.00000000  1
  O  O10  1  0.31294900  0.46737900  0.45859000  1
  O  O11  1  0.68705100  0.53262100  0.54141000  1
  O  O12  1  0.06932800  0.19617200  0.42096500  1
  O  O13  1  0.93067200  0.80382800  0.57903500  1
  O  O14  1  0.58530700  0.13198500  0.36667600  1
  O  O15  1  0.41469300  0.86801500  0.63332400  1
  O  O16  1  0.40971300  0.84886500  0.32287500  1
  O  O17  1  0.59028700  0.15113500  0.67712500  1
  O  O18  1  0.97930800  0.80892500  0.23895300  1
  O  O19  1  0.02069200  0.19107500  0.76104700  1
  O  O20  1  0.37351100  0.85142900  0.97837400  1
  O  O21  1  0.62648900  0.14857100  0.02162600  1
  O  O22  1  0.91711200  0.80400700  0.91865800  1
  O  O23  1  0.08288800  0.19599300  0.08134200  1
  O  O24  1  0.74007800  0.53881600  0.86167600  1
  O  O25  1  0.25992200  0.46118400  0.13832400  1
  O  O26  1  0.28400400  0.48908200  0.79681600  1
  O  O27  1  0.71599600  0.51091800  0.20318400  1
