# generated using pymatgen
data_CaSnHg2
_symmetry_space_group_name_H-M   'P 1'
_cell_length_a   12.56489281
_cell_length_b   12.56489281
_cell_length_c   12.56489281
_cell_angle_alpha   123.29890816
_cell_angle_beta   118.82922889
_cell_angle_gamma   88.21164922
_symmetry_Int_Tables_number   1
_chemical_formula_structural   CaSnHg2
_chemical_formula_sum   'Ca1 Sn1 Hg2'
_cell_volume   1376.67081512
_cell_formula_units_Z   1
loop_
 _symmetry_equiv_pos_site_id
 _symmetry_equiv_pos_as_xyz
  1  'x, y, z'
loop_
 _atom_site_type_symbol
 _atom_site_label
 _atom_site_symmetry_multiplicity
 _atom_site_fract_x
 _atom_site_fract_y
 _atom_site_fract_z
 _atom_site_occupancy
  Ca  Ca0  1  0.00000000  0.00000000  0.00000000  1
  Sn  Sn1  1  0.00000000  0.50000000  0.50000000  1
  Hg  Hg2  1  0.00000000  0.25964600  0.25964600  1
  Hg  Hg3  1  0.00000000  0.74035400  0.74035400  1
