# generated using pymatgen
data_Na2TiO3
_symmetry_space_group_name_H-M   'P 1'
_cell_length_a   5.37441454
_cell_length_b   5.37441454
_cell_length_c   11.06895730
_cell_angle_alpha   85.17795030
_cell_angle_beta   85.17795030
_cell_angle_gamma   120.02514220
_symmetry_Int_Tables_number   1
_chemical_formula_structural   Na2TiO3
_chemical_formula_sum   'Na8 Ti4 O12'
_cell_volume   272.87179657
_cell_formula_units_Z   4
loop_
 _symmetry_equiv_pos_site_id
 _symmetry_equiv_pos_as_xyz
  1  'x, y, z'
loop_
 _atom_site_type_symbol
 _atom_site_label
 _atom_site_symmetry_multiplicity
 _atom_site_fract_x
 _atom_site_fract_y
 _atom_site_fract_z
 _atom_site_occupancy
  Na  Na0  1  0.84135200  0.68259100  0.49905500  1
  Na  Na1  1  0.00000000  0.50000000  0.00000000  1
  Na  Na2  1  0.91834300  0.08165700  0.25000000  1
  Na  Na3  1  0.31740900  0.15864800  0.00094500  1
  Na  Na4  1  0.50000000  0.00000000  0.50000000  1
  Na  Na5  1  0.68259100  0.84135200  0.99905500  1
  Na  Na6  1  0.08165700  0.91834300  0.75000000  1
  Na  Na7  1  0.15864800  0.31740900  0.50094500  1
  Ti  Ti8  1  0.74665100  0.25334900  0.75000000  1
  Ti  Ti9  1  0.58520100  0.41479900  0.25000000  1
  Ti  Ti10  1  0.41479900  0.58520100  0.75000000  1
  Ti  Ti11  1  0.25334900  0.74665100  0.25000000  1
  O  O12  1  0.95141600  0.73941400  0.14786700  1
  O  O13  1  0.66948900  0.50373200  0.85100900  1
  O  O14  1  0.88307800  0.42739200  0.35063800  1
  O  O15  1  0.49626800  0.33051100  0.64899100  1
  O  O16  1  0.73941400  0.95141600  0.64786700  1
  O  O17  1  0.42739200  0.88307800  0.85063800  1
  O  O18  1  0.57260800  0.11692200  0.14936200  1
  O  O19  1  0.26058600  0.04858400  0.35213300  1
  O  O20  1  0.50373200  0.66948900  0.35100900  1
  O  O21  1  0.11692200  0.57260800  0.64936200  1
  O  O22  1  0.33051100  0.49626800  0.14899100  1
  O  O23  1  0.04858400  0.26058600  0.85213300  1
