# generated using pymatgen
data_MgCu2Pt
_symmetry_space_group_name_H-M   'P 1'
_cell_length_a   10.21110739
_cell_length_b   10.21110739
_cell_length_c   10.21110739
_cell_angle_alpha   123.55663236
_cell_angle_beta   111.62437719
_cell_angle_gamma   94.51493474
_symmetry_Int_Tables_number   1
_chemical_formula_structural   MgCu2Pt
_chemical_formula_sum   'Mg1 Cu2 Pt1'
_cell_volume   768.03183504
_cell_formula_units_Z   1
loop_
 _symmetry_equiv_pos_site_id
 _symmetry_equiv_pos_as_xyz
  1  'x, y, z'
loop_
 _atom_site_type_symbol
 _atom_site_label
 _atom_site_symmetry_multiplicity
 _atom_site_fract_x
 _atom_site_fract_y
 _atom_site_fract_z
 _atom_site_occupancy
  Mg  Mg0  1  0.00000000  0.00000000  0.00000000  1
  Cu  Cu1  1  0.00000000  0.25291300  0.25291300  1
  Cu  Cu2  1  0.00000000  0.74708700  0.74708700  1
  Pt  Pt3  1  0.00000000  0.50000000  0.50000000  1
