# generated using pymatgen
data_V2Ge2O7
_symmetry_space_group_name_H-M   'P 1'
_cell_length_a   5.59964849
_cell_length_b   5.59913412
_cell_length_c   10.07317835
_cell_angle_alpha   103.12528107
_cell_angle_beta   76.87058151
_cell_angle_gamma   82.68947443
_symmetry_Int_Tables_number   1
_chemical_formula_structural   V2Ge2O7
_chemical_formula_sum   'V4 Ge4 O14'
_cell_volume   294.16247782
_cell_formula_units_Z   2
loop_
 _symmetry_equiv_pos_site_id
 _symmetry_equiv_pos_as_xyz
  1  'x, y, z'
loop_
 _atom_site_type_symbol
 _atom_site_label
 _atom_site_symmetry_multiplicity
 _atom_site_fract_x
 _atom_site_fract_y
 _atom_site_fract_z
 _atom_site_occupancy
  V  V0  1  0.37773100  0.77424600  0.02117400  1
  V  V1  1  0.27422200  0.87774200  0.47894400  1
  V  V2  1  0.72586700  0.12221600  0.52105500  1
  V  V3  1  0.62224400  0.22582200  0.97884500  1
  Ge  Ge4  1  0.80759700  0.69453000  0.70566800  1
  Ge  Ge5  1  0.80532300  0.69221500  0.20580400  1
  Ge  Ge6  1  0.19469400  0.30778500  0.79418700  1
  Ge  Ge7  1  0.19238300  0.30546200  0.29434600  1
  O  O8  1  0.08167700  0.58157600  0.74987200  1
  O  O9  1  0.91825700  0.41839400  0.25012900  1
  O  O10  1  0.67721400  0.46737200  0.61429100  1
  O  O11  1  0.03261600  0.82270600  0.11434300  1
  O  O12  1  0.96730700  0.17733700  0.88562600  1
  O  O13  1  0.32285200  0.53256600  0.38569700  1
  O  O14  1  0.39961400  0.40883500  0.89979100  1
  O  O15  1  0.09140600  0.10028200  0.39973900  1
  O  O16  1  0.90866800  0.89964200  0.60022400  1
  O  O17  1  0.60032800  0.59121700  0.10025600  1
  O  O18  1  0.37670700  0.08451900  0.63459500  1
  O  O19  1  0.41541200  0.12342700  0.13452800  1
  O  O20  1  0.58453200  0.87663700  0.86548000  1
  O  O21  1  0.62334700  0.91547500  0.36540400  1
