# generated using pymatgen
data_Ba2Sb2O7
_symmetry_space_group_name_H-M   'P 1'
_cell_length_a   7.77424758
_cell_length_b   7.77424758
_cell_length_c   7.77424758
_cell_angle_alpha   119.84927672
_cell_angle_beta   117.33747705
_cell_angle_gamma   92.46730052
_symmetry_Int_Tables_number   1
_chemical_formula_structural   Ba2Sb2O7
_chemical_formula_sum   'Ba4 Sb4 O14'
_cell_volume   338.77692388
_cell_formula_units_Z   2
loop_
 _symmetry_equiv_pos_site_id
 _symmetry_equiv_pos_as_xyz
  1  'x, y, z'
loop_
 _atom_site_type_symbol
 _atom_site_label
 _atom_site_symmetry_multiplicity
 _atom_site_fract_x
 _atom_site_fract_y
 _atom_site_fract_z
 _atom_site_occupancy
  Ba  Ba0  1  0.00000000  0.00000000  0.00000000  1
  Ba  Ba1  1  0.50000000  0.50000000  0.00000000  1
  Ba  Ba2  1  0.00000000  0.00000000  0.50000000  1
  Ba  Ba3  1  0.00000000  0.50000000  0.00000000  1
  Sb  Sb4  1  0.50000000  0.00000000  0.00000000  1
  Sb  Sb5  1  0.50000000  0.00000000  0.50000000  1
  Sb  Sb6  1  0.50000000  0.50000000  0.50000000  1
  Sb  Sb7  1  0.00000000  0.50000000  0.50000000  1
  O  O8  1  0.80579200  0.18167000  0.22742900  1
  O  O9  1  0.40455800  0.25000000  0.15455800  1
  O  O10  1  0.88056200  0.58809400  0.29246800  1
  O  O11  1  0.79562600  0.08809400  0.70753200  1
  O  O12  1  0.54575900  0.31833000  0.62412200  1
  O  O13  1  0.45424100  0.07836300  0.77257100  1
  O  O14  1  0.80579200  0.57836300  0.62412200  1
  O  O15  1  0.19420800  0.42163700  0.37587800  1
  O  O16  1  0.45424100  0.68167000  0.37587800  1
  O  O17  1  0.54575900  0.92163700  0.22742900  1
  O  O18  1  0.11943800  0.41190600  0.70753200  1
  O  O19  1  0.20437400  0.91190600  0.29246800  1
  O  O20  1  0.59544200  0.75000000  0.84544200  1
  O  O21  1  0.19420800  0.81833000  0.77257100  1
