# generated using pymatgen
data_Ba2SrI6
_symmetry_space_group_name_H-M   'P 1'
_cell_length_a   13.45041895
_cell_length_b   13.45041895
_cell_length_c   13.45041895
_cell_angle_alpha   109.47122063
_cell_angle_beta   109.47122063
_cell_angle_gamma   109.47122063
_symmetry_Int_Tables_number   1
_chemical_formula_structural   Ba2SrI6
_chemical_formula_sum   'Ba8 Sr4 I24'
_cell_volume   1873.20601863
_cell_formula_units_Z   4
loop_
 _symmetry_equiv_pos_site_id
 _symmetry_equiv_pos_as_xyz
  1  'x, y, z'
loop_
 _atom_site_type_symbol
 _atom_site_label
 _atom_site_symmetry_multiplicity
 _atom_site_fract_x
 _atom_site_fract_y
 _atom_site_fract_z
 _atom_site_occupancy
  Ba  Ba0  1  0.81069800  0.50000000  0.00000000  1
  Ba  Ba1  1  0.50000000  0.00000000  0.18930200  1
  Ba  Ba2  1  0.31069800  0.31069800  0.31069800  1
  Ba  Ba3  1  0.50000000  0.00000000  0.81069800  1
  Ba  Ba4  1  0.18930200  0.50000000  0.00000000  1
  Ba  Ba5  1  0.00000000  0.18930200  0.50000000  1
  Ba  Ba6  1  0.68930200  0.68930200  0.68930200  1
  Ba  Ba7  1  0.00000000  0.81069800  0.50000000  1
  Sr  Sr8  1  0.00000000  0.00000000  0.00000000  1
  Sr  Sr9  1  0.50000000  0.50000000  0.00000000  1
  Sr  Sr10  1  0.50000000  0.00000000  0.50000000  1
  Sr  Sr11  1  0.00000000  0.50000000  0.50000000  1
  I  I12  1  0.79894100  0.21646600  0.27950900  1
  I  I13  1  0.58247400  0.29894100  0.01943200  1
  I  I14  1  0.28353400  0.08247400  0.06304300  1
  I  I15  1  0.51943200  0.22049100  0.43695700  1
  I  I16  1  0.78353400  0.72049100  0.20105900  1
  I  I17  1  0.98056800  0.41752600  0.70105900  1
  I  I18  1  0.08247400  0.06304300  0.28353400  1
  I  I19  1  0.72049100  0.20105900  0.78353400  1
  I  I20  1  0.77950900  0.56304300  0.48056800  1
  I  I21  1  0.43695700  0.51943200  0.22049100  1
  I  I22  1  0.06304300  0.28353400  0.08247400  1
  I  I23  1  0.29894100  0.01943200  0.58247400  1
  I  I24  1  0.70105900  0.98056800  0.41752600  1
  I  I25  1  0.56304300  0.48056800  0.77950900  1
  I  I26  1  0.93695700  0.71646600  0.91752600  1
  I  I27  1  0.27950900  0.79894100  0.21646600  1
  I  I28  1  0.22049100  0.43695700  0.51943200  1
  I  I29  1  0.91752600  0.93695700  0.71646600  1
  I  I30  1  0.01943200  0.58247400  0.29894100  1
  I  I31  1  0.21646600  0.27950900  0.79894100  1
  I  I32  1  0.48056800  0.77950900  0.56304300  1
  I  I33  1  0.71646600  0.91752600  0.93695700  1
  I  I34  1  0.41752600  0.70105900  0.98056800  1
  I  I35  1  0.20105900  0.78353400  0.72049100  1
