# generated using pymatgen
data_VOF
_symmetry_space_group_name_H-M   'P 1'
_cell_length_a   3.10957100
_cell_length_b   4.74676800
_cell_length_c   14.23552523
_cell_angle_alpha   86.70320973
_cell_angle_beta   90.00000000
_cell_angle_gamma   90.00000000
_symmetry_Int_Tables_number   1
_chemical_formula_structural   VOF
_chemical_formula_sum   'V6 O6 F6'
_cell_volume   209.77447515
_cell_formula_units_Z   6
loop_
 _symmetry_equiv_pos_site_id
 _symmetry_equiv_pos_as_xyz
  1  'x, y, z'
loop_
 _atom_site_type_symbol
 _atom_site_label
 _atom_site_symmetry_multiplicity
 _atom_site_fract_x
 _atom_site_fract_y
 _atom_site_fract_z
 _atom_site_occupancy
  V  V0  1  0.00000000  0.95314400  0.99942100  1
  V  V1  1  0.00000000  0.99362800  0.33334200  1
  V  V2  1  0.00000000  0.01725500  0.66679400  1
  V  V3  1  0.50000000  0.48054000  0.16675600  1
  V  V4  1  0.50000000  0.50544900  0.49984100  1
  V  V5  1  0.50000000  0.55032000  0.83336700  1
  O  O6  1  0.50000000  0.79776300  0.93378200  1
  O  O7  1  0.00000000  0.68275000  0.10237800  1
  O  O8  1  0.00000000  0.71765900  0.76540000  1
  O  O9  1  0.00000000  0.70051900  0.43364800  1
  O  O10  1  0.00000000  0.28661500  0.23312800  1
  O  O11  1  0.00000000  0.30986900  0.56701800  1
  F  F12  1  0.50000000  0.79330900  0.26894600  1
  F  F13  1  0.50000000  0.81666200  0.60187800  1
  F  F14  1  0.00000000  0.30260500  0.89906800  1
  F  F15  1  0.50000000  0.18557100  0.06174300  1
  F  F16  1  0.50000000  0.19397600  0.39836700  1
  F  F17  1  0.50000000  0.21236800  0.73512500  1
