# generated using pymatgen
data_Zn(CuO2)2
_symmetry_space_group_name_H-M   'P 1'
_cell_length_a   6.15748439
_cell_length_b   6.15748439
_cell_length_c   6.15748439
_cell_angle_alpha   127.40703594
_cell_angle_beta   127.40703594
_cell_angle_gamma   77.58759503
_symmetry_Int_Tables_number   1
_chemical_formula_structural   Zn(CuO2)2
_chemical_formula_sum   'Zn2 Cu4 O8'
_cell_volume   142.84751414
_cell_formula_units_Z   2
loop_
 _symmetry_equiv_pos_site_id
 _symmetry_equiv_pos_as_xyz
  1  'x, y, z'
loop_
 _atom_site_type_symbol
 _atom_site_label
 _atom_site_symmetry_multiplicity
 _atom_site_fract_x
 _atom_site_fract_y
 _atom_site_fract_z
 _atom_site_occupancy
  Zn  Zn0  1  0.25000000  0.75000000  0.50000000  1
  Zn  Zn1  1  0.50000000  0.50000000  0.00000000  1
  Cu  Cu2  1  0.87500000  0.62500000  0.75000000  1
  Cu  Cu3  1  0.87500000  0.12500000  0.75000000  1
  Cu  Cu4  1  0.37500000  0.12500000  0.25000000  1
  Cu  Cu5  1  0.87500000  0.12500000  0.25000000  1
  O  O6  1  0.65564100  0.12211000  0.87291500  1
  O  O7  1  0.50080500  0.46727400  0.37291500  1
  O  O8  1  0.87211000  0.49919500  0.96646900  1
  O  O9  1  0.21727400  0.34435900  0.46646900  1
  O  O10  1  0.53272600  0.90564100  0.03353100  1
  O  O11  1  0.87789000  0.75080500  0.53353100  1
  O  O12  1  0.24919500  0.78272600  0.12708500  1
  O  O13  1  0.09435900  0.12789000  0.62708500  1
