# generated using pymatgen
data_Mn6O5F7
_symmetry_space_group_name_H-M   'P 1'
_cell_length_a   4.79419200
_cell_length_b   5.74889379
_cell_length_c   7.90765761
_cell_angle_alpha   84.66724939
_cell_angle_beta   87.05711292
_cell_angle_gamma   84.78686068
_symmetry_Int_Tables_number   1
_chemical_formula_structural   Mn6O5F7
_chemical_formula_sum   'Mn6 O5 F7'
_cell_volume   215.90207511
_cell_formula_units_Z   1
loop_
 _symmetry_equiv_pos_site_id
 _symmetry_equiv_pos_as_xyz
  1  'x, y, z'
loop_
 _atom_site_type_symbol
 _atom_site_label
 _atom_site_symmetry_multiplicity
 _atom_site_fract_x
 _atom_site_fract_y
 _atom_site_fract_z
 _atom_site_occupancy
  Mn  Mn0  1  0.53321400  0.52239900  0.01124400  1
  Mn  Mn1  1  0.51554900  0.82840500  0.64771400  1
  Mn  Mn2  1  0.47551000  0.16992600  0.34831600  1
  Mn  Mn3  1  0.99686500  0.33455300  0.66950400  1
  Mn  Mn4  1  0.98890500  0.65986300  0.32301200  1
  Mn  Mn5  1  0.99495800  0.98768100  0.00533400  1
  O  O6  1  0.83004200  0.71635300  0.09755200  1
  O  O7  1  0.70418600  0.54202800  0.76177600  1
  O  O8  1  0.69534300  0.87496300  0.42786000  1
  O  O9  1  0.29879600  0.12641000  0.57228300  1
  O  O10  1  0.30333400  0.46209100  0.23806800  1
  F  F11  1  0.80185800  0.36256900  0.44207000  1
  F  F12  1  0.79954700  0.04352500  0.78111000  1
  F  F13  1  0.69207300  0.19549500  0.12095500  1
  F  F14  1  0.30762900  0.80406200  0.87439100  1
  F  F15  1  0.17793900  0.62569000  0.55147800  1
  F  F16  1  0.20857300  0.96653000  0.21722300  1
  F  F17  1  0.17568000  0.27745500  0.91011200  1
