# generated using pymatgen
data_Li7Cr3(SiO6)2
_symmetry_space_group_name_H-M   'P 1'
_cell_length_a   4.94260379
_cell_length_b   10.61893190
_cell_length_c   8.56054394
_cell_angle_alpha   66.22738741
_cell_angle_beta   90.00020639
_cell_angle_gamma   94.45195013
_symmetry_Int_Tables_number   1
_chemical_formula_structural   Li7Cr3(SiO6)2
_chemical_formula_sum   'Li14 Cr6 Si4 O24'
_cell_volume   409.69778319
_cell_formula_units_Z   2
loop_
 _symmetry_equiv_pos_site_id
 _symmetry_equiv_pos_as_xyz
  1  'x, y, z'
loop_
 _atom_site_type_symbol
 _atom_site_label
 _atom_site_symmetry_multiplicity
 _atom_site_fract_x
 _atom_site_fract_y
 _atom_site_fract_z
 _atom_site_occupancy
  Li  Li0  1  0.37499100  0.25000100  0.20833100  1
  Li  Li1  1  0.87500300  0.24999900  0.70833100  1
  Li  Li2  1  0.24334500  0.49442200  0.58611700  1
  Li  Li3  1  0.74335700  0.49428600  0.08624300  1
  Li  Li4  1  0.00665400  0.00557600  0.33054900  1
  Li  Li5  1  0.50664200  0.00571700  0.83053500  1
  Li  Li6  1  0.99807300  0.00565800  0.66661300  1
  Li  Li7  1  0.49817300  0.00552000  0.16675900  1
  Li  Li8  1  0.25193300  0.49439100  0.24989000  1
  Li  Li9  1  0.75193900  0.49442400  0.75001100  1
  Li  Li10  1  0.25191200  0.49434700  0.92227900  1
  Li  Li11  1  0.75181000  0.49448300  0.42228700  1
  Li  Li12  1  0.49804000  0.00558300  0.49443600  1
  Li  Li13  1  0.99805100  0.00561700  0.99428200  1
  Cr  Cr14  1  0.12500600  0.74999000  0.95589500  1
  Cr  Cr15  1  0.62500200  0.75000500  0.46070400  1
  Cr  Cr16  1  0.62499900  0.75001400  0.12566100  1
  Cr  Cr17  1  0.12499700  0.75000200  0.28907500  1
  Cr  Cr18  1  0.62500300  0.74999900  0.79401400  1
  Cr  Cr19  1  0.12500100  0.75000400  0.62463700  1
  Si  Si20  1  0.87499900  0.24998700  0.37502400  1
  Si  Si21  1  0.37500800  0.24999800  0.87501500  1
  Si  Si22  1  0.37503800  0.24998600  0.54168000  1
  Si  Si23  1  0.87498000  0.25001400  0.04166500  1
  O  O24  1  0.30995200  0.86932300  0.39794600  1
  O  O25  1  0.81308600  0.87014200  0.89945200  1
  O  O26  1  0.43692600  0.62987000  0.01957600  1
  O  O27  1  0.94004100  0.63067700  0.51726900  1
  O  O28  1  0.23172900  0.14691100  0.75985700  1
  O  O29  1  0.73166400  0.14681900  0.25996300  1
  O  O30  1  0.01827500  0.35308800  0.15675100  1
  O  O31  1  0.51833900  0.35317800  0.65676700  1
  O  O32  1  0.07917700  0.35319500  0.46978200  1
  O  O33  1  0.57912200  0.35308200  0.96987100  1
  O  O34  1  0.17084600  0.14692600  0.44682100  1
  O  O35  1  0.67084800  0.14689100  0.94685000  1
  O  O36  1  0.17083600  0.14679600  0.07300600  1
  O  O37  1  0.67089000  0.14691100  0.57297900  1
  O  O38  1  0.57916900  0.35309800  0.34373700  1
  O  O39  1  0.07916800  0.35306400  0.84374400  1
  O  O40  1  0.93820800  0.63236700  0.18195500  1
  O  O41  1  0.43827400  0.63234800  0.68577200  1
  O  O42  1  0.31178300  0.86763300  0.06430300  1
  O  O43  1  0.81173500  0.86765700  0.56809100  1
  O  O44  1  0.44054700  0.63273900  0.35097500  1
  O  O45  1  0.93737200  0.63193800  0.84941700  1
  O  O46  1  0.31261200  0.86806200  0.73136400  1
  O  O47  1  0.80944800  0.86725900  0.23372300  1
