# generated using pymatgen
data_Fe2OF3
_symmetry_space_group_name_H-M   'P 1'
_cell_length_a   4.86401724
_cell_length_b   4.86401724
_cell_length_c   12.40846300
_cell_angle_alpha   90.00000000
_cell_angle_beta   90.00000000
_cell_angle_gamma   91.27105570
_symmetry_Int_Tables_number   1
_chemical_formula_structural   Fe2OF3
_chemical_formula_sum   'Fe8 O4 F12'
_cell_volume   293.49541942
_cell_formula_units_Z   4
loop_
 _symmetry_equiv_pos_site_id
 _symmetry_equiv_pos_as_xyz
  1  'x, y, z'
loop_
 _atom_site_type_symbol
 _atom_site_label
 _atom_site_symmetry_multiplicity
 _atom_site_fract_x
 _atom_site_fract_y
 _atom_site_fract_z
 _atom_site_occupancy
  Fe  Fe0  1  0.97196200  0.97196200  0.00000000  1
  Fe  Fe1  1  0.02409500  0.02409500  0.25035300  1
  Fe  Fe2  1  0.01025800  0.01025800  0.50000000  1
  Fe  Fe3  1  0.02409500  0.02409500  0.74964700  1
  Fe  Fe4  1  0.47458900  0.47458900  0.62492300  1
  Fe  Fe5  1  0.50019400  0.50019400  0.12435000  1
  Fe  Fe6  1  0.50019400  0.50019400  0.87565000  1
  Fe  Fe7  1  0.47458900  0.47458900  0.37507700  1
  O  O8  1  0.31230600  0.31230600  0.50000000  1
  O  O9  1  0.32084000  0.32084000  0.24644000  1
  O  O10  1  0.32084000  0.32084000  0.75356000  1
  O  O11  1  0.66884900  0.66884900  0.00000000  1
  F  F12  1  0.79326800  0.20161800  0.12418300  1
  F  F13  1  0.79468900  0.21119900  0.37585500  1
  F  F14  1  0.79468900  0.21119900  0.62414500  1
  F  F15  1  0.79326800  0.20161800  0.87581700  1
  F  F16  1  0.29290300  0.29290300  0.00000000  1
  F  F17  1  0.70513900  0.70513900  0.25120700  1
  F  F18  1  0.69245700  0.69245700  0.50000000  1
  F  F19  1  0.70513900  0.70513900  0.74879300  1
  F  F20  1  0.21119900  0.79468900  0.37585500  1
  F  F21  1  0.21119900  0.79468900  0.62414500  1
  F  F22  1  0.20161800  0.79326800  0.12418300  1
  F  F23  1  0.20161800  0.79326800  0.87581700  1
