# generated using pymatgen
data_VSnO4
_symmetry_space_group_name_H-M   'P 1'
_cell_length_a   6.58349450
_cell_length_b   6.62046513
_cell_length_c   7.84453945
_cell_angle_alpha   114.95619318
_cell_angle_beta   114.81221953
_cell_angle_gamma   90.00079984
_symmetry_Int_Tables_number   1
_chemical_formula_structural   VSnO4
_chemical_formula_sum   'V4 Sn4 O16'
_cell_volume   274.78027559
_cell_formula_units_Z   4
loop_
 _symmetry_equiv_pos_site_id
 _symmetry_equiv_pos_as_xyz
  1  'x, y, z'
loop_
 _atom_site_type_symbol
 _atom_site_label
 _atom_site_symmetry_multiplicity
 _atom_site_fract_x
 _atom_site_fract_y
 _atom_site_fract_z
 _atom_site_occupancy
  V  V0  1  0.12477100  0.62381600  0.24953600  1
  V  V1  1  0.87476000  0.37380400  0.74951900  1
  V  V2  1  0.62474600  0.12379700  0.24949600  1
  V  V3  1  0.37476300  0.87378800  0.74950700  1
  Sn  Sn4  1  0.24977900  0.24879900  0.49958800  1
  Sn  Sn5  1  0.74984000  0.74885400  0.49967900  1
  Sn  Sn6  1  0.49981600  0.49881700  0.99959000  1
  Sn  Sn7  1  0.99976900  0.99878000  0.99952200  1
  O  O8  1  0.83186600  0.62276500  0.24956500  1
  O  O9  1  0.33185600  0.12277300  0.24957800  1
  O  O10  1  0.08176400  0.87273400  0.74950800  1
  O  O11  1  0.58185800  0.37275600  0.74955300  1
  O  O12  1  0.41769800  0.62276900  0.24955200  1
  O  O13  1  0.91769500  0.12278300  0.24957800  1
  O  O14  1  0.66780900  0.87280000  0.74961600  1
  O  O15  1  0.16770800  0.37277700  0.74957200  1
  O  O16  1  0.99973100  0.31288700  0.99946100  1
  O  O17  1  0.49967600  0.81279900  0.99936200  1
  O  O18  1  0.24976300  0.56288700  0.49953100  1
  O  O19  1  0.74970800  0.06287600  0.49942800  1
  O  O20  1  0.24975900  0.93446000  0.49952200  1
  O  O21  1  0.74970400  0.43436900  0.49941900  1
  O  O22  1  0.49967900  0.18438100  0.99936000  1
  O  O23  1  0.99973500  0.68439300  0.99946200  1
