# generated using pymatgen
data_La2AgOs
_symmetry_space_group_name_H-M   'P 1'
_cell_length_a   11.82925599
_cell_length_b   11.82925599
_cell_length_c   11.82925599
_cell_angle_alpha   124.91050032
_cell_angle_beta   119.68465803
_cell_angle_gamma   86.12831550
_symmetry_Int_Tables_number   1
_chemical_formula_structural   La2AgOs
_chemical_formula_sum   'La2 Ag1 Os1'
_cell_volume   1123.81748535
_cell_formula_units_Z   1
loop_
 _symmetry_equiv_pos_site_id
 _symmetry_equiv_pos_as_xyz
  1  'x, y, z'
loop_
 _atom_site_type_symbol
 _atom_site_label
 _atom_site_symmetry_multiplicity
 _atom_site_fract_x
 _atom_site_fract_y
 _atom_site_fract_z
 _atom_site_occupancy
  La  La0  1  0.00000000  0.28069900  0.28069900  1
  La  La1  1  0.00000000  0.71930100  0.71930100  1
  Ag  Ag2  1  0.00000000  0.00000000  0.00000000  1
  Os  Os3  1  0.00000000  0.50000000  0.50000000  1
