# generated using pymatgen
data_Sr2HfO4
_symmetry_space_group_name_H-M   'P 1'
_cell_length_a   13.75589889
_cell_length_b   13.75589889
_cell_length_c   13.75589889
_cell_angle_alpha   155.91987283
_cell_angle_beta   155.91987283
_cell_angle_gamma   34.31492224
_symmetry_Int_Tables_number   1
_chemical_formula_structural   Sr2HfO4
_chemical_formula_sum   'Sr8 Hf4 O16'
_cell_volume   432.87931088
_cell_formula_units_Z   4
loop_
 _symmetry_equiv_pos_site_id
 _symmetry_equiv_pos_as_xyz
  1  'x, y, z'
loop_
 _atom_site_type_symbol
 _atom_site_label
 _atom_site_symmetry_multiplicity
 _atom_site_fract_x
 _atom_site_fract_y
 _atom_site_fract_z
 _atom_site_occupancy
  Sr  Sr0  1  0.92462500  0.42462500  0.50000000  1
  Sr  Sr1  1  0.32537500  0.32537500  0.00000000  1
  Sr  Sr2  1  0.07537500  0.57537500  0.50000000  1
  Sr  Sr3  1  0.17462500  0.17462500  0.00000000  1
  Sr  Sr4  1  0.82537500  0.82537500  0.00000000  1
  Sr  Sr5  1  0.42462500  0.92462500  0.50000000  1
  Sr  Sr6  1  0.57537500  0.07537500  0.50000000  1
  Sr  Sr7  1  0.67462500  0.67462500  0.00000000  1
  Hf  Hf8  1  0.50000000  0.50000000  0.00000000  1
  Hf  Hf9  1  0.75000000  0.25000000  0.50000000  1
  Hf  Hf10  1  0.00000000  0.00000000  0.00000000  1
  Hf  Hf11  1  0.25000000  0.75000000  0.50000000  1
  O  O12  1  0.94932800  0.94932800  0.39865600  1
  O  O13  1  0.44932800  0.05067200  0.00000000  1
  O  O14  1  0.66946700  0.16946700  0.50000000  1
  O  O15  1  0.41946700  0.41946700  0.00000000  1
  O  O16  1  0.83053300  0.33053300  0.50000000  1
  O  O17  1  0.58053300  0.58053300  0.00000000  1
  O  O18  1  0.05067200  0.44932800  0.00000000  1
  O  O19  1  0.19932800  0.69932800  0.89865600  1
  O  O20  1  0.55067200  0.55067200  0.60134400  1
  O  O21  1  0.69932800  0.80067200  0.50000000  1
  O  O22  1  0.08053300  0.08053300  0.00000000  1
  O  O23  1  0.91946700  0.91946700  0.00000000  1
  O  O24  1  0.16946700  0.66946700  0.50000000  1
  O  O25  1  0.33053300  0.83053300  0.50000000  1
  O  O26  1  0.30067200  0.19932800  0.50000000  1
  O  O27  1  0.80067200  0.30067200  0.10134400  1
