# generated using pymatgen
data_Sr2HgGe
_symmetry_space_group_name_H-M   'P 1'
_cell_length_a   13.00597367
_cell_length_b   13.00597367
_cell_length_c   13.00597367
_cell_angle_alpha   120.93549408
_cell_angle_beta   119.71285113
_cell_angle_gamma   89.44272099
_symmetry_Int_Tables_number   1
_chemical_formula_structural   Sr2HgGe
_chemical_formula_sum   'Sr2 Hg1 Ge1'
_cell_volume   1547.73133965
_cell_formula_units_Z   1
loop_
 _symmetry_equiv_pos_site_id
 _symmetry_equiv_pos_as_xyz
  1  'x, y, z'
loop_
 _atom_site_type_symbol
 _atom_site_label
 _atom_site_symmetry_multiplicity
 _atom_site_fract_x
 _atom_site_fract_y
 _atom_site_fract_z
 _atom_site_occupancy
  Sr  Sr0  1  0.00000000  0.22405900  0.22405900  1
  Sr  Sr1  1  0.00000000  0.77594100  0.77594100  1
  Hg  Hg2  1  0.00000000  0.50000000  0.50000000  1
  Ge  Ge3  1  0.00000000  0.00000000  0.00000000  1
