# generated using pymatgen
data_NaMn3O4
_symmetry_space_group_name_H-M   'P 1'
_cell_length_a   5.43452637
_cell_length_b   5.43451922
_cell_length_c   6.40538840
_cell_angle_alpha   92.17990653
_cell_angle_beta   92.18008263
_cell_angle_gamma   107.31695671
_symmetry_Int_Tables_number   1
_chemical_formula_structural   NaMn3O4
_chemical_formula_sum   'Na2 Mn6 O8'
_cell_volume   180.22965332
_cell_formula_units_Z   2
loop_
 _symmetry_equiv_pos_site_id
 _symmetry_equiv_pos_as_xyz
  1  'x, y, z'
loop_
 _atom_site_type_symbol
 _atom_site_label
 _atom_site_symmetry_multiplicity
 _atom_site_fract_x
 _atom_site_fract_y
 _atom_site_fract_z
 _atom_site_occupancy
  Na  Na0  1  0.00016500  0.00007000  0.49993500  1
  Na  Na1  1  0.00016500  0.00006900  0.99993500  1
  Mn  Mn2  1  0.50009600  0.50009300  0.49988500  1
  Mn  Mn3  1  0.00168700  0.50007300  0.75154800  1
  Mn  Mn4  1  0.99851600  0.49995000  0.24841600  1
  Mn  Mn5  1  0.50009600  0.50005500  0.99988700  1
  Mn  Mn6  1  0.50012200  0.00161000  0.25158000  1
  Mn  Mn7  1  0.50007700  0.99848000  0.74832300  1
  O  O8  1  0.72883000  0.27060200  0.99983300  1
  O  O9  1  0.72973300  0.27150400  0.49986800  1
  O  O10  1  0.27161200  0.72962000  0.99986500  1
  O  O11  1  0.27070800  0.72872300  0.49983300  1
  O  O12  1  0.27590900  0.27585400  0.77566400  1
  O  O13  1  0.27597300  0.27579800  0.27567500  1
  O  O14  1  0.72439000  0.72434000  0.72411300  1
  O  O15  1  0.72445800  0.72427800  0.22412700  1
