# generated using pymatgen
data_VF5
_symmetry_space_group_name_H-M   'P 1'
_cell_length_a   5.76943604
_cell_length_b   5.76943604
_cell_length_c   7.34374651
_cell_angle_alpha   70.93620199
_cell_angle_beta   70.93620199
_cell_angle_gamma   53.38996843
_symmetry_Int_Tables_number   1
_chemical_formula_structural   VF5
_chemical_formula_sum   'V2 F10'
_cell_volume   182.63759105
_cell_formula_units_Z   2
loop_
 _symmetry_equiv_pos_site_id
 _symmetry_equiv_pos_as_xyz
  1  'x, y, z'
loop_
 _atom_site_type_symbol
 _atom_site_label
 _atom_site_symmetry_multiplicity
 _atom_site_fract_x
 _atom_site_fract_y
 _atom_site_fract_z
 _atom_site_occupancy
  V  V0  1  0.99646800  0.00617800  0.49841200  1
  V  V1  1  0.00617800  0.99646800  0.99841200  1
  F  F2  1  0.99236200  0.68823000  0.62425100  1
  F  F3  1  0.62900700  0.19619800  0.46908500  1
  F  F4  1  0.36564200  0.82112200  0.52267600  1
  F  F5  1  0.68823000  0.99236200  0.12425100  1
  F  F6  1  0.13228500  0.87058800  0.25080000  1
  F  F7  1  0.99316900  0.33014600  0.37988900  1
  F  F8  1  0.19619800  0.62900700  0.96908500  1
  F  F9  1  0.82112200  0.36564200  0.02267600  1
  F  F10  1  0.87058800  0.13228500  0.75080000  1
  F  F11  1  0.33014600  0.99316900  0.87988900  1
