# generated using pymatgen
data_Mn3F8
_symmetry_space_group_name_H-M   'P 1'
_cell_length_a   6.47675065
_cell_length_b   6.47675065
_cell_length_c   9.28370515
_cell_angle_alpha   89.65661446
_cell_angle_beta   89.65661446
_cell_angle_gamma   120.35467908
_symmetry_Int_Tables_number   1
_chemical_formula_structural   Mn3F8
_chemical_formula_sum   'Mn6 F16'
_cell_volume   336.02493467
_cell_formula_units_Z   2
loop_
 _symmetry_equiv_pos_site_id
 _symmetry_equiv_pos_as_xyz
  1  'x, y, z'
loop_
 _atom_site_type_symbol
 _atom_site_label
 _atom_site_symmetry_multiplicity
 _atom_site_fract_x
 _atom_site_fract_y
 _atom_site_fract_z
 _atom_site_occupancy
  Mn  Mn0  1  0.83324000  0.16663000  0.24799100  1
  Mn  Mn1  1  0.33383600  0.16705900  0.24836100  1
  Mn  Mn2  1  0.16705900  0.33383600  0.74836100  1
  Mn  Mn3  1  0.83342800  0.66610300  0.24724500  1
  Mn  Mn4  1  0.66610300  0.83342800  0.74724500  1
  Mn  Mn5  1  0.16663000  0.83324000  0.74799100  1
  F  F6  1  0.00262000  0.01491900  0.62926500  1
  F  F7  1  0.01491900  0.00262000  0.12926500  1
  F  F8  1  0.87930800  0.17314800  0.84958900  1
  F  F9  1  0.53466200  0.04807300  0.14886600  1
  F  F10  1  0.28640000  0.13244100  0.84632100  1
  F  F11  1  0.96075200  0.45779100  0.14818400  1
  F  F12  1  0.65154000  0.33092000  0.36766100  1
  F  F13  1  0.49352300  0.45331800  0.14576800  1
  F  F14  1  0.87483900  0.70569900  0.84818200  1
  F  F15  1  0.13244100  0.28640000  0.34632100  1
  F  F16  1  0.45331800  0.49352300  0.64576800  1
  F  F17  1  0.33092000  0.65154000  0.86766100  1
  F  F18  1  0.04807300  0.53466200  0.64886600  1
  F  F19  1  0.70569900  0.87483900  0.34818200  1
  F  F20  1  0.45779100  0.96075200  0.64818400  1
  F  F21  1  0.17314800  0.87930800  0.34958900  1
