# generated using pymatgen
data_Lu3TaO7
_symmetry_space_group_name_H-M   'P 1'
_cell_length_a   6.34438846
_cell_length_b   6.34438846
_cell_length_c   7.43946400
_cell_angle_alpha   90.00000000
_cell_angle_beta   90.00000000
_cell_angle_gamma   110.00180196
_symmetry_Int_Tables_number   1
_chemical_formula_structural   Lu3TaO7
_chemical_formula_sum   'Lu6 Ta2 O14'
_cell_volume   281.38570105
_cell_formula_units_Z   2
loop_
 _symmetry_equiv_pos_site_id
 _symmetry_equiv_pos_as_xyz
  1  'x, y, z'
loop_
 _atom_site_type_symbol
 _atom_site_label
 _atom_site_symmetry_multiplicity
 _atom_site_fract_x
 _atom_site_fract_y
 _atom_site_fract_z
 _atom_site_occupancy
  Lu  Lu0  1  0.51071200  0.04375500  0.25000000  1
  Lu  Lu1  1  0.95624500  0.48928800  0.75000000  1
  Lu  Lu2  1  0.00000000  0.00000000  0.00000000  1
  Lu  Lu3  1  0.00000000  0.00000000  0.50000000  1
  Lu  Lu4  1  0.48928800  0.95624500  0.75000000  1
  Lu  Lu5  1  0.04375500  0.51071200  0.25000000  1
  Ta  Ta6  1  0.50000000  0.50000000  0.00000000  1
  Ta  Ta7  1  0.50000000  0.50000000  0.50000000  1
  O  O8  1  0.88306000  0.15072200  0.25000000  1
  O  O9  1  0.84927800  0.11694000  0.75000000  1
  O  O10  1  0.82850000  0.56746700  0.03210200  1
  O  O11  1  0.82850000  0.56746700  0.46789800  1
  O  O12  1  0.43253300  0.17150000  0.96789800  1
  O  O13  1  0.43253300  0.17150000  0.53210200  1
  O  O14  1  0.57833700  0.57833700  0.75000000  1
  O  O15  1  0.42166300  0.42166300  0.25000000  1
  O  O16  1  0.56746700  0.82850000  0.03210200  1
  O  O17  1  0.17150000  0.43253300  0.53210200  1
  O  O18  1  0.17150000  0.43253300  0.96789800  1
  O  O19  1  0.56746700  0.82850000  0.46789800  1
  O  O20  1  0.11694000  0.84927800  0.75000000  1
  O  O21  1  0.15072200  0.88306000  0.25000000  1
