# generated using pymatgen
data_Li3V2(FeO4)2
_symmetry_space_group_name_H-M   'P 1'
_cell_length_a   5.70308093
_cell_length_b   5.70836817
_cell_length_c   5.81730808
_cell_angle_alpha   59.44976899
_cell_angle_beta   59.57447452
_cell_angle_gamma   89.09173907
_symmetry_Int_Tables_number   1
_chemical_formula_structural   Li3V2(FeO4)2
_chemical_formula_sum   'Li3 V2 Fe2 O8'
_cell_volume   132.98594110
_cell_formula_units_Z   1
loop_
 _symmetry_equiv_pos_site_id
 _symmetry_equiv_pos_as_xyz
  1  'x, y, z'
loop_
 _atom_site_type_symbol
 _atom_site_label
 _atom_site_symmetry_multiplicity
 _atom_site_fract_x
 _atom_site_fract_y
 _atom_site_fract_z
 _atom_site_occupancy
  Li  Li0  1  0.00000000  0.50000000  0.00000000  1
  Li  Li1  1  0.50000000  0.00000000  0.50000000  1
  Li  Li2  1  0.50000000  0.50000000  0.00000000  1
  V  V3  1  0.00000000  0.50000000  0.50000000  1
  V  V4  1  0.50000000  0.00000000  0.00000000  1
  Fe  Fe5  1  0.00000000  0.00000000  0.50000000  1
  Fe  Fe6  1  0.00000000  0.00000000  0.00000000  1
  O  O7  1  0.24310900  0.75844500  0.48711500  1
  O  O8  1  0.76796200  0.77651200  0.97289500  1
  O  O9  1  0.22300200  0.23056500  0.52040100  1
  O  O10  1  0.24563500  0.75345200  0.00975500  1
  O  O11  1  0.75436500  0.24654800  0.99024500  1
  O  O12  1  0.77699800  0.76943500  0.47959900  1
  O  O13  1  0.23203800  0.22348800  0.02710500  1
  O  O14  1  0.75689100  0.24155500  0.51288500  1
