# generated using pymatgen
data_Ba2YBr7
_symmetry_space_group_name_H-M   'P 1'
_cell_length_a   9.80623947
_cell_length_b   9.80623947
_cell_length_c   11.36325892
_cell_angle_alpha   55.67535180
_cell_angle_beta   55.67535180
_cell_angle_gamma   52.45276322
_symmetry_Int_Tables_number   1
_chemical_formula_structural   Ba2YBr7
_chemical_formula_sum   'Ba4 Y2 Br14'
_cell_volume   673.80069099
_cell_formula_units_Z   2
loop_
 _symmetry_equiv_pos_site_id
 _symmetry_equiv_pos_as_xyz
  1  'x, y, z'
loop_
 _atom_site_type_symbol
 _atom_site_label
 _atom_site_symmetry_multiplicity
 _atom_site_fract_x
 _atom_site_fract_y
 _atom_site_fract_z
 _atom_site_occupancy
  Ba  Ba0  1  0.70872300  0.68131500  0.70036100  1
  Ba  Ba1  1  0.68131500  0.70872300  0.20036100  1
  Ba  Ba2  1  0.31868500  0.29127700  0.79963900  1
  Ba  Ba3  1  0.29127700  0.31868500  0.29963900  1
  Y  Y4  1  0.05201100  0.94798900  0.75000000  1
  Y  Y5  1  0.94798900  0.05201100  0.25000000  1
  Br  Br6  1  0.93660200  0.68408600  0.83926200  1
  Br  Br7  1  0.68408600  0.93660200  0.33926200  1
  Br  Br8  1  0.93166700  0.24848000  0.94338500  1
  Br  Br9  1  0.89807400  0.34335200  0.56428900  1
  Br  Br10  1  0.39954600  0.60045400  0.75000000  1
  Br  Br11  1  0.24848000  0.93166700  0.44338500  1
  Br  Br12  1  0.65664800  0.10192600  0.93571100  1
  Br  Br13  1  0.34335200  0.89807400  0.06428900  1
  Br  Br14  1  0.75152000  0.06833300  0.55661500  1
  Br  Br15  1  0.60045400  0.39954600  0.25000000  1
  Br  Br16  1  0.10192600  0.65664800  0.43571100  1
  Br  Br17  1  0.06833300  0.75152000  0.05661500  1
  Br  Br18  1  0.31591400  0.06339800  0.66073800  1
  Br  Br19  1  0.06339800  0.31591400  0.16073800  1
