# generated using pymatgen
data_MgTiAu2
_symmetry_space_group_name_H-M   'P 1'
_cell_length_a   12.06673892
_cell_length_b   12.06673892
_cell_length_c   12.06673892
_cell_angle_alpha   128.69158717
_cell_angle_beta   113.21148130
_cell_angle_gamma   88.89675077
_symmetry_Int_Tables_number   1
_chemical_formula_structural   MgTiAu2
_chemical_formula_sum   'Mg1 Ti1 Au2'
_cell_volume   1195.52478669
_cell_formula_units_Z   1
loop_
 _symmetry_equiv_pos_site_id
 _symmetry_equiv_pos_as_xyz
  1  'x, y, z'
loop_
 _atom_site_type_symbol
 _atom_site_label
 _atom_site_symmetry_multiplicity
 _atom_site_fract_x
 _atom_site_fract_y
 _atom_site_fract_z
 _atom_site_occupancy
  Mg  Mg0  1  0.00000000  0.00000000  0.00000000  1
  Ti  Ti1  1  0.00000000  0.50000000  0.50000000  1
  Au  Au2  1  0.00000000  0.25079000  0.25079000  1
  Au  Au3  1  0.00000000  0.74921000  0.74921000  1
