# generated using pymatgen
data_Li2VNi(PO4)2
_symmetry_space_group_name_H-M   'P 1'
_cell_length_a   4.75252922
_cell_length_b   10.33504864
_cell_length_c   6.01944600
_cell_angle_alpha   90.00002062
_cell_angle_beta   89.99999047
_cell_angle_gamma   90.10960952
_symmetry_Int_Tables_number   1
_chemical_formula_structural   Li2VNi(PO4)2
_chemical_formula_sum   'Li4 V2 Ni2 P4 O16'
_cell_volume   295.66032383
_cell_formula_units_Z   2
loop_
 _symmetry_equiv_pos_site_id
 _symmetry_equiv_pos_as_xyz
  1  'x, y, z'
loop_
 _atom_site_type_symbol
 _atom_site_label
 _atom_site_symmetry_multiplicity
 _atom_site_fract_x
 _atom_site_fract_y
 _atom_site_fract_z
 _atom_site_occupancy
  Li  Li0  1  0.00005200  0.99996800  0.99993300  1
  Li  Li1  1  0.00005300  0.99996800  0.50006800  1
  Li  Li2  1  0.50002400  0.50001800  0.99989900  1
  Li  Li3  1  0.50002500  0.50001800  0.50010100  1
  V  V4  1  0.48439700  0.22656400  0.74999800  1
  V  V5  1  0.51578600  0.77317300  0.25001100  1
  Ni  Ni6  1  0.01754000  0.72279200  0.75002100  1
  Ni  Ni7  1  0.98205100  0.27721900  0.24996200  1
  P  P8  1  0.41006900  0.09594000  0.24999900  1
  P  P9  1  0.58955900  0.90391600  0.75000200  1
  P  P10  1  0.92029700  0.41038300  0.75000100  1
  P  P11  1  0.08024000  0.58986700  0.24999900  1
  O  O12  1  0.70502800  0.04456600  0.75000200  1
  O  O13  1  0.29492100  0.95519500  0.24999900  1
  O  O14  1  0.73339400  0.10379300  0.24999800  1
  O  O15  1  0.26634100  0.89627000  0.75000300  1
  O  O16  1  0.24330400  0.40763000  0.75000100  1
  O  O17  1  0.75709900  0.59250200  0.24999800  1
  O  O18  1  0.20357000  0.45059500  0.25000100  1
  O  O19  1  0.79654700  0.54952200  0.74999900  1
  O  O20  1  0.26777200  0.16539200  0.04640700  1
  O  O21  1  0.26777300  0.16539200  0.45359200  1
  O  O22  1  0.73162600  0.83447500  0.54617300  1
  O  O23  1  0.73162700  0.83447500  0.95382900  1
  O  O24  1  0.78501300  0.33893000  0.54384900  1
  O  O25  1  0.78501500  0.33893000  0.95615400  1
  O  O26  1  0.21543900  0.66125300  0.04379100  1
  O  O27  1  0.21543700  0.66125400  0.45621100  1
