# generated using pymatgen
data_Rb2S2O7
_symmetry_space_group_name_H-M   'P 1'
_cell_length_a   7.52255689
_cell_length_b   7.52255689
_cell_length_c   7.76284611
_cell_angle_alpha   85.42817095
_cell_angle_beta   85.42817095
_cell_angle_gamma   61.52224052
_symmetry_Int_Tables_number   1
_chemical_formula_structural   Rb2S2O7
_chemical_formula_sum   'Rb4 S4 O14'
_cell_volume   384.47264539
_cell_formula_units_Z   2
loop_
 _symmetry_equiv_pos_site_id
 _symmetry_equiv_pos_as_xyz
  1  'x, y, z'
loop_
 _atom_site_type_symbol
 _atom_site_label
 _atom_site_symmetry_multiplicity
 _atom_site_fract_x
 _atom_site_fract_y
 _atom_site_fract_z
 _atom_site_occupancy
  Rb  Rb0  1  0.99192800  0.29490300  0.65075700  1
  Rb  Rb1  1  0.29490300  0.99192800  0.15075700  1
  Rb  Rb2  1  0.70509700  0.00807200  0.84924300  1
  Rb  Rb3  1  0.00807200  0.70509700  0.34924300  1
  S  S4  1  0.42025300  0.78245700  0.64382200  1
  S  S5  1  0.78245700  0.42025300  0.14382200  1
  S  S6  1  0.21754300  0.57974700  0.85617800  1
  S  S7  1  0.57974700  0.21754300  0.35617800  1
  O  O8  1  0.62807700  0.69810200  0.57484100  1
  O  O9  1  0.69810200  0.62807700  0.07484100  1
  O  O10  1  0.36789200  0.93222000  0.77426500  1
  O  O11  1  0.93222000  0.36789200  0.27426500  1
  O  O12  1  0.84969200  0.26707300  0.01427500  1
  O  O13  1  0.26707300  0.84969200  0.51427500  1
  O  O14  1  0.42220300  0.57779700  0.75000000  1
  O  O15  1  0.57779700  0.42220300  0.25000000  1
  O  O16  1  0.73292700  0.15030800  0.48572500  1
  O  O17  1  0.15030800  0.73292700  0.98572500  1
  O  O18  1  0.06778000  0.63210800  0.72573500  1
  O  O19  1  0.63210800  0.06778000  0.22573500  1
  O  O20  1  0.30189800  0.37192300  0.92515900  1
  O  O21  1  0.37192300  0.30189800  0.42515900  1
