# generated using pymatgen
data_TiGa2O5
_symmetry_space_group_name_H-M   'P 1'
_cell_length_a   5.64301311
_cell_length_b   5.64301311
_cell_length_c   7.06332251
_cell_angle_alpha   71.65583127
_cell_angle_beta   71.65583127
_cell_angle_gamma   53.08632963
_symmetry_Int_Tables_number   1
_chemical_formula_structural   TiGa2O5
_chemical_formula_sum   'Ti2 Ga4 O10'
_cell_volume   168.33790522
_cell_formula_units_Z   2
loop_
 _symmetry_equiv_pos_site_id
 _symmetry_equiv_pos_as_xyz
  1  'x, y, z'
loop_
 _atom_site_type_symbol
 _atom_site_label
 _atom_site_symmetry_multiplicity
 _atom_site_fract_x
 _atom_site_fract_y
 _atom_site_fract_z
 _atom_site_occupancy
  Ti  Ti0  1  0.00000000  0.00000000  0.50000000  1
  Ti  Ti1  1  0.00000000  0.00000000  0.00000000  1
  Ga  Ga2  1  0.36074600  0.36676000  0.72571500  1
  Ga  Ga3  1  0.36676000  0.36074600  0.22571500  1
  Ga  Ga4  1  0.63324000  0.63925400  0.77428500  1
  Ga  Ga5  1  0.63925400  0.63324000  0.27428500  1
  O  O6  1  0.24964000  0.58144000  0.94904300  1
  O  O7  1  0.58144000  0.24964000  0.44904300  1
  O  O8  1  0.96820900  0.66203500  0.64985300  1
  O  O9  1  0.33796500  0.03179100  0.85014700  1
  O  O10  1  0.66203500  0.96820900  0.14985300  1
  O  O11  1  0.03179100  0.33796500  0.35014700  1
  O  O12  1  0.41856000  0.75036000  0.55095700  1
  O  O13  1  0.80352500  0.19647500  0.75000000  1
  O  O14  1  0.75036000  0.41856000  0.05095700  1
  O  O15  1  0.19647500  0.80352500  0.25000000  1
