# generated using pymatgen
data_Ca3MnO4
_symmetry_space_group_name_H-M   'P 1'
_cell_length_a   5.81650266
_cell_length_b   6.74235225
_cell_length_c   11.62703741
_cell_angle_alpha   73.14546665
_cell_angle_beta   99.50178762
_cell_angle_gamma   90.00000000
_symmetry_Int_Tables_number   1
_chemical_formula_structural   Ca3MnO4
_chemical_formula_sum   'Ca12 Mn4 O16'
_cell_volume   429.84878238
_cell_formula_units_Z   4
loop_
 _symmetry_equiv_pos_site_id
 _symmetry_equiv_pos_as_xyz
  1  'x, y, z'
loop_
 _atom_site_type_symbol
 _atom_site_label
 _atom_site_symmetry_multiplicity
 _atom_site_fract_x
 _atom_site_fract_y
 _atom_site_fract_z
 _atom_site_occupancy
  Ca  Ca0  1  0.25000000  0.62500000  0.75000000  1
  Ca  Ca1  1  0.75000000  0.37500000  0.25000000  1
  Ca  Ca2  1  0.25000000  0.12500000  0.75000000  1
  Ca  Ca3  1  0.75000000  0.87500000  0.25000000  1
  Ca  Ca4  1  0.75000000  0.37500000  0.75000000  1
  Ca  Ca5  1  0.25000000  0.12500000  0.25000000  1
  Ca  Ca6  1  0.75000000  0.87500000  0.75000000  1
  Ca  Ca7  1  0.25000000  0.62500000  0.25000000  1
  Ca  Ca8  1  0.00000000  0.50000000  0.50000000  1
  Ca  Ca9  1  0.50000000  0.25000000  0.00000000  1
  Ca  Ca10  1  0.00000000  0.00000000  0.50000000  1
  Ca  Ca11  1  0.50000000  0.75000000  0.00000000  1
  Mn  Mn12  1  0.00000000  0.50000000  0.00000000  1
  Mn  Mn13  1  0.50000000  0.25000000  0.50000000  1
  Mn  Mn14  1  0.50000000  0.75000000  0.50000000  1
  Mn  Mn15  1  0.00000000  0.00000000  0.00000000  1
  O  O16  1  0.62933100  0.56177800  0.87644400  1
  O  O17  1  0.12933100  0.31177800  0.37644400  1
  O  O18  1  0.62933100  0.06177800  0.87644400  1
  O  O19  1  0.12933100  0.81177800  0.37644400  1
  O  O20  1  0.87066900  0.68822200  0.62355600  1
  O  O21  1  0.37066900  0.43822200  0.12355600  1
  O  O22  1  0.87066900  0.18822200  0.62355600  1
  O  O23  1  0.37066900  0.93822200  0.12355600  1
  O  O24  1  0.12152500  0.31076300  0.87847500  1
  O  O25  1  0.62152500  0.06076300  0.37847500  1
  O  O26  1  0.12152500  0.81076300  0.87847500  1
  O  O27  1  0.62152500  0.56076300  0.37847500  1
  O  O28  1  0.37847500  0.43923700  0.62152500  1
  O  O29  1  0.87847500  0.18923700  0.12152500  1
  O  O30  1  0.37847500  0.93923700  0.62152500  1
  O  O31  1  0.87847500  0.68923700  0.12152500  1
