# generated using pymatgen
data_NaCo3O4
_symmetry_space_group_name_H-M   'P 1'
_cell_length_a   5.36149700
_cell_length_b   5.71879800
_cell_length_c   6.76434300
_cell_angle_alpha   90.00000000
_cell_angle_beta   90.00000000
_cell_angle_gamma   90.00000000
_symmetry_Int_Tables_number   1
_chemical_formula_structural   NaCo3O4
_chemical_formula_sum   'Na2 Co6 O8'
_cell_volume   207.40367395
_cell_formula_units_Z   2
loop_
 _symmetry_equiv_pos_site_id
 _symmetry_equiv_pos_as_xyz
  1  'x, y, z'
loop_
 _atom_site_type_symbol
 _atom_site_label
 _atom_site_symmetry_multiplicity
 _atom_site_fract_x
 _atom_site_fract_y
 _atom_site_fract_z
 _atom_site_occupancy
  Na  Na0  1  0.98975300  0.83421100  0.00000000  1
  Na  Na1  1  0.48975300  0.16578900  0.50000000  1
  Co  Co2  1  0.49830800  0.18254100  0.00000000  1
  Co  Co3  1  0.99411300  0.33247900  0.25353600  1
  Co  Co4  1  0.49411300  0.66752100  0.24646400  1
  Co  Co5  1  0.99830800  0.81745900  0.50000000  1
  Co  Co6  1  0.49411300  0.66752100  0.75353600  1
  Co  Co7  1  0.99411300  0.33247900  0.74646400  1
  O  O8  1  0.85084300  0.21636600  0.00000000  1
  O  O9  1  0.43526300  0.85534400  0.00000000  1
  O  O10  1  0.86114100  0.65355100  0.28439100  1
  O  O11  1  0.36114100  0.34644900  0.21560900  1
  O  O12  1  0.93526300  0.14465600  0.50000000  1
  O  O13  1  0.35084300  0.78363400  0.50000000  1
  O  O14  1  0.36114100  0.34644900  0.78439100  1
  O  O15  1  0.86114100  0.65355100  0.71560900  1
