# generated using pymatgen
data_VOF3
_symmetry_space_group_name_H-M   'P 1'
_cell_length_a   12.45385400
_cell_length_b   4.90888700
_cell_length_c   4.97563175
_cell_angle_alpha   85.54535392
_cell_angle_beta   90.00000000
_cell_angle_gamma   90.00000000
_symmetry_Int_Tables_number   1
_chemical_formula_structural   VOF3
_chemical_formula_sum   'V4 O4 F12'
_cell_volume   303.26416939
_cell_formula_units_Z   4
loop_
 _symmetry_equiv_pos_site_id
 _symmetry_equiv_pos_as_xyz
  1  'x, y, z'
loop_
 _atom_site_type_symbol
 _atom_site_label
 _atom_site_symmetry_multiplicity
 _atom_site_fract_x
 _atom_site_fract_y
 _atom_site_fract_z
 _atom_site_occupancy
  V  V0  1  0.15942400  0.21167300  0.03785600  1
  V  V1  1  0.34057600  0.71167300  0.03785600  1
  V  V2  1  0.65942400  0.28832700  0.96214400  1
  V  V3  1  0.84057600  0.78832700  0.96214400  1
  O  O4  1  0.57786400  0.38808300  0.18055600  1
  O  O5  1  0.92213600  0.88808300  0.18055600  1
  O  O6  1  0.07786400  0.11191700  0.81944400  1
  O  O7  1  0.42213600  0.61191700  0.81944400  1
  F  F8  1  0.79336000  0.45253200  0.14290900  1
  F  F9  1  0.70664000  0.95253200  0.14290900  1
  F  F10  1  0.30807100  0.40695700  0.25927200  1
  F  F11  1  0.07543600  0.36061500  0.26896600  1
  F  F12  1  0.19192900  0.90695700  0.25927200  1
  F  F13  1  0.42456400  0.86061500  0.26896600  1
  F  F14  1  0.57543600  0.13938500  0.73103400  1
  F  F15  1  0.80807100  0.09304300  0.74072800  1
  F  F16  1  0.92456400  0.63938500  0.73103400  1
  F  F17  1  0.69192900  0.59304300  0.74072800  1
  F  F18  1  0.29336000  0.04746800  0.85709100  1
  F  F19  1  0.20664000  0.54746800  0.85709100  1
