# generated using pymatgen
data_Li2VP2O7
_symmetry_space_group_name_H-M   'P 1'
_cell_length_a   5.36646666
_cell_length_b   12.28847592
_cell_length_c   8.88602200
_cell_angle_alpha   73.51668030
_cell_angle_beta   97.75549495
_cell_angle_gamma   88.82146412
_symmetry_Int_Tables_number   1
_chemical_formula_structural   Li2VP2O7
_chemical_formula_sum   'Li8 V4 P8 O28'
_cell_volume   555.70279757
_cell_formula_units_Z   4
loop_
 _symmetry_equiv_pos_site_id
 _symmetry_equiv_pos_as_xyz
  1  'x, y, z'
loop_
 _atom_site_type_symbol
 _atom_site_label
 _atom_site_symmetry_multiplicity
 _atom_site_fract_x
 _atom_site_fract_y
 _atom_site_fract_z
 _atom_site_occupancy
  Li  Li0  1  0.81127000  0.40126400  0.58443500  1
  Li  Li1  1  0.31118400  0.90125400  0.08436000  1
  Li  Li2  1  0.68881600  0.09874100  0.91565400  1
  Li  Li3  1  0.18871500  0.59872600  0.41558900  1
  Li  Li4  1  0.21535800  0.11111700  0.63610500  1
  Li  Li5  1  0.71534100  0.61118900  0.13604300  1
  Li  Li6  1  0.28464700  0.38881800  0.86395900  1
  Li  Li7  1  0.78465700  0.88888200  0.36389600  1
  V  V8  1  0.29323600  0.79777300  0.56831800  1
  V  V9  1  0.70678100  0.20219600  0.43166200  1
  V  V10  1  0.79325400  0.29802600  0.06837600  1
  V  V11  1  0.20681100  0.70197700  0.93161300  1
  P  P12  1  0.15715800  0.07027100  0.31473100  1
  P  P13  1  0.65713200  0.57026100  0.81468000  1
  P  P14  1  0.34287300  0.42973800  0.18532000  1
  P  P15  1  0.84285800  0.92972800  0.68527500  1
  P  P16  1  0.26061400  0.35161200  0.52885700  1
  P  P17  1  0.76054200  0.85161800  0.02882000  1
  P  P18  1  0.23945200  0.14838700  0.97117900  1
  P  P19  1  0.73939200  0.64839100  0.47114100  1
  O  O20  1  0.61476800  0.44596100  0.89231800  1
  O  O21  1  0.11481200  0.94596900  0.39232500  1
  O  O22  1  0.88519900  0.05402900  0.60768200  1
  O  O23  1  0.38522200  0.55403800  0.10768700  1
  O  O24  1  0.90809200  0.14508800  0.26435900  1
  O  O25  1  0.40807100  0.64507700  0.76433000  1
  O  O26  1  0.59192500  0.35492200  0.23567200  1
  O  O27  1  0.09190500  0.85491000  0.73563700  1
  O  O28  1  0.04724100  0.27118600  0.52769200  1
  O  O29  1  0.54708700  0.77121600  0.02768500  1
  O  O30  1  0.45289800  0.22879000  0.97231800  1
  O  O31  1  0.95275500  0.72881700  0.47231500  1
  O  O32  1  0.97499500  0.20860500  0.92364800  1
  O  O33  1  0.47488800  0.70855000  0.42360500  1
  O  O34  1  0.52510500  0.29144800  0.57639600  1
  O  O35  1  0.02499600  0.79139600  0.07634900  1
  O  O36  1  0.29441600  0.06688400  0.87617000  1
  O  O37  1  0.79447400  0.56690800  0.37610100  1
  O  O38  1  0.20551300  0.43309500  0.62389100  1
  O  O39  1  0.70558000  0.93312300  0.12382700  1
  O  O40  1  0.14005100  0.38193900  0.08982600  1
  O  O41  1  0.64004900  0.88192900  0.58976700  1
  O  O42  1  0.35995900  0.11808000  0.41022600  1
  O  O43  1  0.85994200  0.61806800  0.91016800  1
  O  O44  1  0.24701900  0.43814200  0.34968500  1
  O  O45  1  0.74695300  0.93813400  0.84962100  1
  O  O46  1  0.25303300  0.06186600  0.15037500  1
  O  O47  1  0.75296100  0.56185900  0.65031100  1
