# generated using pymatgen
data_TiCo(PO4)2
_symmetry_space_group_name_H-M   'P 1'
_cell_length_a   5.97197719
_cell_length_b   9.86712830
_cell_length_c   11.07346328
_cell_angle_alpha   115.73701679
_cell_angle_beta   89.97723725
_cell_angle_gamma   90.02404119
_symmetry_Int_Tables_number   1
_chemical_formula_structural   TiCo(PO4)2
_chemical_formula_sum   'Ti4 Co4 P8 O32'
_cell_volume   587.78581692
_cell_formula_units_Z   4
loop_
 _symmetry_equiv_pos_site_id
 _symmetry_equiv_pos_as_xyz
  1  'x, y, z'
loop_
 _atom_site_type_symbol
 _atom_site_label
 _atom_site_symmetry_multiplicity
 _atom_site_fract_x
 _atom_site_fract_y
 _atom_site_fract_z
 _atom_site_occupancy
  Ti  Ti0  1  0.75043300  0.34862100  0.22460200  1
  Ti  Ti1  1  0.75033600  0.84849700  0.22424300  1
  Ti  Ti2  1  0.25027300  0.65162500  0.77551600  1
  Ti  Ti3  1  0.25021200  0.15145000  0.77584200  1
  Co  Co4  1  0.25014100  0.11828600  0.27088800  1
  Co  Co5  1  0.74999200  0.88154700  0.72879900  1
  Co  Co6  1  0.25135700  0.61896400  0.27359100  1
  Co  Co7  1  0.74904200  0.38138700  0.72551700  1
  P  P8  1  0.24966600  0.27082800  0.09844600  1
  P  P9  1  0.25002400  0.76865400  0.09835600  1
  P  P10  1  0.74964400  0.72927200  0.90162300  1
  P  P11  1  0.75019800  0.23129800  0.90158000  1
  P  P12  1  0.74964300  0.64784700  0.40012300  1
  P  P13  1  0.75033600  0.14754100  0.39977100  1
  P  P14  1  0.24924600  0.35199600  0.59993800  1
  P  P15  1  0.25037700  0.85242000  0.60015800  1
  O  O16  1  0.75171600  0.34766900  0.05227900  1
  O  O17  1  0.74969700  0.84672600  0.05177100  1
  O  O18  1  0.25148200  0.65214300  0.94772500  1
  O  O19  1  0.24995100  0.15310400  0.94834800  1
  O  O20  1  0.24823300  0.42789200  0.10745000  1
  O  O21  1  0.24950500  0.92590000  0.10835100  1
  O  O22  1  0.74874200  0.57213400  0.89223600  1
  O  O23  1  0.74871600  0.07395900  0.89138000  1
  O  O24  1  0.74998300  0.27976700  0.36002700  1
  O  O25  1  0.75107500  0.77855700  0.35860200  1
  O  O26  1  0.25013700  0.72009900  0.63988300  1
  O  O27  1  0.25138300  0.22111900  0.64131000  1
  O  O28  1  0.24849400  0.29475500  0.45060300  1
  O  O29  1  0.25116100  0.79888500  0.45088800  1
  O  O30  1  0.74859600  0.70539200  0.54948700  1
  O  O31  1  0.75169100  0.20122200  0.54900800  1
  O  O32  1  0.04504800  0.23641700  0.17122700  1
  O  O33  1  0.04441400  0.73399800  0.16975600  1
  O  O34  1  0.45520900  0.23740400  0.17112100  1
  O  O35  1  0.45491200  0.73659500  0.17212100  1
  O  O36  1  0.54493000  0.76381900  0.82903100  1
  O  O37  1  0.54479500  0.26629300  0.83035500  1
  O  O38  1  0.95541200  0.76319100  0.82928600  1
  O  O39  1  0.95554500  0.26304800  0.82796500  1
  O  O40  1  0.55296100  0.53466400  0.32619600  1
  O  O41  1  0.55326800  0.03524400  0.32571300  1
  O  O42  1  0.94637800  0.53446100  0.32739300  1
  O  O43  1  0.94680100  0.03486100  0.32499500  1
  O  O44  1  0.05273100  0.46517000  0.67410700  1
  O  O45  1  0.05334600  0.96461900  0.67451400  1
  O  O46  1  0.44594500  0.46553900  0.67296000  1
  O  O47  1  0.44682500  0.96512200  0.67492200  1
