# generated using pymatgen
data_Co6O5F7
_symmetry_space_group_name_H-M   'P 1'
_cell_length_a   5.57117500
_cell_length_b   5.57144893
_cell_length_c   7.02024925
_cell_angle_alpha   73.43249848
_cell_angle_beta   73.15607438
_cell_angle_gamma   73.66050496
_symmetry_Int_Tables_number   1
_chemical_formula_structural   Co6O5F7
_chemical_formula_sum   'Co6 O5 F7'
_cell_volume   195.15256120
_cell_formula_units_Z   1
loop_
 _symmetry_equiv_pos_site_id
 _symmetry_equiv_pos_as_xyz
  1  'x, y, z'
loop_
 _atom_site_type_symbol
 _atom_site_label
 _atom_site_symmetry_multiplicity
 _atom_site_fract_x
 _atom_site_fract_y
 _atom_site_fract_z
 _atom_site_occupancy
  Co  Co0  1  0.67345600  0.70635300  0.84167700  1
  Co  Co1  1  0.68509100  0.60958700  0.32053500  1
  Co  Co2  1  0.36321400  0.31758500  0.66229000  1
  Co  Co3  1  0.31268700  0.32932000  0.16498700  1
  Co  Co4  1  0.98888200  0.00592200  0.50052700  1
  Co  Co5  1  0.99302500  0.01306400  0.00433600  1
  O  O6  1  0.24782500  0.24810200  0.94762300  1
  O  O7  1  0.41707100  0.41967600  0.37779100  1
  O  O8  1  0.76033700  0.77126800  0.04473300  1
  O  O9  1  0.95935100  0.33753300  0.33972000  1
  O  O10  1  0.66073300  0.03211000  0.65957200  1
  F  F11  1  0.34486900  0.95753700  0.33961400  1
  F  F12  1  0.03741200  0.65505200  0.66037100  1
  F  F13  1  0.57376300  0.57640000  0.63578600  1
  F  F14  1  0.88902300  0.89107800  0.31300500  1
  F  F15  1  0.10134400  0.10432100  0.69023300  1
  F  F16  1  0.30066600  0.70635800  0.99820000  1
  F  F17  1  0.69125000  0.31873800  0.99900000  1
