# generated using pymatgen
data_RbCrH4(C2O5)2
_symmetry_space_group_name_H-M   'P 1'
_cell_length_a   6.84455978
_cell_length_b   7.31019900
_cell_length_c   11.37484348
_cell_angle_alpha   71.25901821
_cell_angle_beta   105.86231888
_cell_angle_gamma   89.99755011
_symmetry_Int_Tables_number   1
_chemical_formula_structural   RbCrH4(C2O5)2
_chemical_formula_sum   'Rb2 Cr2 H8 C8 O20'
_cell_volume   516.02559808
_cell_formula_units_Z   2
loop_
 _symmetry_equiv_pos_site_id
 _symmetry_equiv_pos_as_xyz
  1  'x, y, z'
loop_
 _atom_site_type_symbol
 _atom_site_label
 _atom_site_symmetry_multiplicity
 _atom_site_fract_x
 _atom_site_fract_y
 _atom_site_fract_z
 _atom_site_occupancy
  Rb  Rb0  1  0.75002500  0.74998700  0.50001100  1
  Rb  Rb1  1  0.25003500  0.24999900  0.49998300  1
  Cr  Cr2  1  0.49993800  0.50005500  0.99998200  1
  Cr  Cr3  1  0.99985900  0.99998900  0.99998900  1
  H  H4  1  0.70656500  0.06196900  0.10167000  1
  H  H5  1  0.20653300  0.56186900  0.10169000  1
  H  H6  1  0.70657800  0.83638600  0.10165300  1
  H  H7  1  0.20655400  0.33645700  0.10168600  1
  H  H8  1  0.79345300  0.43813800  0.89833300  1
  H  H9  1  0.29339000  0.93802900  0.89837400  1
  H  H10  1  0.79346800  0.66350100  0.89834800  1
  H  H11  1  0.29341100  0.16357200  0.89838900  1
  C  C12  1  0.24848500  0.73015100  0.75275100  1
  C  C13  1  0.74849600  0.23022200  0.75274700  1
  C  C14  1  0.24845500  0.51709800  0.75276900  1
  C  C15  1  0.74846800  0.01702300  0.75276900  1
  C  C16  1  0.25156400  0.98298600  0.24722600  1
  C  C17  1  0.75159900  0.48290100  0.24722500  1
  C  C18  1  0.25152300  0.76978800  0.24723300  1
  C  C19  1  0.75155200  0.26985500  0.24723300  1
  O  O20  1  0.74661200  0.96890900  0.06220500  1
  O  O21  1  0.24689700  0.46885800  0.06229000  1
  O  O22  1  0.75305100  0.53112400  0.93772600  1
  O  O23  1  0.25327800  0.03108300  0.93781900  1
  O  O24  1  0.85371600  0.13567800  0.34122500  1
  O  O25  1  0.35384500  0.63576800  0.34133400  1
  O  O26  1  0.85374700  0.52317700  0.34119800  1
  O  O27  1  0.35386800  0.02295900  0.34130700  1
  O  O28  1  0.64623300  0.97700900  0.65870200  1
  O  O29  1  0.14632600  0.47681000  0.65878600  1
  O  O30  1  0.64622500  0.36422000  0.65863700  1
  O  O31  1  0.14631700  0.86435000  0.65872200  1
  O  O32  1  0.63772300  0.25205400  0.13832400  1
  O  O33  1  0.13781000  0.75117000  0.13861200  1
  O  O34  1  0.63775200  0.60962500  0.13832300  1
  O  O35  1  0.13781100  0.11022900  0.13860400  1
  O  O36  1  0.86217300  0.88977600  0.86141200  1
  O  O37  1  0.36225900  0.39040100  0.86168100  1
  O  O38  1  0.86216400  0.24883800  0.86138200  1
  O  O39  1  0.36224500  0.74798500  0.86165000  1
