# generated using pymatgen
data_V2OF5
_symmetry_space_group_name_H-M   'P 1'
_cell_length_a   4.88858047
_cell_length_b   4.88858047
_cell_length_c   4.58689255
_cell_angle_alpha   88.62479000
_cell_angle_beta   88.62479000
_cell_angle_gamma   59.82508290
_symmetry_Int_Tables_number   1
_chemical_formula_structural   V2OF5
_chemical_formula_sum   'V2 O1 F5'
_cell_volume   94.72836022
_cell_formula_units_Z   1
loop_
 _symmetry_equiv_pos_site_id
 _symmetry_equiv_pos_as_xyz
  1  'x, y, z'
loop_
 _atom_site_type_symbol
 _atom_site_label
 _atom_site_symmetry_multiplicity
 _atom_site_fract_x
 _atom_site_fract_y
 _atom_site_fract_z
 _atom_site_occupancy
  V  V0  1  0.33026600  0.35632200  0.23573400  1
  V  V1  1  0.64367800  0.66973400  0.76426600  1
  O  O2  1  0.37899200  0.62100800  0.00000000  1
  F  F3  1  0.64054600  0.35945400  0.50000000  1
  F  F4  1  0.99831400  0.63833100  0.49874000  1
  F  F5  1  0.36166900  0.00168600  0.50126000  1
  F  F6  1  0.64084800  0.99922500  0.99683700  1
  F  F7  1  0.00077500  0.35915200  0.00316300  1
