# generated using pymatgen
data_VF5
_symmetry_space_group_name_H-M   'P 1'
_cell_length_a   5.48027039
_cell_length_b   5.48027039
_cell_length_c   6.27629999
_cell_angle_alpha   75.16251139
_cell_angle_beta   75.16251139
_cell_angle_gamma   76.51959160
_symmetry_Int_Tables_number   1
_chemical_formula_structural   VF5
_chemical_formula_sum   'V2 F10'
_cell_volume   173.28319351
_cell_formula_units_Z   2
loop_
 _symmetry_equiv_pos_site_id
 _symmetry_equiv_pos_as_xyz
  1  'x, y, z'
loop_
 _atom_site_type_symbol
 _atom_site_label
 _atom_site_symmetry_multiplicity
 _atom_site_fract_x
 _atom_site_fract_y
 _atom_site_fract_z
 _atom_site_occupancy
  V  V0  1  0.58980800  0.41019200  0.25000000  1
  V  V1  1  0.41019200  0.58980800  0.75000000  1
  F  F2  1  0.34605700  0.65595600  0.05699700  1
  F  F3  1  0.33817500  0.23179900  0.34661700  1
  F  F4  1  0.84792800  0.15207200  0.25000000  1
  F  F5  1  0.76820100  0.66182500  0.15338300  1
  F  F6  1  0.34404400  0.65394300  0.44300300  1
  F  F7  1  0.65595600  0.34605700  0.55699700  1
  F  F8  1  0.23179900  0.33817500  0.84661700  1
  F  F9  1  0.15207200  0.84792800  0.75000000  1
  F  F10  1  0.66182500  0.76820100  0.65338300  1
  F  F11  1  0.65394300  0.34404400  0.94300300  1
