# generated using pymatgen
data_Fe4O3F5
_symmetry_space_group_name_H-M   'P 1'
_cell_length_a   4.76258500
_cell_length_b   4.77035091
_cell_length_c   12.55993116
_cell_angle_alpha   91.25491314
_cell_angle_beta   90.40889047
_cell_angle_gamma   91.42142101
_symmetry_Int_Tables_number   1
_chemical_formula_structural   Fe4O3F5
_chemical_formula_sum   'Fe8 O6 F10'
_cell_volume   285.18696312
_cell_formula_units_Z   2
loop_
 _symmetry_equiv_pos_site_id
 _symmetry_equiv_pos_as_xyz
  1  'x, y, z'
loop_
 _atom_site_type_symbol
 _atom_site_label
 _atom_site_symmetry_multiplicity
 _atom_site_fract_x
 _atom_site_fract_y
 _atom_site_fract_z
 _atom_site_occupancy
  Fe  Fe0  1  0.00000000  0.00000000  0.00000000  1
  Fe  Fe1  1  0.98307700  0.96506700  0.75932700  1
  Fe  Fe2  1  0.00000000  0.00000000  0.50000000  1
  Fe  Fe3  1  0.01692300  0.03493300  0.24067300  1
  Fe  Fe4  1  0.48069700  0.53939200  0.86567900  1
  Fe  Fe5  1  0.48162700  0.48863100  0.38864800  1
  Fe  Fe6  1  0.51930300  0.46060800  0.13432100  1
  Fe  Fe7  1  0.51837300  0.51136900  0.61135200  1
  O  O8  1  0.81415700  0.19464100  0.12541600  1
  O  O9  1  0.28753200  0.28727800  0.50478100  1
  O  O10  1  0.31697000  0.30778800  0.25245800  1
  O  O11  1  0.68303000  0.69221200  0.74754200  1
  O  O12  1  0.71246800  0.71272200  0.49521900  1
  O  O13  1  0.18584300  0.80535900  0.87458400  1
  F  F14  1  0.78212300  0.21042100  0.86863100  1
  F  F15  1  0.80901300  0.18723900  0.63024400  1
  F  F16  1  0.81144500  0.19398900  0.37132500  1
  F  F17  1  0.31920200  0.32000400  0.99897200  1
  F  F18  1  0.28321000  0.29325600  0.75261100  1
  F  F19  1  0.68079800  0.67999600  0.00102800  1
  F  F20  1  0.71679000  0.70674400  0.24738900  1
  F  F21  1  0.18855500  0.80601100  0.62867500  1
  F  F22  1  0.19098700  0.81276100  0.36975600  1
  F  F23  1  0.21787700  0.78957900  0.13136900  1
