# generated using pymatgen
data_MnCoO4
_symmetry_space_group_name_H-M   'P 1'
_cell_length_a   2.89448400
_cell_length_b   4.97481900
_cell_length_c   5.01597734
_cell_angle_alpha   70.32980964
_cell_angle_beta   90.00000000
_cell_angle_gamma   90.00000000
_symmetry_Int_Tables_number   1
_chemical_formula_structural   MnCoO4
_chemical_formula_sum   'Mn1 Co1 O4'
_cell_volume   68.01294455
_cell_formula_units_Z   1
loop_
 _symmetry_equiv_pos_site_id
 _symmetry_equiv_pos_as_xyz
  1  'x, y, z'
loop_
 _atom_site_type_symbol
 _atom_site_label
 _atom_site_symmetry_multiplicity
 _atom_site_fract_x
 _atom_site_fract_y
 _atom_site_fract_z
 _atom_site_occupancy
  Mn  Mn0  1  0.50000000  0.00000000  0.50000000  1
  Co  Co1  1  0.00000000  0.50000000  0.50000000  1
  O  O2  1  0.00000000  0.23905300  0.29839200  1
  O  O3  1  0.50000000  0.72754700  0.29953900  1
  O  O4  1  0.50000000  0.27245300  0.70046100  1
  O  O5  1  0.00000000  0.76094700  0.70160800  1
