# generated using pymatgen
data_WO2F
_symmetry_space_group_name_H-M   'P 1'
_cell_length_a   5.58498337
_cell_length_b   5.58498337
_cell_length_c   5.58498337
_cell_angle_alpha   122.24745520
_cell_angle_beta   122.01859446
_cell_angle_gamma   86.34368627
_symmetry_Int_Tables_number   1
_chemical_formula_structural   WO2F
_chemical_formula_sum   'W2 O4 F2'
_cell_volume   118.94710541
_cell_formula_units_Z   2
loop_
 _symmetry_equiv_pos_site_id
 _symmetry_equiv_pos_as_xyz
  1  'x, y, z'
loop_
 _atom_site_type_symbol
 _atom_site_label
 _atom_site_symmetry_multiplicity
 _atom_site_fract_x
 _atom_site_fract_y
 _atom_site_fract_z
 _atom_site_occupancy
  W  W0  1  0.00000000  0.00000000  0.00000000  1
  W  W1  1  0.50000000  0.50000000  0.00000000  1
  O  O2  1  0.25699200  0.75699200  0.00000000  1
  O  O3  1  0.24300800  0.24300800  0.50000000  1
  O  O4  1  0.75699200  0.75699200  0.50000000  1
  O  O5  1  0.74300800  0.24300800  0.00000000  1
  F  F6  1  0.25000000  0.26835700  0.01835700  1
  F  F7  1  0.75000000  0.73164300  0.98164300  1
