# generated using pymatgen
data_Ti2ZnRh
_symmetry_space_group_name_H-M   'P 1'
_cell_length_a   10.64124778
_cell_length_b   10.64124778
_cell_length_c   10.64124778
_cell_angle_alpha   123.87619998
_cell_angle_beta   113.68203504
_cell_angle_gamma   92.34629129
_symmetry_Int_Tables_number   1
_chemical_formula_structural   Ti2ZnRh
_chemical_formula_sum   'Ti2 Zn1 Rh1'
_cell_volume   858.80608749
_cell_formula_units_Z   1
loop_
 _symmetry_equiv_pos_site_id
 _symmetry_equiv_pos_as_xyz
  1  'x, y, z'
loop_
 _atom_site_type_symbol
 _atom_site_label
 _atom_site_symmetry_multiplicity
 _atom_site_fract_x
 _atom_site_fract_y
 _atom_site_fract_z
 _atom_site_occupancy
  Ti  Ti0  1  0.00000000  0.28262400  0.28262400  1
  Ti  Ti1  1  0.00000000  0.71737600  0.71737600  1
  Zn  Zn2  1  0.00000000  0.00000000  0.00000000  1
  Rh  Rh3  1  0.00000000  0.50000000  0.50000000  1
