# generated using pymatgen
data_Ti8O13
_symmetry_space_group_name_H-M   'P 1'
_cell_length_a   6.50208230
_cell_length_b   6.50208230
_cell_length_c   6.50208263
_cell_angle_alpha   73.64338752
_cell_angle_beta   73.64338752
_cell_angle_gamma   73.64339296
_symmetry_Int_Tables_number   1
_chemical_formula_structural   Ti8O13
_chemical_formula_sum   'Ti8 O13'
_cell_volume   246.90286982
_cell_formula_units_Z   1
loop_
 _symmetry_equiv_pos_site_id
 _symmetry_equiv_pos_as_xyz
  1  'x, y, z'
loop_
 _atom_site_type_symbol
 _atom_site_label
 _atom_site_symmetry_multiplicity
 _atom_site_fract_x
 _atom_site_fract_y
 _atom_site_fract_z
 _atom_site_occupancy
  Ti  Ti0  1  0.94330600  0.68399600  0.12347400  1
  Ti  Ti1  1  0.72330000  0.72330000  0.72330000  1
  Ti  Ti2  1  0.68399600  0.12347400  0.94330600  1
  Ti  Ti3  1  0.87652600  0.05669400  0.31600400  1
  Ti  Ti4  1  0.12347400  0.94330600  0.68399600  1
  Ti  Ti5  1  0.31600400  0.87652600  0.05669400  1
  Ti  Ti6  1  0.27670000  0.27670000  0.27670000  1
  Ti  Ti7  1  0.05669400  0.31600400  0.87652600  1
  O  O8  1  0.00000000  0.00000000  0.00000000  1
  O  O9  1  0.83000700  0.74163300  0.42001800  1
  O  O10  1  0.95951800  0.35638300  0.20368000  1
  O  O11  1  0.74163300  0.42001800  0.83000700  1
  O  O12  1  0.79632000  0.04048200  0.64361700  1
  O  O13  1  0.64361700  0.79632000  0.04048200  1
  O  O14  1  0.42001800  0.83000700  0.74163300  1
  O  O15  1  0.57998200  0.16999300  0.25836700  1
  O  O16  1  0.35638300  0.20368000  0.95951800  1
  O  O17  1  0.20368000  0.95951800  0.35638300  1
  O  O18  1  0.25836700  0.57998200  0.16999300  1
  O  O19  1  0.04048200  0.64361700  0.79632000  1
  O  O20  1  0.16999300  0.25836700  0.57998200  1
