# generated using pymatgen
data_Fe4O3F5
_symmetry_space_group_name_H-M   'P 1'
_cell_length_a   4.78850109
_cell_length_b   4.78850109
_cell_length_c   12.37619800
_cell_angle_alpha   90.00000000
_cell_angle_beta   90.00000000
_cell_angle_gamma   94.17688936
_symmetry_Int_Tables_number   1
_chemical_formula_structural   Fe4O3F5
_chemical_formula_sum   'Fe8 O6 F10'
_cell_volume   283.02928995
_cell_formula_units_Z   2
loop_
 _symmetry_equiv_pos_site_id
 _symmetry_equiv_pos_as_xyz
  1  'x, y, z'
loop_
 _atom_site_type_symbol
 _atom_site_label
 _atom_site_symmetry_multiplicity
 _atom_site_fract_x
 _atom_site_fract_y
 _atom_site_fract_z
 _atom_site_occupancy
  Fe  Fe0  1  0.00000000  0.00000000  0.00000000  1
  Fe  Fe1  1  0.97364800  0.97364800  0.25000000  1
  Fe  Fe2  1  0.00000000  0.00000000  0.50000000  1
  Fe  Fe3  1  0.02635200  0.02635200  0.75000000  1
  Fe  Fe4  1  0.50952300  0.50952300  0.11902800  1
  Fe  Fe5  1  0.49047700  0.49047700  0.61902800  1
  Fe  Fe6  1  0.49047700  0.49047700  0.88097200  1
  Fe  Fe7  1  0.50952300  0.50952300  0.38097200  1
  O  O8  1  0.29818900  0.29818900  0.00258400  1
  O  O9  1  0.29818900  0.29818900  0.49741600  1
  O  O10  1  0.32873400  0.32873400  0.75000000  1
  O  O11  1  0.70181100  0.70181100  0.99741600  1
  O  O12  1  0.67126600  0.67126600  0.25000000  1
  O  O13  1  0.70181100  0.70181100  0.50258400  1
  F  F14  1  0.79581400  0.19713600  0.11962100  1
  F  F15  1  0.80286400  0.20418600  0.88037900  1
  F  F16  1  0.79581400  0.19713600  0.38037900  1
  F  F17  1  0.80286400  0.20418600  0.61962100  1
  F  F18  1  0.28755100  0.28755100  0.25000000  1
  F  F19  1  0.71244900  0.71244900  0.75000000  1
  F  F20  1  0.19713600  0.79581400  0.38037900  1
  F  F21  1  0.20418600  0.80286400  0.61962100  1
  F  F22  1  0.19713600  0.79581400  0.11962100  1
  F  F23  1  0.20418600  0.80286400  0.88037900  1
