# generated using pymatgen
data_Fe4OF7
_symmetry_space_group_name_H-M   'P 1'
_cell_length_a   4.85683355
_cell_length_b   4.85683355
_cell_length_c   12.71144000
_cell_angle_alpha   90.00000000
_cell_angle_beta   90.00000000
_cell_angle_gamma   90.53860868
_symmetry_Int_Tables_number   1
_chemical_formula_structural   Fe4OF7
_chemical_formula_sum   'Fe8 O2 F14'
_cell_volume   299.83477530
_cell_formula_units_Z   2
loop_
 _symmetry_equiv_pos_site_id
 _symmetry_equiv_pos_as_xyz
  1  'x, y, z'
loop_
 _atom_site_type_symbol
 _atom_site_label
 _atom_site_symmetry_multiplicity
 _atom_site_fract_x
 _atom_site_fract_y
 _atom_site_fract_z
 _atom_site_occupancy
  Fe  Fe0  1  0.97986100  0.97986100  0.75000000  1
  Fe  Fe1  1  0.00000000  0.00000000  0.00000000  1
  Fe  Fe2  1  0.02013900  0.02013900  0.25000000  1
  Fe  Fe3  1  0.00000000  0.00000000  0.50000000  1
  Fe  Fe4  1  0.50858900  0.50858900  0.86522500  1
  Fe  Fe5  1  0.49141100  0.49141100  0.36522500  1
  Fe  Fe6  1  0.50858900  0.50858900  0.63477500  1
  Fe  Fe7  1  0.49141100  0.49141100  0.13477500  1
  O  O8  1  0.30565800  0.30565800  0.25000000  1
  O  O9  1  0.69434200  0.69434200  0.75000000  1
  F  F10  1  0.79240000  0.20555600  0.87775700  1
  F  F11  1  0.79444400  0.20760000  0.12224300  1
  F  F12  1  0.79444400  0.20760000  0.37775700  1
  F  F13  1  0.79240000  0.20555600  0.62224300  1
  F  F14  1  0.28469300  0.28469300  0.75000000  1
  F  F15  1  0.30716600  0.30716600  0.99825800  1
  F  F16  1  0.30716600  0.30716600  0.50174200  1
  F  F17  1  0.69283400  0.69283400  0.00174200  1
  F  F18  1  0.71530700  0.71530700  0.25000000  1
  F  F19  1  0.69283400  0.69283400  0.49825800  1
  F  F20  1  0.20555600  0.79240000  0.87775700  1
  F  F21  1  0.20760000  0.79444400  0.12224300  1
  F  F22  1  0.20760000  0.79444400  0.37775700  1
  F  F23  1  0.20555600  0.79240000  0.62224300  1
