# generated using pymatgen
data_TiSnO4
_symmetry_space_group_name_H-M   'P 1'
_cell_length_a   5.68486842
_cell_length_b   5.68486842
_cell_length_c   7.44589438
_cell_angle_alpha   71.94077660
_cell_angle_beta   71.94077660
_cell_angle_gamma   72.14343521
_symmetry_Int_Tables_number   1
_chemical_formula_structural   TiSnO4
_chemical_formula_sum   'Ti3 Sn3 O12'
_cell_volume   211.52711530
_cell_formula_units_Z   3
loop_
 _symmetry_equiv_pos_site_id
 _symmetry_equiv_pos_as_xyz
  1  'x, y, z'
loop_
 _atom_site_type_symbol
 _atom_site_label
 _atom_site_symmetry_multiplicity
 _atom_site_fract_x
 _atom_site_fract_y
 _atom_site_fract_z
 _atom_site_occupancy
  Ti  Ti0  1  0.67602800  0.67602800  0.31425700  1
  Ti  Ti1  1  0.65497000  0.65497000  0.81927700  1
  Ti  Ti2  1  0.99483000  0.99483000  0.00030000  1
  Sn  Sn3  1  0.33685900  0.33685900  0.16620900  1
  Sn  Sn4  1  0.33216800  0.33216800  0.67107200  1
  Sn  Sn5  1  0.99861000  0.99861000  0.50177600  1
  O  O6  1  0.63339000  0.01617000  0.67730300  1
  O  O7  1  0.96652200  0.37342900  0.33903300  1
  O  O8  1  0.09368400  0.09368400  0.71531300  1
  O  O9  1  0.44720600  0.44720600  0.36697400  1
  O  O10  1  0.77094800  0.77094800  0.04407000  1
  O  O11  1  0.89944500  0.89944500  0.28890600  1
  O  O12  1  0.57138800  0.57138800  0.62809200  1
  O  O13  1  0.22029300  0.22029300  0.97422700  1
  O  O14  1  0.37342900  0.96652200  0.33903300  1
  O  O15  1  0.70476900  0.30929200  0.98842900  1
  O  O16  1  0.01617000  0.63339000  0.67730300  1
  O  O17  1  0.30929200  0.70476900  0.98842900  1
