# generated using pymatgen
data_Fe4OF7
_symmetry_space_group_name_H-M   'P 1'
_cell_length_a   7.61096292
_cell_length_b   7.61096292
_cell_length_c   6.68309800
_cell_angle_alpha   90.00000000
_cell_angle_beta   90.00000000
_cell_angle_gamma   129.13287822
_symmetry_Int_Tables_number   1
_chemical_formula_structural   Fe4OF7
_chemical_formula_sum   'Fe8 O2 F14'
_cell_volume   300.29084082
_cell_formula_units_Z   2
loop_
 _symmetry_equiv_pos_site_id
 _symmetry_equiv_pos_as_xyz
  1  'x, y, z'
loop_
 _atom_site_type_symbol
 _atom_site_label
 _atom_site_symmetry_multiplicity
 _atom_site_fract_x
 _atom_site_fract_y
 _atom_site_fract_z
 _atom_site_occupancy
  Fe  Fe0  1  0.12591800  0.87408200  0.00683000  1
  Fe  Fe1  1  0.62484500  0.37515500  0.97466200  1
  Fe  Fe2  1  0.38370200  0.13374900  0.50844000  1
  Fe  Fe3  1  0.86625100  0.61629800  0.50844000  1
  Fe  Fe4  1  0.61629800  0.86625100  0.00844000  1
  Fe  Fe5  1  0.13374900  0.38370200  0.00844000  1
  Fe  Fe6  1  0.87408200  0.12591800  0.50683000  1
  Fe  Fe7  1  0.37515500  0.62484500  0.47466200  1
  O  O8  1  0.62543000  0.37457000  0.70117800  1
  O  O9  1  0.37457000  0.62543000  0.20117800  1
  F  F10  1  0.76913000  0.71193600  0.00148100  1
  F  F11  1  0.28806400  0.23087000  0.00148100  1
  F  F12  1  0.12535600  0.87464400  0.70613200  1
  F  F13  1  0.12456300  0.87543700  0.30751200  1
  F  F14  1  0.87543700  0.12456300  0.80751200  1
  F  F15  1  0.37448100  0.62551900  0.77972900  1
  F  F16  1  0.62551900  0.37448100  0.27972900  1
  F  F17  1  0.48450700  0.04076800  0.00205800  1
  F  F18  1  0.95923200  0.51549300  0.00205800  1
  F  F19  1  0.71193600  0.76913000  0.50148100  1
  F  F20  1  0.23087000  0.28806400  0.50148100  1
  F  F21  1  0.04076800  0.48450700  0.50205800  1
  F  F22  1  0.51549300  0.95923200  0.50205800  1
  F  F23  1  0.87464400  0.12535600  0.20613200  1
