# generated using pymatgen
data_Zr2ReRh
_symmetry_space_group_name_H-M   'P 1'
_cell_length_a   10.73332556
_cell_length_b   10.73332556
_cell_length_c   10.73332556
_cell_angle_alpha   128.97800695
_cell_angle_beta   116.90061886
_cell_angle_gamma   85.32714183
_symmetry_Int_Tables_number   1
_chemical_formula_structural   Zr2ReRh
_chemical_formula_sum   'Zr2 Re1 Rh1'
_cell_volume   819.62011554
_cell_formula_units_Z   1
loop_
 _symmetry_equiv_pos_site_id
 _symmetry_equiv_pos_as_xyz
  1  'x, y, z'
loop_
 _atom_site_type_symbol
 _atom_site_label
 _atom_site_symmetry_multiplicity
 _atom_site_fract_x
 _atom_site_fract_y
 _atom_site_fract_z
 _atom_site_occupancy
  Zr  Zr0  1  0.00000000  0.25160800  0.25160800  1
  Zr  Zr1  1  0.00000000  0.74839200  0.74839200  1
  Re  Re2  1  0.00000000  0.50000000  0.50000000  1
  Rh  Rh3  1  0.00000000  0.00000000  0.00000000  1
