# generated using pymatgen
data_HfCuAu2
_symmetry_space_group_name_H-M   'P 1'
_cell_length_a   11.38217412
_cell_length_b   11.38217412
_cell_length_c   11.38217412
_cell_angle_alpha   127.29027212
_cell_angle_beta   117.74000672
_cell_angle_gamma   85.91056673
_symmetry_Int_Tables_number   1
_chemical_formula_structural   HfCuAu2
_chemical_formula_sum   'Hf1 Cu1 Au2'
_cell_volume   990.75877998
_cell_formula_units_Z   1
loop_
 _symmetry_equiv_pos_site_id
 _symmetry_equiv_pos_as_xyz
  1  'x, y, z'
loop_
 _atom_site_type_symbol
 _atom_site_label
 _atom_site_symmetry_multiplicity
 _atom_site_fract_x
 _atom_site_fract_y
 _atom_site_fract_z
 _atom_site_occupancy
  Hf  Hf0  1  0.00000000  0.50000000  0.50000000  1
  Cu  Cu1  1  0.00000000  0.00000000  0.00000000  1
  Au  Au2  1  0.00000000  0.24467000  0.24467000  1
  Au  Au3  1  0.00000000  0.75533000  0.75533000  1
