# generated using pymatgen
data_Mn2O3F
_symmetry_space_group_name_H-M   'P 1'
_cell_length_a   4.59010970
_cell_length_b   4.59010970
_cell_length_c   12.07329300
_cell_angle_alpha   90.00000000
_cell_angle_beta   90.00000000
_cell_angle_gamma   92.83920243
_symmetry_Int_Tables_number   1
_chemical_formula_structural   Mn2O3F
_chemical_formula_sum   'Mn8 O12 F4'
_cell_volume   254.06125378
_cell_formula_units_Z   4
loop_
 _symmetry_equiv_pos_site_id
 _symmetry_equiv_pos_as_xyz
  1  'x, y, z'
loop_
 _atom_site_type_symbol
 _atom_site_label
 _atom_site_symmetry_multiplicity
 _atom_site_fract_x
 _atom_site_fract_y
 _atom_site_fract_z
 _atom_site_occupancy
  Mn  Mn0  1  0.00000000  0.00000000  0.00000000  1
  Mn  Mn1  1  0.98907600  0.01092400  0.25000000  1
  Mn  Mn2  1  0.00000000  0.00000000  0.50000000  1
  Mn  Mn3  1  0.01092400  0.98907600  0.75000000  1
  Mn  Mn4  1  0.47952800  0.52047200  0.62492400  1
  Mn  Mn5  1  0.52047200  0.47952800  0.12492400  1
  Mn  Mn6  1  0.52047200  0.47952800  0.37507600  1
  Mn  Mn7  1  0.47952800  0.52047200  0.87507600  1
  O  O8  1  0.18899000  0.81101000  0.62442200  1
  O  O9  1  0.18899000  0.81101000  0.87557800  1
  O  O10  1  0.30943900  0.30943900  0.00000000  1
  O  O11  1  0.31839600  0.29271500  0.25000000  1
  O  O12  1  0.30943900  0.30943900  0.50000000  1
  O  O13  1  0.29271500  0.31839600  0.75000000  1
  O  O14  1  0.69056100  0.69056100  0.00000000  1
  O  O15  1  0.70728500  0.68160400  0.25000000  1
  O  O16  1  0.69056100  0.69056100  0.50000000  1
  O  O17  1  0.68160400  0.70728500  0.75000000  1
  O  O18  1  0.81101000  0.18899000  0.12442200  1
  O  O19  1  0.81101000  0.18899000  0.37557800  1
  F  F20  1  0.21040900  0.78959100  0.13124600  1
  F  F21  1  0.21040900  0.78959100  0.36875400  1
  F  F22  1  0.78959100  0.21040900  0.63124600  1
  F  F23  1  0.78959100  0.21040900  0.86875400  1
