# generated using pymatgen
data_HoIO
_symmetry_space_group_name_H-M   'P 1'
_cell_length_a   11.20944765
_cell_length_b   11.20944765
_cell_length_c   11.20944744
_cell_angle_alpha   20.11312618
_cell_angle_beta   20.11312618
_cell_angle_gamma   20.11312420
_symmetry_Int_Tables_number   1
_chemical_formula_structural   HoIO
_chemical_formula_sum   'Ho2 I2 O2'
_cell_volume   145.72022313
_cell_formula_units_Z   2
loop_
 _symmetry_equiv_pos_site_id
 _symmetry_equiv_pos_as_xyz
  1  'x, y, z'
loop_
 _atom_site_type_symbol
 _atom_site_label
 _atom_site_symmetry_multiplicity
 _atom_site_fract_x
 _atom_site_fract_y
 _atom_site_fract_z
 _atom_site_occupancy
  Ho  Ho0  1  0.37566400  0.37566400  0.37566400  1
  Ho  Ho1  1  0.62433600  0.62433600  0.62433600  1
  I  I2  1  0.10838100  0.10838100  0.10838100  1
  I  I3  1  0.89161900  0.89161900  0.89161900  1
  O  O4  1  0.30736900  0.30736900  0.30736900  1
  O  O5  1  0.69263100  0.69263100  0.69263100  1
