# generated using pymatgen
data_CuPdAu2
_symmetry_space_group_name_H-M   'P 1'
_cell_length_a   10.50230780
_cell_length_b   10.50230780
_cell_length_c   10.50230780
_cell_angle_alpha   123.60477373
_cell_angle_beta   119.28315001
_cell_angle_gamma   87.55921164
_symmetry_Int_Tables_number   1
_chemical_formula_structural   CuPdAu2
_chemical_formula_sum   'Cu1 Pd1 Au2'
_cell_volume   798.93601515
_cell_formula_units_Z   1
loop_
 _symmetry_equiv_pos_site_id
 _symmetry_equiv_pos_as_xyz
  1  'x, y, z'
loop_
 _atom_site_type_symbol
 _atom_site_label
 _atom_site_symmetry_multiplicity
 _atom_site_fract_x
 _atom_site_fract_y
 _atom_site_fract_z
 _atom_site_occupancy
  Cu  Cu0  1  0.00000000  0.00000000  0.00000000  1
  Pd  Pd1  1  0.00000000  0.50000000  0.50000000  1
  Au  Au2  1  0.00000000  0.24154100  0.24154100  1
  Au  Au3  1  0.00000000  0.75845900  0.75845900  1
