# generated using pymatgen
data_VF5
_symmetry_space_group_name_H-M   'P 1'
_cell_length_a   9.71053300
_cell_length_b   5.23675100
_cell_length_c   8.90060623
_cell_angle_alpha   65.78414439
_cell_angle_beta   90.00000000
_cell_angle_gamma   90.00000000
_symmetry_Int_Tables_number   1
_chemical_formula_structural   VF5
_chemical_formula_sum   'V4 F20'
_cell_volume   412.78374034
_cell_formula_units_Z   4
loop_
 _symmetry_equiv_pos_site_id
 _symmetry_equiv_pos_as_xyz
  1  'x, y, z'
loop_
 _atom_site_type_symbol
 _atom_site_label
 _atom_site_symmetry_multiplicity
 _atom_site_fract_x
 _atom_site_fract_y
 _atom_site_fract_z
 _atom_site_occupancy
  V  V0  1  0.73871000  0.08068600  0.06734000  1
  V  V1  1  0.23871000  0.91931400  0.43266000  1
  V  V2  1  0.76129000  0.08068600  0.56734000  1
  V  V3  1  0.26129000  0.91931400  0.93266000  1
  F  F4  1  0.64247000  0.80501300  0.66178800  1
  F  F5  1  0.63889200  0.35548800  0.07853200  1
  F  F6  1  0.88039600  0.31145000  0.02121900  1
  F  F7  1  0.11126700  0.14915100  0.30504200  1
  F  F8  1  0.79851900  0.07926100  0.37574700  1
  F  F9  1  0.86110800  0.35548800  0.57853200  1
  F  F10  1  0.14247000  0.19498700  0.83821200  1
  F  F11  1  0.61960400  0.31145000  0.52121900  1
  F  F12  1  0.38873300  0.14915100  0.80504200  1
  F  F13  1  0.70148100  0.07926100  0.87574700  1
  F  F14  1  0.29851900  0.92073900  0.12425300  1
  F  F15  1  0.61126700  0.85084900  0.19495800  1
  F  F16  1  0.38039600  0.68855000  0.47878100  1
  F  F17  1  0.85753000  0.80501300  0.16178800  1
  F  F18  1  0.13889200  0.64451200  0.42146800  1
  F  F19  1  0.20148100  0.92073900  0.62425300  1
  F  F20  1  0.88873300  0.85084900  0.69495800  1
  F  F21  1  0.11960400  0.68855000  0.97878100  1
  F  F22  1  0.36110800  0.64451200  0.92146800  1
  F  F23  1  0.35753000  0.19498700  0.33821200  1
