# generated using pymatgen
data_Li2V3(P2O7)2
_symmetry_space_group_name_H-M   'P 1'
_cell_length_a   7.08888752
_cell_length_b   7.48082569
_cell_length_c   10.54461165
_cell_angle_alpha   75.57616924
_cell_angle_beta   76.09049514
_cell_angle_gamma   80.08215355
_symmetry_Int_Tables_number   1
_chemical_formula_structural   Li2V3(P2O7)2
_chemical_formula_sum   'Li4 V6 P8 O28'
_cell_volume   521.91411513
_cell_formula_units_Z   2
loop_
 _symmetry_equiv_pos_site_id
 _symmetry_equiv_pos_as_xyz
  1  'x, y, z'
loop_
 _atom_site_type_symbol
 _atom_site_label
 _atom_site_symmetry_multiplicity
 _atom_site_fract_x
 _atom_site_fract_y
 _atom_site_fract_z
 _atom_site_occupancy
  Li  Li0  1  0.69093900  0.69039000  0.33442300  1
  Li  Li1  1  0.19103000  0.69033900  0.83442800  1
  Li  Li2  1  0.30907700  0.30961000  0.66561900  1
  Li  Li3  1  0.80902800  0.30960500  0.16558000  1
  V  V4  1  0.49984000  0.00054800  0.49996600  1
  V  V5  1  0.66148500  0.31125500  0.85375000  1
  V  V6  1  0.33858500  0.68869700  0.14620400  1
  V  V7  1  0.99962900  0.00005800  0.99991000  1
  V  V8  1  0.16048800  0.31125300  0.35393900  1
  V  V9  1  0.83957500  0.68851500  0.64620000  1
  P  P10  1  0.27066200  0.65607800  0.46561100  1
  P  P11  1  0.77047500  0.65604300  0.96573100  1
  P  P12  1  0.72946900  0.34396400  0.53437700  1
  P  P13  1  0.22950400  0.34388200  0.03429100  1
  P  P14  1  0.98219100  0.93211300  0.33114900  1
  P  P15  1  0.48228300  0.93208800  0.83109900  1
  P  P16  1  0.01780200  0.06786600  0.66884200  1
  P  P17  1  0.51767100  0.06784300  0.16890400  1
  O  O18  1  0.03983900  0.85062300  0.20400500  1
  O  O19  1  0.54004200  0.85055500  0.70397100  1
  O  O20  1  0.96014700  0.14940200  0.79595800  1
  O  O21  1  0.46001000  0.14948900  0.29598000  1
  O  O22  1  0.30286600  0.55001900  0.35230500  1
  O  O23  1  0.80300800  0.54997900  0.85237000  1
  O  O24  1  0.69723400  0.44998600  0.64768900  1
  O  O25  1  0.19701000  0.44991100  0.14766800  1
  O  O26  1  0.97224600  0.14217600  0.30093900  1
  O  O27  1  0.47229800  0.14215400  0.80097500  1
  O  O28  1  0.02786300  0.85781200  0.69906100  1
  O  O29  1  0.52768700  0.85779300  0.19903500  1
  O  O30  1  0.45444700  0.71695000  0.48377300  1
  O  O31  1  0.95437000  0.71684700  0.98381600  1
  O  O32  1  0.54560000  0.28322100  0.51623900  1
  O  O33  1  0.04562700  0.28306300  0.01618000  1
  O  O34  1  0.15096500  0.85808600  0.41476500  1
  O  O35  1  0.65099300  0.85806500  0.91476900  1
  O  O36  1  0.84903000  0.14187700  0.58524000  1
  O  O37  1  0.34899900  0.14185800  0.08524500  1
  O  O38  1  0.85624100  0.44766200  0.40716900  1
  O  O39  1  0.35639300  0.44758400  0.90714500  1
  O  O40  1  0.14389100  0.55229700  0.59281900  1
  O  O41  1  0.64360500  0.55234300  0.09286800  1
  O  O42  1  0.20404600  0.14300700  0.57250400  1
  O  O43  1  0.70401400  0.14287900  0.07254200  1
  O  O44  1  0.79588500  0.85711900  0.42749500  1
  O  O45  1  0.29591200  0.85709500  0.92745100  1
