# generated using pymatgen
data_Hf2MnRe
_symmetry_space_group_name_H-M   'P 1'
_cell_length_a   11.04024125
_cell_length_b   11.04024125
_cell_length_c   11.04024125
_cell_angle_alpha   126.99831252
_cell_angle_beta   117.73680574
_cell_angle_gamma   86.14669284
_symmetry_Int_Tables_number   1
_chemical_formula_structural   Hf2MnRe
_chemical_formula_sum   'Hf2 Mn1 Re1'
_cell_volume   907.06714485
_cell_formula_units_Z   1
loop_
 _symmetry_equiv_pos_site_id
 _symmetry_equiv_pos_as_xyz
  1  'x, y, z'
loop_
 _atom_site_type_symbol
 _atom_site_label
 _atom_site_symmetry_multiplicity
 _atom_site_fract_x
 _atom_site_fract_y
 _atom_site_fract_z
 _atom_site_occupancy
  Hf  Hf0  1  0.00000000  0.26412400  0.26412400  1
  Hf  Hf1  1  0.00000000  0.73587600  0.73587600  1
  Mn  Mn2  1  0.00000000  0.00000000  0.00000000  1
  Re  Re3  1  0.00000000  0.50000000  0.50000000  1
