# generated using pymatgen
data_MnVP2(HO5)2
_symmetry_space_group_name_H-M   'P 1'
_cell_length_a   5.17905439
_cell_length_b   10.23215680
_cell_length_c   7.24504649
_cell_angle_alpha   74.42729321
_cell_angle_beta   108.45993559
_cell_angle_gamma   84.60969513
_symmetry_Int_Tables_number   1
_chemical_formula_structural   MnVP2(HO5)2
_chemical_formula_sum   'Mn2 V2 P4 H4 O20'
_cell_volume   344.01850644
_cell_formula_units_Z   2
loop_
 _symmetry_equiv_pos_site_id
 _symmetry_equiv_pos_as_xyz
  1  'x, y, z'
loop_
 _atom_site_type_symbol
 _atom_site_label
 _atom_site_symmetry_multiplicity
 _atom_site_fract_x
 _atom_site_fract_y
 _atom_site_fract_z
 _atom_site_occupancy
  Mn  Mn0  1  0.49998000  0.50001900  0.49997800  1
  Mn  Mn1  1  0.99939500  0.00010300  0.99973400  1
  V  V2  1  0.00000300  0.99989800  0.50004000  1
  V  V3  1  0.50016100  0.50002300  0.00016000  1
  P  P4  1  0.51069200  0.16470900  0.06093900  1
  P  P5  1  0.01119900  0.66453500  0.56118100  1
  P  P6  1  0.98909300  0.33532800  0.43901600  1
  P  P7  1  0.48896300  0.83536200  0.93898100  1
  H  H8  1  0.34730500  0.99814000  0.31912300  1
  H  H9  1  0.84787300  0.49657600  0.81970600  1
  H  H10  1  0.15241300  0.50329000  0.18056400  1
  H  H11  1  0.65238600  0.00180000  0.68035700  1
  O  O12  1  0.84441100  0.02117100  0.70828600  1
  O  O13  1  0.34504800  0.52160200  0.20949400  1
  O  O14  1  0.65501900  0.47851500  0.79064100  1
  O  O15  1  0.15517100  0.97882300  0.29141700  1
  O  O16  1  0.62029100  0.07288000  0.29106600  1
  O  O17  1  0.12107900  0.57308600  0.79143100  1
  O  O18  1  0.87928400  0.42692000  0.20877700  1
  O  O19  1  0.37984600  0.92700300  0.70878600  1
  O  O20  1  0.07211500  0.18232100  0.45400200  1
  O  O21  1  0.57270800  0.68247200  0.95363300  1
  O  O22  1  0.42760900  0.31758300  0.04672000  1
  O  O23  1  0.92808500  0.81756200  0.54613400  1
  O  O24  1  0.24862600  0.11888300  0.94403000  1
  O  O25  1  0.74915600  0.61868900  0.44439400  1
  O  O26  1  0.25137200  0.38115100  0.55571300  1
  O  O27  1  0.75090700  0.88132400  0.05592800  1
  O  O28  1  0.73396800  0.15774900  0.96273200  1
  O  O29  1  0.23449700  0.65724900  0.46305200  1
  O  O30  1  0.76580900  0.34277300  0.53711300  1
  O  O31  1  0.26553500  0.84246100  0.03687100  1
