# generated using pymatgen
data_Sr2ZnGe
_symmetry_space_group_name_H-M   'P 1'
_cell_length_a   12.58430449
_cell_length_b   12.58430449
_cell_length_c   12.58430449
_cell_angle_alpha   120.06342703
_cell_angle_beta   119.76089305
_cell_angle_gamma   90.15240987
_symmetry_Int_Tables_number   1
_chemical_formula_structural   Sr2ZnGe
_chemical_formula_sum   'Sr2 Zn1 Ge1'
_cell_volume   1411.05340398
_cell_formula_units_Z   1
loop_
 _symmetry_equiv_pos_site_id
 _symmetry_equiv_pos_as_xyz
  1  'x, y, z'
loop_
 _atom_site_type_symbol
 _atom_site_label
 _atom_site_symmetry_multiplicity
 _atom_site_fract_x
 _atom_site_fract_y
 _atom_site_fract_z
 _atom_site_occupancy
  Sr  Sr0  1  0.00000000  0.27078500  0.27078500  1
  Sr  Sr1  1  0.00000000  0.72921500  0.72921500  1
  Zn  Zn2  1  0.00000000  0.00000000  0.00000000  1
  Ge  Ge3  1  0.00000000  0.50000000  0.50000000  1
