# generated using pymatgen
data_TiBe2Pt
_symmetry_space_group_name_H-M   'P 1'
_cell_length_a   9.20506104
_cell_length_b   9.22606076
_cell_length_c   9.22606023
_cell_angle_alpha   60.27960294
_cell_angle_beta   60.07526195
_cell_angle_gamma   60.07526525
_symmetry_Int_Tables_number   1
_chemical_formula_structural   TiBe2Pt
_chemical_formula_sum   'Ti1 Be2 Pt1'
_cell_volume   555.83872041
_cell_formula_units_Z   1
loop_
 _symmetry_equiv_pos_site_id
 _symmetry_equiv_pos_as_xyz
  1  'x, y, z'
loop_
 _atom_site_type_symbol
 _atom_site_label
 _atom_site_symmetry_multiplicity
 _atom_site_fract_x
 _atom_site_fract_y
 _atom_site_fract_z
 _atom_site_occupancy
  Ti  Ti0  1  0.00000000  0.00000000  0.00000000  1
  Be  Be1  1  0.72341800  0.00000000  0.00000000  1
  Be  Be2  1  0.27658200  0.00000000  0.00000000  1
  Pt  Pt3  1  0.50000000  0.00000000  0.00000000  1
