# generated using pymatgen
data_ZnNiPd2
_symmetry_space_group_name_H-M   'P 1'
_cell_length_a   10.19411026
_cell_length_b   10.19411026
_cell_length_c   10.19411026
_cell_angle_alpha   123.84792178
_cell_angle_beta   119.09165425
_cell_angle_gamma   87.52413489
_symmetry_Int_Tables_number   1
_chemical_formula_structural   ZnNiPd2
_chemical_formula_sum   'Zn1 Ni1 Pd2'
_cell_volume   730.03996477
_cell_formula_units_Z   1
loop_
 _symmetry_equiv_pos_site_id
 _symmetry_equiv_pos_as_xyz
  1  'x, y, z'
loop_
 _atom_site_type_symbol
 _atom_site_label
 _atom_site_symmetry_multiplicity
 _atom_site_fract_x
 _atom_site_fract_y
 _atom_site_fract_z
 _atom_site_occupancy
  Zn  Zn0  1  0.00000000  0.50000000  0.50000000  1
  Ni  Ni1  1  0.00000000  0.00000000  0.00000000  1
  Pd  Pd2  1  0.00000000  0.24264200  0.24264200  1
  Pd  Pd3  1  0.00000000  0.75735800  0.75735800  1
