# generated using pymatgen
data_Y2GaCu
_symmetry_space_group_name_H-M   'P 1'
_cell_length_a   11.57691696
_cell_length_b   11.57691696
_cell_length_c   11.57691696
_cell_angle_alpha   121.75496899
_cell_angle_beta   119.39782641
_cell_angle_gamma   89.01684950
_symmetry_Int_Tables_number   1
_chemical_formula_structural   Y2GaCu
_chemical_formula_sum   'Y2 Ga1 Cu1'
_cell_volume   1086.82452700
_cell_formula_units_Z   1
loop_
 _symmetry_equiv_pos_site_id
 _symmetry_equiv_pos_as_xyz
  1  'x, y, z'
loop_
 _atom_site_type_symbol
 _atom_site_label
 _atom_site_symmetry_multiplicity
 _atom_site_fract_x
 _atom_site_fract_y
 _atom_site_fract_z
 _atom_site_occupancy
  Y  Y0  1  0.00000000  0.24946300  0.24946300  1
  Y  Y1  1  0.00000000  0.75053700  0.75053700  1
  Ga  Ga2  1  0.00000000  0.50000000  0.50000000  1
  Cu  Cu3  1  0.00000000  0.00000000  0.00000000  1
