# generated using pymatgen
data_SbOF
_symmetry_space_group_name_H-M   'P 1'
_cell_length_a   6.36521500
_cell_length_b   5.59541400
_cell_length_c   5.72051810
_cell_angle_alpha   84.14867798
_cell_angle_beta   90.00000000
_cell_angle_gamma   90.00000000
_symmetry_Int_Tables_number   1
_chemical_formula_structural   SbOF
_chemical_formula_sum   'Sb4 O4 F4'
_cell_volume   202.68050889
_cell_formula_units_Z   4
loop_
 _symmetry_equiv_pos_site_id
 _symmetry_equiv_pos_as_xyz
  1  'x, y, z'
loop_
 _atom_site_type_symbol
 _atom_site_label
 _atom_site_symmetry_multiplicity
 _atom_site_fract_x
 _atom_site_fract_y
 _atom_site_fract_z
 _atom_site_occupancy
  Sb  Sb0  1  0.52240500  0.31545500  0.72844300  1
  Sb  Sb1  1  0.97759500  0.81545500  0.72844300  1
  Sb  Sb2  1  0.02240500  0.18454500  0.27155700  1
  Sb  Sb3  1  0.47759500  0.68454500  0.27155700  1
  O  O4  1  0.84153300  0.12240100  0.57120300  1
  O  O5  1  0.65846700  0.62240100  0.57120300  1
  O  O6  1  0.34153300  0.37759900  0.42879700  1
  O  O7  1  0.15846700  0.87759900  0.42879700  1
  F  F8  1  0.18200600  0.04646100  0.89044100  1
  F  F9  1  0.31799400  0.54646100  0.89044100  1
  F  F10  1  0.68200600  0.45353900  0.10955900  1
  F  F11  1  0.81799400  0.95353900  0.10955900  1
