# generated using pymatgen
data_NaFePO4
_symmetry_space_group_name_H-M   'P 1'
_cell_length_a   5.07389687
_cell_length_b   5.07382308
_cell_length_c   13.77613100
_cell_angle_alpha   89.99870881
_cell_angle_beta   89.99760478
_cell_angle_gamma   65.50497553
_symmetry_Int_Tables_number   1
_chemical_formula_structural   NaFePO4
_chemical_formula_sum   'Na4 Fe4 P4 O16'
_cell_volume   322.73369673
_cell_formula_units_Z   4
loop_
 _symmetry_equiv_pos_site_id
 _symmetry_equiv_pos_as_xyz
  1  'x, y, z'
loop_
 _atom_site_type_symbol
 _atom_site_label
 _atom_site_symmetry_multiplicity
 _atom_site_fract_x
 _atom_site_fract_y
 _atom_site_fract_z
 _atom_site_occupancy
  Na  Na0  1  0.31572900  0.31568100  0.37499700  1
  Na  Na1  1  0.31577600  0.31575800  0.87498800  1
  Na  Na2  1  0.68420200  0.68422800  0.12501600  1
  Na  Na3  1  0.68423300  0.68424300  0.62499300  1
  Fe  Fe4  1  0.99995600  0.99995600  0.49998800  1
  Fe  Fe5  1  0.99991800  0.99989200  0.75001500  1
  Fe  Fe6  1  0.99991000  0.99993200  0.99997800  1
  Fe  Fe7  1  0.99992800  0.99992100  0.24997200  1
  P  P8  1  0.33615700  0.33621100  0.12498200  1
  P  P9  1  0.33623900  0.33623700  0.62501100  1
  P  P10  1  0.66384600  0.66380400  0.37500600  1
  P  P11  1  0.66383000  0.66381900  0.87502300  1
  O  O12  1  0.21043900  0.67600000  0.12499400  1
  O  O13  1  0.21049500  0.67597400  0.62501300  1
  O  O14  1  0.32407600  0.78950300  0.37500000  1
  O  O15  1  0.32409600  0.78951200  0.87502800  1
  O  O16  1  0.67594100  0.21048800  0.12498400  1
  O  O17  1  0.67597100  0.21048100  0.62500100  1
  O  O18  1  0.78953800  0.32404100  0.37499900  1
  O  O19  1  0.78951800  0.32406600  0.87500700  1
  O  O20  1  0.23134500  0.23138500  0.03381100  1
  O  O21  1  0.23130500  0.23132200  0.53386000  1
  O  O22  1  0.23125900  0.23133600  0.21613500  1
  O  O23  1  0.23133700  0.23132700  0.71617200  1
  O  O24  1  0.76872700  0.76870100  0.28385200  1
  O  O25  1  0.76873400  0.76874800  0.78387100  1
  O  O26  1  0.76875100  0.76874000  0.46614000  1
  O  O27  1  0.76874400  0.76869300  0.96616300  1
