# generated using pymatgen
data_WOF4
_symmetry_space_group_name_H-M   'P 1'
_cell_length_a   5.35215000
_cell_length_b   6.27633520
_cell_length_c   6.52784187
_cell_angle_alpha   102.25141970
_cell_angle_beta   95.15974909
_cell_angle_gamma   107.93499802
_symmetry_Int_Tables_number   1
_chemical_formula_structural   WOF4
_chemical_formula_sum   'W2 O2 F8'
_cell_volume   201.01204845
_cell_formula_units_Z   2
loop_
 _symmetry_equiv_pos_site_id
 _symmetry_equiv_pos_as_xyz
  1  'x, y, z'
loop_
 _atom_site_type_symbol
 _atom_site_label
 _atom_site_symmetry_multiplicity
 _atom_site_fract_x
 _atom_site_fract_y
 _atom_site_fract_z
 _atom_site_occupancy
  W  W0  1  0.91378500  0.78207500  0.74787100  1
  W  W1  1  0.08621500  0.21792500  0.25212900  1
  O  O2  1  0.99516100  0.25735800  0.49971300  1
  O  O3  1  0.00483900  0.74264200  0.50028700  1
  F  F4  1  0.84470600  0.31932400  0.10446300  1
  F  F5  1  0.84297900  0.90129200  0.11035600  1
  F  F6  1  0.63886200  0.50529200  0.73098500  1
  F  F7  1  0.34343300  0.07544700  0.29360300  1
  F  F8  1  0.65656700  0.92455300  0.70639700  1
  F  F9  1  0.36113800  0.49470800  0.26901500  1
  F  F10  1  0.15702100  0.09870800  0.88964400  1
  F  F11  1  0.15529400  0.68067600  0.89553700  1
