# generated using pymatgen
data_Ce5Dy2O13
_symmetry_space_group_name_H-M   'P 1'
_cell_length_a   22.39034542
_cell_length_b   22.39034542
_cell_length_c   22.39034541
_cell_angle_alpha   9.80025936
_cell_angle_beta   9.80025936
_cell_angle_gamma   9.80025985
_symmetry_Int_Tables_number   1
_chemical_formula_structural   Ce5Dy2O13
_chemical_formula_sum   'Ce5 Dy2 O13'
_cell_volume   282.33252853
_cell_formula_units_Z   1
loop_
 _symmetry_equiv_pos_site_id
 _symmetry_equiv_pos_as_xyz
  1  'x, y, z'
loop_
 _atom_site_type_symbol
 _atom_site_label
 _atom_site_symmetry_multiplicity
 _atom_site_fract_x
 _atom_site_fract_y
 _atom_site_fract_z
 _atom_site_occupancy
  Ce  Ce0  1  0.42788800  0.42788800  0.42788800  1
  Ce  Ce1  1  0.14222500  0.14222500  0.14222500  1
  Ce  Ce2  1  0.85653500  0.85653500  0.85653500  1
  Ce  Ce3  1  0.57084500  0.57084500  0.57084500  1
  Ce  Ce4  1  0.28497400  0.28497400  0.28497400  1
  Dy  Dy5  1  0.99902700  0.99902700  0.99902700  1
  Dy  Dy6  1  0.71633100  0.71633100  0.71633100  1
  O  O7  1  0.39299000  0.39299000  0.39299000  1
  O  O8  1  0.03084600  0.03084600  0.03084600  1
  O  O9  1  0.10740300  0.10740300  0.10740300  1
  O  O10  1  0.75021500  0.75021500  0.75021500  1
  O  O11  1  0.46448700  0.46448700  0.46448700  1
  O  O12  1  0.17879500  0.17879500  0.17879500  1
  O  O13  1  0.82171900  0.82171900  0.82171900  1
  O  O14  1  0.53603300  0.53603300  0.53603300  1
  O  O15  1  0.89310700  0.89310700  0.89310700  1
  O  O16  1  0.25039400  0.25039400  0.25039400  1
  O  O17  1  0.32633400  0.32633400  0.32633400  1
  O  O18  1  0.60723700  0.60723700  0.60723700  1
  O  O19  1  0.96403700  0.96403700  0.96403700  1
