# generated using pymatgen
data_Bi4O3F7
_symmetry_space_group_name_H-M   'P 1'
_cell_length_a   3.94574700
_cell_length_b   5.76370800
_cell_length_c   8.45992270
_cell_angle_alpha   88.86881893
_cell_angle_beta   90.00000000
_cell_angle_gamma   90.00000000
_symmetry_Int_Tables_number   1
_chemical_formula_structural   Bi4O3F7
_chemical_formula_sum   'Bi4 O3 F7'
_cell_volume   192.35919691
_cell_formula_units_Z   1
loop_
 _symmetry_equiv_pos_site_id
 _symmetry_equiv_pos_as_xyz
  1  'x, y, z'
loop_
 _atom_site_type_symbol
 _atom_site_label
 _atom_site_symmetry_multiplicity
 _atom_site_fract_x
 _atom_site_fract_y
 _atom_site_fract_z
 _atom_site_occupancy
  Bi  Bi0  1  0.50000000  0.77425900  0.88895600  1
  Bi  Bi1  1  0.50000000  0.77128200  0.37358700  1
  Bi  Bi2  1  0.00000000  0.25769700  0.62146900  1
  Bi  Bi3  1  0.00000000  0.20087500  0.12461700  1
  O  O4  1  0.50000000  0.95304000  0.12748100  1
  O  O5  1  0.00000000  0.02854300  0.88573800  1
  O  O6  1  0.00000000  0.03037600  0.36883700  1
  F  F7  1  0.50000000  0.96552100  0.62857400  1
  F  F8  1  0.50000000  0.37436500  0.76615300  1
  F  F9  1  0.50000000  0.36056300  0.46005600  1
  F  F10  1  0.50000000  0.42374900  0.11111300  1
  F  F11  1  0.00000000  0.55413100  0.94135300  1
  F  F12  1  0.00000000  0.64633900  0.59831200  1
  F  F13  1  0.00000000  0.57286100  0.27740500  1
