# generated using pymatgen
data_WOF4
_symmetry_space_group_name_H-M   'P 1'
_cell_length_a   5.00368500
_cell_length_b   8.09933500
_cell_length_c   10.27646559
_cell_angle_alpha   70.37686058
_cell_angle_beta   90.00000000
_cell_angle_gamma   90.00000000
_symmetry_Int_Tables_number   1
_chemical_formula_structural   WOF4
_chemical_formula_sum   'W4 O4 F16'
_cell_volume   392.28164789
_cell_formula_units_Z   4
loop_
 _symmetry_equiv_pos_site_id
 _symmetry_equiv_pos_as_xyz
  1  'x, y, z'
loop_
 _atom_site_type_symbol
 _atom_site_label
 _atom_site_symmetry_multiplicity
 _atom_site_fract_x
 _atom_site_fract_y
 _atom_site_fract_z
 _atom_site_occupancy
  W  W0  1  0.45286700  0.76330100  0.54710000  1
  W  W1  1  0.04713300  0.76330100  0.04710000  1
  W  W2  1  0.95286700  0.23669900  0.95290000  1
  W  W3  1  0.54713300  0.23669900  0.45290000  1
  O  O4  1  0.24099300  0.61458100  0.51672900  1
  O  O5  1  0.74099300  0.38541900  0.98327100  1
  O  O6  1  0.25900700  0.61458100  0.01672900  1
  O  O7  1  0.75900700  0.38541900  0.48327100  1
  F  F8  1  0.20956400  0.98796400  0.93338600  1
  F  F9  1  0.80126300  0.80155300  0.90126300  1
  F  F10  1  0.29043600  0.98796400  0.43338600  1
  F  F11  1  0.27961000  0.80384800  0.69633600  1
  F  F12  1  0.69873700  0.80155300  0.40126300  1
  F  F13  1  0.70427600  0.62131300  0.66922400  1
  F  F14  1  0.22039000  0.80384800  0.19633600  1
  F  F15  1  0.20427600  0.37868700  0.83077600  1
  F  F16  1  0.79572400  0.62131300  0.16922400  1
  F  F17  1  0.77961000  0.19615200  0.80366400  1
  F  F18  1  0.29572400  0.37868700  0.33077600  1
  F  F19  1  0.30126300  0.19844700  0.59873700  1
  F  F20  1  0.72039000  0.19615200  0.30366400  1
  F  F21  1  0.70956400  0.01203600  0.56661400  1
  F  F22  1  0.19873700  0.19844700  0.09873700  1
  F  F23  1  0.79043600  0.01203600  0.06661400  1
