# generated using pymatgen
data_Zr2MoPt
_symmetry_space_group_name_H-M   'P 1'
_cell_length_a   11.20119199
_cell_length_b   11.20119199
_cell_length_c   11.20119199
_cell_angle_alpha   130.44783834
_cell_angle_beta   117.44942117
_cell_angle_gamma   83.70077188
_symmetry_Int_Tables_number   1
_chemical_formula_structural   Zr2MoPt
_chemical_formula_sum   'Zr2 Mo1 Pt1'
_cell_volume   911.01952510
_cell_formula_units_Z   1
loop_
 _symmetry_equiv_pos_site_id
 _symmetry_equiv_pos_as_xyz
  1  'x, y, z'
loop_
 _atom_site_type_symbol
 _atom_site_label
 _atom_site_symmetry_multiplicity
 _atom_site_fract_x
 _atom_site_fract_y
 _atom_site_fract_z
 _atom_site_occupancy
  Zr  Zr0  1  0.00000000  0.23581500  0.23581500  1
  Zr  Zr1  1  0.00000000  0.76418500  0.76418500  1
  Mo  Mo2  1  0.00000000  0.00000000  0.00000000  1
  Pt  Pt3  1  0.00000000  0.50000000  0.50000000  1
