# generated using pymatgen
data_V2P2O7
_symmetry_space_group_name_H-M   'P 1'
_cell_length_a   4.56783930
_cell_length_b   5.41355783
_cell_length_c   10.39596900
_cell_angle_alpha   90.00164972
_cell_angle_beta   89.99923944
_cell_angle_gamma   96.43394931
_symmetry_Int_Tables_number   1
_chemical_formula_structural   V2P2O7
_chemical_formula_sum   'V4 P4 O14'
_cell_volume   255.45511575
_cell_formula_units_Z   2
loop_
 _symmetry_equiv_pos_site_id
 _symmetry_equiv_pos_as_xyz
  1  'x, y, z'
loop_
 _atom_site_type_symbol
 _atom_site_label
 _atom_site_symmetry_multiplicity
 _atom_site_fract_x
 _atom_site_fract_y
 _atom_site_fract_z
 _atom_site_occupancy
  V  V0  1  0.40532400  0.58141200  0.34282000  1
  V  V1  1  0.59465500  0.91882600  0.84278300  1
  V  V2  1  0.40537700  0.08129100  0.15714900  1
  V  V3  1  0.59467200  0.41857400  0.65719500  1
  P  P4  1  0.85996800  0.15092100  0.38990000  1
  P  P5  1  0.14006700  0.34905500  0.88989900  1
  P  P6  1  0.85992400  0.65092900  0.11010600  1
  P  P7  1  0.14004200  0.84906900  0.61010700  1
  O  O8  1  0.00000600  0.99998500  0.49999700  1
  O  O9  1  0.99999100  0.50000600  0.99999700  1
  O  O10  1  0.37150800  0.03686300  0.67462800  1
  O  O11  1  0.62846600  0.46312900  0.17464900  1
  O  O12  1  0.37152900  0.53685300  0.82535800  1
  O  O13  1  0.62849000  0.96313300  0.32537900  1
  O  O14  1  0.28315500  0.13714300  0.95523000  1
  O  O15  1  0.71684900  0.36285400  0.45522800  1
  O  O16  1  0.28316100  0.63713500  0.54478300  1
  O  O17  1  0.71682800  0.86284500  0.04478100  1
  O  O18  1  0.88497100  0.25180300  0.80084800  1
  O  O19  1  0.11504400  0.24820500  0.30086000  1
  O  O20  1  0.88495600  0.75179200  0.69914600  1
  O  O21  1  0.11501900  0.74817700  0.19915600  1
