# generated using pymatgen
data_AlCoO3
_symmetry_space_group_name_H-M   'P 1'
_cell_length_a   4.84680802
_cell_length_b   5.36614867
_cell_length_c   4.93690682
_cell_angle_alpha   87.08454333
_cell_angle_beta   59.72039375
_cell_angle_gamma   115.95645443
_symmetry_Int_Tables_number   1
_chemical_formula_structural   AlCoO3
_chemical_formula_sum   'Al2 Co2 O6'
_cell_volume   93.40382959
_cell_formula_units_Z   2
loop_
 _symmetry_equiv_pos_site_id
 _symmetry_equiv_pos_as_xyz
  1  'x, y, z'
loop_
 _atom_site_type_symbol
 _atom_site_label
 _atom_site_symmetry_multiplicity
 _atom_site_fract_x
 _atom_site_fract_y
 _atom_site_fract_z
 _atom_site_occupancy
  Al  Al0  1  0.30825700  0.45931600  0.84821300  1
  Al  Al1  1  0.69543900  0.54739100  0.15057000  1
  Co  Co2  1  0.31170600  0.94831300  0.33685000  1
  Co  Co3  1  0.68700000  0.06538100  0.66180300  1
  O  O4  1  0.81142700  0.74139800  0.74970100  1
  O  O5  1  0.81335800  0.25408800  0.95948700  1
  O  O6  1  0.48809000  0.73101300  0.43415800  1
  O  O7  1  0.50092300  0.27537700  0.56699000  1
  O  O8  1  0.17917000  0.72758800  0.05082500  1
  O  O9  1  0.20462900  0.25013600  0.24140100  1
