# generated using pymatgen
data_Cd(CoO2)2
_symmetry_space_group_name_H-M   'P 1'
_cell_length_a   4.95001301
_cell_length_b   5.71543700
_cell_length_c   11.00915801
_cell_angle_alpha   89.99969345
_cell_angle_beta   90.00550157
_cell_angle_gamma   90.00199792
_symmetry_Int_Tables_number   1
_chemical_formula_structural   Cd(CoO2)2
_chemical_formula_sum   'Cd4 Co8 O16'
_cell_volume   311.46545458
_cell_formula_units_Z   4
loop_
 _symmetry_equiv_pos_site_id
 _symmetry_equiv_pos_as_xyz
  1  'x, y, z'
loop_
 _atom_site_type_symbol
 _atom_site_label
 _atom_site_symmetry_multiplicity
 _atom_site_fract_x
 _atom_site_fract_y
 _atom_site_fract_z
 _atom_site_occupancy
  Cd  Cd0  1  0.03917400  0.75000100  0.24996800  1
  Cd  Cd1  1  0.36759700  0.75000200  0.75001800  1
  Cd  Cd2  1  0.63241900  0.24999800  0.24998200  1
  Cd  Cd3  1  0.96083900  0.24999900  0.75003100  1
  Co  Co4  1  0.00368600  0.24999900  0.00602900  1
  Co  Co5  1  0.99631200  0.75000000  0.99396800  1
  Co  Co6  1  0.00367700  0.25000100  0.49400100  1
  Co  Co7  1  0.99631800  0.74999900  0.50599900  1
  Co  Co8  1  0.49999900  0.00000000  0.00000100  1
  Co  Co9  1  0.50000000  0.99999600  0.49999900  1
  Co  Co10  1  0.50000000  0.50000000  0.00000200  1
  Co  Co11  1  0.50000000  0.50000400  0.49999900  1
  O  O12  1  0.16729300  0.99851600  0.90501200  1
  O  O13  1  0.16728200  0.99852500  0.59495600  1
  O  O14  1  0.16728400  0.50147900  0.59495200  1
  O  O15  1  0.16728700  0.50149000  0.90501200  1
  O  O16  1  0.34202500  0.24999400  0.09099800  1
  O  O17  1  0.34200200  0.25000100  0.40900300  1
  O  O18  1  0.32523900  0.75000100  0.08679200  1
  O  O19  1  0.32517100  0.74999800  0.41321800  1
  O  O20  1  0.67481500  0.25000300  0.58679300  1
  O  O21  1  0.67475700  0.24999900  0.91320000  1
  O  O22  1  0.65800700  0.74999800  0.59098800  1
  O  O23  1  0.65797300  0.75000600  0.90901200  1
  O  O24  1  0.83270600  0.00147700  0.09498600  1
  O  O25  1  0.83271500  0.00145000  0.40504600  1
  O  O26  1  0.83271000  0.49851700  0.09498500  1
  O  O27  1  0.83271300  0.49854500  0.40505200  1
