# generated using pymatgen
data_Lu2TiO5
_symmetry_space_group_name_H-M   'P 1'
_cell_length_a   5.73783400
_cell_length_b   5.73783400
_cell_length_c   10.36085500
_cell_angle_alpha   90.00000000
_cell_angle_beta   90.00000000
_cell_angle_gamma   138.81764333
_symmetry_Int_Tables_number   1
_chemical_formula_structural   Lu2TiO5
_chemical_formula_sum   'Lu4 Ti2 O10'
_cell_volume   224.60502022
_cell_formula_units_Z   2
loop_
 _symmetry_equiv_pos_site_id
 _symmetry_equiv_pos_as_xyz
  1  'x, y, z'
loop_
 _atom_site_type_symbol
 _atom_site_label
 _atom_site_symmetry_multiplicity
 _atom_site_fract_x
 _atom_site_fract_y
 _atom_site_fract_z
 _atom_site_occupancy
  Lu  Lu0  1  0.14254100  0.85745900  0.43172300  1
  Lu  Lu1  1  0.14254100  0.85745900  0.06827700  1
  Lu  Lu2  1  0.85745900  0.14254100  0.56827700  1
  Lu  Lu3  1  0.85745900  0.14254100  0.93172300  1
  Ti  Ti4  1  0.17555100  0.82444900  0.75000000  1
  Ti  Ti5  1  0.82444900  0.17555100  0.25000000  1
  O  O6  1  0.05117300  0.94882700  0.87705500  1
  O  O7  1  0.05117300  0.94882700  0.62294500  1
  O  O8  1  0.70553000  0.29447000  0.41210200  1
  O  O9  1  0.70553000  0.29447000  0.08789800  1
  O  O10  1  0.26776000  0.73224000  0.25000000  1
  O  O11  1  0.73224000  0.26776000  0.75000000  1
  O  O12  1  0.29447000  0.70553000  0.58789800  1
  O  O13  1  0.29447000  0.70553000  0.91210200  1
  O  O14  1  0.94882700  0.05117300  0.12294500  1
  O  O15  1  0.94882700  0.05117300  0.37705500  1
