# generated using pymatgen
data_AlTc2Ge
_symmetry_space_group_name_H-M   'P 1'
_cell_length_a   10.32659091
_cell_length_b   10.32659091
_cell_length_c   10.32659091
_cell_angle_alpha   123.20280849
_cell_angle_beta   118.93542845
_cell_angle_gamma   88.19901930
_symmetry_Int_Tables_number   1
_chemical_formula_structural   AlTc2Ge
_chemical_formula_sum   'Al1 Tc2 Ge1'
_cell_volume   764.29966632
_cell_formula_units_Z   1
loop_
 _symmetry_equiv_pos_site_id
 _symmetry_equiv_pos_as_xyz
  1  'x, y, z'
loop_
 _atom_site_type_symbol
 _atom_site_label
 _atom_site_symmetry_multiplicity
 _atom_site_fract_x
 _atom_site_fract_y
 _atom_site_fract_z
 _atom_site_occupancy
  Al  Al0  1  0.00000000  0.00000000  0.00000000  1
  Tc  Tc1  1  0.00000000  0.25766000  0.25766000  1
  Tc  Tc2  1  0.00000000  0.74234000  0.74234000  1
  Ge  Ge3  1  0.00000000  0.50000000  0.50000000  1
