# generated using pymatgen
data_PrAsO4
_symmetry_space_group_name_H-M   'P 1'
_cell_length_a   6.97415423
_cell_length_b   6.97415423
_cell_length_c   6.97415423
_cell_angle_alpha   136.23094134
_cell_angle_beta   136.23094134
_cell_angle_gamma   63.62349770
_symmetry_Int_Tables_number   1
_chemical_formula_structural   PrAsO4
_chemical_formula_sum   'Pr2 As2 O8'
_cell_volume   160.19504190
_cell_formula_units_Z   2
loop_
 _symmetry_equiv_pos_site_id
 _symmetry_equiv_pos_as_xyz
  1  'x, y, z'
loop_
 _atom_site_type_symbol
 _atom_site_label
 _atom_site_symmetry_multiplicity
 _atom_site_fract_x
 _atom_site_fract_y
 _atom_site_fract_z
 _atom_site_occupancy
  Pr  Pr0  1  0.75000000  0.25000000  0.50000000  1
  Pr  Pr1  1  0.00000000  0.00000000  0.00000000  1
  As  As2  1  0.25000000  0.75000000  0.50000000  1
  As  As3  1  0.50000000  0.50000000  0.00000000  1
  O  O4  1  0.30763900  0.92085200  0.88281100  1
  O  O5  1  0.03804100  0.42482900  0.11718900  1
  O  O6  1  0.17482900  0.55763900  0.88678700  1
  O  O7  1  0.67085200  0.28804100  0.11321300  1
  O  O8  1  0.44236100  0.32914800  0.61718900  1
  O  O9  1  0.71195900  0.82517100  0.38281100  1
  O  O10  1  0.57517100  0.69236100  0.61321300  1
  O  O11  1  0.07914800  0.96195900  0.38678700  1
