# generated using pymatgen
data_SrSc2O4
_symmetry_space_group_name_H-M   'P 1'
_cell_length_a   6.59780831
_cell_length_b   6.59780831
_cell_length_c   6.59780831
_cell_angle_alpha   60.00000000
_cell_angle_beta   60.00000000
_cell_angle_gamma   60.00000000
_symmetry_Int_Tables_number   1
_chemical_formula_structural   SrSc2O4
_chemical_formula_sum   'Sr2 Sc4 O8'
_cell_volume   203.08791632
_cell_formula_units_Z   2
loop_
 _symmetry_equiv_pos_site_id
 _symmetry_equiv_pos_as_xyz
  1  'x, y, z'
loop_
 _atom_site_type_symbol
 _atom_site_label
 _atom_site_symmetry_multiplicity
 _atom_site_fract_x
 _atom_site_fract_y
 _atom_site_fract_z
 _atom_site_occupancy
  Sr  Sr0  1  0.50000000  0.50000000  0.50000000  1
  Sr  Sr1  1  0.75000000  0.75000000  0.75000000  1
  Sc  Sc2  1  0.62500000  0.12500000  0.12500000  1
  Sc  Sc3  1  0.12500000  0.12500000  0.12500000  1
  Sc  Sc4  1  0.12500000  0.12500000  0.62500000  1
  Sc  Sc5  1  0.12500000  0.62500000  0.12500000  1
  O  O6  1  0.89490100  0.89490100  0.89490100  1
  O  O7  1  0.93470200  0.35509900  0.35509900  1
  O  O8  1  0.35509900  0.93470200  0.35509900  1
  O  O9  1  0.35509900  0.35509900  0.93470200  1
  O  O10  1  0.89490100  0.89490100  0.31529800  1
  O  O11  1  0.89490100  0.31529800  0.89490100  1
  O  O12  1  0.31529800  0.89490100  0.89490100  1
  O  O13  1  0.35509900  0.35509900  0.35509900  1
