# generated using pymatgen
data_La2IrRh
_symmetry_space_group_name_H-M   'P 1'
_cell_length_a   11.60283462
_cell_length_b   11.60283462
_cell_length_c   11.60283462
_cell_angle_alpha   130.36703448
_cell_angle_beta   116.79006023
_cell_angle_gamma   84.35270824
_symmetry_Int_Tables_number   1
_chemical_formula_structural   La2IrRh
_chemical_formula_sum   'La2 Ir1 Rh1'
_cell_volume   1018.47856114
_cell_formula_units_Z   1
loop_
 _symmetry_equiv_pos_site_id
 _symmetry_equiv_pos_as_xyz
  1  'x, y, z'
loop_
 _atom_site_type_symbol
 _atom_site_label
 _atom_site_symmetry_multiplicity
 _atom_site_fract_x
 _atom_site_fract_y
 _atom_site_fract_z
 _atom_site_occupancy
  La  La0  1  0.00000000  0.24804900  0.24804900  1
  La  La1  1  0.00000000  0.75195100  0.75195100  1
  Ir  Ir2  1  0.00000000  0.50000000  0.50000000  1
  Rh  Rh3  1  0.00000000  0.00000000  0.00000000  1
