# generated using pymatgen
data_Rb3HoO3
_symmetry_space_group_name_H-M   'P 1'
_cell_length_a   7.33963292
_cell_length_b   7.33963292
_cell_length_c   7.29234557
_cell_angle_alpha   85.18682829
_cell_angle_beta   85.18682829
_cell_angle_gamma   116.43481016
_symmetry_Int_Tables_number   1
_chemical_formula_structural   Rb3HoO3
_chemical_formula_sum   'Rb6 Ho2 O6'
_cell_volume   347.27300100
_cell_formula_units_Z   2
loop_
 _symmetry_equiv_pos_site_id
 _symmetry_equiv_pos_as_xyz
  1  'x, y, z'
loop_
 _atom_site_type_symbol
 _atom_site_label
 _atom_site_symmetry_multiplicity
 _atom_site_fract_x
 _atom_site_fract_y
 _atom_site_fract_z
 _atom_site_occupancy
  Rb  Rb0  1  0.63706000  0.63706000  0.64303100  1
  Rb  Rb1  1  0.20605500  0.79394500  0.50000000  1
  Rb  Rb2  1  0.79394500  0.20605500  0.50000000  1
  Rb  Rb3  1  0.73946100  0.26053900  0.00000000  1
  Rb  Rb4  1  0.26053900  0.73946100  0.00000000  1
  Rb  Rb5  1  0.36294000  0.36294000  0.35696900  1
  Ho  Ho6  1  0.82306900  0.82306900  0.14884700  1
  Ho  Ho7  1  0.17693100  0.17693100  0.85115300  1
  O  O8  1  0.89778700  0.89778700  0.84572300  1
  O  O9  1  0.83135300  0.55520000  0.26752300  1
  O  O10  1  0.55520000  0.83135300  0.26752300  1
  O  O11  1  0.44480000  0.16864700  0.73247700  1
  O  O12  1  0.16864700  0.44480000  0.73247700  1
  O  O13  1  0.10221300  0.10221300  0.15427700  1
