# generated using pymatgen
data_Li2TiFe2O5
_symmetry_space_group_name_H-M   'P 1'
_cell_length_a   9.50431600
_cell_length_b   4.21111317
_cell_length_c   5.04107937
_cell_angle_alpha   65.32180925
_cell_angle_beta   88.46169050
_cell_angle_gamma   90.01978729
_symmetry_Int_Tables_number   1
_chemical_formula_structural   Li2TiFe2O5
_chemical_formula_sum   'Li4 Ti2 Fe4 O10'
_cell_volume   183.25442467
_cell_formula_units_Z   2
loop_
 _symmetry_equiv_pos_site_id
 _symmetry_equiv_pos_as_xyz
  1  'x, y, z'
loop_
 _atom_site_type_symbol
 _atom_site_label
 _atom_site_symmetry_multiplicity
 _atom_site_fract_x
 _atom_site_fract_y
 _atom_site_fract_z
 _atom_site_occupancy
  Li  Li0  1  0.90145000  0.30024400  0.39911300  1
  Li  Li1  1  0.69846000  0.89978300  0.20086300  1
  Li  Li2  1  0.50447300  0.50428700  0.99162200  1
  Li  Li3  1  0.09555800  0.69571500  0.60840700  1
  Ti  Ti4  1  0.60864800  0.20679100  0.58928800  1
  Ti  Ti5  1  0.99125200  0.99313700  0.01041900  1
  Fe  Fe6  1  0.79995900  0.60008800  0.79991500  1
  Fe  Fe7  1  0.30019700  0.09971300  0.80063100  1
  Fe  Fe8  1  0.21077900  0.38754100  0.22591500  1
  Fe  Fe9  1  0.38893600  0.81260600  0.37372700  1
  O  O10  1  0.80006000  0.10005600  0.79997200  1
  O  O11  1  0.90119900  0.80977700  0.38063400  1
  O  O12  1  0.69883300  0.39029900  0.21928000  1
  O  O13  1  0.50385800  0.01129300  0.97707000  1
  O  O14  1  0.60199700  0.70110600  0.59642600  1
  O  O15  1  0.41908300  0.30108000  0.39698900  1
  O  O16  1  0.30003700  0.59996000  0.80007900  1
  O  O17  1  0.09638300  0.18866100  0.62301300  1
  O  O18  1  0.18079900  0.89887000  0.20306900  1
  O  O19  1  0.99803800  0.49899200  0.00356700  1
