# generated using pymatgen
data_MgVRu2
_symmetry_space_group_name_H-M   'P 1'
_cell_length_a   11.61478327
_cell_length_b   11.61478327
_cell_length_c   11.61478327
_cell_angle_alpha   131.59801186
_cell_angle_beta   118.07828216
_cell_angle_gamma   82.26579647
_symmetry_Int_Tables_number   1
_chemical_formula_structural   MgVRu2
_chemical_formula_sum   'Mg1 V1 Ru2'
_cell_volume   995.54232952
_cell_formula_units_Z   1
loop_
 _symmetry_equiv_pos_site_id
 _symmetry_equiv_pos_as_xyz
  1  'x, y, z'
loop_
 _atom_site_type_symbol
 _atom_site_label
 _atom_site_symmetry_multiplicity
 _atom_site_fract_x
 _atom_site_fract_y
 _atom_site_fract_z
 _atom_site_occupancy
  Mg  Mg0  1  0.00000000  0.00000000  0.00000000  1
  V  V1  1  0.00000000  0.50000000  0.50000000  1
  Ru  Ru2  1  0.00000000  0.28531500  0.28531500  1
  Ru  Ru3  1  0.00000000  0.71468500  0.71468500  1
