# generated using pymatgen
data_Ba(LaI4)2
_symmetry_space_group_name_H-M   'P 1'
_cell_length_a   8.86451801
_cell_length_b   8.86451801
_cell_length_c   6.38226290
_cell_angle_alpha   82.12341678
_cell_angle_beta   82.12341678
_cell_angle_gamma   110.99572224
_symmetry_Int_Tables_number   1
_chemical_formula_structural   Ba(LaI4)2
_chemical_formula_sum   'Ba1 La2 I8'
_cell_volume   454.30971409
_cell_formula_units_Z   1
loop_
 _symmetry_equiv_pos_site_id
 _symmetry_equiv_pos_as_xyz
  1  'x, y, z'
loop_
 _atom_site_type_symbol
 _atom_site_label
 _atom_site_symmetry_multiplicity
 _atom_site_fract_x
 _atom_site_fract_y
 _atom_site_fract_z
 _atom_site_occupancy
  Ba  Ba0  1  0.00000000  0.00000000  0.00000000  1
  La  La1  1  0.31861300  0.68138700  0.50000000  1
  La  La2  1  0.68138700  0.31861300  0.50000000  1
  I  I3  1  0.93981800  0.67643800  0.57805000  1
  I  I4  1  0.67643800  0.93981800  0.57805000  1
  I  I5  1  0.61873700  0.61873700  0.19515200  1
  I  I6  1  0.75448800  0.24551200  0.00000000  1
  I  I7  1  0.24551200  0.75448800  0.00000000  1
  I  I8  1  0.38126300  0.38126300  0.80484800  1
  I  I9  1  0.32356200  0.06018200  0.42195000  1
  I  I10  1  0.06018200  0.32356200  0.42195000  1
