# generated using pymatgen
data_Cr4OF11
_symmetry_space_group_name_H-M   'P 1'
_cell_length_a   5.09894800
_cell_length_b   5.32814174
_cell_length_c   8.74449812
_cell_angle_alpha   74.73789697
_cell_angle_beta   90.00000000
_cell_angle_gamma   61.41303176
_symmetry_Int_Tables_number   1
_chemical_formula_structural   Cr4OF11
_chemical_formula_sum   'Cr4 O1 F11'
_cell_volume   199.01382801
_cell_formula_units_Z   1
loop_
 _symmetry_equiv_pos_site_id
 _symmetry_equiv_pos_as_xyz
  1  'x, y, z'
loop_
 _atom_site_type_symbol
 _atom_site_label
 _atom_site_symmetry_multiplicity
 _atom_site_fract_x
 _atom_site_fract_y
 _atom_site_fract_z
 _atom_site_occupancy
  Cr  Cr0  1  0.74514400  0.51343800  0.25706000  1
  Cr  Cr1  1  0.50858100  0.98656200  0.49294000  1
  Cr  Cr2  1  0.25013200  0.49727500  0.74882800  1
  Cr  Cr3  1  0.99740600  0.00272500  0.00117200  1
  O  O4  1  0.74893300  0.75000000  0.37500000  1
  F  F5  1  0.81348000  0.75054200  0.68373600  1
  F  F6  1  0.81402200  0.74945800  0.06626400  1
  F  F7  1  0.75497200  0.25490100  0.12824500  1
  F  F8  1  0.68545400  0.24923100  0.81439700  1
  F  F9  1  0.68225100  0.25076900  0.43513100  1
  F  F10  1  0.31282300  0.74960000  0.56282800  1
  F  F11  1  0.31242300  0.75040000  0.18717200  1
  F  F12  1  0.24680600  0.75000000  0.87500000  1
  F  F13  1  0.25987300  0.24509900  0.62175500  1
  F  F14  1  0.18301900  0.24923100  0.31486900  1
  F  F15  1  0.18468400  0.25076900  0.93560300  1
