# generated using pymatgen
data_Ho2CuO4
_symmetry_space_group_name_H-M   'P 1'
_cell_length_a   6.52028283
_cell_length_b   6.52028283
_cell_length_c   5.47871500
_cell_angle_alpha   90.00000000
_cell_angle_beta   90.00000000
_cell_angle_gamma   130.26684853
_symmetry_Int_Tables_number   1
_chemical_formula_structural   Ho2CuO4
_chemical_formula_sum   'Ho4 Cu2 O8'
_cell_volume   177.72980737
_cell_formula_units_Z   2
loop_
 _symmetry_equiv_pos_site_id
 _symmetry_equiv_pos_as_xyz
  1  'x, y, z'
loop_
 _atom_site_type_symbol
 _atom_site_label
 _atom_site_symmetry_multiplicity
 _atom_site_fract_x
 _atom_site_fract_y
 _atom_site_fract_z
 _atom_site_occupancy
  Ho  Ho0  1  0.65495100  0.34504900  0.00000000  1
  Ho  Ho1  1  0.34504900  0.65495100  0.00000000  1
  Ho  Ho2  1  0.84504900  0.15495100  0.50000000  1
  Ho  Ho3  1  0.15495100  0.84504900  0.50000000  1
  Cu  Cu4  1  0.00000000  0.00000000  0.00000000  1
  Cu  Cu5  1  0.50000000  0.50000000  0.50000000  1
  O  O6  1  0.69497300  0.69497300  0.19542600  1
  O  O7  1  0.51073200  0.01073200  0.25000000  1
  O  O8  1  0.01073200  0.51073200  0.25000000  1
  O  O9  1  0.19497300  0.19497300  0.30457400  1
  O  O10  1  0.80502700  0.80502700  0.69542600  1
  O  O11  1  0.98926800  0.48926800  0.75000000  1
  O  O12  1  0.48926800  0.98926800  0.75000000  1
  O  O13  1  0.30502700  0.30502700  0.80457400  1
