# generated using pymatgen
data_MnCrO4
_symmetry_space_group_name_H-M   'P 1'
_cell_length_a   5.13543736
_cell_length_b   5.13547911
_cell_length_c   6.68876600
_cell_angle_alpha   90.00152573
_cell_angle_beta   89.99884087
_cell_angle_gamma   113.40669428
_symmetry_Int_Tables_number   1
_chemical_formula_structural   MnCrO4
_chemical_formula_sum   'Mn2 Cr2 O8'
_cell_volume   161.88590099
_cell_formula_units_Z   2
loop_
 _symmetry_equiv_pos_site_id
 _symmetry_equiv_pos_as_xyz
  1  'x, y, z'
loop_
 _atom_site_type_symbol
 _atom_site_label
 _atom_site_symmetry_multiplicity
 _atom_site_fract_x
 _atom_site_fract_y
 _atom_site_fract_z
 _atom_site_occupancy
  Mn  Mn0  1  0.00000000  0.00000300  0.49999700  1
  Mn  Mn1  1  0.99999700  0.00000000  0.99999900  1
  Cr  Cr2  1  0.64365300  0.35635800  0.75001200  1
  Cr  Cr3  1  0.35626800  0.64372300  0.24999400  1
  O  O4  1  0.75564300  0.24435500  0.55048500  1
  O  O5  1  0.24437300  0.75562600  0.44954500  1
  O  O6  1  0.75565600  0.24434400  0.94953700  1
  O  O7  1  0.24437200  0.75563100  0.05044200  1
  O  O8  1  0.78276100  0.71895800  0.74999900  1
  O  O9  1  0.71894900  0.78271400  0.24999800  1
  O  O10  1  0.21728300  0.28104700  0.24999400  1
  O  O11  1  0.28104600  0.21724000  0.74999900  1
