# generated using pymatgen
data_K2CuPCO7
_symmetry_space_group_name_H-M   'P 1'
_cell_length_a   7.84341000
_cell_length_b   5.24061000
_cell_length_c   9.24440208
_cell_angle_alpha   89.99244477
_cell_angle_beta   90.00000000
_cell_angle_gamma   90.00000000
_symmetry_Int_Tables_number   1
_chemical_formula_structural   K2CuPCO7
_chemical_formula_sum   'K4 Cu2 P2 C2 O14'
_cell_volume   379.98423753
_cell_formula_units_Z   2
loop_
 _symmetry_equiv_pos_site_id
 _symmetry_equiv_pos_as_xyz
  1  'x, y, z'
loop_
 _atom_site_type_symbol
 _atom_site_label
 _atom_site_symmetry_multiplicity
 _atom_site_fract_x
 _atom_site_fract_y
 _atom_site_fract_z
 _atom_site_occupancy
  K  K0  1  0.02224200  0.24251800  0.74642500  1
  K  K1  1  0.47775800  0.24251800  0.74642500  1
  K  K2  1  0.52224200  0.75748200  0.25357500  1
  K  K3  1  0.97775800  0.75748200  0.25357500  1
  Cu  Cu4  1  0.75000000  0.77309800  0.64524700  1
  Cu  Cu5  1  0.25000000  0.22690200  0.35475300  1
  P  P6  1  0.25000000  0.71595500  0.57463000  1
  P  P7  1  0.75000000  0.28404500  0.42537000  1
  C  C8  1  0.75000000  0.72846000  0.90237000  1
  C  C9  1  0.25000000  0.27154000  0.09763000  1
  O  O10  1  0.25000000  0.28396300  0.96325400  1
  O  O11  1  0.75000000  0.94233100  0.82868500  1
  O  O12  1  0.75000000  0.53383900  0.81288000  1
  O  O13  1  0.08707800  0.75461900  0.66288600  1
  O  O14  1  0.41292200  0.75461900  0.66288600  1
  O  O15  1  0.75000000  0.11855000  0.56772300  1
  O  O16  1  0.25000000  0.42394500  0.52209000  1
  O  O17  1  0.75000000  0.57605500  0.47791000  1
  O  O18  1  0.25000000  0.88145000  0.43227700  1
  O  O19  1  0.58707700  0.24538100  0.33711400  1
  O  O20  1  0.91292200  0.24538100  0.33711400  1
  O  O21  1  0.25000000  0.46616100  0.18712000  1
  O  O22  1  0.25000000  0.05766900  0.17131500  1
  O  O23  1  0.75000000  0.71603700  0.03674600  1
