# generated using pymatgen
data_Na3CoO3
_symmetry_space_group_name_H-M   'P 1'
_cell_length_a   7.67933300
_cell_length_b   6.09590100
_cell_length_c   10.82502320
_cell_angle_alpha   56.21986999
_cell_angle_beta   90.00000000
_cell_angle_gamma   90.00000000
_symmetry_Int_Tables_number   1
_chemical_formula_structural   Na3CoO3
_chemical_formula_sum   'Na12 Co4 O12'
_cell_volume   421.19570767
_cell_formula_units_Z   4
loop_
 _symmetry_equiv_pos_site_id
 _symmetry_equiv_pos_as_xyz
  1  'x, y, z'
loop_
 _atom_site_type_symbol
 _atom_site_label
 _atom_site_symmetry_multiplicity
 _atom_site_fract_x
 _atom_site_fract_y
 _atom_site_fract_z
 _atom_site_occupancy
  Na  Na0  1  0.73165100  0.60974900  0.27381400  1
  Na  Na1  1  0.84251600  0.95978500  0.93267600  1
  Na  Na2  1  0.96826600  0.20623700  0.53948000  1
  Na  Na3  1  0.46826600  0.79376300  0.96052000  1
  Na  Na4  1  0.23165100  0.39025100  0.22618600  1
  Na  Na5  1  0.34251600  0.04021500  0.56732400  1
  Na  Na6  1  0.65748400  0.95978500  0.43267600  1
  Na  Na7  1  0.76834900  0.60974900  0.77381400  1
  Na  Na8  1  0.53173400  0.20623700  0.03948000  1
  Na  Na9  1  0.03173400  0.79376300  0.46052000  1
  Na  Na10  1  0.15748400  0.04021500  0.06732400  1
  Na  Na11  1  0.26834900  0.39025100  0.72618600  1
  Co  Co12  1  0.64993900  0.28247900  0.64608900  1
  Co  Co13  1  0.14993900  0.71752100  0.85391100  1
  Co  Co14  1  0.85006100  0.28247900  0.14608900  1
  Co  Co15  1  0.35006100  0.71752100  0.35391100  1
  O  O16  1  0.41897400  0.75492100  0.18601600  1
  O  O17  1  0.22339300  0.44474300  0.48851200  1
  O  O18  1  0.13548700  0.98456300  0.87512200  1
  O  O19  1  0.63548700  0.01543700  0.62487800  1
  O  O20  1  0.72339300  0.55525700  0.01148800  1
  O  O21  1  0.91897400  0.24507900  0.31398400  1
  O  O22  1  0.08102600  0.75492100  0.68601600  1
  O  O23  1  0.27660700  0.44474300  0.98851200  1
  O  O24  1  0.36451300  0.98456300  0.37512200  1
  O  O25  1  0.86451300  0.01543700  0.12487800  1
  O  O26  1  0.77660700  0.55525700  0.51148800  1
  O  O27  1  0.58102600  0.24507900  0.81398400  1
