# generated using pymatgen
data_Na3(CoO2)2
_symmetry_space_group_name_H-M   'P 1'
_cell_length_a   4.96639772
_cell_length_b   4.96639772
_cell_length_c   10.53434900
_cell_angle_alpha   90.00000000
_cell_angle_beta   90.00000000
_cell_angle_gamma   109.32944135
_symmetry_Int_Tables_number   1
_chemical_formula_structural   Na3(CoO2)2
_chemical_formula_sum   'Na6 Co4 O8'
_cell_volume   245.18443124
_cell_formula_units_Z   2
loop_
 _symmetry_equiv_pos_site_id
 _symmetry_equiv_pos_as_xyz
  1  'x, y, z'
loop_
 _atom_site_type_symbol
 _atom_site_label
 _atom_site_symmetry_multiplicity
 _atom_site_fract_x
 _atom_site_fract_y
 _atom_site_fract_z
 _atom_site_occupancy
  Na  Na0  1  0.64614200  0.35385800  0.06154800  1
  Na  Na1  1  0.64614200  0.35385800  0.43845200  1
  Na  Na2  1  0.35385800  0.64614200  0.56154800  1
  Na  Na3  1  0.31627100  0.68372900  0.25000000  1
  Na  Na4  1  0.68372900  0.31627100  0.75000000  1
  Na  Na5  1  0.35385800  0.64614200  0.93845200  1
  Co  Co6  1  0.00000000  0.00000000  0.00000000  1
  Co  Co7  1  0.93223800  0.06776200  0.25000000  1
  Co  Co8  1  0.00000000  0.00000000  0.50000000  1
  Co  Co9  1  0.06776200  0.93223800  0.75000000  1
  O  O10  1  0.14005700  0.30252600  0.11413300  1
  O  O11  1  0.14005700  0.30252600  0.38586700  1
  O  O12  1  0.30252600  0.14005700  0.88586700  1
  O  O13  1  0.30252600  0.14005700  0.61413300  1
  O  O14  1  0.69747400  0.85994300  0.38586700  1
  O  O15  1  0.69747400  0.85994300  0.11413300  1
  O  O16  1  0.85994300  0.69747400  0.61413300  1
  O  O17  1  0.85994300  0.69747400  0.88586700  1
