# generated using pymatgen
data_NaVSiO4
_symmetry_space_group_name_H-M   'P 1'
_cell_length_a   5.43379820
_cell_length_b   6.70651800
_cell_length_c   8.53625407
_cell_angle_alpha   90.00001497
_cell_angle_beta   89.99981425
_cell_angle_gamma   89.99736454
_symmetry_Int_Tables_number   1
_chemical_formula_structural   NaVSiO4
_chemical_formula_sum   'Na4 V4 Si4 O16'
_cell_volume   311.07702183
_cell_formula_units_Z   4
loop_
 _symmetry_equiv_pos_site_id
 _symmetry_equiv_pos_as_xyz
  1  'x, y, z'
loop_
 _atom_site_type_symbol
 _atom_site_label
 _atom_site_symmetry_multiplicity
 _atom_site_fract_x
 _atom_site_fract_y
 _atom_site_fract_z
 _atom_site_occupancy
  Na  Na0  1  0.99999500  0.24999500  0.31631000  1
  Na  Na1  1  0.49999900  0.24999700  0.81631200  1
  Na  Na2  1  0.99999700  0.75000400  0.68368900  1
  Na  Na3  1  0.50000000  0.75000400  0.18368700  1
  V  V4  1  0.50000200  0.99999400  0.50000000  1
  V  V5  1  0.00000200  0.50000300  0.00000400  1
  V  V6  1  0.99999500  0.00000400  0.00000100  1
  V  V7  1  0.49999700  0.49999400  0.49999900  1
  Si  Si8  1  0.00000200  0.75000000  0.33859100  1
  Si  Si9  1  0.50000000  0.75000200  0.83859100  1
  Si  Si10  1  0.00000100  0.25000300  0.66140800  1
  Si  Si11  1  0.50000200  0.24999700  0.16140900  1
  O  O12  1  0.99999900  0.55621900  0.22447000  1
  O  O13  1  0.49999700  0.55622000  0.72447000  1
  O  O14  1  0.00000300  0.94378000  0.22446900  1
  O  O15  1  0.50000200  0.94378000  0.72447100  1
  O  O16  1  0.99999800  0.05622200  0.77552700  1
  O  O17  1  0.50000000  0.05622100  0.27553200  1
  O  O18  1  0.00000300  0.44378200  0.77553300  1
  O  O19  1  0.50000300  0.44377700  0.27553000  1
  O  O20  1  0.24904100  0.74999300  0.45439900  1
  O  O21  1  0.74904000  0.74999500  0.95440100  1
  O  O22  1  0.24904100  0.24999800  0.54560200  1
  O  O23  1  0.74904400  0.24999100  0.04560100  1
  O  O24  1  0.75095900  0.75000200  0.45439900  1
  O  O25  1  0.25095700  0.75000900  0.95439800  1
  O  O26  1  0.75096000  0.25000600  0.54559900  1
  O  O27  1  0.25096200  0.25000600  0.04559900  1
