# generated using pymatgen
data_Sc2O3
_symmetry_space_group_name_H-M   'P 1'
_cell_length_a   5.85807799
_cell_length_b   5.85807799
_cell_length_c   5.85807702
_cell_angle_alpha   55.23632851
_cell_angle_beta   55.23632851
_cell_angle_gamma   55.23632865
_symmetry_Int_Tables_number   1
_chemical_formula_structural   Sc2O3
_chemical_formula_sum   'Sc4 O6'
_cell_volume   126.41105956
_cell_formula_units_Z   2
loop_
 _symmetry_equiv_pos_site_id
 _symmetry_equiv_pos_as_xyz
  1  'x, y, z'
loop_
 _atom_site_type_symbol
 _atom_site_label
 _atom_site_symmetry_multiplicity
 _atom_site_fract_x
 _atom_site_fract_y
 _atom_site_fract_z
 _atom_site_occupancy
  Sc  Sc0  1  0.00000000  0.00000000  0.00000000  1
  Sc  Sc1  1  0.70028000  0.70028000  0.70028000  1
  Sc  Sc2  1  0.50000000  0.50000000  0.50000000  1
  Sc  Sc3  1  0.29972000  0.29972000  0.29972000  1
  O  O4  1  0.71308500  0.11514600  0.38961400  1
  O  O5  1  0.61038600  0.28691500  0.88485400  1
  O  O6  1  0.88485400  0.61038600  0.28691500  1
  O  O7  1  0.11514600  0.38961400  0.71308500  1
  O  O8  1  0.38961400  0.71308500  0.11514600  1
  O  O9  1  0.28691500  0.88485400  0.61038600  1
