# generated using pymatgen
data_ZrHgAu2
_symmetry_space_group_name_H-M   'P 1'
_cell_length_a   11.34995780
_cell_length_b   11.34995780
_cell_length_c   11.34995780
_cell_angle_alpha   120.90848502
_cell_angle_beta   119.69954003
_cell_angle_gamma   89.47745447
_symmetry_Int_Tables_number   1
_chemical_formula_structural   ZrHgAu2
_chemical_formula_sum   'Zr1 Hg1 Au2'
_cell_volume   1028.93230916
_cell_formula_units_Z   1
loop_
 _symmetry_equiv_pos_site_id
 _symmetry_equiv_pos_as_xyz
  1  'x, y, z'
loop_
 _atom_site_type_symbol
 _atom_site_label
 _atom_site_symmetry_multiplicity
 _atom_site_fract_x
 _atom_site_fract_y
 _atom_site_fract_z
 _atom_site_occupancy
  Zr  Zr0  1  0.00000000  0.00000000  0.00000000  1
  Hg  Hg1  1  0.00000000  0.50000000  0.50000000  1
  Au  Au2  1  0.00000000  0.23581200  0.23581200  1
  Au  Au3  1  0.00000000  0.76418800  0.76418800  1
