# generated using pymatgen
data_Ca2CdAu
_symmetry_space_group_name_H-M   'P 1'
_cell_length_a   12.78266586
_cell_length_b   12.78266586
_cell_length_c   12.78266586
_cell_angle_alpha   121.02544778
_cell_angle_beta   119.74053635
_cell_angle_gamma   89.34155227
_symmetry_Int_Tables_number   1
_chemical_formula_structural   Ca2CdAu
_chemical_formula_sum   'Ca2 Cd1 Au1'
_cell_volume   1468.00515375
_cell_formula_units_Z   1
loop_
 _symmetry_equiv_pos_site_id
 _symmetry_equiv_pos_as_xyz
  1  'x, y, z'
loop_
 _atom_site_type_symbol
 _atom_site_label
 _atom_site_symmetry_multiplicity
 _atom_site_fract_x
 _atom_site_fract_y
 _atom_site_fract_z
 _atom_site_occupancy
  Ca  Ca0  1  0.00000000  0.26942100  0.26942100  1
  Ca  Ca1  1  0.00000000  0.73057900  0.73057900  1
  Cd  Cd2  1  0.00000000  0.00000000  0.00000000  1
  Au  Au3  1  0.00000000  0.50000000  0.50000000  1
