# generated using pymatgen
data_Mn3Cr2Sb3O16
_symmetry_space_group_name_H-M   'P 1'
_cell_length_a   6.08698441
_cell_length_b   6.03200005
_cell_length_c   9.04669038
_cell_angle_alpha   89.99836458
_cell_angle_beta   89.80615194
_cell_angle_gamma   119.70269067
_symmetry_Int_Tables_number   1
_chemical_formula_structural   Mn3Cr2Sb3O16
_chemical_formula_sum   'Mn3 Cr2 Sb3 O16'
_cell_volume   288.51864155
_cell_formula_units_Z   1
loop_
 _symmetry_equiv_pos_site_id
 _symmetry_equiv_pos_as_xyz
  1  'x, y, z'
loop_
 _atom_site_type_symbol
 _atom_site_label
 _atom_site_symmetry_multiplicity
 _atom_site_fract_x
 _atom_site_fract_y
 _atom_site_fract_z
 _atom_site_occupancy
  Mn  Mn0  1  0.66160000  0.83080300  0.21470600  1
  Mn  Mn1  1  0.82713900  0.66242300  0.71012500  1
  Mn  Mn2  1  0.82712800  0.16473700  0.71013000  1
  Cr  Cr3  1  0.34017900  0.67008200  0.49284500  1
  Cr  Cr4  1  0.68215300  0.34109600  0.98407100  1
  Sb  Sb5  1  0.16414700  0.83066300  0.20982800  1
  Sb  Sb6  1  0.16414000  0.33350500  0.20982000  1
  Sb  Sb7  1  0.32918900  0.16459800  0.70947300  1
  O  O8  1  0.16290000  0.83214100  0.60417700  1
  O  O9  1  0.04362800  0.52181000  0.34710700  1
  O  O10  1  0.30625900  0.65315600  0.08616100  1
  O  O11  1  0.02303000  0.01151600  0.32678900  1
  O  O12  1  0.98888700  0.99446600  0.81573900  1
  O  O13  1  0.16287300  0.33076700  0.60418800  1
  O  O14  1  0.47512900  0.95228000  0.33739100  1
  O  O15  1  0.47510200  0.52283000  0.33740000  1
  O  O16  1  0.33459400  0.16731800  0.09666100  1
  O  O17  1  0.67521300  0.83761900  0.60330500  1
  O  O18  1  0.53113800  0.48308500  0.83765400  1
  O  O19  1  0.53115800  0.04806300  0.83766100  1
  O  O20  1  0.67213600  0.33605600  0.59993700  1
  O  O21  1  0.83546900  0.67067100  0.10516800  1
  O  O22  1  0.95132800  0.47568600  0.83023200  1
  O  O23  1  0.83548100  0.16482900  0.10515300  1
