# generated using pymatgen
data_Na4WO4
_symmetry_space_group_name_H-M   'P 1'
_cell_length_a   5.70313177
_cell_length_b   5.70313177
_cell_length_c   5.70313177
_cell_angle_alpha   100.65057598
_cell_angle_beta   100.65057598
_cell_angle_gamma   129.07684519
_symmetry_Int_Tables_number   1
_chemical_formula_structural   Na4WO4
_chemical_formula_sum   'Na4 W1 O4'
_cell_volume   130.01621726
_cell_formula_units_Z   1
loop_
 _symmetry_equiv_pos_site_id
 _symmetry_equiv_pos_as_xyz
  1  'x, y, z'
loop_
 _atom_site_type_symbol
 _atom_site_label
 _atom_site_symmetry_multiplicity
 _atom_site_fract_x
 _atom_site_fract_y
 _atom_site_fract_z
 _atom_site_occupancy
  Na  Na0  1  0.80236600  0.40695200  0.20931800  1
  Na  Na1  1  0.40695200  0.19763400  0.60458600  1
  Na  Na2  1  0.59304800  0.80236600  0.39541400  1
  Na  Na3  1  0.19763400  0.59304800  0.79068200  1
  W  W4  1  0.00000000  0.00000000  0.00000000  1
  O  O5  1  0.25234000  0.91886400  0.17120400  1
  O  O6  1  0.91886400  0.74766000  0.66652400  1
  O  O7  1  0.08113600  0.25234000  0.33347600  1
  O  O8  1  0.74766000  0.08113600  0.82879600  1
