# generated using pymatgen
data_Fe4OF8
_symmetry_space_group_name_H-M   'P 1'
_cell_length_a   5.41094624
_cell_length_b   5.41094624
_cell_length_c   14.95565079
_cell_angle_alpha   89.55458073
_cell_angle_beta   89.55458073
_cell_angle_gamma   59.37154460
_symmetry_Int_Tables_number   1
_chemical_formula_structural   Fe4OF8
_chemical_formula_sum   'Fe8 O2 F16'
_cell_volume   376.77297425
_cell_formula_units_Z   2
loop_
 _symmetry_equiv_pos_site_id
 _symmetry_equiv_pos_as_xyz
  1  'x, y, z'
loop_
 _atom_site_type_symbol
 _atom_site_label
 _atom_site_symmetry_multiplicity
 _atom_site_fract_x
 _atom_site_fract_y
 _atom_site_fract_z
 _atom_site_occupancy
  Fe  Fe0  1  0.36104400  0.30221500  0.17759900  1
  Fe  Fe1  1  0.33793900  0.32929800  0.48288500  1
  Fe  Fe2  1  0.32929800  0.33793900  0.98288500  1
  Fe  Fe3  1  0.30221500  0.36104400  0.67759900  1
  Fe  Fe4  1  0.64818400  0.70248000  0.02696800  1
  Fe  Fe5  1  0.70248000  0.64818400  0.52696800  1
  Fe  Fe6  1  0.68013500  0.64808800  0.32004100  1
  Fe  Fe7  1  0.64808800  0.68013500  0.82004100  1
  O  O8  1  0.57667200  0.04185600  0.07455200  1
  O  O9  1  0.04185600  0.57667200  0.57455200  1
  F  F10  1  0.63501800  0.37270300  0.25605100  1
  F  F11  1  0.62536200  0.35606600  0.57704500  1
  F  F12  1  0.35606600  0.62536200  0.07704500  1
  F  F13  1  0.60871600  0.99749500  0.75198100  1
  F  F14  1  0.37270300  0.63501800  0.75605100  1
  F  F15  1  0.99749500  0.60871600  0.25198100  1
  F  F16  1  0.39086400  0.98714300  0.57633700  1
  F  F17  1  0.94660800  0.64034500  0.92172500  1
  F  F18  1  0.98714300  0.39086400  0.07633700  1
  F  F19  1  0.64034500  0.94660800  0.42172500  1
  F  F20  1  0.96194800  0.39028800  0.41649500  1
  F  F21  1  0.97802900  0.38491900  0.76054600  1
  F  F22  1  0.63053800  0.42129100  0.92084100  1
  F  F23  1  0.39028800  0.96194800  0.91649500  1
  F  F24  1  0.38491900  0.97802900  0.26054600  1
  F  F25  1  0.42129100  0.63053800  0.42084100  1
