# generated using pymatgen
data_Al2CrO5
_symmetry_space_group_name_H-M   'P 1'
_cell_length_a   5.05828776
_cell_length_b   7.18547697
_cell_length_c   10.24938235
_cell_angle_alpha   74.62419369
_cell_angle_beta   82.79878355
_cell_angle_gamma   110.24802654
_symmetry_Int_Tables_number   1
_chemical_formula_structural   Al2CrO5
_chemical_formula_sum   'Al8 Cr4 O20'
_cell_volume   327.14538580
_cell_formula_units_Z   4
loop_
 _symmetry_equiv_pos_site_id
 _symmetry_equiv_pos_as_xyz
  1  'x, y, z'
loop_
 _atom_site_type_symbol
 _atom_site_label
 _atom_site_symmetry_multiplicity
 _atom_site_fract_x
 _atom_site_fract_y
 _atom_site_fract_z
 _atom_site_occupancy
  Al  Al0  1  0.43011600  0.15041400  0.55933800  1
  Al  Al1  1  0.92995800  0.65035500  0.55943800  1
  Al  Al2  1  0.23945900  0.95984000  0.94058000  1
  Al  Al3  1  0.73947700  0.45985500  0.94045900  1
  Al  Al4  1  0.76060000  0.04020400  0.05941900  1
  Al  Al5  1  0.26047100  0.54033300  0.05938700  1
  Al  Al6  1  0.57007300  0.84972300  0.44059600  1
  Al  Al7  1  0.07006100  0.34962500  0.44054200  1
  Cr  Cr8  1  0.65163100  0.28277300  0.24976700  1
  Cr  Cr9  1  0.34805700  0.71716900  0.75003600  1
  Cr  Cr10  1  0.15179300  0.78261200  0.25006200  1
  Cr  Cr11  1  0.84833700  0.21721500  0.75002300  1
  O  O12  1  0.48061000  0.00651900  0.75001700  1
  O  O13  1  0.98052200  0.50646100  0.75001000  1
  O  O14  1  0.51932900  0.99350800  0.24999400  1
  O  O15  1  0.01934600  0.49339900  0.24998900  1
  O  O16  1  0.51313400  0.41877000  0.11521000  1
  O  O17  1  0.01324100  0.91862100  0.11538300  1
  O  O18  1  0.37856700  0.28401000  0.38465500  1
  O  O19  1  0.87856600  0.78393400  0.38472100  1
  O  O20  1  0.62139900  0.71600400  0.61538200  1
  O  O21  1  0.12156800  0.21606800  0.61527300  1
  O  O22  1  0.48675900  0.58135700  0.88470300  1
  O  O23  1  0.98687200  0.08131500  0.88472300  1
  O  O24  1  0.75334100  0.13007800  0.42822800  1
  O  O25  1  0.25338700  0.63004200  0.42829100  1
  O  O26  1  0.93161300  0.30830100  0.07178100  1
  O  O27  1  0.43161600  0.80825800  0.07183800  1
  O  O28  1  0.06838800  0.69169400  0.92825100  1
  O  O29  1  0.56841600  0.19171600  0.92825700  1
  O  O30  1  0.24660000  0.86992700  0.57180900  1
  O  O31  1  0.74669400  0.36990000  0.57183700  1
