# generated using pymatgen
data_Li4Mn3V2Cr3O16
_symmetry_space_group_name_H-M   'P 1'
_cell_length_a   5.83444404
_cell_length_b   5.82115929
_cell_length_c   9.41696694
_cell_angle_alpha   89.99738122
_cell_angle_beta   90.37002865
_cell_angle_gamma   119.88952310
_symmetry_Int_Tables_number   1
_chemical_formula_structural   Li4Mn3V2Cr3O16
_chemical_formula_sum   'Li4 Mn3 V2 Cr3 O16'
_cell_volume   277.28161352
_cell_formula_units_Z   1
loop_
 _symmetry_equiv_pos_site_id
 _symmetry_equiv_pos_as_xyz
  1  'x, y, z'
loop_
 _atom_site_type_symbol
 _atom_site_label
 _atom_site_symmetry_multiplicity
 _atom_site_fract_x
 _atom_site_fract_y
 _atom_site_fract_z
 _atom_site_occupancy
  Li  Li0  1  0.33538400  0.66766200  0.89752100  1
  Li  Li1  1  0.99410600  0.99713700  0.99623400  1
  Li  Li2  1  0.99716700  0.99862900  0.49520900  1
  Li  Li3  1  0.67281400  0.33638400  0.39352400  1
  Mn  Mn4  1  0.65851000  0.82926200  0.21528100  1
  Mn  Mn5  1  0.83013200  0.66034000  0.71430900  1
  Mn  Mn6  1  0.83057500  0.17046300  0.71443900  1
  V  V7  1  0.32746000  0.66383500  0.49160800  1
  V  V8  1  0.65794700  0.32905100  0.99277900  1
  Cr  Cr9  1  0.16996800  0.83122000  0.21312900  1
  Cr  Cr10  1  0.17003700  0.33863800  0.21322300  1
  Cr  Cr11  1  0.33940700  0.16965600  0.71337200  1
  O  O12  1  0.17322700  0.83681700  0.59617400  1
  O  O13  1  0.04836700  0.52438300  0.34171300  1
  O  O14  1  0.33841700  0.66914700  0.10606300  1
  O  O15  1  0.99406600  0.99705700  0.30787100  1
  O  O16  1  0.99829400  0.99898100  0.80782100  1
  O  O17  1  0.17179200  0.33597200  0.59657200  1
  O  O18  1  0.48290200  0.96175300  0.33870200  1
  O  O19  1  0.48319800  0.52165600  0.33884700  1
  O  O20  1  0.33088100  0.16534100  0.09953000  1
  O  O21  1  0.66544100  0.83265500  0.59796100  1
  O  O22  1  0.52013900  0.47712500  0.84346900  1
  O  O23  1  0.52132900  0.04280100  0.84273800  1
  O  O24  1  0.67034500  0.33541400  0.60708600  1
  O  O25  1  0.82723300  0.66065400  0.09719900  1
  O  O26  1  0.96373200  0.48174900  0.83821100  1
  O  O27  1  0.82712800  0.16652100  0.09725200  1
