# generated using pymatgen
data_Ga3NO3
_symmetry_space_group_name_H-M   'P 1'
_cell_length_a   5.97809635
_cell_length_b   5.97809635
_cell_length_c   5.97809668
_cell_angle_alpha   59.29080429
_cell_angle_beta   59.29080429
_cell_angle_gamma   59.29080281
_symmetry_Int_Tables_number   1
_chemical_formula_structural   Ga3NO3
_chemical_formula_sum   'Ga6 N2 O6'
_cell_volume   148.62878803
_cell_formula_units_Z   2
loop_
 _symmetry_equiv_pos_site_id
 _symmetry_equiv_pos_as_xyz
  1  'x, y, z'
loop_
 _atom_site_type_symbol
 _atom_site_label
 _atom_site_symmetry_multiplicity
 _atom_site_fract_x
 _atom_site_fract_y
 _atom_site_fract_z
 _atom_site_occupancy
  Ga  Ga0  1  0.50000000  0.00000000  0.50000000  1
  Ga  Ga1  1  0.50000000  0.50000000  0.50000000  1
  Ga  Ga2  1  0.13716900  0.13716900  0.13716900  1
  Ga  Ga3  1  0.50000000  0.50000000  0.00000000  1
  Ga  Ga4  1  0.86283100  0.86283100  0.86283100  1
  Ga  Ga5  1  0.00000000  0.50000000  0.50000000  1
  N  N6  1  0.73270700  0.73270700  0.73270700  1
  N  N7  1  0.26729300  0.26729300  0.26729300  1
  O  O8  1  0.74044500  0.74044500  0.26074700  1
  O  O9  1  0.74044500  0.26074700  0.74044500  1
  O  O10  1  0.26074700  0.74044500  0.74044500  1
  O  O11  1  0.73925300  0.25955500  0.25955500  1
  O  O12  1  0.25955500  0.25955500  0.73925300  1
  O  O13  1  0.25955500  0.73925300  0.25955500  1
