# generated using pymatgen
data_CrPHO5
_symmetry_space_group_name_H-M   'P 1'
_cell_length_a   5.21259188
_cell_length_b   7.24564315
_cell_length_c   5.20623075
_cell_angle_alpha   108.88459086
_cell_angle_beta   99.35348255
_cell_angle_gamma   105.96888926
_symmetry_Int_Tables_number   1
_chemical_formula_structural   CrPHO5
_chemical_formula_sum   'Cr2 P2 H2 O10'
_cell_volume   171.89225909
_cell_formula_units_Z   2
loop_
 _symmetry_equiv_pos_site_id
 _symmetry_equiv_pos_as_xyz
  1  'x, y, z'
loop_
 _atom_site_type_symbol
 _atom_site_label
 _atom_site_symmetry_multiplicity
 _atom_site_fract_x
 _atom_site_fract_y
 _atom_site_fract_z
 _atom_site_occupancy
  Cr  Cr0  1  0.00004000  0.49998900  0.99981200  1
  Cr  Cr1  1  0.99984600  0.00003600  0.00008200  1
  P  P2  1  0.33873800  0.22661800  0.67457400  1
  P  P3  1  0.66129200  0.77338700  0.32546400  1
  H  H4  1  0.00410100  0.32249600  0.34540900  1
  H  H5  1  0.99594500  0.67762500  0.65448500  1
  O  O6  1  0.04068900  0.73220000  0.86457100  1
  O  O7  1  0.16426500  0.37288300  0.70301400  1
  O  O8  1  0.35395100  0.63785200  0.27095900  1
  O  O9  1  0.24052500  0.06438400  0.37039200  1
  O  O10  1  0.31940500  0.12268900  0.89023300  1
  O  O11  1  0.68069700  0.87729500  0.10984100  1
  O  O12  1  0.75940700  0.93546000  0.62971600  1
  O  O13  1  0.64605000  0.36202500  0.72904400  1
  O  O14  1  0.83579000  0.62720600  0.29703900  1
  O  O15  1  0.95926000  0.26785700  0.13536500  1
