# generated using pymatgen
data_La2MgO4
_symmetry_space_group_name_H-M   'P 1'
_cell_length_a   6.86065192
_cell_length_b   6.86065192
_cell_length_c   6.86065192
_cell_angle_alpha   146.68933433
_cell_angle_beta   146.68933433
_cell_angle_gamma   47.82399470
_symmetry_Int_Tables_number   1
_chemical_formula_structural   La2MgO4
_chemical_formula_sum   'La2 Mg1 O4'
_cell_volume   97.00109844
_cell_formula_units_Z   1
loop_
 _symmetry_equiv_pos_site_id
 _symmetry_equiv_pos_as_xyz
  1  'x, y, z'
loop_
 _atom_site_type_symbol
 _atom_site_label
 _atom_site_symmetry_multiplicity
 _atom_site_fract_x
 _atom_site_fract_y
 _atom_site_fract_z
 _atom_site_occupancy
  La  La0  1  0.63728600  0.63728600  0.00000000  1
  La  La1  1  0.36271400  0.36271400  0.00000000  1
  Mg  Mg2  1  0.00000000  0.00000000  0.00000000  1
  O  O3  1  0.50000000  0.00000000  0.50000000  1
  O  O4  1  0.00000000  0.50000000  0.50000000  1
  O  O5  1  0.82136000  0.82136000  0.00000000  1
  O  O6  1  0.17864000  0.17864000  0.00000000  1
