# generated using pymatgen
data_Co2OF3
_symmetry_space_group_name_H-M   'P 1'
_cell_length_a   4.71620100
_cell_length_b   5.68490596
_cell_length_c   13.30007103
_cell_angle_alpha   78.72763205
_cell_angle_beta   89.55685171
_cell_angle_gamma   89.46919391
_symmetry_Int_Tables_number   1
_chemical_formula_structural   Co2OF3
_chemical_formula_sum   'Co10 O5 F15'
_cell_volume   349.68996651
_cell_formula_units_Z   5
loop_
 _symmetry_equiv_pos_site_id
 _symmetry_equiv_pos_as_xyz
  1  'x, y, z'
loop_
 _atom_site_type_symbol
 _atom_site_label
 _atom_site_symmetry_multiplicity
 _atom_site_fract_x
 _atom_site_fract_y
 _atom_site_fract_z
 _atom_site_occupancy
  Co  Co0  1  0.47683500  0.51714500  0.00362400  1
  Co  Co1  1  0.50283400  0.30384300  0.60289700  1
  Co  Co2  1  0.55694500  0.68299300  0.39957100  1
  Co  Co3  1  0.46129600  0.90289700  0.78272300  1
  Co  Co4  1  0.50483900  0.09693600  0.20053100  1
  Co  Co5  1  0.99073200  0.78161800  0.59373000  1
  Co  Co6  1  0.01533200  0.59959500  0.19795300  1
  Co  Co7  1  0.95973000  0.39946700  0.81753100  1
  Co  Co8  1  0.00035900  0.21539700  0.39981400  1
  Co  Co9  1  0.99697700  0.99511300  0.99791200  1
  O  O10  1  0.78935600  0.33430100  0.93916200  1
  O  O11  1  0.81770600  0.52355600  0.33787700  1
  O  O12  1  0.71615400  0.61818800  0.54318700  1
  O  O13  1  0.29375400  0.96580100  0.66035200  1
  O  O14  1  0.20193400  0.68044700  0.05783300  1
  F  F15  1  0.79684300  0.71331800  0.74122000  1
  F  F16  1  0.80663000  0.91690800  0.13909700  1
  F  F17  1  0.81263600  0.11469200  0.54146400  1
  F  F18  1  0.70242800  0.01840200  0.34293200  1
  F  F19  1  0.67858400  0.83168500  0.92761900  1
  F  F20  1  0.69665100  0.41970900  0.13861300  1
  F  F21  1  0.69495600  0.20833200  0.74337400  1
  F  F22  1  0.31737100  0.77810100  0.26518100  1
  F  F23  1  0.30120800  0.18282900  0.05921900  1
  F  F24  1  0.29227000  0.59054100  0.85715400  1
  F  F25  1  0.31682400  0.38828200  0.46131800  1
  F  F26  1  0.19234000  0.09234600  0.85663700  1
  F  F27  1  0.21627900  0.87877100  0.45937600  1
  F  F28  1  0.20378600  0.27820200  0.26001700  1
  F  F29  1  0.18641200  0.47058300  0.67208100  1
