# generated using pymatgen
data_Mn2FeO6
_symmetry_space_group_name_H-M   'P 1'
_cell_length_a   6.52134855
_cell_length_b   6.52134855
_cell_length_c   5.77516337
_cell_angle_alpha   79.07611868
_cell_angle_beta   79.07611868
_cell_angle_gamma   26.14519053
_symmetry_Int_Tables_number   1
_chemical_formula_structural   Mn2FeO6
_chemical_formula_sum   'Mn2 Fe1 O6'
_cell_volume   106.15782327
_cell_formula_units_Z   1
loop_
 _symmetry_equiv_pos_site_id
 _symmetry_equiv_pos_as_xyz
  1  'x, y, z'
loop_
 _atom_site_type_symbol
 _atom_site_label
 _atom_site_symmetry_multiplicity
 _atom_site_fract_x
 _atom_site_fract_y
 _atom_site_fract_z
 _atom_site_occupancy
  Mn  Mn0  1  0.16789800  0.16789800  0.66522200  1
  Mn  Mn1  1  0.83210200  0.83210200  0.33477800  1
  Fe  Fe2  1  0.50000000  0.50000000  0.00000000  1
  O  O3  1  0.65984400  0.65984400  0.88649000  1
  O  O4  1  0.32267500  0.32267500  0.55870700  1
  O  O5  1  0.34015600  0.34015600  0.11351000  1
  O  O6  1  0.98757100  0.98757100  0.23139000  1
  O  O7  1  0.01242900  0.01242900  0.76861000  1
  O  O8  1  0.67732500  0.67732500  0.44129300  1
