# generated using pymatgen
data_MnP2WO8
_symmetry_space_group_name_H-M   'P 1'
_cell_length_a   5.03586409
_cell_length_b   10.29886610
_cell_length_c   6.05256600
_cell_angle_alpha   90.00188407
_cell_angle_beta   90.00322943
_cell_angle_gamma   92.77274386
_symmetry_Int_Tables_number   1
_chemical_formula_structural   MnP2WO8
_chemical_formula_sum   'Mn2 P4 W2 O16'
_cell_volume   313.54090203
_cell_formula_units_Z   2
loop_
 _symmetry_equiv_pos_site_id
 _symmetry_equiv_pos_as_xyz
  1  'x, y, z'
loop_
 _atom_site_type_symbol
 _atom_site_label
 _atom_site_symmetry_multiplicity
 _atom_site_fract_x
 _atom_site_fract_y
 _atom_site_fract_z
 _atom_site_occupancy
  Mn  Mn0  1  0.05292800  0.72430700  0.75000700  1
  Mn  Mn1  1  0.94668700  0.27568900  0.25043600  1
  P  P2  1  0.40627200  0.08724600  0.24998400  1
  P  P3  1  0.59379700  0.91275000  0.74997100  1
  P  P4  1  0.88874100  0.40059000  0.74999900  1
  P  P5  1  0.11135200  0.59942000  0.24995200  1
  W  W6  1  0.44512400  0.21713400  0.75002000  1
  W  W7  1  0.55487900  0.78287100  0.24996200  1
  O  O8  1  0.69150900  0.05608700  0.74999200  1
  O  O9  1  0.30852600  0.94401000  0.24998500  1
  O  O10  1  0.70549800  0.10506600  0.25000000  1
  O  O11  1  0.29474900  0.89488900  0.74995000  1
  O  O12  1  0.18129200  0.36725400  0.74998900  1
  O  O13  1  0.81875500  0.63276300  0.24998800  1
  O  O14  1  0.14637100  0.45545500  0.24994400  1
  O  O15  1  0.85360100  0.54451200  0.74998300  1
  O  O16  1  0.27672000  0.16132600  0.04734400  1
  O  O17  1  0.27670900  0.16133200  0.45265700  1
  O  O18  1  0.72325400  0.83864500  0.54732500  1
  O  O19  1  0.72324900  0.83865200  0.95262300  1
  O  O20  1  0.73088000  0.32622200  0.94505500  1
  O  O21  1  0.73087100  0.32621900  0.55490500  1
  O  O22  1  0.26910600  0.67378600  0.05488500  1
  O  O23  1  0.26913100  0.67377500  0.44504300  1
