# generated using pymatgen
data_Li2MnPHO5
_symmetry_space_group_name_H-M   'P 1'
_cell_length_a   5.24043878
_cell_length_b   11.01147821
_cell_length_c   7.84401948
_cell_angle_alpha   102.42917937
_cell_angle_beta   72.94628982
_cell_angle_gamma   80.54048782
_symmetry_Int_Tables_number   1
_chemical_formula_structural   Li2MnPHO5
_chemical_formula_sum   'Li8 Mn4 P4 H4 O20'
_cell_volume   409.85945249
_cell_formula_units_Z   4
loop_
 _symmetry_equiv_pos_site_id
 _symmetry_equiv_pos_as_xyz
  1  'x, y, z'
loop_
 _atom_site_type_symbol
 _atom_site_label
 _atom_site_symmetry_multiplicity
 _atom_site_fract_x
 _atom_site_fract_y
 _atom_site_fract_z
 _atom_site_occupancy
  Li  Li0  1  0.78980800  0.15376900  0.43929000  1
  Li  Li1  1  0.28978000  0.65366200  0.93938300  1
  Li  Li2  1  0.01610200  0.34076800  0.52538600  1
  Li  Li3  1  0.51578400  0.84081100  0.02506700  1
  Li  Li4  1  0.67411700  0.26407600  0.11356300  1
  Li  Li5  1  0.17381300  0.76403700  0.61354000  1
  Li  Li6  1  0.16533300  0.00616100  0.58936000  1
  Li  Li7  1  0.66544300  0.50635700  0.08986600  1
  Mn  Mn8  1  0.99954900  0.99874300  0.99387500  1
  Mn  Mn9  1  0.27494000  0.25195700  0.77286500  1
  Mn  Mn10  1  0.49958000  0.49871900  0.49396400  1
  Mn  Mn11  1  0.77437900  0.75202200  0.27226600  1
  P  P12  1  0.36288700  0.07850300  0.29565000  1
  P  P13  1  0.86273000  0.57854500  0.79585000  1
  P  P14  1  0.14332000  0.43507500  0.18721600  1
  P  P15  1  0.64338400  0.93498500  0.68680400  1
  H  H16  1  0.82899300  0.15468900  0.80999700  1
  H  H17  1  0.32864900  0.65457800  0.31020200  1
  H  H18  1  0.63070500  0.36949400  0.71073700  1
  H  H19  1  0.13038900  0.86952000  0.21066500  1
  O  O20  1  0.63099700  0.12405100  0.23528100  1
  O  O21  1  0.13094100  0.62400800  0.73527600  1
  O  O22  1  0.18414000  0.09496100  0.17505100  1
  O  O23  1  0.68387300  0.59497600  0.67524400  1
  O  O24  1  0.62969900  0.07466800  0.66831600  1
  O  O25  1  0.12946700  0.57470300  0.16849100  1
  O  O26  1  0.18080500  0.16073900  0.49983500  1
  O  O27  1  0.68072900  0.66086800  0.99999600  1
  O  O28  1  0.96316600  0.15917900  0.87502500  1
  O  O29  1  0.46306100  0.65910500  0.37504600  1
  O  O30  1  0.59383300  0.33113700  0.59775500  1
  O  O31  1  0.09388800  0.83113700  0.09752800  1
  O  O32  1  0.37383300  0.34254200  0.01000500  1
  O  O33  1  0.87390600  0.84250600  0.50958300  1
  O  O34  1  0.93191700  0.43514200  0.79985800  1
  O  O35  1  0.43249800  0.93512400  0.29942300  1
  O  O36  1  0.23124200  0.41809500  0.35535500  1
  O  O37  1  0.73129000  0.91795000  0.85492200  1
  O  O38  1  0.85660900  0.40431500  0.21136100  1
  O  O39  1  0.35661600  0.90429100  0.71113800  1
