# generated using pymatgen
data_NaLaO2
_symmetry_space_group_name_H-M   'P 1'
_cell_length_a   7.85862315
_cell_length_b   7.85862315
_cell_length_c   6.44321806
_cell_angle_alpha   76.26872770
_cell_angle_beta   76.26872770
_cell_angle_gamma   127.45693004
_symmetry_Int_Tables_number   1
_chemical_formula_structural   NaLaO2
_chemical_formula_sum   'Na4 La4 O8'
_cell_volume   266.61096344
_cell_formula_units_Z   4
loop_
 _symmetry_equiv_pos_site_id
 _symmetry_equiv_pos_as_xyz
  1  'x, y, z'
loop_
 _atom_site_type_symbol
 _atom_site_label
 _atom_site_symmetry_multiplicity
 _atom_site_fract_x
 _atom_site_fract_y
 _atom_site_fract_z
 _atom_site_occupancy
  Na  Na0  1  0.19483900  0.80516100  0.75000000  1
  Na  Na1  1  0.56934700  0.43065300  0.25000000  1
  Na  Na2  1  0.43065300  0.56934700  0.75000000  1
  Na  Na3  1  0.80516100  0.19483900  0.25000000  1
  La  La4  1  0.05725500  0.94274500  0.25000000  1
  La  La5  1  0.31799400  0.68200600  0.25000000  1
  La  La6  1  0.68200600  0.31799400  0.75000000  1
  La  La7  1  0.94274500  0.05725500  0.75000000  1
  O  O8  1  0.06993800  0.44338400  0.70312600  1
  O  O9  1  0.16544900  0.28906300  0.29698600  1
  O  O10  1  0.71093700  0.83455100  0.20301400  1
  O  O11  1  0.44338400  0.06993800  0.20312600  1
  O  O12  1  0.55661600  0.93006200  0.79687400  1
  O  O13  1  0.28906300  0.16544900  0.79698600  1
  O  O14  1  0.83455100  0.71093700  0.70301400  1
  O  O15  1  0.93006200  0.55661600  0.29687400  1
