# generated using pymatgen
data_Ba2IrO4
_symmetry_space_group_name_H-M   'P 1'
_cell_length_a   7.33181762
_cell_length_b   7.33181762
_cell_length_c   7.33181762
_cell_angle_alpha   147.82801894
_cell_angle_beta   147.82801894
_cell_angle_gamma   46.13930968
_symmetry_Int_Tables_number   1
_chemical_formula_structural   Ba2IrO4
_chemical_formula_sum   'Ba2 Ir1 O4'
_cell_volume   111.35405452
_cell_formula_units_Z   1
loop_
 _symmetry_equiv_pos_site_id
 _symmetry_equiv_pos_as_xyz
  1  'x, y, z'
loop_
 _atom_site_type_symbol
 _atom_site_label
 _atom_site_symmetry_multiplicity
 _atom_site_fract_x
 _atom_site_fract_y
 _atom_site_fract_z
 _atom_site_occupancy
  Ba  Ba0  1  0.35476100  0.35476100  0.00000000  1
  Ba  Ba1  1  0.64523900  0.64523900  0.00000000  1
  Ir  Ir2  1  0.00000000  0.00000000  0.00000000  1
  O  O3  1  0.50000000  0.00000000  0.50000000  1
  O  O4  1  0.15472700  0.15472700  0.00000000  1
  O  O5  1  0.84527300  0.84527300  0.00000000  1
  O  O6  1  0.00000000  0.50000000  0.50000000  1
