# generated using pymatgen
data_NbGaOs2
_symmetry_space_group_name_H-M   'P 1'
_cell_length_a   10.38903809
_cell_length_b   10.38903809
_cell_length_c   10.38903809
_cell_angle_alpha   126.47406989
_cell_angle_beta   117.89975983
_cell_angle_gamma   86.42327805
_symmetry_Int_Tables_number   1
_chemical_formula_structural   NbGaOs2
_chemical_formula_sum   'Nb1 Ga1 Os2'
_cell_volume   759.25101862
_cell_formula_units_Z   1
loop_
 _symmetry_equiv_pos_site_id
 _symmetry_equiv_pos_as_xyz
  1  'x, y, z'
loop_
 _atom_site_type_symbol
 _atom_site_label
 _atom_site_symmetry_multiplicity
 _atom_site_fract_x
 _atom_site_fract_y
 _atom_site_fract_z
 _atom_site_occupancy
  Nb  Nb0  1  0.00000000  0.50000000  0.50000000  1
  Ga  Ga1  1  0.00000000  0.00000000  0.00000000  1
  Os  Os2  1  0.00000000  0.26438700  0.26438700  1
  Os  Os3  1  0.00000000  0.73561300  0.73561300  1
