# generated using pymatgen
data_Cs3LaO3
_symmetry_space_group_name_H-M   'P 1'
_cell_length_a   7.80062773
_cell_length_b   7.80062773
_cell_length_c   7.83448508
_cell_angle_alpha   85.28075671
_cell_angle_beta   85.28075671
_cell_angle_gamma   116.45573422
_symmetry_Int_Tables_number   1
_chemical_formula_structural   Cs3LaO3
_chemical_formula_sum   'Cs6 La2 O6'
_cell_volume   421.56107968
_cell_formula_units_Z   2
loop_
 _symmetry_equiv_pos_site_id
 _symmetry_equiv_pos_as_xyz
  1  'x, y, z'
loop_
 _atom_site_type_symbol
 _atom_site_label
 _atom_site_symmetry_multiplicity
 _atom_site_fract_x
 _atom_site_fract_y
 _atom_site_fract_z
 _atom_site_occupancy
  Cs  Cs0  1  0.64560200  0.64560200  0.64852900  1
  Cs  Cs1  1  0.78771600  0.21228400  0.50000000  1
  Cs  Cs2  1  0.21228400  0.78771600  0.50000000  1
  Cs  Cs3  1  0.74197500  0.25802500  0.00000000  1
  Cs  Cs4  1  0.25802500  0.74197500  0.00000000  1
  Cs  Cs5  1  0.35439800  0.35439800  0.35147100  1
  La  La6  1  0.81869200  0.81869200  0.15370500  1
  La  La7  1  0.18130800  0.18130800  0.84629500  1
  O  O8  1  0.89803200  0.89803200  0.85331300  1
  O  O9  1  0.54685600  0.82583200  0.26878400  1
  O  O10  1  0.82583200  0.54685600  0.26878400  1
  O  O11  1  0.45314400  0.17416800  0.73121600  1
  O  O12  1  0.17416800  0.45314400  0.73121600  1
  O  O13  1  0.10196800  0.10196800  0.14668700  1
