# generated using pymatgen
data_V2O3F
_symmetry_space_group_name_H-M   'P 1'
_cell_length_a   5.59262542
_cell_length_b   5.59262542
_cell_length_c   5.59262542
_cell_angle_alpha   114.78852447
_cell_angle_beta   110.05659950
_cell_angle_gamma   103.75563910
_symmetry_Int_Tables_number   1
_chemical_formula_structural   V2O3F
_chemical_formula_sum   'V4 O6 F2'
_cell_volume   133.41011645
_cell_formula_units_Z   2
loop_
 _symmetry_equiv_pos_site_id
 _symmetry_equiv_pos_as_xyz
  1  'x, y, z'
loop_
 _atom_site_type_symbol
 _atom_site_label
 _atom_site_symmetry_multiplicity
 _atom_site_fract_x
 _atom_site_fract_y
 _atom_site_fract_z
 _atom_site_occupancy
  V  V0  1  0.45450000  0.70450000  0.75000000  1
  V  V1  1  0.54550000  0.29550000  0.25000000  1
  V  V2  1  0.00000000  0.00000000  0.50000000  1
  V  V3  1  0.00000000  0.50000000  0.00000000  1
  O  O4  1  0.19486100  0.44486100  0.75000000  1
  O  O5  1  0.69218500  0.00000000  0.19218500  1
  O  O6  1  0.69218500  0.50000000  0.69218500  1
  O  O7  1  0.30781500  0.50000000  0.30781500  1
  O  O8  1  0.30781500  0.00000000  0.80781500  1
  O  O9  1  0.80513900  0.55513900  0.25000000  1
  F  F10  1  0.20147600  0.95147600  0.25000000  1
  F  F11  1  0.79852400  0.04852400  0.75000000  1
