# generated using pymatgen
data_Sc2CoPt
_symmetry_space_group_name_H-M   'P 1'
_cell_length_a   11.62089640
_cell_length_b   11.62089640
_cell_length_c   11.62089640
_cell_angle_alpha   133.56676272
_cell_angle_beta   116.36319001
_cell_angle_gamma   82.34204352
_symmetry_Int_Tables_number   1
_chemical_formula_structural   Sc2CoPt
_chemical_formula_sum   'Sc2 Co1 Pt1'
_cell_volume   982.09509570
_cell_formula_units_Z   1
loop_
 _symmetry_equiv_pos_site_id
 _symmetry_equiv_pos_as_xyz
  1  'x, y, z'
loop_
 _atom_site_type_symbol
 _atom_site_label
 _atom_site_symmetry_multiplicity
 _atom_site_fract_x
 _atom_site_fract_y
 _atom_site_fract_z
 _atom_site_occupancy
  Sc  Sc0  1  0.00000000  0.23122800  0.23122800  1
  Sc  Sc1  1  0.00000000  0.76877200  0.76877200  1
  Co  Co2  1  0.00000000  0.00000000  0.00000000  1
  Pt  Pt3  1  0.00000000  0.50000000  0.50000000  1
