# generated using pymatgen
data_MnOF
_symmetry_space_group_name_H-M   'P 1'
_cell_length_a   4.61400600
_cell_length_b   4.65220800
_cell_length_c   9.53219135
_cell_angle_alpha   89.08844679
_cell_angle_beta   90.00000000
_cell_angle_gamma   90.00000000
_symmetry_Int_Tables_number   1
_chemical_formula_structural   MnOF
_chemical_formula_sum   'Mn6 O6 F6'
_cell_volume   204.58560124
_cell_formula_units_Z   6
loop_
 _symmetry_equiv_pos_site_id
 _symmetry_equiv_pos_as_xyz
  1  'x, y, z'
loop_
 _atom_site_type_symbol
 _atom_site_label
 _atom_site_symmetry_multiplicity
 _atom_site_fract_x
 _atom_site_fract_y
 _atom_site_fract_z
 _atom_site_occupancy
  Mn  Mn0  1  0.03577400  0.28236900  0.91690700  1
  Mn  Mn1  1  0.98498200  0.21491700  0.24826800  1
  Mn  Mn2  1  0.98513600  0.21977400  0.58547100  1
  Mn  Mn3  1  0.48498200  0.78508300  0.75173200  1
  Mn  Mn4  1  0.53577400  0.71763100  0.08309300  1
  Mn  Mn5  1  0.48513600  0.78022600  0.41452900  1
  O  O6  1  0.17358500  0.04488200  0.41140800  1
  O  O7  1  0.18860600  0.08251900  0.75203000  1
  O  O8  1  0.68860600  0.91748100  0.24797000  1
  O  O9  1  0.67358500  0.95511800  0.58859200  1
  O  O10  1  0.33607700  0.57189200  0.91674800  1
  O  O11  1  0.83607700  0.42810800  0.08325200  1
  F  F12  1  0.23434400  0.02294900  0.08351200  1
  F  F13  1  0.73434400  0.97705100  0.91648800  1
  F  F14  1  0.28832900  0.51874700  0.25480600  1
  F  F15  1  0.27316500  0.55293400  0.57400600  1
  F  F16  1  0.77316500  0.44706600  0.42599400  1
  F  F17  1  0.78832900  0.48125300  0.74519400  1
