# generated using pymatgen
data_Na6FeO4
_symmetry_space_group_name_H-M   'P 1'
_cell_length_a   5.41379300
_cell_length_b   10.73975346
_cell_length_c   10.73910293
_cell_angle_alpha   90.00318397
_cell_angle_beta   90.00123253
_cell_angle_gamma   90.00029370
_symmetry_Int_Tables_number   1
_chemical_formula_structural   Na6FeO4
_chemical_formula_sum   'Na24 Fe4 O16'
_cell_volume   624.40153542
_cell_formula_units_Z   4
loop_
 _symmetry_equiv_pos_site_id
 _symmetry_equiv_pos_as_xyz
  1  'x, y, z'
loop_
 _atom_site_type_symbol
 _atom_site_label
 _atom_site_symmetry_multiplicity
 _atom_site_fract_x
 _atom_site_fract_y
 _atom_site_fract_z
 _atom_site_occupancy
  Na  Na0  1  0.65413700  0.25002200  0.00000200  1
  Na  Na1  1  0.65413300  0.75000000  0.49999500  1
  Na  Na2  1  0.15412700  0.25001600  0.99999800  1
  Na  Na3  1  0.15413300  0.74999300  0.50000600  1
  Na  Na4  1  0.34587900  0.74999700  0.99999900  1
  Na  Na5  1  0.34588300  0.25002000  0.50000600  1
  Na  Na6  1  0.84587800  0.75000300  0.00000500  1
  Na  Na7  1  0.84587600  0.25002700  0.49999800  1
  Na  Na8  1  0.75001200  0.29005000  0.25000200  1
  Na  Na9  1  0.75000900  0.79004100  0.75000300  1
  Na  Na10  1  0.74999700  0.50000800  0.45981600  1
  Na  Na11  1  0.75000200  0.00001300  0.95981200  1
  Na  Na12  1  0.75000400  0.50000700  0.04019700  1
  Na  Na13  1  0.75000100  0.00001100  0.54020100  1
  Na  Na14  1  0.74998600  0.70995300  0.25000100  1
  Na  Na15  1  0.74998800  0.20996500  0.75000200  1
  Na  Na16  1  0.24999600  0.29040400  0.75000100  1
  Na  Na17  1  0.24999900  0.79040200  0.25000100  1
  Na  Na18  1  0.24999500  0.50000600  0.95962600  1
  Na  Na19  1  0.25000500  0.00000900  0.45961800  1
  Na  Na20  1  0.25001000  0.50001000  0.54034900  1
  Na  Na21  1  0.24999700  0.00001300  0.04035600  1
  Na  Na22  1  0.25000000  0.70961400  0.75000200  1
  Na  Na23  1  0.24999600  0.20962200  0.25000200  1
  Fe  Fe24  1  0.25000900  0.00001700  0.74999200  1
  Fe  Fe25  1  0.74997700  0.99993600  0.25001000  1
  Fe  Fe26  1  0.25001900  0.50001700  0.24998300  1
  Fe  Fe27  1  0.74999400  0.50004400  0.74999100  1
  O  O28  1  0.92145100  0.62451700  0.62547500  1
  O  O29  1  0.92145600  0.12453100  0.12543400  1
  O  O30  1  0.42148300  0.62460500  0.37454400  1
  O  O31  1  0.42148900  0.12458200  0.87456400  1
  O  O32  1  0.42149400  0.37541800  0.12545000  1
  O  O33  1  0.42150400  0.87543000  0.62542500  1
  O  O34  1  0.92145500  0.37547100  0.87455600  1
  O  O35  1  0.92147600  0.87551100  0.37455300  1
  O  O36  1  0.07848500  0.62460800  0.12544500  1
  O  O37  1  0.07848800  0.12458400  0.62542100  1
  O  O38  1  0.57855100  0.37547900  0.62546400  1
  O  O39  1  0.57854100  0.87551600  0.12545700  1
  O  O40  1  0.57853800  0.62452300  0.87454500  1
  O  O41  1  0.57854000  0.12452700  0.37457200  1
  O  O42  1  0.07850500  0.37541100  0.37455200  1
  O  O43  1  0.07850200  0.87543000  0.87456900  1
