# generated using pymatgen
data_BaTl2O4
_symmetry_space_group_name_H-M   'P 1'
_cell_length_a   6.05333177
_cell_length_b   6.05333177
_cell_length_c   11.05594200
_cell_angle_alpha   90.00000000
_cell_angle_beta   90.00000000
_cell_angle_gamma   145.48234889
_symmetry_Int_Tables_number   1
_chemical_formula_structural   BaTl2O4
_chemical_formula_sum   'Ba2 Tl4 O8'
_cell_volume   229.56587955
_cell_formula_units_Z   2
loop_
 _symmetry_equiv_pos_site_id
 _symmetry_equiv_pos_as_xyz
  1  'x, y, z'
loop_
 _atom_site_type_symbol
 _atom_site_label
 _atom_site_symmetry_multiplicity
 _atom_site_fract_x
 _atom_site_fract_y
 _atom_site_fract_z
 _atom_site_occupancy
  Ba  Ba0  1  0.89194800  0.10805200  0.25000000  1
  Ba  Ba1  1  0.10805200  0.89194800  0.75000000  1
  Tl  Tl2  1  0.63624900  0.36375100  0.43203200  1
  Tl  Tl3  1  0.63624900  0.36375100  0.06796800  1
  Tl  Tl4  1  0.36375100  0.63624900  0.56796800  1
  Tl  Tl5  1  0.36375100  0.63624900  0.93203200  1
  O  O6  1  0.00000000  0.00000000  0.00000000  1
  O  O7  1  0.00000000  0.00000000  0.50000000  1
  O  O8  1  0.56047200  0.43952800  0.25000000  1
  O  O9  1  0.72953600  0.27046400  0.60683500  1
  O  O10  1  0.72953600  0.27046400  0.89316500  1
  O  O11  1  0.43952800  0.56047200  0.75000000  1
  O  O12  1  0.27046400  0.72953600  0.39316500  1
  O  O13  1  0.27046400  0.72953600  0.10683500  1
