# generated using pymatgen
data_SrCrO3
_symmetry_space_group_name_H-M   'P 1'
_cell_length_a   5.51227099
_cell_length_b   5.51227099
_cell_length_c   9.15729700
_cell_angle_alpha   90.00000000
_cell_angle_beta   90.00000000
_cell_angle_gamma   120.00001193
_symmetry_Int_Tables_number   1
_chemical_formula_structural   SrCrO3
_chemical_formula_sum   'Sr4 Cr4 O12'
_cell_volume   240.96779288
_cell_formula_units_Z   4
loop_
 _symmetry_equiv_pos_site_id
 _symmetry_equiv_pos_as_xyz
  1  'x, y, z'
loop_
 _atom_site_type_symbol
 _atom_site_label
 _atom_site_symmetry_multiplicity
 _atom_site_fract_x
 _atom_site_fract_y
 _atom_site_fract_z
 _atom_site_occupancy
  Sr  Sr0  1  0.66666700  0.33333300  0.25000000  1
  Sr  Sr1  1  0.00000000  0.00000000  0.00000000  1
  Sr  Sr2  1  0.00000000  0.00000000  0.50000000  1
  Sr  Sr3  1  0.33333300  0.66666700  0.75000000  1
  Cr  Cr4  1  0.66666700  0.33333300  0.61479800  1
  Cr  Cr5  1  0.66666700  0.33333300  0.88520200  1
  Cr  Cr6  1  0.33333300  0.66666700  0.11479800  1
  Cr  Cr7  1  0.33333300  0.66666700  0.38520200  1
  O  O8  1  0.50000000  0.00000000  0.00000000  1
  O  O9  1  0.50000000  0.00000000  0.50000000  1
  O  O10  1  0.36142400  0.18071200  0.75000000  1
  O  O11  1  0.81928800  0.18071200  0.75000000  1
  O  O12  1  0.81928800  0.63857600  0.75000000  1
  O  O13  1  0.00000000  0.50000000  0.00000000  1
  O  O14  1  0.00000000  0.50000000  0.50000000  1
  O  O15  1  0.18071200  0.36142400  0.25000000  1
  O  O16  1  0.50000000  0.50000000  0.00000000  1
  O  O17  1  0.50000000  0.50000000  0.50000000  1
  O  O18  1  0.18071200  0.81928800  0.25000000  1
  O  O19  1  0.63857600  0.81928800  0.25000000  1
