# generated using pymatgen
data_NbFeO4
_symmetry_space_group_name_H-M   'P 1'
_cell_length_a   5.53963700
_cell_length_b   5.53937417
_cell_length_c   5.74781684
_cell_angle_alpha   61.19337639
_cell_angle_beta   89.99999942
_cell_angle_gamma   90.00000877
_symmetry_Int_Tables_number   1
_chemical_formula_structural   NbFeO4
_chemical_formula_sum   'Nb2 Fe2 O8'
_cell_volume   154.55157887
_cell_formula_units_Z   2
loop_
 _symmetry_equiv_pos_site_id
 _symmetry_equiv_pos_as_xyz
  1  'x, y, z'
loop_
 _atom_site_type_symbol
 _atom_site_label
 _atom_site_symmetry_multiplicity
 _atom_site_fract_x
 _atom_site_fract_y
 _atom_site_fract_z
 _atom_site_occupancy
  Nb  Nb0  1  0.00000500  0.00000000  0.00000000  1
  Nb  Nb1  1  0.50000200  0.50000000  0.00000000  1
  Fe  Fe2  1  0.75000200  0.50000000  0.49999900  1
  Fe  Fe3  1  0.25000100  0.00000000  0.50000000  1
  O  O4  1  0.25000100  0.20995900  0.08007000  1
  O  O5  1  0.75000100  0.70995300  0.08008100  1
  O  O6  1  0.25000100  0.79004100  0.91993000  1
  O  O7  1  0.75000100  0.29004700  0.91991900  1
  O  O8  1  0.50000100  0.29938300  0.40125700  1
  O  O9  1  0.99999200  0.79937400  0.40125700  1
  O  O10  1  0.99999200  0.20062500  0.59874300  1
  O  O11  1  0.50000100  0.70061700  0.59874200  1
