# generated using pymatgen
data_Tl2Au
_symmetry_space_group_name_H-M   'P 1'
_cell_length_a   6.17479981
_cell_length_b   6.17479981
_cell_length_c   6.17479981
_cell_angle_alpha   101.43335669
_cell_angle_beta   101.43335669
_cell_angle_gamma   127.12414112
_symmetry_Int_Tables_number   1
_chemical_formula_structural   Tl2Au
_chemical_formula_sum   'Tl4 Au2'
_cell_volume   168.08618888
_cell_formula_units_Z   2
loop_
 _symmetry_equiv_pos_site_id
 _symmetry_equiv_pos_as_xyz
  1  'x, y, z'
loop_
 _atom_site_type_symbol
 _atom_site_label
 _atom_site_symmetry_multiplicity
 _atom_site_fract_x
 _atom_site_fract_y
 _atom_site_fract_z
 _atom_site_occupancy
  Tl  Tl0  1  0.65224000  0.15224000  0.80448000  1
  Tl  Tl1  1  0.15224000  0.34776000  0.50000000  1
  Tl  Tl2  1  0.84776000  0.65224000  0.50000000  1
  Tl  Tl3  1  0.34776000  0.84776000  0.19552000  1
  Au  Au4  1  0.50000000  0.50000000  0.00000000  1
  Au  Au5  1  0.00000000  0.00000000  0.00000000  1
