# generated using pymatgen
data_BaLa2Br8
_symmetry_space_group_name_H-M   'P 1'
_cell_length_a   10.70551572
_cell_length_b   10.70551572
_cell_length_c   10.70551572
_cell_angle_alpha   98.74414189
_cell_angle_beta   98.74414189
_cell_angle_gamma   134.10339410
_symmetry_Int_Tables_number   1
_chemical_formula_structural   BaLa2Br8
_chemical_formula_sum   'Ba2 La4 Br16'
_cell_volume   811.31757928
_cell_formula_units_Z   2
loop_
 _symmetry_equiv_pos_site_id
 _symmetry_equiv_pos_as_xyz
  1  'x, y, z'
loop_
 _atom_site_type_symbol
 _atom_site_label
 _atom_site_symmetry_multiplicity
 _atom_site_fract_x
 _atom_site_fract_y
 _atom_site_fract_z
 _atom_site_occupancy
  Ba  Ba0  1  0.00000000  0.00000000  0.00000000  1
  Ba  Ba1  1  0.75000000  0.25000000  0.50000000  1
  La  La2  1  0.58327600  0.23650200  0.92610700  1
  La  La3  1  0.76349800  0.68960500  0.34677400  1
  La  La4  1  0.34283100  0.41672400  0.65322600  1
  La  La5  1  0.31039500  0.65716900  0.07389300  1
  Br  Br6  1  0.24475400  0.14811500  0.80953700  1
  Br  Br7  1  0.66736700  0.45617200  0.73510000  1
  Br  Br8  1  0.25719400  0.83882200  0.92378100  1
  Br  Br9  1  0.16117800  0.08495900  0.41837200  1
  Br  Br10  1  0.54371700  0.02481100  0.69535000  1
  Br  Br11  1  0.97518900  0.67053800  0.51890500  1
  Br  Br12  1  0.06773300  0.33263300  0.78880500  1
  Br  Br13  1  0.56478300  0.75524600  0.90336100  1
  Br  Br14  1  0.85188500  0.66142200  0.09663900  1
  Br  Br15  1  0.54382800  0.27892800  0.21119500  1
  Br  Br16  1  0.15163300  0.45628300  0.48109500  1
  Br  Br17  1  0.32946200  0.84836700  0.30465000  1
  Br  Br18  1  0.66658700  0.74280600  0.58162800  1
  Br  Br19  1  0.91504100  0.33341300  0.07621900  1
  Br  Br20  1  0.72107200  0.93226700  0.26490000  1
  Br  Br21  1  0.33857800  0.43521700  0.19046300  1
