# generated using pymatgen
data_MnO2
_symmetry_space_group_name_H-M   'P 1'
_cell_length_a   5.78872065
_cell_length_b   5.78587184
_cell_length_c   8.87613124
_cell_angle_alpha   89.94360432
_cell_angle_beta   90.00959215
_cell_angle_gamma   119.93020278
_symmetry_Int_Tables_number   1
_chemical_formula_structural   MnO2
_chemical_formula_sum   'Mn8 O16'
_cell_volume   257.63836115
_cell_formula_units_Z   8
loop_
 _symmetry_equiv_pos_site_id
 _symmetry_equiv_pos_as_xyz
  1  'x, y, z'
loop_
 _atom_site_type_symbol
 _atom_site_label
 _atom_site_symmetry_multiplicity
 _atom_site_fract_x
 _atom_site_fract_y
 _atom_site_fract_z
 _atom_site_occupancy
  Mn  Mn0  1  0.16752400  0.83081200  0.21093300  1
  Mn  Mn1  1  0.33326300  0.66410100  0.48707600  1
  Mn  Mn2  1  0.16686400  0.33309400  0.21137500  1
  Mn  Mn3  1  0.66526400  0.83057100  0.21099200  1
  Mn  Mn4  1  0.33017000  0.16491800  0.71095400  1
  Mn  Mn5  1  0.66420600  0.33149600  0.98750000  1
  Mn  Mn6  1  0.82998400  0.66209700  0.70976400  1
  Mn  Mn7  1  0.82669900  0.16281900  0.71054600  1
  O  O8  1  0.16476200  0.83034300  0.60136500  1
  O  O9  1  0.04120600  0.52027900  0.34056800  1
  O  O10  1  0.33277100  0.66411100  0.10263400  1
  O  O11  1  0.99836100  0.99707400  0.31635900  1
  O  O12  1  0.99620900  0.99634300  0.81598300  1
  O  O13  1  0.16170200  0.32801300  0.59944800  1
  O  O14  1  0.47959500  0.95520100  0.34031500  1
  O  O15  1  0.47762700  0.51838700  0.34006100  1
  O  O16  1  0.33144500  0.16663000  0.10063400  1
  O  O17  1  0.66856300  0.83212500  0.59784300  1
  O  O18  1  0.51688700  0.47698800  0.83907700  1
  O  O19  1  0.51655500  0.03937900  0.84008300  1
  O  O20  1  0.66198900  0.32912200  0.60102100  1
  O  O21  1  0.83574900  0.66958000  0.09826000  1
  O  O22  1  0.95365700  0.47382300  0.83982900  1
  O  O23  1  0.83308700  0.16427500  0.10008700  1
