# generated using pymatgen
data_Al2O3
_symmetry_space_group_name_H-M   'P 1'
_cell_length_a   6.09211334
_cell_length_b   6.09211334
_cell_length_c   6.09211358
_cell_angle_alpha   28.84500181
_cell_angle_beta   28.84500181
_cell_angle_gamma   28.84499867
_symmetry_Int_Tables_number   1
_chemical_formula_structural   Al2O3
_chemical_formula_sum   'Al2 O3'
_cell_volume   46.53615086
_cell_formula_units_Z   1
loop_
 _symmetry_equiv_pos_site_id
 _symmetry_equiv_pos_as_xyz
  1  'x, y, z'
loop_
 _atom_site_type_symbol
 _atom_site_label
 _atom_site_symmetry_multiplicity
 _atom_site_fract_x
 _atom_site_fract_y
 _atom_site_fract_z
 _atom_site_occupancy
  Al  Al0  1  0.19288900  0.19288900  0.19288900  1
  Al  Al1  1  0.69318400  0.69318400  0.69318400  1
  O  O2  1  0.02833000  0.02833000  0.02833000  1
  O  O3  1  0.58211700  0.58211700  0.58211700  1
  O  O4  1  0.80648000  0.80648000  0.80648000  1
