# generated using pymatgen
data_K3FePCO7
_symmetry_space_group_name_H-M   'P 1'
_cell_length_a   5.69203705
_cell_length_b   11.92575081
_cell_length_c   11.91492153
_cell_angle_alpha   109.64388557
_cell_angle_beta   90.00735610
_cell_angle_gamma   90.05263165
_symmetry_Int_Tables_number   1
_chemical_formula_structural   K3FePCO7
_chemical_formula_sum   'K12 Fe4 P4 C4 O28'
_cell_volume   761.73375507
_cell_formula_units_Z   4
loop_
 _symmetry_equiv_pos_site_id
 _symmetry_equiv_pos_as_xyz
  1  'x, y, z'
loop_
 _atom_site_type_symbol
 _atom_site_label
 _atom_site_symmetry_multiplicity
 _atom_site_fract_x
 _atom_site_fract_y
 _atom_site_fract_z
 _atom_site_occupancy
  K  K0  1  0.75731300  0.16164600  0.08886500  1
  K  K1  1  0.75733300  0.66188800  0.58905900  1
  K  K2  1  0.24262000  0.83852700  0.91129000  1
  K  K3  1  0.24267600  0.33825000  0.41105300  1
  K  K4  1  0.25597400  0.14514200  0.86385600  1
  K  K5  1  0.25628600  0.64517100  0.36398700  1
  K  K6  1  0.25502300  0.38629100  0.10441400  1
  K  K7  1  0.25535100  0.88636600  0.60436500  1
  K  K8  1  0.74457400  0.61384200  0.89548900  1
  K  K9  1  0.74452300  0.11375100  0.39563200  1
  K  K10  1  0.74437800  0.85475400  0.13624000  1
  K  K11  1  0.74390100  0.35482900  0.63608400  1
  Fe  Fe12  1  0.76317500  0.05131200  0.69861700  1
  Fe  Fe13  1  0.23683000  0.94836800  0.30112700  1
  Fe  Fe14  1  0.76347200  0.55102900  0.19854800  1
  Fe  Fe15  1  0.23667300  0.44869000  0.80123400  1
  P  P16  1  0.72717100  0.33508500  0.91476400  1
  P  P17  1  0.72765400  0.83502500  0.41477600  1
  P  P18  1  0.27273000  0.66481000  0.08513200  1
  P  P19  1  0.27242200  0.16489600  0.58514900  1
  C  C20  1  0.74328900  0.41496500  0.33486400  1
  C  C21  1  0.74319800  0.91503200  0.83490800  1
  C  C22  1  0.25674700  0.58514500  0.66523000  1
  C  C23  1  0.25679900  0.08507500  0.16519400  1
  O  O24  1  0.26146600  0.15165900  0.09914800  1
  O  O25  1  0.26148000  0.65175400  0.59924300  1
  O  O26  1  0.73850000  0.84857400  0.90109400  1
  O  O27  1  0.73858100  0.34843100  0.40092000  1
  O  O28  1  0.94266300  0.44866100  0.30132400  1
  O  O29  1  0.94256400  0.94871400  0.80136300  1
  O  O30  1  0.05737500  0.55136500  0.69867300  1
  O  O31  1  0.05744200  0.05126500  0.19863700  1
  O  O32  1  0.54905900  0.45122000  0.29890300  1
  O  O33  1  0.54893400  0.95118300  0.79886200  1
  O  O34  1  0.45096500  0.54889500  0.70120600  1
  O  O35  1  0.45107900  0.04889000  0.20121200  1
  O  O36  1  0.47128700  0.36351400  0.88602600  1
  O  O37  1  0.47189600  0.86342200  0.38591900  1
  O  O38  1  0.52855600  0.63614300  0.11367600  1
  O  O39  1  0.52819200  0.13636900  0.61386400  1
  O  O40  1  0.09144100  0.60573000  0.14442200  1
  O  O41  1  0.09118400  0.10567500  0.64437600  1
  O  O42  1  0.90837700  0.39439400  0.85566400  1
  O  O43  1  0.90893100  0.89442400  0.35575300  1
  O  O44  1  0.76110800  0.19659400  0.86930800  1
  O  O45  1  0.76166900  0.69652300  0.36934200  1
  O  O46  1  0.76084800  0.38063300  0.05348600  1
  O  O47  1  0.76097700  0.88066300  0.55348900  1
  O  O48  1  0.23854300  0.61932800  0.94646900  1
  O  O49  1  0.23869600  0.11928400  0.44647200  1
  O  O50  1  0.23928400  0.80335800  0.13063400  1
  O  O51  1  0.23879200  0.30344600  0.63063800  1
