# generated using pymatgen
data_Mn5CoO12
_symmetry_space_group_name_H-M   'P 1'
_cell_length_a   5.03217485
_cell_length_b   5.03852916
_cell_length_c   9.62442702
_cell_angle_alpha   90.00206149
_cell_angle_beta   90.00411301
_cell_angle_gamma   60.04170321
_symmetry_Int_Tables_number   1
_chemical_formula_structural   Mn5CoO12
_chemical_formula_sum   'Mn5 Co1 O12'
_cell_volume   211.42063000
_cell_formula_units_Z   1
loop_
 _symmetry_equiv_pos_site_id
 _symmetry_equiv_pos_as_xyz
  1  'x, y, z'
loop_
 _atom_site_type_symbol
 _atom_site_label
 _atom_site_symmetry_multiplicity
 _atom_site_fract_x
 _atom_site_fract_y
 _atom_site_fract_z
 _atom_site_occupancy
  Mn  Mn0  1  0.16663600  0.66672800  0.50000000  1
  Mn  Mn1  1  0.66669700  0.66660600  0.00000000  1
  Mn  Mn2  1  0.33330300  0.33339400  0.00000000  1
  Mn  Mn3  1  0.83336400  0.33327200  0.50000000  1
  Mn  Mn4  1  0.50000000  0.00000000  0.50000000  1
  Co  Co5  1  0.00000000  0.00000000  0.00000000  1
  O  O6  1  0.00036200  0.67192600  0.09855400  1
  O  O7  1  0.32771200  0.67192600  0.90144600  1
  O  O8  1  0.16676900  0.33344100  0.39959900  1
  O  O9  1  0.50021000  0.66655900  0.39959900  1
  O  O10  1  0.49979000  0.33344100  0.60040100  1
  O  O11  1  0.16666900  0.00000000  0.60025700  1
  O  O12  1  0.83323100  0.66655900  0.60040100  1
  O  O13  1  0.67228800  0.32807400  0.09855400  1
  O  O14  1  0.32765100  0.00000000  0.09825200  1
  O  O15  1  0.99963800  0.32807400  0.90144600  1
  O  O16  1  0.67234900  0.00000000  0.90174800  1
  O  O17  1  0.83333100  0.00000000  0.39974300  1
