# generated using pymatgen
data_Mg3WO6
_symmetry_space_group_name_H-M   'P 1'
_cell_length_a   5.35952400
_cell_length_b   5.16965000
_cell_length_c   9.25799152
_cell_angle_alpha   56.29493403
_cell_angle_beta   90.00000000
_cell_angle_gamma   90.00000000
_symmetry_Int_Tables_number   1
_chemical_formula_structural   Mg3WO6
_chemical_formula_sum   'Mg6 W2 O12'
_cell_volume   213.39188815
_cell_formula_units_Z   2
loop_
 _symmetry_equiv_pos_site_id
 _symmetry_equiv_pos_as_xyz
  1  'x, y, z'
loop_
 _atom_site_type_symbol
 _atom_site_label
 _atom_site_symmetry_multiplicity
 _atom_site_fract_x
 _atom_site_fract_y
 _atom_site_fract_z
 _atom_site_occupancy
  Mg  Mg0  1  0.50000000  0.50000000  0.50000000  1
  Mg  Mg1  1  0.94865300  0.72843400  0.26208800  1
  Mg  Mg2  1  0.44865300  0.27156600  0.23791200  1
  Mg  Mg3  1  0.00000000  0.50000000  0.00000000  1
  Mg  Mg4  1  0.55134700  0.72843400  0.76208800  1
  Mg  Mg5  1  0.05134700  0.27156600  0.73791200  1
  W  W6  1  0.50000000  0.00000000  0.00000000  1
  W  W7  1  0.00000000  0.00000000  0.50000000  1
  O  O8  1  0.42455700  0.10421100  0.76442500  1
  O  O9  1  0.19763500  0.74732300  0.08350300  1
  O  O10  1  0.17799700  0.37028600  0.44316400  1
  O  O11  1  0.67799700  0.62971400  0.05683600  1
  O  O12  1  0.69763500  0.25267700  0.41649700  1
  O  O13  1  0.92455700  0.89578900  0.73557500  1
  O  O14  1  0.07544300  0.10421100  0.26442500  1
  O  O15  1  0.30236500  0.74732300  0.58350300  1
  O  O16  1  0.32200300  0.37028600  0.94316400  1
  O  O17  1  0.82200300  0.62971400  0.55683600  1
  O  O18  1  0.80236500  0.25267700  0.91649700  1
  O  O19  1  0.57544300  0.89578900  0.23557500  1
