# generated using pymatgen
data_Hf2MnFe
_symmetry_space_group_name_H-M   'P 1'
_cell_length_a   11.88078140
_cell_length_b   11.88078140
_cell_length_c   11.88078140
_cell_angle_alpha   98.08466410
_cell_angle_beta   98.08466410
_cell_angle_gamma   135.94952260
_symmetry_Int_Tables_number   1
_chemical_formula_structural   Hf2MnFe
_chemical_formula_sum   'Hf2 Mn1 Fe1'
_cell_volume   1080.91281258
_cell_formula_units_Z   1
loop_
 _symmetry_equiv_pos_site_id
 _symmetry_equiv_pos_as_xyz
  1  'x, y, z'
loop_
 _atom_site_type_symbol
 _atom_site_label
 _atom_site_symmetry_multiplicity
 _atom_site_fract_x
 _atom_site_fract_y
 _atom_site_fract_z
 _atom_site_occupancy
  Hf  Hf0  1  0.25913100  0.25913100  0.00000000  1
  Hf  Hf1  1  0.74086900  0.74086900  0.00000000  1
  Mn  Mn2  1  0.00000000  0.00000000  0.00000000  1
  Fe  Fe3  1  0.50000000  0.50000000  0.00000000  1
