# generated using pymatgen
data_KPWCO7
_symmetry_space_group_name_H-M   'P 1'
_cell_length_a   6.53953000
_cell_length_b   5.34160100
_cell_length_c   10.57929027
_cell_angle_alpha   87.66085407
_cell_angle_beta   90.00000000
_cell_angle_gamma   90.00000000
_symmetry_Int_Tables_number   1
_chemical_formula_structural   KPWCO7
_chemical_formula_sum   'K2 P2 W2 C2 O14'
_cell_volume   369.24318156
_cell_formula_units_Z   2
loop_
 _symmetry_equiv_pos_site_id
 _symmetry_equiv_pos_as_xyz
  1  'x, y, z'
loop_
 _atom_site_type_symbol
 _atom_site_label
 _atom_site_symmetry_multiplicity
 _atom_site_fract_x
 _atom_site_fract_y
 _atom_site_fract_z
 _atom_site_occupancy
  K  K0  1  0.60694900  0.75985500  0.79097900  1
  K  K1  1  0.10694900  0.24014500  0.20902100  1
  P  P2  1  0.72521500  0.26814500  0.56408000  1
  P  P3  1  0.22521500  0.73185500  0.43592000  1
  W  W4  1  0.22324900  0.22654100  0.65135700  1
  W  W5  1  0.72324900  0.77345900  0.34864300  1
  C  C6  1  0.26267200  0.28868500  0.88702100  1
  C  C7  1  0.76267200  0.71131500  0.11297900  1
  O  O8  1  0.79027700  0.66664500  0.00112600  1
  O  O9  1  0.24563200  0.06512000  0.83768400  1
  O  O10  1  0.25016300  0.47410300  0.79184300  1
  O  O11  1  0.91190900  0.21512500  0.65275200  1
  O  O12  1  0.53882000  0.20532900  0.65116100  1
  O  O13  1  0.22987400  0.90706100  0.54751700  1
  O  O14  1  0.71738900  0.54546400  0.51986100  1
  O  O15  1  0.21738900  0.45453600  0.48013900  1
  O  O16  1  0.72987400  0.09293900  0.45248300  1
  O  O17  1  0.03882000  0.79467100  0.34883900  1
  O  O18  1  0.41190900  0.78487500  0.34724800  1
  O  O19  1  0.75016300  0.52589700  0.20815700  1
  O  O20  1  0.74563200  0.93488000  0.16231600  1
  O  O21  1  0.29027700  0.33335500  0.99887400  1
