# generated using pymatgen
data_Cr3Sn3(SbO8)2
_symmetry_space_group_name_H-M   'P 1'
_cell_length_a   6.17828197
_cell_length_b   6.17828197
_cell_length_c   9.35623011
_cell_angle_alpha   89.17964264
_cell_angle_beta   89.17964264
_cell_angle_gamma   59.87584316
_symmetry_Int_Tables_number   1
_chemical_formula_structural   Cr3Sn3(SbO8)2
_chemical_formula_sum   'Cr3 Sn3 Sb2 O16'
_cell_volume   308.86094200
_cell_formula_units_Z   1
loop_
 _symmetry_equiv_pos_site_id
 _symmetry_equiv_pos_as_xyz
  1  'x, y, z'
loop_
 _atom_site_type_symbol
 _atom_site_label
 _atom_site_symmetry_multiplicity
 _atom_site_fract_x
 _atom_site_fract_y
 _atom_site_fract_z
 _atom_site_occupancy
  Cr  Cr0  1  0.82771200  0.82771200  0.21313800  1
  Cr  Cr1  1  0.16877600  0.65838100  0.71598900  1
  Cr  Cr2  1  0.65838100  0.16877600  0.71598900  1
  Sn  Sn3  1  0.33520100  0.82931200  0.21163500  1
  Sn  Sn4  1  0.82931200  0.33520100  0.21163500  1
  Sn  Sn5  1  0.16769500  0.16769500  0.70344900  1
  Sb  Sb6  1  0.67285300  0.67285300  0.49476000  1
  Sb  Sb7  1  0.33851900  0.33851900  0.98801800  1
  O  O8  1  0.34354500  0.82396200  0.60034100  1
  O  O9  1  0.52276100  0.52276100  0.35333600  1
  O  O10  1  0.67188400  0.67188400  0.09999500  1
  O  O11  1  0.99276100  0.99276100  0.30877600  1
  O  O12  1  0.98858100  0.98858100  0.79355300  1
  O  O13  1  0.82396200  0.34354500  0.60034100  1
  O  O14  1  0.53214900  0.95568600  0.34219700  1
  O  O15  1  0.95568600  0.53214900  0.34219700  1
  O  O16  1  0.17230100  0.17230100  0.09458800  1
  O  O17  1  0.83063500  0.83063500  0.60667700  1
  O  O18  1  0.04934200  0.48750800  0.84241700  1
  O  O19  1  0.48750800  0.04934200  0.84241700  1
  O  O20  1  0.34428900  0.34428900  0.60670500  1
  O  O21  1  0.16669500  0.65785100  0.10015300  1
  O  O22  1  0.47697000  0.47697000  0.83413100  1
  O  O23  1  0.65785100  0.16669500  0.10015300  1
