# generated using pymatgen
data_TiNbW2
_symmetry_space_group_name_H-M   'P 1'
_cell_length_a   11.06901569
_cell_length_b   11.06901569
_cell_length_c   11.06901569
_cell_angle_alpha   130.95517146
_cell_angle_beta   116.91802356
_cell_angle_gamma   83.78938371
_symmetry_Int_Tables_number   1
_chemical_formula_structural   TiNbW2
_chemical_formula_sum   'Ti1 Nb1 W2'
_cell_volume   876.73655062
_cell_formula_units_Z   1
loop_
 _symmetry_equiv_pos_site_id
 _symmetry_equiv_pos_as_xyz
  1  'x, y, z'
loop_
 _atom_site_type_symbol
 _atom_site_label
 _atom_site_symmetry_multiplicity
 _atom_site_fract_x
 _atom_site_fract_y
 _atom_site_fract_z
 _atom_site_occupancy
  Ti  Ti0  1  0.00000000  0.00000000  0.00000000  1
  Nb  Nb1  1  0.00000000  0.50000000  0.50000000  1
  W  W2  1  0.00000000  0.25054100  0.25054100  1
  W  W3  1  0.00000000  0.74945900  0.74945900  1
