# generated using pymatgen
data_V4O5F7
_symmetry_space_group_name_H-M   'P 1'
_cell_length_a   5.18751506
_cell_length_b   5.39628114
_cell_length_c   9.06078949
_cell_angle_alpha   73.56155475
_cell_angle_beta   90.21197401
_cell_angle_gamma   60.27944387
_symmetry_Int_Tables_number   1
_chemical_formula_structural   V4O5F7
_chemical_formula_sum   'V4 O5 F7'
_cell_volume   208.09093448
_cell_formula_units_Z   1
loop_
 _symmetry_equiv_pos_site_id
 _symmetry_equiv_pos_as_xyz
  1  'x, y, z'
loop_
 _atom_site_type_symbol
 _atom_site_label
 _atom_site_symmetry_multiplicity
 _atom_site_fract_x
 _atom_site_fract_y
 _atom_site_fract_z
 _atom_site_occupancy
  V  V0  1  0.73296100  0.51749600  0.26380700  1
  V  V1  1  0.47031800  0.00206000  0.49733700  1
  V  V2  1  0.29280500  0.49743200  0.75902000  1
  V  V3  1  0.03443200  0.99044500  0.00443800  1
  O  O4  1  0.55264400  0.73338300  0.37481200  1
  O  O5  1  0.40378300  0.75603300  0.07999900  1
  O  O6  1  0.41384100  0.73171400  0.67079400  1
  O  O7  1  0.57451400  0.25330300  0.91120700  1
  O  O8  1  0.10092300  0.23402500  0.41680000  1
  F  F9  1  0.90677900  0.75474800  0.58487600  1
  F  F10  1  0.91453700  0.75914200  0.16882700  1
  F  F11  1  0.95432700  0.26747100  0.12037400  1
  F  F12  1  0.58696200  0.23967100  0.32955600  1
  F  F13  1  0.45771200  0.25654400  0.62451100  1
  F  F14  1  0.02640200  0.74927400  0.87151700  1
  F  F15  1  0.07706100  0.25725800  0.82212500  1
