# generated using pymatgen
data_K2Eu2O3
_symmetry_space_group_name_H-M   'P 1'
_cell_length_a   7.15194400
_cell_length_b   7.03851100
_cell_length_c   7.08311178
_cell_angle_alpha   62.49341592
_cell_angle_beta   90.00000000
_cell_angle_gamma   90.00000000
_symmetry_Int_Tables_number   1
_chemical_formula_structural   K2Eu2O3
_chemical_formula_sum   'K4 Eu4 O6'
_cell_volume   316.25102012
_cell_formula_units_Z   2
loop_
 _symmetry_equiv_pos_site_id
 _symmetry_equiv_pos_as_xyz
  1  'x, y, z'
loop_
 _atom_site_type_symbol
 _atom_site_label
 _atom_site_symmetry_multiplicity
 _atom_site_fract_x
 _atom_site_fract_y
 _atom_site_fract_z
 _atom_site_occupancy
  K  K0  1  0.35294000  0.82479000  0.92637100  1
  K  K1  1  0.14706000  0.82479000  0.42637100  1
  K  K2  1  0.85294000  0.17521000  0.57362900  1
  K  K3  1  0.64706000  0.17521000  0.07362900  1
  Eu  Eu4  1  0.62367300  0.67040800  0.56961000  1
  Eu  Eu5  1  0.12367300  0.32959200  0.93039000  1
  Eu  Eu6  1  0.87632700  0.67040800  0.06961000  1
  Eu  Eu7  1  0.37632700  0.32959200  0.43039000  1
  O  O8  1  0.50000000  0.00000000  0.50000000  1
  O  O9  1  0.00000000  0.00000000  0.00000000  1
  O  O10  1  0.89705200  0.59872900  0.77193200  1
  O  O11  1  0.39705200  0.40127100  0.72806800  1
  O  O12  1  0.60294800  0.59872900  0.27193200  1
  O  O13  1  0.10294800  0.40127100  0.22806800  1
