# generated using pymatgen
data_Ca(LaI4)2
_symmetry_space_group_name_H-M   'P 1'
_cell_length_a   10.79583354
_cell_length_b   10.79583354
_cell_length_c   12.46123100
_cell_angle_alpha   67.78921644
_cell_angle_beta   67.78921644
_cell_angle_gamma   62.60094592
_symmetry_Int_Tables_number   1
_chemical_formula_structural   Ca(LaI4)2
_chemical_formula_sum   'Ca2 La4 I16'
_cell_volume   1156.38570156
_cell_formula_units_Z   2
loop_
 _symmetry_equiv_pos_site_id
 _symmetry_equiv_pos_as_xyz
  1  'x, y, z'
loop_
 _atom_site_type_symbol
 _atom_site_label
 _atom_site_symmetry_multiplicity
 _atom_site_fract_x
 _atom_site_fract_y
 _atom_site_fract_z
 _atom_site_occupancy
  Ca  Ca0  1  0.00939000  0.99061000  0.25000000  1
  Ca  Ca1  1  0.99061000  0.00939000  0.75000000  1
  La  La2  1  0.48714900  0.00172800  0.21731400  1
  La  La3  1  0.00172800  0.48714900  0.71731400  1
  La  La4  1  0.99827200  0.51285100  0.28268600  1
  La  La5  1  0.51285100  0.99827200  0.78268600  1
  I  I6  1  0.65396900  0.67196100  0.32781400  1
  I  I7  1  0.20849300  0.96072600  0.40315900  1
  I  I8  1  0.93222100  0.32382200  0.19008400  1
  I  I9  1  0.32489000  0.96206800  0.06011400  1
  I  I10  1  0.67196100  0.65396900  0.82781400  1
  I  I11  1  0.96072600  0.20849300  0.90315900  1
  I  I12  1  0.32382200  0.93222100  0.69008400  1
  I  I13  1  0.96206800  0.32489000  0.56011400  1
  I  I14  1  0.03793200  0.67511000  0.43988600  1
  I  I15  1  0.67617800  0.06777900  0.30991600  1
  I  I16  1  0.03927400  0.79150700  0.09684100  1
  I  I17  1  0.32803900  0.34603100  0.17218600  1
  I  I18  1  0.67511000  0.03793200  0.93988600  1
  I  I19  1  0.06777900  0.67617800  0.80991600  1
  I  I20  1  0.79150700  0.03927400  0.59684100  1
  I  I21  1  0.34603100  0.32803900  0.67218600  1
