# generated using pymatgen
data_V3NiO8
_symmetry_space_group_name_H-M   'P 1'
_cell_length_a   6.35694992
_cell_length_b   6.35694992
_cell_length_c   6.46274230
_cell_angle_alpha   73.86425058
_cell_angle_beta   73.86425058
_cell_angle_gamma   34.51664942
_symmetry_Int_Tables_number   1
_chemical_formula_structural   V3NiO8
_chemical_formula_sum   'V3 Ni1 O8'
_cell_volume   141.58262630
_cell_formula_units_Z   1
loop_
 _symmetry_equiv_pos_site_id
 _symmetry_equiv_pos_as_xyz
  1  'x, y, z'
loop_
 _atom_site_type_symbol
 _atom_site_label
 _atom_site_symmetry_multiplicity
 _atom_site_fract_x
 _atom_site_fract_y
 _atom_site_fract_z
 _atom_site_occupancy
  V  V0  1  0.60034100  0.60034100  0.28191300  1
  V  V1  1  0.39955800  0.39955800  0.72407500  1
  V  V2  1  0.70556900  0.70556900  0.69892000  1
  Ni  Ni3  1  0.29545300  0.29545300  0.30724700  1
  O  O4  1  0.86839300  0.86839300  0.68978000  1
  O  O5  1  0.74877800  0.74877800  0.37176300  1
  O  O6  1  0.64196200  0.64196200  0.98913400  1
  O  O7  1  0.55188300  0.55188300  0.64119300  1
  O  O8  1  0.45328100  0.45328100  0.35210600  1
  O  O9  1  0.36607900  0.36607900  0.98974200  1
  O  O10  1  0.24390300  0.24390300  0.66189800  1
  O  O11  1  0.12480100  0.12480100  0.29222900  1
