# generated using pymatgen
data_MgZr2Tc
_symmetry_space_group_name_H-M   'P 1'
_cell_length_a   13.84506379
_cell_length_b   13.84506379
_cell_length_c   13.84506379
_cell_angle_alpha   133.69367824
_cell_angle_beta   115.60620145
_cell_angle_gamma   82.93553566
_symmetry_Int_Tables_number   1
_chemical_formula_structural   MgZr2Tc
_chemical_formula_sum   'Mg1 Zr2 Tc1'
_cell_volume   1666.51412851
_cell_formula_units_Z   1
loop_
 _symmetry_equiv_pos_site_id
 _symmetry_equiv_pos_as_xyz
  1  'x, y, z'
loop_
 _atom_site_type_symbol
 _atom_site_label
 _atom_site_symmetry_multiplicity
 _atom_site_fract_x
 _atom_site_fract_y
 _atom_site_fract_z
 _atom_site_occupancy
  Mg  Mg0  1  0.00000000  0.00000000  0.00000000  1
  Zr  Zr1  1  0.00000000  0.29389900  0.29389800  1
  Zr  Zr2  1  0.00000000  0.70610200  0.70610200  1
  Tc  Tc3  1  0.00000000  0.50000000  0.50000000  1
