# generated using pymatgen
data_Fe4O3F5
_symmetry_space_group_name_H-M   'P 1'
_cell_length_a   5.69816381
_cell_length_b   10.17024793
_cell_length_c   5.70276117
_cell_angle_alpha   76.54180398
_cell_angle_beta   62.90477063
_cell_angle_gamma   94.14093399
_symmetry_Int_Tables_number   1
_chemical_formula_structural   Fe4O3F5
_chemical_formula_sum   'Fe8 O6 F10'
_cell_volume   280.00810800
_cell_formula_units_Z   2
loop_
 _symmetry_equiv_pos_site_id
 _symmetry_equiv_pos_as_xyz
  1  'x, y, z'
loop_
 _atom_site_type_symbol
 _atom_site_label
 _atom_site_symmetry_multiplicity
 _atom_site_fract_x
 _atom_site_fract_y
 _atom_site_fract_z
 _atom_site_occupancy
  Fe  Fe0  1  0.64491500  0.24488600  0.85673100  1
  Fe  Fe1  1  0.88281100  0.74728700  0.62202500  1
  Fe  Fe2  1  0.23639800  0.50458400  0.75244400  1
  Fe  Fe3  1  0.75953000  0.50041700  0.23783600  1
  Fe  Fe4  1  0.50173300  0.01696000  0.46222100  1
  Fe  Fe5  1  0.37326900  0.74157700  0.14524700  1
  Fe  Fe6  1  0.10640300  0.24446400  0.40962600  1
  Fe  Fe7  1  0.99616200  0.99325600  0.02200600  1
  O  O8  1  0.91760300  0.14376000  0.79852900  1
  O  O9  1  0.82296900  0.34911000  0.47904900  1
  O  O10  1  0.68698900  0.65593400  0.00130600  1
  O  O11  1  0.15486800  0.65085200  0.54093200  1
  O  O12  1  0.42565500  0.16188300  0.24700800  1
  O  O13  1  0.06411800  0.84437600  0.24861800  1
  F  F14  1  0.84757700  0.39522900  0.95110400  1
  F  F15  1  0.58629700  0.85231800  0.70717700  1
  F  F16  1  0.32817600  0.34995800  0.96868500  1
  F  F17  1  0.90033900  0.10169700  0.31000300  1
  F  F18  1  0.63619300  0.59580000  0.54488700  1
  F  F19  1  0.39954900  0.09434100  0.79486700  1
  F  F20  1  0.11242500  0.90520400  0.70513700  1
  F  F21  1  0.35023800  0.40331400  0.45180700  1
  F  F22  1  0.59367400  0.89503800  0.20083200  1
  F  F23  1  0.15934500  0.60168300  0.05357200  1
