# generated using pymatgen
data_ZrCu2Ag
_symmetry_space_group_name_H-M   'P 1'
_cell_length_a   10.47027862
_cell_length_b   10.47027862
_cell_length_c   10.47027862
_cell_angle_alpha   122.28985508
_cell_angle_beta   118.87550627
_cell_angle_gamma   89.01957792
_symmetry_Int_Tables_number   1
_chemical_formula_structural   ZrCu2Ag
_chemical_formula_sum   'Zr1 Cu2 Ag1'
_cell_volume   803.44510032
_cell_formula_units_Z   1
loop_
 _symmetry_equiv_pos_site_id
 _symmetry_equiv_pos_as_xyz
  1  'x, y, z'
loop_
 _atom_site_type_symbol
 _atom_site_label
 _atom_site_symmetry_multiplicity
 _atom_site_fract_x
 _atom_site_fract_y
 _atom_site_fract_z
 _atom_site_occupancy
  Zr  Zr0  1  0.00000000  0.00000000  0.00000000  1
  Cu  Cu1  1  0.00000000  0.25267500  0.25267500  1
  Cu  Cu2  1  0.00000000  0.74732500  0.74732500  1
  Ag  Ag3  1  0.00000000  0.50000000  0.50000000  1
