# generated using pymatgen
data_Sr3(AsO4)2
_symmetry_space_group_name_H-M   'P 1'
_cell_length_a   10.20888100
_cell_length_b   5.98998400
_cell_length_c   10.26943029
_cell_angle_alpha   55.93083352
_cell_angle_beta   90.00000000
_cell_angle_gamma   90.00000000
_symmetry_Int_Tables_number   1
_chemical_formula_structural   Sr3(AsO4)2
_chemical_formula_sum   'Sr6 As4 O16'
_cell_volume   520.19992049
_cell_formula_units_Z   2
loop_
 _symmetry_equiv_pos_site_id
 _symmetry_equiv_pos_as_xyz
  1  'x, y, z'
loop_
 _atom_site_type_symbol
 _atom_site_label
 _atom_site_symmetry_multiplicity
 _atom_site_fract_x
 _atom_site_fract_y
 _atom_site_fract_z
 _atom_site_occupancy
  Sr  Sr0  1  0.00000000  0.50000000  0.50000000  1
  Sr  Sr1  1  0.35548100  0.45100400  0.63319500  1
  Sr  Sr2  1  0.85548100  0.54899600  0.86680500  1
  Sr  Sr3  1  0.50000000  0.50000000  0.00000000  1
  Sr  Sr4  1  0.14451900  0.45100400  0.13319500  1
  Sr  Sr5  1  0.64451900  0.54899600  0.36680500  1
  As  As6  1  0.30837400  0.83732300  0.20084200  1
  As  As7  1  0.80837400  0.16267700  0.29915800  1
  As  As8  1  0.19162600  0.83732300  0.70084200  1
  As  As9  1  0.69162600  0.16267700  0.79915800  1
  O  O10  1  0.84777000  0.28960300  0.73885400  1
  O  O11  1  0.41696500  0.68990200  0.35618700  1
  O  O12  1  0.64821900  0.24614400  0.92877200  1
  O  O13  1  0.81074800  0.82236400  0.38445300  1
  O  O14  1  0.14821900  0.75385600  0.57122800  1
  O  O15  1  0.34777000  0.71039700  0.76114600  1
  O  O16  1  0.31074800  0.17763600  0.11554700  1
  O  O17  1  0.91696500  0.31009800  0.14381300  1
  O  O18  1  0.08303500  0.68990200  0.85618700  1
  O  O19  1  0.68925200  0.82236400  0.88445300  1
  O  O20  1  0.65223000  0.28960300  0.23885400  1
  O  O21  1  0.85178100  0.24614400  0.42877200  1
  O  O22  1  0.18925200  0.17763600  0.61554700  1
  O  O23  1  0.35178100  0.75385600  0.07122800  1
  O  O24  1  0.58303500  0.31009800  0.64381300  1
  O  O25  1  0.15223000  0.71039700  0.26114600  1
