# generated using pymatgen
data_TlCoO3
_symmetry_space_group_name_H-M   'P 1'
_cell_length_a   5.78674871
_cell_length_b   5.78674871
_cell_length_c   5.78674802
_cell_angle_alpha   53.72007515
_cell_angle_beta   53.72007515
_cell_angle_gamma   53.72007657
_symmetry_Int_Tables_number   1
_chemical_formula_structural   TlCoO3
_chemical_formula_sum   'Tl2 Co2 O6'
_cell_volume   116.90235341
_cell_formula_units_Z   2
loop_
 _symmetry_equiv_pos_site_id
 _symmetry_equiv_pos_as_xyz
  1  'x, y, z'
loop_
 _atom_site_type_symbol
 _atom_site_label
 _atom_site_symmetry_multiplicity
 _atom_site_fract_x
 _atom_site_fract_y
 _atom_site_fract_z
 _atom_site_occupancy
  Tl  Tl0  1  0.87335000  0.87335000  0.87335000  1
  Tl  Tl1  1  0.12665000  0.12665000  0.12665000  1
  Co  Co2  1  0.66080100  0.66080100  0.66080100  1
  Co  Co3  1  0.33919900  0.33919900  0.33919900  1
  O  O4  1  0.30981700  0.52970600  0.94428900  1
  O  O5  1  0.94428900  0.30981700  0.52970600  1
  O  O6  1  0.52970600  0.94428900  0.30981700  1
  O  O7  1  0.47029400  0.05571100  0.69018300  1
  O  O8  1  0.05571100  0.69018300  0.47029400  1
  O  O9  1  0.69018300  0.47029400  0.05571100  1
