# generated using pymatgen
data_TbNbO4
_symmetry_space_group_name_H-M   'P 1'
_cell_length_a   6.19863026
_cell_length_b   6.19863026
_cell_length_c   6.19863026
_cell_angle_alpha   107.08480312
_cell_angle_beta   107.08480312
_cell_angle_gamma   114.35734828
_symmetry_Int_Tables_number   1
_chemical_formula_structural   TbNbO4
_chemical_formula_sum   'Tb2 Nb2 O8'
_cell_volume   182.33463073
_cell_formula_units_Z   2
loop_
 _symmetry_equiv_pos_site_id
 _symmetry_equiv_pos_as_xyz
  1  'x, y, z'
loop_
 _atom_site_type_symbol
 _atom_site_label
 _atom_site_symmetry_multiplicity
 _atom_site_fract_x
 _atom_site_fract_y
 _atom_site_fract_z
 _atom_site_occupancy
  Tb  Tb0  1  0.00000000  0.00000000  0.00000000  1
  Tb  Tb1  1  0.25000000  0.75000000  0.50000000  1
  Nb  Nb2  1  0.50000000  0.50000000  0.00000000  1
  Nb  Nb3  1  0.75000000  0.25000000  0.50000000  1
  O  O4  1  0.31661700  0.50792700  0.19130900  1
  O  O5  1  0.87469200  0.68338300  0.19130900  1
  O  O6  1  0.37530800  0.06661700  0.30869100  1
  O  O7  1  0.49207300  0.68338300  0.80869100  1
  O  O8  1  0.31661700  0.12530800  0.80869100  1
  O  O9  1  0.93338300  0.24207300  0.30869100  1
  O  O10  1  0.93338300  0.62469200  0.69130900  1
  O  O11  1  0.75792700  0.06661700  0.69130900  1
