# generated using pymatgen
data_EuZr4O9
_symmetry_space_group_name_H-M   'P 1'
_cell_length_a   10.05211031
_cell_length_b   10.05211031
_cell_length_c   10.05211031
_cell_angle_alpha   159.47236018
_cell_angle_beta   149.71004214
_cell_angle_gamma   36.87112918
_symmetry_Int_Tables_number   1
_chemical_formula_structural   EuZr4O9
_chemical_formula_sum   'Eu1 Zr4 O9'
_cell_volume   179.42766117
_cell_formula_units_Z   1
loop_
 _symmetry_equiv_pos_site_id
 _symmetry_equiv_pos_as_xyz
  1  'x, y, z'
loop_
 _atom_site_type_symbol
 _atom_site_label
 _atom_site_symmetry_multiplicity
 _atom_site_fract_x
 _atom_site_fract_y
 _atom_site_fract_z
 _atom_site_occupancy
  Eu  Eu0  1  0.46567400  0.50000000  0.96567400  1
  Zr  Zr1  1  0.72178600  0.69636900  0.02541700  1
  Zr  Zr2  1  0.91523000  0.88840000  0.02683000  1
  Zr  Zr3  1  0.32904700  0.30363100  0.02541700  1
  Zr  Zr4  1  0.13843000  0.11160000  0.02683000  1
  O  O5  1  0.67192800  0.40088100  0.27104700  1
  O  O6  1  0.56990100  0.79971800  0.77018400  1
  O  O7  1  0.87016600  0.59911900  0.27104700  1
  O  O8  1  0.06811000  0.79687200  0.27123700  1
  O  O9  1  0.97046600  0.20028200  0.77018400  1
  O  O10  1  0.15525400  0.38996300  0.76529100  1
  O  O11  1  0.37532800  0.61003700  0.76529100  1
  O  O12  1  0.47436500  0.20312800  0.27123700  1
  O  O13  1  0.13210600  0.00000000  0.13210600  1
