# generated using pymatgen
data_Ba2Ti6N2O11
_symmetry_space_group_name_H-M   'P 1'
_cell_length_a   7.95460278
_cell_length_b   7.95460278
_cell_length_c   9.19408657
_cell_angle_alpha   81.72700309
_cell_angle_beta   81.72700309
_cell_angle_gamma   28.74894010
_symmetry_Int_Tables_number   1
_chemical_formula_structural   Ba2Ti6N2O11
_chemical_formula_sum   'Ba2 Ti6 N2 O11'
_cell_volume   276.70758258
_cell_formula_units_Z   1
loop_
 _symmetry_equiv_pos_site_id
 _symmetry_equiv_pos_as_xyz
  1  'x, y, z'
loop_
 _atom_site_type_symbol
 _atom_site_label
 _atom_site_symmetry_multiplicity
 _atom_site_fract_x
 _atom_site_fract_y
 _atom_site_fract_z
 _atom_site_occupancy
  Ba  Ba0  1  0.54302000  0.54302000  0.23606900  1
  Ba  Ba1  1  0.44393300  0.44393300  0.77194600  1
  Ti  Ti2  1  0.11087900  0.11087900  0.90733700  1
  Ti  Ti3  1  0.16833400  0.16833400  0.56210300  1
  Ti  Ti4  1  0.23359200  0.23359200  0.22888200  1
  Ti  Ti5  1  0.75366000  0.75366000  0.75958400  1
  Ti  Ti6  1  0.82232800  0.82232800  0.43706700  1
  Ti  Ti7  1  0.86458900  0.86458900  0.10004200  1
  N  N8  1  0.70079500  0.70079500  0.57449200  1
  N  N9  1  0.75558900  0.75558900  0.23427100  1
  O  O10  1  0.07033700  0.07033700  0.70654800  1
  O  O11  1  0.12645900  0.12645900  0.38318000  1
  O  O12  1  0.15890500  0.15890500  0.08895000  1
  O  O13  1  0.63358700  0.63358700  0.88793500  1
  O  O14  1  0.23794100  0.23794100  0.76381900  1
  O  O15  1  0.29624600  0.29624600  0.42523500  1
  O  O16  1  0.35794000  0.35794000  0.10550500  1
  O  O17  1  0.83283400  0.83283400  0.90605000  1
  O  O18  1  0.86771400  0.86771400  0.61408200  1
  O  O19  1  0.92215800  0.92215800  0.29003400  1
  O  O20  1  0.99808800  0.99808800  0.99680100  1
