# generated using pymatgen
data_Co3OF5
_symmetry_space_group_name_H-M   'P 1'
_cell_length_a   5.68296342
_cell_length_b   5.68296342
_cell_length_c   7.37626793
_cell_angle_alpha   73.07463906
_cell_angle_beta   73.07463906
_cell_angle_gamma   74.11225015
_symmetry_Int_Tables_number   1
_chemical_formula_structural   Co3OF5
_chemical_formula_sum   'Co6 O2 F10'
_cell_volume   213.33454037
_cell_formula_units_Z   2
loop_
 _symmetry_equiv_pos_site_id
 _symmetry_equiv_pos_as_xyz
  1  'x, y, z'
loop_
 _atom_site_type_symbol
 _atom_site_label
 _atom_site_symmetry_multiplicity
 _atom_site_fract_x
 _atom_site_fract_y
 _atom_site_fract_z
 _atom_site_occupancy
  Co  Co0  1  0.33658200  0.33658200  0.16728200  1
  Co  Co1  1  0.30931100  0.30931100  0.65950200  1
  Co  Co2  1  0.00000000  0.00000000  0.00000000  1
  Co  Co3  1  0.00000000  0.00000000  0.50000000  1
  Co  Co4  1  0.66341800  0.66341800  0.83271800  1
  Co  Co5  1  0.69068900  0.69068900  0.34049800  1
  O  O6  1  0.89845600  0.89845600  0.30395600  1
  O  O7  1  0.10154400  0.10154400  0.69604400  1
  F  F8  1  0.63143800  0.02690700  0.66427500  1
  F  F9  1  0.30229800  0.69770200  0.00000000  1
  F  F10  1  0.23881200  0.23881200  0.95838300  1
  F  F11  1  0.55468300  0.55468300  0.63167800  1
  F  F12  1  0.44531700  0.44531700  0.36832200  1
  F  F13  1  0.76118800  0.76118800  0.04161700  1
  F  F14  1  0.02690700  0.63143800  0.66427500  1
  F  F15  1  0.69770200  0.30229800  0.00000000  1
  F  F16  1  0.36856200  0.97309300  0.33572500  1
  F  F17  1  0.97309300  0.36856200  0.33572500  1
