# generated using pymatgen
data_Mn2Co3Te3O16
_symmetry_space_group_name_H-M   'P 1'
_cell_length_a   5.97801847
_cell_length_b   6.02288533
_cell_length_c   9.30052089
_cell_angle_alpha   90.25992335
_cell_angle_beta   90.07035429
_cell_angle_gamma   120.42842112
_symmetry_Int_Tables_number   1
_chemical_formula_structural   Mn2Co3Te3O16
_chemical_formula_sum   'Mn2 Co3 Te3 O16'
_cell_volume   288.73573995
_cell_formula_units_Z   1
loop_
 _symmetry_equiv_pos_site_id
 _symmetry_equiv_pos_as_xyz
  1  'x, y, z'
loop_
 _atom_site_type_symbol
 _atom_site_label
 _atom_site_symmetry_multiplicity
 _atom_site_fract_x
 _atom_site_fract_y
 _atom_site_fract_z
 _atom_site_occupancy
  Mn  Mn0  1  0.35146400  0.67583400  0.51108900  1
  Mn  Mn1  1  0.69679700  0.34739600  0.97483600  1
  Co  Co2  1  0.67040100  0.83483800  0.20848800  1
  Co  Co3  1  0.81636000  0.65725000  0.71316200  1
  Co  Co4  1  0.81627200  0.15853000  0.71289800  1
  Te  Te5  1  0.17414800  0.83490800  0.21371700  1
  Te  Te6  1  0.17402100  0.33809200  0.21371900  1
  Te  Te7  1  0.31853000  0.16151600  0.71346700  1
  O  O8  1  0.15124200  0.83550400  0.60720100  1
  O  O9  1  0.03875500  0.51941600  0.34065300  1
  O  O10  1  0.31255900  0.65547000  0.09116400  1
  O  O11  1  0.02242300  0.01034800  0.32496100  1
  O  O12  1  0.98302900  0.99211900  0.81718400  1
  O  O13  1  0.14893300  0.31442400  0.60625400  1
  O  O14  1  0.47602800  0.96767200  0.32900300  1
  O  O15  1  0.47592100  0.50889200  0.32910300  1
  O  O16  1  0.33638800  0.16723300  0.09689000  1
  O  O17  1  0.68534400  0.84260900  0.60429000  1
  O  O18  1  0.51130700  0.48175100  0.83096900  1
  O  O19  1  0.51518800  0.03685500  0.83371200  1
  O  O20  1  0.65661800  0.32767500  0.60727200  1
  O  O21  1  0.86058500  0.68141600  0.10433700  1
  O  O22  1  0.94580700  0.47434800  0.82602200  1
  O  O23  1  0.86188000  0.17610500  0.10532600  1
