# generated using pymatgen
data_Fe6O7F5
_symmetry_space_group_name_H-M   'P 1'
_cell_length_a   5.67210132
_cell_length_b   5.67210132
_cell_length_c   7.67712381
_cell_angle_alpha   68.84161361
_cell_angle_beta   68.84161361
_cell_angle_gamma   69.79104959
_symmetry_Int_Tables_number   1
_chemical_formula_structural   Fe6O7F5
_chemical_formula_sum   'Fe6 O7 F5'
_cell_volume   208.13746617
_cell_formula_units_Z   1
loop_
 _symmetry_equiv_pos_site_id
 _symmetry_equiv_pos_as_xyz
  1  'x, y, z'
loop_
 _atom_site_type_symbol
 _atom_site_label
 _atom_site_symmetry_multiplicity
 _atom_site_fract_x
 _atom_site_fract_y
 _atom_site_fract_z
 _atom_site_occupancy
  Fe  Fe0  1  0.69912800  0.68085400  0.85400000  1
  Fe  Fe1  1  0.34313800  0.33154500  0.67646400  1
  Fe  Fe2  1  0.66845500  0.65686200  0.32353600  1
  Fe  Fe3  1  0.31914600  0.30087200  0.14600000  1
  Fe  Fe4  1  0.00276700  0.99723300  0.50000000  1
  Fe  Fe5  1  0.97221200  0.02778800  0.00000000  1
  O  O6  1  0.65412900  0.03331500  0.66290500  1
  O  O7  1  0.96668500  0.34587100  0.33709500  1
  O  O8  1  0.22227700  0.22845800  0.95488200  1
  O  O9  1  0.77154200  0.77772300  0.04511800  1
  O  O10  1  0.35219600  0.95580500  0.34003800  1
  O  O11  1  0.04419500  0.64780400  0.65996200  1
  O  O12  1  0.67717100  0.32282900  0.00000000  1
  F  F13  1  0.89604800  0.89167900  0.29736000  1
  F  F14  1  0.57337100  0.56582800  0.62153200  1
  F  F15  1  0.43417200  0.42662900  0.37846800  1
  F  F16  1  0.10832100  0.10395200  0.70264000  1
  F  F17  1  0.29504600  0.70495400  0.00000000  1
