# generated using pymatgen
data_Na3VO3
_symmetry_space_group_name_H-M   'P 1'
_cell_length_a   5.90028845
_cell_length_b   6.02118764
_cell_length_c   6.48055583
_cell_angle_alpha   63.83738264
_cell_angle_beta   89.25415152
_cell_angle_gamma   87.44270701
_symmetry_Int_Tables_number   1
_chemical_formula_structural   Na3VO3
_chemical_formula_sum   'Na6 V2 O6'
_cell_volume   206.43332133
_cell_formula_units_Z   2
loop_
 _symmetry_equiv_pos_site_id
 _symmetry_equiv_pos_as_xyz
  1  'x, y, z'
loop_
 _atom_site_type_symbol
 _atom_site_label
 _atom_site_symmetry_multiplicity
 _atom_site_fract_x
 _atom_site_fract_y
 _atom_site_fract_z
 _atom_site_occupancy
  Na  Na0  1  0.06536800  0.76105900  0.44916600  1
  Na  Na1  1  0.93455300  0.23903100  0.55067000  1
  Na  Na2  1  0.13751900  0.77698400  0.98405800  1
  Na  Na3  1  0.86251300  0.22298600  0.01588800  1
  Na  Na4  1  0.42945100  0.26774100  0.74742300  1
  Na  Na5  1  0.57038100  0.73236100  0.25257500  1
  V  V6  1  0.62728300  0.81100200  0.68989400  1
  V  V7  1  0.37282000  0.18893300  0.31014200  1
  O  O8  1  0.23869300  0.10549300  0.09564800  1
  O  O9  1  0.76132600  0.89453900  0.90443800  1
  O  O10  1  0.25528900  0.47239900  0.34179800  1
  O  O11  1  0.74468400  0.52754300  0.65822500  1
  O  O12  1  0.30562100  0.92531500  0.63000500  1
  O  O13  1  0.69449700  0.07461600  0.37006800  1
