# generated using pymatgen
data_Sm3TaO7
_symmetry_space_group_name_H-M   'P 1'
_cell_length_a   6.60083607
_cell_length_b   6.60083607
_cell_length_c   7.67092900
_cell_angle_alpha   90.00000000
_cell_angle_beta   90.00000000
_cell_angle_gamma   110.59216192
_symmetry_Int_Tables_number   1
_chemical_formula_structural   Sm3TaO7
_chemical_formula_sum   'Sm6 Ta2 O14'
_cell_volume   312.87557176
_cell_formula_units_Z   2
loop_
 _symmetry_equiv_pos_site_id
 _symmetry_equiv_pos_as_xyz
  1  'x, y, z'
loop_
 _atom_site_type_symbol
 _atom_site_label
 _atom_site_symmetry_multiplicity
 _atom_site_fract_x
 _atom_site_fract_y
 _atom_site_fract_z
 _atom_site_occupancy
  Sm  Sm0  1  0.51731600  0.05860800  0.25000000  1
  Sm  Sm1  1  0.94139200  0.48268400  0.75000000  1
  Sm  Sm2  1  0.00000000  0.00000000  0.00000000  1
  Sm  Sm3  1  0.00000000  0.00000000  0.50000000  1
  Sm  Sm4  1  0.48268400  0.94139200  0.75000000  1
  Sm  Sm5  1  0.05860800  0.51731600  0.25000000  1
  Ta  Ta6  1  0.50000000  0.50000000  0.00000000  1
  Ta  Ta7  1  0.50000000  0.50000000  0.50000000  1
  O  O8  1  0.88807800  0.15163500  0.25000000  1
  O  O9  1  0.84836500  0.11192200  0.75000000  1
  O  O10  1  0.81759100  0.56290200  0.03171400  1
  O  O11  1  0.81759100  0.56290200  0.46828600  1
  O  O12  1  0.43709800  0.18240900  0.96828600  1
  O  O13  1  0.43709800  0.18240900  0.53171400  1
  O  O14  1  0.56652700  0.56652700  0.75000000  1
  O  O15  1  0.43347300  0.43347300  0.25000000  1
  O  O16  1  0.56290200  0.81759100  0.03171400  1
  O  O17  1  0.18240900  0.43709800  0.53171400  1
  O  O18  1  0.18240900  0.43709800  0.96828600  1
  O  O19  1  0.56290200  0.81759100  0.46828600  1
  O  O20  1  0.11192200  0.84836500  0.75000000  1
  O  O21  1  0.15163500  0.88807800  0.25000000  1
