# generated using pymatgen
data_LuWO4
_symmetry_space_group_name_H-M   'P 1'
_cell_length_a   6.53928838
_cell_length_b   6.53928838
_cell_length_c   6.53928838
_cell_angle_alpha   133.33894046
_cell_angle_beta   133.33894046
_cell_angle_gamma   68.12236161
_symmetry_Int_Tables_number   1
_chemical_formula_structural   LuWO4
_chemical_formula_sum   'Lu2 W2 O8'
_cell_volume   145.33803819
_cell_formula_units_Z   2
loop_
 _symmetry_equiv_pos_site_id
 _symmetry_equiv_pos_as_xyz
  1  'x, y, z'
loop_
 _atom_site_type_symbol
 _atom_site_label
 _atom_site_symmetry_multiplicity
 _atom_site_fract_x
 _atom_site_fract_y
 _atom_site_fract_z
 _atom_site_occupancy
  Lu  Lu0  1  0.25000000  0.75000000  0.50000000  1
  Lu  Lu1  1  0.50000000  0.50000000  0.00000000  1
  W  W2  1  0.00000000  0.00000000  0.00000000  1
  W  W3  1  0.75000000  0.25000000  0.50000000  1
  O  O4  1  0.09355400  0.53380700  0.94916100  1
  O  O5  1  0.89439300  0.34355400  0.05974700  1
  O  O6  1  0.28380700  0.83464500  0.94025300  1
  O  O7  1  0.16535500  0.10560700  0.44916100  1
  O  O8  1  0.58464500  0.14439300  0.05083900  1
  O  O9  1  0.46619300  0.41535500  0.55974700  1
  O  O10  1  0.85560700  0.90644600  0.44025300  1
  O  O11  1  0.65644600  0.71619300  0.55083900  1
