# generated using pymatgen
data_V2O3F
_symmetry_space_group_name_H-M   'P 1'
_cell_length_a   4.58555614
_cell_length_b   10.37261962
_cell_length_c   5.53148601
_cell_angle_alpha   82.08131361
_cell_angle_beta   90.07170563
_cell_angle_gamma   89.97354548
_symmetry_Int_Tables_number   1
_chemical_formula_structural   V2O3F
_chemical_formula_sum   'V8 O12 F4'
_cell_volume   260.59183722
_cell_formula_units_Z   4
loop_
 _symmetry_equiv_pos_site_id
 _symmetry_equiv_pos_as_xyz
  1  'x, y, z'
loop_
 _atom_site_type_symbol
 _atom_site_label
 _atom_site_symmetry_multiplicity
 _atom_site_fract_x
 _atom_site_fract_y
 _atom_site_fract_z
 _atom_site_occupancy
  V  V0  1  0.50002800  0.25001100  0.74999100  1
  V  V1  1  0.99999200  0.75000800  0.74999400  1
  V  V2  1  0.51746200  0.98768100  0.50532900  1
  V  V3  1  0.48258600  0.51229200  0.99470600  1
  V  V4  1  0.98218800  0.48677100  0.50012800  1
  V  V5  1  0.01780600  0.01321800  0.99986000  1
  V  V6  1  0.99999400  0.24999100  0.25000800  1
  V  V7  1  0.49987900  0.75003900  0.24998900  1
  O  O8  1  0.79402300  0.57018100  0.77539500  1
  O  O9  1  0.70594300  0.07052600  0.77656700  1
  O  O10  1  0.29407800  0.42947700  0.72344500  1
  O  O11  1  0.20599600  0.92982400  0.72462300  1
  O  O12  1  0.80531700  0.32263000  0.52366600  1
  O  O13  1  0.69303300  0.82369200  0.52398600  1
  O  O14  1  0.30693800  0.67630400  0.97597500  1
  O  O15  1  0.19472200  0.17736100  0.97631300  1
  O  O16  1  0.79047600  0.07548400  0.27775900  1
  O  O17  1  0.70924500  0.57480900  0.27679800  1
  O  O18  1  0.29073700  0.92520500  0.22319600  1
  O  O19  1  0.20954000  0.42450800  0.22223600  1
  F  F20  1  0.80737600  0.82967500  0.02693500  1
  F  F21  1  0.69394400  0.32926600  0.02663600  1
  F  F22  1  0.30608500  0.17072800  0.47336900  1
  F  F23  1  0.19261100  0.67031700  0.47309400  1
