# generated using pymatgen
data_V2CoO6
_symmetry_space_group_name_H-M   'P 1'
_cell_length_a   5.15063176
_cell_length_b   8.70864310
_cell_length_c   5.30571866
_cell_angle_alpha   103.61136330
_cell_angle_beta   117.35041113
_cell_angle_gamma   88.42925233
_symmetry_Int_Tables_number   1
_chemical_formula_structural   V2CoO6
_chemical_formula_sum   'V4 Co2 O12'
_cell_volume   204.54746960
_cell_formula_units_Z   2
loop_
 _symmetry_equiv_pos_site_id
 _symmetry_equiv_pos_as_xyz
  1  'x, y, z'
loop_
 _atom_site_type_symbol
 _atom_site_label
 _atom_site_symmetry_multiplicity
 _atom_site_fract_x
 _atom_site_fract_y
 _atom_site_fract_z
 _atom_site_occupancy
  V  V0  1  0.96543200  0.98827100  0.96432900  1
  V  V1  1  0.72679400  0.23239200  0.45831600  1
  V  V2  1  0.46461000  0.48734800  0.96347200  1
  V  V3  1  0.22624900  0.73267700  0.45785800  1
  Co  Co4  1  0.55931500  0.84960900  0.10749500  1
  Co  Co5  1  0.06059700  0.35069300  0.11001700  1
  O  O6  1  0.51158600  0.37898100  0.27992700  1
  O  O7  1  0.01124400  0.87933600  0.28031100  1
  O  O8  1  0.47554300  0.06853900  0.28722300  1
  O  O9  1  0.97408500  0.56886100  0.28497800  1
  O  O10  1  0.94326900  0.19251000  0.27850200  1
  O  O11  1  0.44341800  0.69286000  0.27928000  1
  O  O12  1  0.60800300  0.33868600  0.79744500  1
  O  O13  1  0.11012400  0.83983900  0.79842300  1
  O  O14  1  0.09756200  0.43255900  0.78073300  1
  O  O15  1  0.59901400  0.93255000  0.78095600  1
  O  O16  1  0.98863400  0.14301100  0.79766000  1
  O  O17  1  0.48692200  0.64208100  0.79627300  1
