# generated using pymatgen
data_VOF3
_symmetry_space_group_name_H-M   'P 1'
_cell_length_a   5.34303500
_cell_length_b   5.56106608
_cell_length_c   9.63472490
_cell_angle_alpha   88.77500877
_cell_angle_beta   87.73720758
_cell_angle_gamma   88.66473128
_symmetry_Int_Tables_number   1
_chemical_formula_structural   VOF3
_chemical_formula_sum   'V4 O4 F12'
_cell_volume   285.91541761
_cell_formula_units_Z   4
loop_
 _symmetry_equiv_pos_site_id
 _symmetry_equiv_pos_as_xyz
  1  'x, y, z'
loop_
 _atom_site_type_symbol
 _atom_site_label
 _atom_site_symmetry_multiplicity
 _atom_site_fract_x
 _atom_site_fract_y
 _atom_site_fract_z
 _atom_site_occupancy
  V  V0  1  0.47894400  0.78131800  0.77340000  1
  V  V1  1  0.03570200  0.53397100  0.52721800  1
  V  V2  1  0.54308600  0.26309000  0.27646000  1
  V  V3  1  0.02105500  0.03558400  0.02032700  1
  O  O4  1  0.28400700  0.94904100  0.87153100  1
  O  O5  1  0.21136400  0.69507100  0.62535300  1
  O  O6  1  0.78106100  0.29353100  0.37119200  1
  O  O7  1  0.19647700  0.19278600  0.11301200  1
  F  F8  1  0.40144300  0.99433300  0.33910900  1
  F  F9  1  0.76391500  0.78996400  0.86552000  1
  F  F10  1  0.93056000  0.74225200  0.39932000  1
  F  F11  1  0.05613800  0.73545900  0.08287900  1
  F  F12  1  0.73452000  0.53881000  0.62057500  1
  F  F13  1  0.56396900  0.50232800  0.15195900  1
  F  F14  1  0.41459500  0.48463200  0.83069800  1
  F  F15  1  0.29730800  0.45042200  0.37728600  1
  F  F16  1  0.88947200  0.24128900  0.89852700  1
  F  F17  1  0.09939100  0.23437800  0.58358100  1
  F  F18  1  0.71134300  0.05871400  0.13102100  1
  F  F19  1  0.58564700  0.98302900  0.64103400  1
