# generated using pymatgen
data_V3(O2F)2
_symmetry_space_group_name_H-M   'P 1'
_cell_length_a   4.66961111
_cell_length_b   7.71636533
_cell_length_c   5.61451853
_cell_angle_alpha   93.46259146
_cell_angle_beta   89.97638834
_cell_angle_gamma   90.00891698
_symmetry_Int_Tables_number   1
_chemical_formula_structural   V3(O2F)2
_chemical_formula_sum   'V6 O8 F4'
_cell_volume   201.93538223
_cell_formula_units_Z   2
loop_
 _symmetry_equiv_pos_site_id
 _symmetry_equiv_pos_as_xyz
  1  'x, y, z'
loop_
 _atom_site_type_symbol
 _atom_site_label
 _atom_site_symmetry_multiplicity
 _atom_site_fract_x
 _atom_site_fract_y
 _atom_site_fract_z
 _atom_site_occupancy
  V  V0  1  0.01308300  0.67154000  0.68139100  1
  V  V1  1  0.97800700  0.31860200  0.33219600  1
  V  V2  1  0.52245400  0.35721300  0.81043400  1
  V  V3  1  0.51333100  0.66173200  0.15179300  1
  V  V4  1  0.47803700  0.01461500  0.50121000  1
  V  V5  1  0.02278500  0.97606100  0.02285500  1
  O  O6  1  0.79507200  0.43942500  0.62873700  1
  O  O7  1  0.29490800  0.89371300  0.20492800  1
  O  O8  1  0.80382300  0.08979700  0.29340000  1
  O  O9  1  0.30386700  0.24364100  0.53992700  1
  O  O10  1  0.80204500  0.77347700  0.96871000  1
  O  O11  1  0.30214800  0.56002700  0.86423600  1
  O  O12  1  0.69176000  0.42973000  0.12219400  1
  O  O13  1  0.19195100  0.90377300  0.71130500  1
  F  F14  1  0.70470700  0.11076500  0.80771100  1
  F  F15  1  0.20512800  0.22242600  0.02586700  1
  F  F16  1  0.68868600  0.76822800  0.47459000  1
  F  F17  1  0.18820500  0.56523400  0.35851600  1
