# generated using pymatgen
data_Hf2N2O
_symmetry_space_group_name_H-M   'P 1'
_cell_length_a   5.49390770
_cell_length_b   5.49390770
_cell_length_c   10.31758963
_cell_angle_alpha   73.91979955
_cell_angle_beta   73.91979955
_cell_angle_gamma   59.29350447
_symmetry_Int_Tables_number   1
_chemical_formula_structural   Hf2N2O
_chemical_formula_sum   'Hf8 N8 O4'
_cell_volume   253.79158418
_cell_formula_units_Z   4
loop_
 _symmetry_equiv_pos_site_id
 _symmetry_equiv_pos_as_xyz
  1  'x, y, z'
loop_
 _atom_site_type_symbol
 _atom_site_label
 _atom_site_symmetry_multiplicity
 _atom_site_fract_x
 _atom_site_fract_y
 _atom_site_fract_z
 _atom_site_occupancy
  Hf  Hf0  1  0.41776600  0.17936500  0.58990100  1
  Hf  Hf1  1  0.90629900  0.67430700  0.08743600  1
  Hf  Hf2  1  0.32569300  0.09370100  0.91256400  1
  Hf  Hf3  1  0.16959800  0.95113100  0.34033300  1
  Hf  Hf4  1  0.82063500  0.58223400  0.41009900  1
  Hf  Hf5  1  0.04886900  0.83040200  0.65966700  1
  Hf  Hf6  1  0.67886900  0.43535900  0.83910400  1
  Hf  Hf7  1  0.56464100  0.32113100  0.16089600  1
  N  N8  1  0.83604000  0.86195100  0.50515600  1
  N  N9  1  0.67503100  0.11622900  0.75708900  1
  N  N10  1  0.88377100  0.32496900  0.24291100  1
  N  N11  1  0.13804900  0.16396000  0.49484400  1
  N  N12  1  0.32957900  0.37751100  0.00204600  1
  N  N13  1  0.08265400  0.41235200  0.74892300  1
  N  N14  1  0.58764800  0.91734600  0.25107700  1
  N  N15  1  0.62248900  0.67042100  0.99795400  1
  O  O16  1  0.38135300  0.81272400  0.74135000  1
  O  O17  1  0.44654200  0.55345800  0.50000000  1
  O  O18  1  0.93352400  0.06647600  0.00000000  1
  O  O19  1  0.18727600  0.61864700  0.25865000  1
