# generated using pymatgen
data_BaNa4O3
_symmetry_space_group_name_H-M   'P 1'
_cell_length_a   7.18188299
_cell_length_b   7.18188299
_cell_length_c   8.27773501
_cell_angle_alpha   72.75855665
_cell_angle_beta   72.75855665
_cell_angle_gamma   47.60522987
_symmetry_Int_Tables_number   1
_chemical_formula_structural   BaNa4O3
_chemical_formula_sum   'Ba2 Na8 O6'
_cell_volume   298.31367380
_cell_formula_units_Z   2
loop_
 _symmetry_equiv_pos_site_id
 _symmetry_equiv_pos_as_xyz
  1  'x, y, z'
loop_
 _atom_site_type_symbol
 _atom_site_label
 _atom_site_symmetry_multiplicity
 _atom_site_fract_x
 _atom_site_fract_y
 _atom_site_fract_z
 _atom_site_occupancy
  Ba  Ba0  1  0.73450000  0.29483400  0.71440300  1
  Ba  Ba1  1  0.29483400  0.73450000  0.21440300  1
  Na  Na2  1  0.04307500  0.69318100  0.94261700  1
  Na  Na3  1  0.69318100  0.04307500  0.44261700  1
  Na  Na4  1  0.12212300  0.49507900  0.60378600  1
  Na  Na5  1  0.49172300  0.90796200  0.83278400  1
  Na  Na6  1  0.49507900  0.12212300  0.10378600  1
  Na  Na7  1  0.90796200  0.49172300  0.33278400  1
  Na  Na8  1  0.33161300  0.98500000  0.49245200  1
  Na  Na9  1  0.98500000  0.33161300  0.99245200  1
  O  O10  1  0.33940400  0.31801100  0.83578600  1
  O  O11  1  0.31801100  0.33940400  0.33578600  1
  O  O12  1  0.70924400  0.68879400  0.59389100  1
  O  O13  1  0.06850900  0.99183000  0.93665100  1
  O  O14  1  0.68879400  0.70924400  0.09389100  1
  O  O15  1  0.99183000  0.06850900  0.43665100  1
