# generated using pymatgen
data_BaNa4O3
_symmetry_space_group_name_H-M   'P 1'
_cell_length_a   9.43542020
_cell_length_b   9.43542020
_cell_length_c   5.84049397
_cell_angle_alpha   89.28044249
_cell_angle_beta   89.28044249
_cell_angle_gamma   143.30939382
_symmetry_Int_Tables_number   1
_chemical_formula_structural   BaNa4O3
_chemical_formula_sum   'Ba2 Na8 O6'
_cell_volume   310.42694548
_cell_formula_units_Z   2
loop_
 _symmetry_equiv_pos_site_id
 _symmetry_equiv_pos_as_xyz
  1  'x, y, z'
loop_
 _atom_site_type_symbol
 _atom_site_label
 _atom_site_symmetry_multiplicity
 _atom_site_fract_x
 _atom_site_fract_y
 _atom_site_fract_z
 _atom_site_occupancy
  Ba  Ba0  1  0.84211300  0.15278200  0.73900700  1
  Ba  Ba1  1  0.15278200  0.84211300  0.23900700  1
  Na  Na2  1  0.51560300  0.47665100  0.22996500  1
  Na  Na3  1  0.96016200  0.01304100  0.24404800  1
  Na  Na4  1  0.72046400  0.24675400  0.20983900  1
  Na  Na5  1  0.59649100  0.32320600  0.69784800  1
  Na  Na6  1  0.32320600  0.59649100  0.19784800  1
  Na  Na7  1  0.47665100  0.51560300  0.72996500  1
  Na  Na8  1  0.01304100  0.96016200  0.74404800  1
  Na  Na9  1  0.24675400  0.72046400  0.70983900  1
  O  O10  1  0.31923400  0.17261700  0.98785900  1
  O  O11  1  0.51509300  0.04720900  0.51840100  1
  O  O12  1  0.17261700  0.31923400  0.48785900  1
  O  O13  1  0.81441200  0.67254300  0.48034500  1
  O  O14  1  0.04720900  0.51509300  0.01840100  1
  O  O15  1  0.67254300  0.81441200  0.98034500  1
