# generated using pymatgen
data_Ta2ReOs
_symmetry_space_group_name_H-M   'P 1'
_cell_length_a   10.41739177
_cell_length_b   10.41739177
_cell_length_c   10.41739177
_cell_angle_alpha   127.94839589
_cell_angle_beta   117.51113295
_cell_angle_gamma   85.59118346
_symmetry_Int_Tables_number   1
_chemical_formula_structural   Ta2ReOs
_chemical_formula_sum   'Ta2 Re1 Os1'
_cell_volume   755.18765523
_cell_formula_units_Z   1
loop_
 _symmetry_equiv_pos_site_id
 _symmetry_equiv_pos_as_xyz
  1  'x, y, z'
loop_
 _atom_site_type_symbol
 _atom_site_label
 _atom_site_symmetry_multiplicity
 _atom_site_fract_x
 _atom_site_fract_y
 _atom_site_fract_z
 _atom_site_occupancy
  Ta  Ta0  1  0.00000000  0.25037100  0.25037100  1
  Ta  Ta1  1  0.00000000  0.74962900  0.74962900  1
  Re  Re2  1  0.00000000  0.00000000  0.00000000  1
  Os  Os3  1  0.00000000  0.50000000  0.50000000  1
