# generated using pymatgen
data_FeTe(PO4)2
_symmetry_space_group_name_H-M   'P 1'
_cell_length_a   6.71572535
_cell_length_b   9.79821756
_cell_length_c   10.02938495
_cell_angle_alpha   97.16540707
_cell_angle_beta   89.89643974
_cell_angle_gamma   90.21810834
_symmetry_Int_Tables_number   1
_chemical_formula_structural   FeTe(PO4)2
_chemical_formula_sum   'Fe4 Te4 P8 O32'
_cell_volume   654.79551625
_cell_formula_units_Z   4
loop_
 _symmetry_equiv_pos_site_id
 _symmetry_equiv_pos_as_xyz
  1  'x, y, z'
loop_
 _atom_site_type_symbol
 _atom_site_label
 _atom_site_symmetry_multiplicity
 _atom_site_fract_x
 _atom_site_fract_y
 _atom_site_fract_z
 _atom_site_occupancy
  Fe  Fe0  1  0.24772200  0.98095400  0.26476800  1
  Fe  Fe1  1  0.75314200  0.51921300  0.73520400  1
  Fe  Fe2  1  0.24835800  0.48088700  0.26480600  1
  Fe  Fe3  1  0.75315400  0.01916900  0.73513600  1
  Te  Te4  1  0.74854000  0.21812400  0.20155800  1
  Te  Te5  1  0.74855000  0.71813900  0.20153300  1
  Te  Te6  1  0.25182000  0.28186800  0.79840200  1
  Te  Te7  1  0.25187600  0.78190000  0.79843400  1
  P  P8  1  0.25042500  0.18604500  0.08962400  1
  P  P9  1  0.25061200  0.68603200  0.08956000  1
  P  P10  1  0.74921100  0.31390900  0.91040200  1
  P  P11  1  0.74928300  0.81398000  0.91043700  1
  P  P12  1  0.75014200  0.44981800  0.39819900  1
  P  P13  1  0.75015900  0.94981500  0.39815600  1
  P  P14  1  0.24970500  0.05015900  0.60178300  1
  P  P15  1  0.24977200  0.55020600  0.60183000  1
  O  O16  1  0.74823700  0.36767500  0.06478100  1
  O  O17  1  0.74816900  0.86770400  0.06482000  1
  O  O18  1  0.25173400  0.13231800  0.93525900  1
  O  O19  1  0.25182600  0.63233400  0.93515800  1
  O  O20  1  0.25020500  0.34309200  0.10129500  1
  O  O21  1  0.25019500  0.84305800  0.10128400  1
  O  O22  1  0.74929200  0.15693000  0.89885100  1
  O  O23  1  0.74954100  0.65695100  0.89876100  1
  O  O24  1  0.74900400  0.10134500  0.37359600  1
  O  O25  1  0.74897200  0.60135900  0.37360500  1
  O  O26  1  0.25109100  0.39865800  0.62639400  1
  O  O27  1  0.25114400  0.89860300  0.62634100  1
  O  O28  1  0.24999600  0.06372300  0.45389900  1
  O  O29  1  0.25008500  0.56371900  0.45388000  1
  O  O30  1  0.74988300  0.43631100  0.54609500  1
  O  O31  1  0.74990900  0.93629300  0.54609200  1
  O  O32  1  0.06936700  0.12450200  0.16005300  1
  O  O33  1  0.06984300  0.62445700  0.16007100  1
  O  O34  1  0.43171700  0.12600700  0.16083100  1
  O  O35  1  0.43224100  0.62619700  0.16057600  1
  O  O36  1  0.56765900  0.37382800  0.83937400  1
  O  O37  1  0.56771500  0.87384100  0.83937200  1
  O  O38  1  0.93005800  0.37549200  0.83991900  1
  O  O39  1  0.93011800  0.87554800  0.83993400  1
  O  O40  1  0.92746400  0.36463500  0.31951400  1
  O  O41  1  0.92756100  0.86465800  0.31951900  1
  O  O42  1  0.57267600  0.36327600  0.31996600  1
  O  O43  1  0.57274100  0.86320600  0.31995200  1
  O  O44  1  0.07232300  0.13515300  0.68046800  1
  O  O45  1  0.07237800  0.63521100  0.68047600  1
  O  O46  1  0.42715500  0.13683200  0.67997900  1
  O  O47  1  0.42723000  0.63686700  0.68005500  1
