# generated using pymatgen
data_CrInO3
_symmetry_space_group_name_H-M   'P 1'
_cell_length_a   5.24718300
_cell_length_b   5.45013700
_cell_length_c   7.72987300
_cell_angle_alpha   89.99989555
_cell_angle_beta   90.00006982
_cell_angle_gamma   89.99758950
_symmetry_Int_Tables_number   1
_chemical_formula_structural   CrInO3
_chemical_formula_sum   'Cr4 In4 O12'
_cell_volume   221.05787381
_cell_formula_units_Z   4
loop_
 _symmetry_equiv_pos_site_id
 _symmetry_equiv_pos_as_xyz
  1  'x, y, z'
loop_
 _atom_site_type_symbol
 _atom_site_label
 _atom_site_symmetry_multiplicity
 _atom_site_fract_x
 _atom_site_fract_y
 _atom_site_fract_z
 _atom_site_occupancy
  Cr  Cr0  1  0.50000600  0.00001200  0.00000500  1
  Cr  Cr1  1  0.50001800  0.99999500  0.49999700  1
  Cr  Cr2  1  0.00000900  0.50000100  0.00001200  1
  Cr  Cr3  1  0.99999300  0.49999100  0.49999200  1
  In  In4  1  0.02274900  0.93893200  0.75000000  1
  In  In5  1  0.47723700  0.43894800  0.75000000  1
  In  In6  1  0.52273800  0.56107300  0.25000000  1
  In  In7  1  0.97725400  0.06106400  0.25000000  1
  O  O8  1  0.12788400  0.44157200  0.24999700  1
  O  O9  1  0.37207900  0.94155900  0.25000200  1
  O  O10  1  0.62792700  0.05844200  0.75000100  1
  O  O11  1  0.87211300  0.55842600  0.74999800  1
  O  O12  1  0.19445000  0.19784400  0.56878100  1
  O  O13  1  0.19444500  0.19785100  0.93121600  1
  O  O14  1  0.30548800  0.69780600  0.56878900  1
  O  O15  1  0.30547900  0.69780400  0.93121200  1
  O  O16  1  0.69451200  0.30219300  0.06878700  1
  O  O17  1  0.69451500  0.30218800  0.43121100  1
  O  O18  1  0.80555100  0.80215100  0.06878000  1
  O  O19  1  0.80555500  0.80214900  0.43122000  1
