# generated using pymatgen
data_In2PdRh
_symmetry_space_group_name_H-M   'P 1'
_cell_length_a   11.00005251
_cell_length_b   11.00005251
_cell_length_c   11.00005251
_cell_angle_alpha   123.92174876
_cell_angle_beta   115.38079631
_cell_angle_gamma   90.76248771
_symmetry_Int_Tables_number   1
_chemical_formula_structural   In2PdRh
_chemical_formula_sum   'In2 Pd1 Rh1'
_cell_volume   939.57098874
_cell_formula_units_Z   1
loop_
 _symmetry_equiv_pos_site_id
 _symmetry_equiv_pos_as_xyz
  1  'x, y, z'
loop_
 _atom_site_type_symbol
 _atom_site_label
 _atom_site_symmetry_multiplicity
 _atom_site_fract_x
 _atom_site_fract_y
 _atom_site_fract_z
 _atom_site_occupancy
  In  In0  1  0.00000000  0.24936800  0.24936800  1
  In  In1  1  0.00000000  0.75063200  0.75063200  1
  Pd  Pd2  1  0.00000000  0.50000000  0.50000000  1
  Rh  Rh3  1  0.00000000  0.00000000  0.00000000  1
