# generated using pymatgen
data_Fe4OF7
_symmetry_space_group_name_H-M   'P 1'
_cell_length_a   5.79066474
_cell_length_b   10.33727509
_cell_length_c   5.80279457
_cell_angle_alpha   82.20416600
_cell_angle_beta   63.40686972
_cell_angle_gamma   99.93352710
_symmetry_Int_Tables_number   1
_chemical_formula_structural   Fe4OF7
_chemical_formula_sum   'Fe8 O2 F14'
_cell_volume   296.88079792
_cell_formula_units_Z   2
loop_
 _symmetry_equiv_pos_site_id
 _symmetry_equiv_pos_as_xyz
  1  'x, y, z'
loop_
 _atom_site_type_symbol
 _atom_site_label
 _atom_site_symmetry_multiplicity
 _atom_site_fract_x
 _atom_site_fract_y
 _atom_site_fract_z
 _atom_site_occupancy
  Fe  Fe0  1  0.61528500  0.24483900  0.87268900  1
  Fe  Fe1  1  0.87989800  0.75510200  0.62757100  1
  Fe  Fe2  1  0.25873100  0.49563800  0.73149700  1
  Fe  Fe3  1  0.72961500  0.49639100  0.26363500  1
  Fe  Fe4  1  0.52311800  0.99695800  0.46797600  1
  Fe  Fe5  1  0.39070700  0.75864700  0.12674500  1
  Fe  Fe6  1  0.14829400  0.26432800  0.38518500  1
  Fe  Fe7  1  0.96363200  0.99585600  0.02801200  1
  O  O8  1  0.35306400  0.39865900  0.45525600  1
  O  O9  1  0.59290700  0.89468700  0.19916600  1
  F  F10  1  0.84196700  0.39645800  0.94810900  1
  F  F11  1  0.91889600  0.14700900  0.78257800  1
  F  F12  1  0.57303500  0.85131700  0.72042300  1
  F  F13  1  0.32438400  0.35091900  0.97372100  1
  F  F14  1  0.82311800  0.35104400  0.47604700  1
  F  F15  1  0.92040900  0.11297600  0.30581800  1
  F  F16  1  0.66063000  0.60845300  0.55293700  1
  F  F17  1  0.39179700  0.09465900  0.79809200  1
  F  F18  1  0.10001700  0.90179800  0.69907000  1
  F  F19  1  0.67883600  0.64673200  0.02189100  1
  F  F20  1  0.16693500  0.64682600  0.52755900  1
  F  F21  1  0.43059900  0.14812900  0.27372100  1
  F  F22  1  0.07035200  0.84922700  0.22437400  1
  F  F23  1  0.14594600  0.59643600  0.04536200  1
