# generated using pymatgen
data_Ni5(TeO6)2
_symmetry_space_group_name_H-M   'P 1'
_cell_length_a   5.18533703
_cell_length_b   5.18533703
_cell_length_c   9.94938720
_cell_angle_alpha   83.60187424
_cell_angle_beta   83.60187424
_cell_angle_gamma   121.33797974
_symmetry_Int_Tables_number   1
_chemical_formula_structural   Ni5(TeO6)2
_chemical_formula_sum   'Ni5 Te2 O12'
_cell_volume   222.49868094
_cell_formula_units_Z   1
loop_
 _symmetry_equiv_pos_site_id
 _symmetry_equiv_pos_as_xyz
  1  'x, y, z'
loop_
 _atom_site_type_symbol
 _atom_site_label
 _atom_site_symmetry_multiplicity
 _atom_site_fract_x
 _atom_site_fract_y
 _atom_site_fract_z
 _atom_site_occupancy
  Ni  Ni0  1  0.91813400  0.08186600  0.00000000  1
  Ni  Ni1  1  0.99852500  0.52807900  0.74306900  1
  Ni  Ni2  1  0.47192100  0.00147500  0.25693100  1
  Ni  Ni3  1  0.57853500  0.42146500  0.00000000  1
  Ni  Ni4  1  0.42392900  0.57607100  0.50000000  1
  Te  Te5  1  0.75203400  0.24796600  0.50000000  1
  Te  Te6  1  0.25010100  0.74989900  0.00000000  1
  O  O7  1  0.04059400  0.25531700  0.61663700  1
  O  O8  1  0.74468300  0.95940600  0.38336300  1
  O  O9  1  0.87166000  0.37453500  0.11070100  1
  O  O10  1  0.62546500  0.12834000  0.88929900  1
  O  O11  1  0.68151400  0.49653200  0.61189900  1
  O  O12  1  0.50346800  0.31848600  0.38810100  1
  O  O13  1  0.51615000  0.71557400  0.11383000  1
  O  O14  1  0.28442600  0.48385000  0.88617000  1
  O  O15  1  0.40888300  0.84328900  0.60978000  1
  O  O16  1  0.15671100  0.59111700  0.39022000  1
  O  O17  1  0.21011500  0.01542500  0.11453300  1
  O  O18  1  0.98457500  0.78988500  0.88546700  1
