# generated using pymatgen
data_Ta2CrNO5
_symmetry_space_group_name_H-M   'P 1'
_cell_length_a   4.76017793
_cell_length_b   10.36809800
_cell_length_c   9.52010060
_cell_angle_alpha   63.00934516
_cell_angle_beta   90.05775162
_cell_angle_gamma   90.32518682
_symmetry_Int_Tables_number   1
_chemical_formula_structural   Ta2CrNO5
_chemical_formula_sum   'Ta8 Cr4 N4 O20'
_cell_volume   418.67123063
_cell_formula_units_Z   4
loop_
 _symmetry_equiv_pos_site_id
 _symmetry_equiv_pos_as_xyz
  1  'x, y, z'
loop_
 _atom_site_type_symbol
 _atom_site_label
 _atom_site_symmetry_multiplicity
 _atom_site_fract_x
 _atom_site_fract_y
 _atom_site_fract_z
 _atom_site_occupancy
  Ta  Ta0  1  0.99070800  0.34403400  0.32335100  1
  Ta  Ta1  1  0.99070500  0.34403400  0.82335000  1
  Ta  Ta2  1  0.98553900  0.67401200  0.15575200  1
  Ta  Ta3  1  0.98554400  0.67401700  0.65575300  1
  Ta  Ta4  1  0.49487000  0.16687100  0.16400900  1
  Ta  Ta5  1  0.49487700  0.16686900  0.66401500  1
  Ta  Ta6  1  0.51101100  0.82966400  0.84068600  1
  Ta  Ta7  1  0.51100900  0.82965900  0.34069200  1
  Cr  Cr8  1  0.00313300  0.99993800  0.50159100  1
  Cr  Cr9  1  0.50135500  0.49857500  0.00137000  1
  Cr  Cr10  1  0.00314200  0.99991700  0.00162200  1
  Cr  Cr11  1  0.50136400  0.49856900  0.50137600  1
  N  N12  1  0.80221200  0.83390600  0.98414000  1
  N  N13  1  0.80221900  0.83390900  0.48413500  1
  N  N14  1  0.80400600  0.49833100  0.15282900  1
  N  N15  1  0.80401400  0.49833200  0.65282800  1
  O  O16  1  0.19794000  0.49540200  0.85125800  1
  O  O17  1  0.19793000  0.49540300  0.35126300  1
  O  O18  1  0.19879800  0.83124500  0.68380100  1
  O  O19  1  0.19880500  0.83123600  0.18380600  1
  O  O20  1  0.20356300  0.16666000  0.01846800  1
  O  O21  1  0.20356200  0.16666100  0.51846900  1
  O  O22  1  0.80572300  0.16827400  0.31869800  1
  O  O23  1  0.80572500  0.16827100  0.81870200  1
  O  O24  1  0.30660200  0.32735600  0.18580300  1
  O  O25  1  0.30660000  0.32735500  0.68580100  1
  O  O26  1  0.69895200  0.32733100  0.98961800  1
  O  O27  1  0.69895500  0.32733000  0.48961800  1
  O  O28  1  0.30172400  0.66842800  0.01219100  1
  O  O29  1  0.30171900  0.66842700  0.51219200  1
  O  O30  1  0.69275200  0.66845500  0.81662300  1
  O  O31  1  0.69275200  0.66845400  0.31662400  1
  O  O32  1  0.30770700  0.00077500  0.34630300  1
  O  O33  1  0.30772000  0.00077300  0.84631100  1
  O  O34  1  0.69337200  0.00076300  0.15347400  1
  O  O35  1  0.69338700  0.00076600  0.65347400  1
