# generated using pymatgen
data_V2Si2O7
_symmetry_space_group_name_H-M   'P 1'
_cell_length_a   6.53534250
_cell_length_b   6.53533826
_cell_length_c   6.53534392
_cell_angle_alpha   59.99968504
_cell_angle_beta   59.99971367
_cell_angle_gamma   59.99968504
_symmetry_Int_Tables_number   1
_chemical_formula_structural   V2Si2O7
_chemical_formula_sum   'V4 Si4 O14'
_cell_volume   197.37260145
_cell_formula_units_Z   2
loop_
 _symmetry_equiv_pos_site_id
 _symmetry_equiv_pos_as_xyz
  1  'x, y, z'
loop_
 _atom_site_type_symbol
 _atom_site_label
 _atom_site_symmetry_multiplicity
 _atom_site_fract_x
 _atom_site_fract_y
 _atom_site_fract_z
 _atom_site_occupancy
  V  V0  1  0.00000300  0.00000000  0.00000000  1
  V  V1  1  0.49999500  0.00000500  0.99999900  1
  V  V2  1  0.00000100  0.49999700  0.99999900  1
  V  V3  1  0.00000100  0.00000200  0.50000000  1
  Si  Si4  1  0.49999900  0.50000100  0.00000000  1
  Si  Si5  1  0.50000000  0.00000000  0.50000100  1
  Si  Si6  1  0.00000000  0.50000000  0.50000000  1
  Si  Si7  1  0.50000000  0.49999900  0.50000000  1
  O  O8  1  0.12500000  0.12499800  0.12500000  1
  O  O9  1  0.57702600  0.17297500  0.17297500  1
  O  O10  1  0.57702500  0.17297500  0.57702500  1
  O  O11  1  0.17297500  0.57702500  0.17297600  1
  O  O12  1  0.57702600  0.57702500  0.17297500  1
  O  O13  1  0.17297500  0.17297500  0.57702600  1
  O  O14  1  0.82702500  0.42297500  0.42297500  1
  O  O15  1  0.17297500  0.57702600  0.57702500  1
  O  O16  1  0.82702500  0.82702400  0.42297500  1
  O  O17  1  0.42297500  0.82702500  0.42297500  1
  O  O18  1  0.42297500  0.42297400  0.82702500  1
  O  O19  1  0.82702500  0.42297400  0.82702500  1
  O  O20  1  0.42297400  0.82702400  0.82702500  1
  O  O21  1  0.87500000  0.87500000  0.87500000  1
