# generated using pymatgen
data_Sr2CaI6
_symmetry_space_group_name_H-M   'P 1'
_cell_length_a   13.88188383
_cell_length_b   13.88188383
_cell_length_c   7.48515900
_cell_angle_alpha   90.00000000
_cell_angle_beta   90.00000000
_cell_angle_gamma   119.99999919
_symmetry_Int_Tables_number   1
_chemical_formula_structural   Sr2CaI6
_chemical_formula_sum   'Sr6 Ca3 I18'
_cell_volume   1249.18993603
_cell_formula_units_Z   3
loop_
 _symmetry_equiv_pos_site_id
 _symmetry_equiv_pos_as_xyz
  1  'x, y, z'
loop_
 _atom_site_type_symbol
 _atom_site_label
 _atom_site_symmetry_multiplicity
 _atom_site_fract_x
 _atom_site_fract_y
 _atom_site_fract_z
 _atom_site_occupancy
  Sr  Sr0  1  0.00000000  0.64274300  0.00000000  1
  Sr  Sr1  1  0.00000000  0.31017500  0.50000000  1
  Sr  Sr2  1  0.35725700  0.35725700  0.00000000  1
  Sr  Sr3  1  0.31017500  0.00000000  0.50000000  1
  Sr  Sr4  1  0.68982500  0.68982500  0.50000000  1
  Sr  Sr5  1  0.64274300  0.00000000  0.00000000  1
  Ca  Ca6  1  0.33333300  0.66666700  0.49573500  1
  Ca  Ca7  1  0.00000000  0.00000000  0.00000000  1
  Ca  Ca8  1  0.66666700  0.33333300  0.50426500  1
  I  I9  1  0.09008200  0.87459100  0.76215800  1
  I  I10  1  0.22778300  0.77489700  0.25285600  1
  I  I11  1  0.12157100  0.54045600  0.74225800  1
  I  I12  1  0.41888500  0.87842900  0.74225800  1
  I  I13  1  0.22510300  0.45288600  0.25285600  1
  I  I14  1  0.12540900  0.21549100  0.76215800  1
  I  I15  1  0.54711400  0.77221700  0.25285600  1
  I  I16  1  0.21549100  0.12540900  0.23784200  1
  I  I17  1  0.45954400  0.58111500  0.74225800  1
  I  I18  1  0.78450900  0.90991800  0.76215800  1
  I  I19  1  0.45288600  0.22510300  0.74714400  1
  I  I20  1  0.58111500  0.45954400  0.25774200  1
  I  I21  1  0.54045600  0.12157100  0.25774200  1
  I  I22  1  0.77221700  0.54711400  0.74714400  1
  I  I23  1  0.90991800  0.78450900  0.23784200  1
  I  I24  1  0.77489700  0.22778300  0.74714400  1
  I  I25  1  0.87842900  0.41888500  0.25774200  1
  I  I26  1  0.87459100  0.09008200  0.23784200  1
