# generated using pymatgen
data_AlFeRu2
_symmetry_space_group_name_H-M   'P 1'
_cell_length_a   9.53858600
_cell_length_b   9.53858600
_cell_length_c   9.53858600
_cell_angle_alpha   121.45262516
_cell_angle_beta   119.47056200
_cell_angle_gamma   89.21102946
_symmetry_Int_Tables_number   1
_chemical_formula_structural   AlFeRu2
_chemical_formula_sum   'Al1 Fe1 Ru2'
_cell_volume   609.09694330
_cell_formula_units_Z   1
loop_
 _symmetry_equiv_pos_site_id
 _symmetry_equiv_pos_as_xyz
  1  'x, y, z'
loop_
 _atom_site_type_symbol
 _atom_site_label
 _atom_site_symmetry_multiplicity
 _atom_site_fract_x
 _atom_site_fract_y
 _atom_site_fract_z
 _atom_site_occupancy
  Al  Al0  1  0.00000000  0.00000000  0.00000000  1
  Fe  Fe1  1  0.00000000  0.50000000  0.50000000  1
  Ru  Ru2  1  0.00000000  0.25509800  0.25509800  1
  Ru  Ru3  1  0.00000000  0.74490200  0.74490200  1
