# generated using pymatgen
data_Al2CoCl8
_symmetry_space_group_name_H-M   'P 1'
_cell_length_a   8.05772612
_cell_length_b   8.05772612
_cell_length_c   11.65856377
_cell_angle_alpha   87.11215875
_cell_angle_beta   87.11215875
_cell_angle_gamma   59.76237602
_symmetry_Int_Tables_number   1
_chemical_formula_structural   Al2CoCl8
_chemical_formula_sum   'Al4 Co2 Cl16'
_cell_volume   652.86203719
_cell_formula_units_Z   2
loop_
 _symmetry_equiv_pos_site_id
 _symmetry_equiv_pos_as_xyz
  1  'x, y, z'
loop_
 _atom_site_type_symbol
 _atom_site_label
 _atom_site_symmetry_multiplicity
 _atom_site_fract_x
 _atom_site_fract_y
 _atom_site_fract_z
 _atom_site_occupancy
  Al  Al0  1  0.83864800  0.32332000  0.44469900  1
  Al  Al1  1  0.67668000  0.16135200  0.05530100  1
  Al  Al2  1  0.32332000  0.83864800  0.94469900  1
  Al  Al3  1  0.16135200  0.67668000  0.55530100  1
  Co  Co4  1  0.00187600  0.99812400  0.75000000  1
  Co  Co5  1  0.99812400  0.00187600  0.25000000  1
  Cl  Cl6  1  0.83826900  0.87580400  0.13777400  1
  Cl  Cl7  1  0.87580400  0.83826900  0.63777400  1
  Cl  Cl8  1  0.68976500  0.61662600  0.39826600  1
  Cl  Cl9  1  0.84033800  0.28537900  0.11831000  1
  Cl  Cl10  1  0.85340400  0.29987700  0.63226000  1
  Cl  Cl11  1  0.61662600  0.68976500  0.89826600  1
  Cl  Cl12  1  0.71462100  0.15966200  0.38169000  1
  Cl  Cl13  1  0.70012300  0.14659600  0.86774000  1
  Cl  Cl14  1  0.29987700  0.85340400  0.13226000  1
  Cl  Cl15  1  0.28537900  0.84033800  0.61831000  1
  Cl  Cl16  1  0.38337400  0.31023500  0.10173400  1
  Cl  Cl17  1  0.14659600  0.70012300  0.36774000  1
  Cl  Cl18  1  0.15966200  0.71462100  0.88169000  1
  Cl  Cl19  1  0.31023500  0.38337400  0.60173400  1
  Cl  Cl20  1  0.12419600  0.16173100  0.36222600  1
  Cl  Cl21  1  0.16173100  0.12419600  0.86222600  1
