# generated using pymatgen
data_TaCrO4
_symmetry_space_group_name_H-M   'P 1'
_cell_length_a   3.09363648
_cell_length_b   9.35744692
_cell_length_c   4.67859748
_cell_angle_alpha   91.14693228
_cell_angle_beta   90.01904120
_cell_angle_gamma   90.01686800
_symmetry_Int_Tables_number   1
_chemical_formula_structural   TaCrO4
_chemical_formula_sum   'Ta2 Cr2 O8'
_cell_volume   135.41141392
_cell_formula_units_Z   2
loop_
 _symmetry_equiv_pos_site_id
 _symmetry_equiv_pos_as_xyz
  1  'x, y, z'
loop_
 _atom_site_type_symbol
 _atom_site_label
 _atom_site_symmetry_multiplicity
 _atom_site_fract_x
 _atom_site_fract_y
 _atom_site_fract_z
 _atom_site_occupancy
  Ta  Ta0  1  0.49993600  0.00109700  0.00258600  1
  Ta  Ta1  1  0.49993600  0.50109800  0.00258700  1
  Cr  Cr2  1  0.99999200  0.75107400  0.50252200  1
  Cr  Cr3  1  0.99999200  0.25107400  0.50252300  1
  O  O4  1  0.00000200  0.40428200  0.19613100  1
  O  O5  1  0.00000200  0.90428100  0.19612800  1
  O  O6  1  0.99996200  0.09830100  0.80983000  1
  O  O7  1  0.99996200  0.59830300  0.80983300  1
  O  O8  1  0.50038300  0.35034000  0.70019700  1
  O  O9  1  0.50038300  0.85034000  0.70020000  1
  O  O10  1  0.49961800  0.15197300  0.30514500  1
  O  O11  1  0.49961800  0.65197300  0.30514100  1
