# generated using pymatgen
data_Te(WO4)3
_symmetry_space_group_name_H-M   'P 1'
_cell_length_a   5.25276900
_cell_length_b   5.38404023
_cell_length_c   7.51961172
_cell_angle_alpha   88.11719750
_cell_angle_beta   89.99286052
_cell_angle_gamma   89.98321791
_symmetry_Int_Tables_number   1
_chemical_formula_structural   Te(WO4)3
_chemical_formula_sum   'Te1 W3 O12'
_cell_volume   212.54821600
_cell_formula_units_Z   1
loop_
 _symmetry_equiv_pos_site_id
 _symmetry_equiv_pos_as_xyz
  1  'x, y, z'
loop_
 _atom_site_type_symbol
 _atom_site_label
 _atom_site_symmetry_multiplicity
 _atom_site_fract_x
 _atom_site_fract_y
 _atom_site_fract_z
 _atom_site_occupancy
  Te  Te0  1  0.49963300  0.50249600  0.50045200  1
  W  W1  1  0.00213500  0.00225100  0.51135900  1
  W  W2  1  0.49817600  0.52028800  0.00031500  1
  W  W3  1  0.00007300  0.02037600  0.01153700  1
  O  O4  1  0.70714300  0.21194300  0.54876800  1
  O  O5  1  0.91796700  0.00656100  0.25481600  1
  O  O6  1  0.70935000  0.79985900  0.96168000  1
  O  O7  1  0.79111400  0.71044300  0.54851300  1
  O  O8  1  0.20743100  0.71603600  0.04298200  1
  O  O9  1  0.59156100  0.50516800  0.25178000  1
  O  O10  1  0.40907600  0.50416200  0.75071500  1
  O  O11  1  0.79088900  0.29985600  0.96203600  1
  O  O12  1  0.20811900  0.29470200  0.45567200  1
  O  O13  1  0.29207600  0.21680600  0.04330000  1
  O  O14  1  0.08240500  0.00350800  0.75451200  1
  O  O15  1  0.29285300  0.79514700  0.45636500  1
