# generated using pymatgen
data_Ti3Mn3(TeO8)2
_symmetry_space_group_name_H-M   'P 1'
_cell_length_a   6.18352644
_cell_length_b   6.18352644
_cell_length_c   9.28623379
_cell_angle_alpha   87.51923484
_cell_angle_beta   87.51923484
_cell_angle_gamma   58.20916913
_symmetry_Int_Tables_number   1
_chemical_formula_structural   Ti3Mn3(TeO8)2
_chemical_formula_sum   'Ti3 Mn3 Te2 O16'
_cell_volume   301.42944672
_cell_formula_units_Z   1
loop_
 _symmetry_equiv_pos_site_id
 _symmetry_equiv_pos_as_xyz
  1  'x, y, z'
loop_
 _atom_site_type_symbol
 _atom_site_label
 _atom_site_symmetry_multiplicity
 _atom_site_fract_x
 _atom_site_fract_y
 _atom_site_fract_z
 _atom_site_occupancy
  Ti  Ti0  1  0.33872100  0.83739000  0.79298600  1
  Ti  Ti1  1  0.83739000  0.33872100  0.79298600  1
  Ti  Ti2  1  0.16646600  0.16646600  0.28545000  1
  Mn  Mn3  1  0.83071100  0.83071100  0.79727900  1
  Mn  Mn4  1  0.16914400  0.66222600  0.29571900  1
  Mn  Mn5  1  0.66222600  0.16914400  0.29571900  1
  Te  Te6  1  0.67063700  0.67063700  0.51255500  1
  Te  Te7  1  0.33525100  0.33525100  0.01298000  1
  O  O8  1  0.36735600  0.83647200  0.39587000  1
  O  O9  1  0.52613400  0.52613400  0.65417000  1
  O  O10  1  0.64566400  0.64566400  0.89737500  1
  O  O11  1  0.01240600  0.01240600  0.70863500  1
  O  O12  1  0.00363500  0.00363500  0.20970100  1
  O  O13  1  0.83647200  0.36735600  0.39587000  1
  O  O14  1  0.50704000  0.94871100  0.64980700  1
  O  O15  1  0.94871100  0.50704000  0.64980700  1
  O  O16  1  0.18338500  0.18338500  0.89206100  1
  O  O17  1  0.83233100  0.83233100  0.40801700  1
  O  O18  1  0.03994200  0.46140500  0.14748000  1
  O  O19  1  0.46140500  0.03994200  0.14748000  1
  O  O20  1  0.32918200  0.32918200  0.38722300  1
  O  O21  1  0.18626700  0.64856100  0.90023300  1
  O  O22  1  0.46922900  0.46922900  0.15493600  1
  O  O23  1  0.64856100  0.18626700  0.90023300  1
