# generated using pymatgen
data_ZrCrO4
_symmetry_space_group_name_H-M   'P 1'
_cell_length_a   4.76026501
_cell_length_b   11.85372402
_cell_length_c   4.93879501
_cell_angle_alpha   90.00408164
_cell_angle_beta   90.00315417
_cell_angle_gamma   89.99485756
_symmetry_Int_Tables_number   1
_chemical_formula_structural   ZrCrO4
_chemical_formula_sum   'Zr4 Cr4 O16'
_cell_volume   278.68072983
_cell_formula_units_Z   4
loop_
 _symmetry_equiv_pos_site_id
 _symmetry_equiv_pos_as_xyz
  1  'x, y, z'
loop_
 _atom_site_type_symbol
 _atom_site_label
 _atom_site_symmetry_multiplicity
 _atom_site_fract_x
 _atom_site_fract_y
 _atom_site_fract_z
 _atom_site_occupancy
  Zr  Zr0  1  0.99993000  0.17133000  0.25001800  1
  Zr  Zr1  1  0.99998900  0.82866500  0.74989600  1
  Zr  Zr2  1  0.49998400  0.67133700  0.25011000  1
  Zr  Zr3  1  0.50005700  0.32866400  0.75008100  1
  Cr  Cr4  1  0.00002900  0.43349900  0.25002400  1
  Cr  Cr5  1  0.00001800  0.56650200  0.74998900  1
  Cr  Cr6  1  0.50000300  0.06649300  0.75003700  1
  Cr  Cr7  1  0.49997400  0.93352000  0.25001300  1
  O  O8  1  0.22144400  0.31568800  0.41009300  1
  O  O9  1  0.22146000  0.68431100  0.91010900  1
  O  O10  1  0.27618700  0.05481400  0.43187300  1
  O  O11  1  0.27615600  0.94518700  0.93196200  1
  O  O12  1  0.22386600  0.44513700  0.93195600  1
  O  O13  1  0.22384000  0.55486100  0.43194500  1
  O  O14  1  0.27854700  0.18427900  0.91009100  1
  O  O15  1  0.27850600  0.81568300  0.41016600  1
  O  O16  1  0.72148900  0.18430000  0.58984400  1
  O  O17  1  0.72143300  0.81572800  0.08991300  1
  O  O18  1  0.77617600  0.44517400  0.56800900  1
  O  O19  1  0.77623200  0.55483400  0.06802800  1
  O  O20  1  0.72385000  0.05481600  0.06805400  1
  O  O21  1  0.72384000  0.94518000  0.56812600  1
  O  O22  1  0.77849800  0.68435800  0.58984400  1
  O  O23  1  0.77849600  0.31563700  0.08981800  1
