# generated using pymatgen
data_NbPHO5
_symmetry_space_group_name_H-M   'P 1'
_cell_length_a   5.45087126
_cell_length_b   7.72693029
_cell_length_c   5.36730337
_cell_angle_alpha   109.57607632
_cell_angle_beta   97.42070045
_cell_angle_gamma   106.24707760
_symmetry_Int_Tables_number   1
_chemical_formula_structural   NbPHO5
_chemical_formula_sum   'Nb2 P2 H2 O10'
_cell_volume   198.18422125
_cell_formula_units_Z   2
loop_
 _symmetry_equiv_pos_site_id
 _symmetry_equiv_pos_as_xyz
  1  'x, y, z'
loop_
 _atom_site_type_symbol
 _atom_site_label
 _atom_site_symmetry_multiplicity
 _atom_site_fract_x
 _atom_site_fract_y
 _atom_site_fract_z
 _atom_site_occupancy
  Nb  Nb0  1  0.00000000  0.50000000  0.00000000  1
  Nb  Nb1  1  0.00000000  0.00000000  0.00000000  1
  P  P2  1  0.35177800  0.22823200  0.67193700  1
  P  P3  1  0.64822200  0.77176800  0.32806300  1
  H  H4  1  0.02304700  0.33392300  0.36302600  1
  H  H5  1  0.97695300  0.66607700  0.63697400  1
  O  O6  1  0.03113700  0.71840000  0.83928400  1
  O  O7  1  0.19974100  0.37573100  0.72135900  1
  O  O8  1  0.35231700  0.65895700  0.27678800  1
  O  O9  1  0.24727200  0.07694500  0.37605700  1
  O  O10  1  0.31108000  0.12179300  0.87088600  1
  O  O11  1  0.68892000  0.87820700  0.12911400  1
  O  O12  1  0.75272800  0.92305500  0.62394300  1
  O  O13  1  0.64768300  0.34104300  0.72321200  1
  O  O14  1  0.80025900  0.62426900  0.27864100  1
  O  O15  1  0.96886300  0.28160000  0.16071600  1
