# generated using pymatgen
data_Li4Cr5Co3O16
_symmetry_space_group_name_H-M   'P 1'
_cell_length_a   5.70520791
_cell_length_b   5.70520791
_cell_length_c   9.31299394
_cell_angle_alpha   89.87034013
_cell_angle_beta   89.87034013
_cell_angle_gamma   60.44157130
_symmetry_Int_Tables_number   1
_chemical_formula_structural   Li4Cr5Co3O16
_chemical_formula_sum   'Li4 Cr5 Co3 O16'
_cell_volume   263.67969605
_cell_formula_units_Z   1
loop_
 _symmetry_equiv_pos_site_id
 _symmetry_equiv_pos_as_xyz
  1  'x, y, z'
loop_
 _atom_site_type_symbol
 _atom_site_label
 _atom_site_symmetry_multiplicity
 _atom_site_fract_x
 _atom_site_fract_y
 _atom_site_fract_z
 _atom_site_occupancy
  Li  Li0  1  0.32977200  0.32977200  0.10994900  1
  Li  Li1  1  0.00686400  0.00686400  0.00403700  1
  Li  Li2  1  0.00591800  0.00591800  0.50170100  1
  Li  Li3  1  0.66447900  0.66447900  0.60489500  1
  Cr  Cr4  1  0.17110300  0.65605100  0.78755600  1
  Cr  Cr5  1  0.33228700  0.33228700  0.50775600  1
  Cr  Cr6  1  0.65605100  0.17110300  0.78755600  1
  Cr  Cr7  1  0.82822300  0.82822300  0.28862400  1
  Cr  Cr8  1  0.66502600  0.66502600  0.01289700  1
  Co  Co9  1  0.17240000  0.17240000  0.78665000  1
  Co  Co10  1  0.34106800  0.83085100  0.28741100  1
  Co  Co11  1  0.83085100  0.34106800  0.28741100  1
  O  O12  1  0.16511700  0.66679000  0.39813000  1
  O  O13  1  0.47798200  0.47798200  0.65838300  1
  O  O14  1  0.33282500  0.33282500  0.90018300  1
  O  O15  1  0.00218200  0.00218200  0.69318300  1
  O  O16  1  0.00228700  0.00228700  0.19400400  1
  O  O17  1  0.66679000  0.16511700  0.39813000  1
  O  O18  1  0.04176700  0.47776500  0.65777500  1
  O  O19  1  0.47776500  0.04176700  0.65777500  1
  O  O20  1  0.83287000  0.83287000  0.89813700  1
  O  O21  1  0.16889400  0.16889400  0.39569400  1
  O  O22  1  0.52033800  0.95600700  0.15907200  1
  O  O23  1  0.95600700  0.52033800  0.15907200  1
  O  O24  1  0.66355000  0.66355000  0.39554600  1
  O  O25  1  0.33443800  0.83100900  0.89755200  1
  O  O26  1  0.52054600  0.52054600  0.16434600  1
  O  O27  1  0.83100900  0.33443800  0.89755200  1
