# generated using pymatgen
data_Mg(NiO2)4
_symmetry_space_group_name_H-M   'P 1'
_cell_length_a   10.42530315
_cell_length_b   10.42529848
_cell_length_c   14.83749300
_cell_angle_alpha   18.41136805
_cell_angle_beta   18.41140775
_cell_angle_gamma   31.74818721
_symmetry_Int_Tables_number   1
_chemical_formula_structural   Mg(NiO2)4
_chemical_formula_sum   'Mg1 Ni4 O8'
_cell_volume   139.31347590
_cell_formula_units_Z   1
loop_
 _symmetry_equiv_pos_site_id
 _symmetry_equiv_pos_as_xyz
  1  'x, y, z'
loop_
 _atom_site_type_symbol
 _atom_site_label
 _atom_site_symmetry_multiplicity
 _atom_site_fract_x
 _atom_site_fract_y
 _atom_site_fract_z
 _atom_site_occupancy
  Mg  Mg0  1  0.00000100  0.00000000  0.50000000  1
  Ni  Ni1  1  0.00000000  0.49999800  0.00000100  1
  Ni  Ni2  1  0.99999900  0.00000000  0.00000000  1
  Ni  Ni3  1  0.50000400  0.50000300  0.99999500  1
  Ni  Ni4  1  0.49999700  0.00000100  0.00000000  1
  O  O5  1  0.99999800  0.46076700  0.29108300  1
  O  O6  1  0.00000200  0.53923200  0.70891900  1
  O  O7  1  0.46077200  0.46077200  0.78737800  1
  O  O8  1  0.99999900  0.99999900  0.26931300  1
  O  O9  1  0.00000100  0.00000000  0.73068900  1
  O  O10  1  0.53922900  0.53922900  0.21262000  1
  O  O11  1  0.53923100  0.00000200  0.70891900  1
  O  O12  1  0.46076700  0.99999800  0.29108300  1
