# generated using pymatgen
data_Sr3W2O9
_symmetry_space_group_name_H-M   'P 1'
_cell_length_a   7.34782108
_cell_length_b   7.34782108
_cell_length_c   7.34782058
_cell_angle_alpha   84.88825458
_cell_angle_beta   84.88825458
_cell_angle_gamma   84.88825923
_symmetry_Int_Tables_number   1
_chemical_formula_structural   Sr3W2O9
_chemical_formula_sum   'Sr6 W4 O18'
_cell_volume   392.24378127
_cell_formula_units_Z   2
loop_
 _symmetry_equiv_pos_site_id
 _symmetry_equiv_pos_as_xyz
  1  'x, y, z'
loop_
 _atom_site_type_symbol
 _atom_site_label
 _atom_site_symmetry_multiplicity
 _atom_site_fract_x
 _atom_site_fract_y
 _atom_site_fract_z
 _atom_site_occupancy
  Sr  Sr0  1  0.92337200  0.25000000  0.57662800  1
  Sr  Sr1  1  0.42337200  0.07662800  0.75000000  1
  Sr  Sr2  1  0.75000000  0.42337200  0.07662800  1
  Sr  Sr3  1  0.25000000  0.57662800  0.92337200  1
  Sr  Sr4  1  0.57662800  0.92337200  0.25000000  1
  Sr  Sr5  1  0.07662800  0.75000000  0.42337200  1
  W  W6  1  0.85654000  0.85654000  0.85654000  1
  W  W7  1  0.35654000  0.35654000  0.35654000  1
  W  W8  1  0.14346000  0.14346000  0.14346000  1
  W  W9  1  0.64346000  0.64346000  0.64346000  1
  O  O10  1  0.91958400  0.08415900  0.25720600  1
  O  O11  1  0.74279400  0.08041600  0.91584100  1
  O  O12  1  0.90127100  0.59872900  0.75000000  1
  O  O13  1  0.58041600  0.24279400  0.41584100  1
  O  O14  1  0.25000000  0.09872900  0.40127100  1
  O  O15  1  0.40127100  0.25000000  0.09872900  1
  O  O16  1  0.58415900  0.41958400  0.75720600  1
  O  O17  1  0.75720600  0.58415900  0.41958400  1
  O  O18  1  0.91584100  0.74279400  0.08041600  1
  O  O19  1  0.08415900  0.25720600  0.91958400  1
  O  O20  1  0.24279400  0.41584100  0.58041600  1
  O  O21  1  0.75000000  0.90127100  0.59872900  1
  O  O22  1  0.41584100  0.58041600  0.24279400  1
  O  O23  1  0.59872900  0.75000000  0.90127100  1
  O  O24  1  0.41958400  0.75720600  0.58415900  1
  O  O25  1  0.09872900  0.40127100  0.25000000  1
  O  O26  1  0.25720600  0.91958400  0.08415900  1
  O  O27  1  0.08041600  0.91584100  0.74279400  1
