# generated using pymatgen
data_AlGaRu2
_symmetry_space_group_name_H-M   'P 1'
_cell_length_a   10.06798807
_cell_length_b   10.06798807
_cell_length_c   10.06798807
_cell_angle_alpha   122.21315992
_cell_angle_beta   119.28196854
_cell_angle_gamma   88.72915568
_symmetry_Int_Tables_number   1
_chemical_formula_structural   AlGaRu2
_chemical_formula_sum   'Al1 Ga1 Ru2'
_cell_volume   712.68337373
_cell_formula_units_Z   1
loop_
 _symmetry_equiv_pos_site_id
 _symmetry_equiv_pos_as_xyz
  1  'x, y, z'
loop_
 _atom_site_type_symbol
 _atom_site_label
 _atom_site_symmetry_multiplicity
 _atom_site_fract_x
 _atom_site_fract_y
 _atom_site_fract_z
 _atom_site_occupancy
  Al  Al0  1  0.00000000  0.00000000  0.00000000  1
  Ga  Ga1  1  0.00000000  0.50000000  0.50000000  1
  Ru  Ru2  1  0.00000000  0.24894800  0.24894800  1
  Ru  Ru3  1  0.00000000  0.75105200  0.75105200  1
