# generated using pymatgen
data_SrLu2O4
_symmetry_space_group_name_H-M   'P 1'
_cell_length_a   6.81416319
_cell_length_b   6.81416319
_cell_length_c   6.81416319
_cell_angle_alpha   60.00000000
_cell_angle_beta   60.00000000
_cell_angle_gamma   60.00000000
_symmetry_Int_Tables_number   1
_chemical_formula_structural   SrLu2O4
_chemical_formula_sum   'Sr2 Lu4 O8'
_cell_volume   223.72916028
_cell_formula_units_Z   2
loop_
 _symmetry_equiv_pos_site_id
 _symmetry_equiv_pos_as_xyz
  1  'x, y, z'
loop_
 _atom_site_type_symbol
 _atom_site_label
 _atom_site_symmetry_multiplicity
 _atom_site_fract_x
 _atom_site_fract_y
 _atom_site_fract_z
 _atom_site_occupancy
  Sr  Sr0  1  0.50000000  0.50000000  0.50000000  1
  Sr  Sr1  1  0.75000000  0.75000000  0.75000000  1
  Lu  Lu2  1  0.12500000  0.12500000  0.62500000  1
  Lu  Lu3  1  0.12500000  0.62500000  0.12500000  1
  Lu  Lu4  1  0.12500000  0.12500000  0.12500000  1
  Lu  Lu5  1  0.62500000  0.12500000  0.12500000  1
  O  O6  1  0.32013000  0.89329000  0.89329000  1
  O  O7  1  0.35671000  0.92987000  0.35671000  1
  O  O8  1  0.35671000  0.35671000  0.35671000  1
  O  O9  1  0.89329000  0.89329000  0.32013000  1
  O  O10  1  0.35671000  0.35671000  0.92987000  1
  O  O11  1  0.89329000  0.89329000  0.89329000  1
  O  O12  1  0.89329000  0.32013000  0.89329000  1
  O  O13  1  0.92987000  0.35671000  0.35671000  1
