# generated using pymatgen
data_Ta2FeRe
_symmetry_space_group_name_H-M   'P 1'
_cell_length_a   9.97703387
_cell_length_b   9.97703387
_cell_length_c   9.97703387
_cell_angle_alpha   124.92274239
_cell_angle_beta   118.25621665
_cell_angle_gamma   87.36996724
_symmetry_Int_Tables_number   1
_chemical_formula_structural   Ta2FeRe
_chemical_formula_sum   'Ta2 Fe1 Re1'
_cell_volume   681.51965205
_cell_formula_units_Z   1
loop_
 _symmetry_equiv_pos_site_id
 _symmetry_equiv_pos_as_xyz
  1  'x, y, z'
loop_
 _atom_site_type_symbol
 _atom_site_label
 _atom_site_symmetry_multiplicity
 _atom_site_fract_x
 _atom_site_fract_y
 _atom_site_fract_z
 _atom_site_occupancy
  Ta  Ta0  1  0.00000000  0.24629900  0.24629900  1
  Ta  Ta1  1  0.00000000  0.75370100  0.75370100  1
  Fe  Fe2  1  0.00000000  0.00000000  0.00000000  1
  Re  Re3  1  0.00000000  0.50000000  0.50000000  1
