# generated using pymatgen
data_Mn3Fe2Sb3O16
_symmetry_space_group_name_H-M   'P 1'
_cell_length_a   6.09129334
_cell_length_b   6.09129334
_cell_length_c   9.13789516
_cell_angle_alpha   89.46674737
_cell_angle_beta   89.46674737
_cell_angle_gamma   59.32973199
_symmetry_Int_Tables_number   1
_chemical_formula_structural   Mn3Fe2Sb3O16
_chemical_formula_sum   'Mn3 Fe2 Sb3 O16'
_cell_volume   291.60694459
_cell_formula_units_Z   1
loop_
 _symmetry_equiv_pos_site_id
 _symmetry_equiv_pos_as_xyz
  1  'x, y, z'
loop_
 _atom_site_type_symbol
 _atom_site_label
 _atom_site_symmetry_multiplicity
 _atom_site_fract_x
 _atom_site_fract_y
 _atom_site_fract_z
 _atom_site_occupancy
  Mn  Mn0  1  0.83022500  0.83022500  0.21400300  1
  Mn  Mn1  1  0.66178300  0.16619100  0.71029000  1
  Mn  Mn2  1  0.16619100  0.66178300  0.71029000  1
  Fe  Fe3  1  0.67391900  0.67391900  0.49852800  1
  Fe  Fe4  1  0.34374800  0.34374800  0.99059800  1
  Sb  Sb5  1  0.82957200  0.33471900  0.21153100  1
  Sb  Sb6  1  0.33471900  0.82957200  0.21153100  1
  Sb  Sb7  1  0.16542700  0.16542700  0.71175300  1
  O  O8  1  0.83337400  0.33111300  0.60426500  1
  O  O9  1  0.51892800  0.51892800  0.34417900  1
  O  O10  1  0.65296500  0.65296500  0.08758500  1
  O  O11  1  0.00999100  0.00999100  0.32597200  1
  O  O12  1  0.99324700  0.99324700  0.81412900  1
  O  O13  1  0.33111300  0.83337400  0.60426500  1
  O  O14  1  0.95369200  0.52093800  0.33498900  1
  O  O15  1  0.52093800  0.95369200  0.33498900  1
  O  O16  1  0.16550700  0.16550700  0.09497500  1
  O  O17  1  0.83642900  0.83642900  0.60533100  1
  O  O18  1  0.48412600  0.04529100  0.83501200  1
  O  O19  1  0.04529100  0.48412600  0.83501200  1
  O  O20  1  0.33697600  0.33697600  0.60059500  1
  O  O21  1  0.67091800  0.16588000  0.10447200  1
  O  O22  1  0.47552700  0.47552700  0.82694100  1
  O  O23  1  0.16588000  0.67091800  0.10447200  1
