# generated using pymatgen
data_TaMn2Ga
_symmetry_space_group_name_H-M   'P 1'
_cell_length_a   10.64900697
_cell_length_b   10.64900697
_cell_length_c   10.64900697
_cell_angle_alpha   126.73903247
_cell_angle_beta   107.71684886
_cell_angle_gamma   95.59612501
_symmetry_Int_Tables_number   1
_chemical_formula_structural   TaMn2Ga
_chemical_formula_sum   'Ta1 Mn2 Ga1'
_cell_volume   857.80701102
_cell_formula_units_Z   1
loop_
 _symmetry_equiv_pos_site_id
 _symmetry_equiv_pos_as_xyz
  1  'x, y, z'
loop_
 _atom_site_type_symbol
 _atom_site_label
 _atom_site_symmetry_multiplicity
 _atom_site_fract_x
 _atom_site_fract_y
 _atom_site_fract_z
 _atom_site_occupancy
  Ta  Ta0  1  0.00000000  0.50000000  0.50000000  1
  Mn  Mn1  1  0.00000000  0.26245400  0.26245400  1
  Mn  Mn2  1  0.00000000  0.73754600  0.73754600  1
  Ga  Ga3  1  0.00000000  0.00000000  0.00000000  1
