# generated using pymatgen
data_NaSr2Mg
_symmetry_space_group_name_H-M   'P 1'
_cell_length_a   14.46866194
_cell_length_b   14.46866194
_cell_length_c   14.46866194
_cell_angle_alpha   121.11809822
_cell_angle_beta   119.96692791
_cell_angle_gamma   89.06581925
_symmetry_Int_Tables_number   1
_chemical_formula_structural   NaSr2Mg
_chemical_formula_sum   'Na1 Sr2 Mg1'
_cell_volume   2123.61447032
_cell_formula_units_Z   1
loop_
 _symmetry_equiv_pos_site_id
 _symmetry_equiv_pos_as_xyz
  1  'x, y, z'
loop_
 _atom_site_type_symbol
 _atom_site_label
 _atom_site_symmetry_multiplicity
 _atom_site_fract_x
 _atom_site_fract_y
 _atom_site_fract_z
 _atom_site_occupancy
  Na  Na0  1  0.00000000  0.00000000  0.00000000  1
  Sr  Sr1  1  0.00000000  0.26137400  0.26137400  1
  Sr  Sr2  1  0.00000000  0.73862600  0.73862600  1
  Mg  Mg3  1  0.00000000  0.50000000  0.50000000  1
