# generated using pymatgen
data_MnSi2Tc
_symmetry_space_group_name_H-M   'P 1'
_cell_length_a   9.86508146
_cell_length_b   9.86508146
_cell_length_c   9.86508146
_cell_angle_alpha   122.79558337
_cell_angle_beta   119.11501936
_cell_angle_gamma   88.38359622
_symmetry_Int_Tables_number   1
_chemical_formula_structural   MnSi2Tc
_chemical_formula_sum   'Mn1 Si2 Tc1'
_cell_volume   667.88578443
_cell_formula_units_Z   1
loop_
 _symmetry_equiv_pos_site_id
 _symmetry_equiv_pos_as_xyz
  1  'x, y, z'
loop_
 _atom_site_type_symbol
 _atom_site_label
 _atom_site_symmetry_multiplicity
 _atom_site_fract_x
 _atom_site_fract_y
 _atom_site_fract_z
 _atom_site_occupancy
  Mn  Mn0  1  0.00000000  0.00000000  0.00000000  1
  Si  Si1  1  0.00000000  0.25115300  0.25115300  1
  Si  Si2  1  0.00000000  0.74884700  0.74884700  1
  Tc  Tc3  1  0.00000000  0.50000000  0.50000000  1
