# generated using pymatgen
data_V4SnO12
_symmetry_space_group_name_H-M   'P 1'
_cell_length_a   6.92478617
_cell_length_b   6.92478617
_cell_length_c   5.98518651
_cell_angle_alpha   74.50036188
_cell_angle_beta   74.50036188
_cell_angle_gamma   83.00529966
_symmetry_Int_Tables_number   1
_chemical_formula_structural   V4SnO12
_chemical_formula_sum   'V4 Sn1 O12'
_cell_volume   266.11738486
_cell_formula_units_Z   1
loop_
 _symmetry_equiv_pos_site_id
 _symmetry_equiv_pos_as_xyz
  1  'x, y, z'
loop_
 _atom_site_type_symbol
 _atom_site_label
 _atom_site_symmetry_multiplicity
 _atom_site_fract_x
 _atom_site_fract_y
 _atom_site_fract_z
 _atom_site_occupancy
  V  V0  1  0.79518500  0.61306900  0.01109400  1
  V  V1  1  0.60916300  0.78772900  0.52412600  1
  V  V2  1  0.38693100  0.20481500  0.98890600  1
  V  V3  1  0.21227100  0.39083700  0.47587400  1
  Sn  Sn4  1  0.08213400  0.91786600  0.50000000  1
  O  O5  1  0.97338500  0.78894800  0.85575700  1
  O  O6  1  0.90992200  0.39272200  0.05442000  1
  O  O7  1  0.79131900  0.95640500  0.44488800  1
  O  O8  1  0.64069600  0.62863500  0.80087600  1
  O  O9  1  0.60727800  0.09007800  0.94558000  1
  O  O10  1  0.64987500  0.65072900  0.30435000  1
  O  O11  1  0.37136500  0.35930400  0.19912400  1
  O  O12  1  0.37163800  0.90317600  0.55780300  1
  O  O13  1  0.34927100  0.35012500  0.69565000  1
  O  O14  1  0.21105200  0.02661500  0.14424300  1
  O  O15  1  0.09682400  0.62836200  0.44219700  1
  O  O16  1  0.04359500  0.20868100  0.55511200  1
