# generated using pymatgen
data_Li5Mn3V2O10
_symmetry_space_group_name_H-M   'P 1'
_cell_length_a   5.25355162
_cell_length_b   7.88557400
_cell_length_c   10.40330192
_cell_angle_alpha   100.52573897
_cell_angle_beta   101.85068169
_cell_angle_gamma   107.71632314
_symmetry_Int_Tables_number   1
_chemical_formula_structural   Li5Mn3V2O10
_chemical_formula_sum   'Li10 Mn6 V4 O20'
_cell_volume   387.64822417
_cell_formula_units_Z   2
loop_
 _symmetry_equiv_pos_site_id
 _symmetry_equiv_pos_as_xyz
  1  'x, y, z'
loop_
 _atom_site_type_symbol
 _atom_site_label
 _atom_site_symmetry_multiplicity
 _atom_site_fract_x
 _atom_site_fract_y
 _atom_site_fract_z
 _atom_site_occupancy
  Li  Li0  1  0.49997900  0.49999700  0.24999700  1
  Li  Li1  1  0.49991700  0.49997100  0.74999100  1
  Li  Li2  1  0.90057700  0.39742800  0.10040700  1
  Li  Li3  1  0.90061600  0.39752600  0.60044600  1
  Li  Li4  1  0.09933700  0.60257300  0.39961300  1
  Li  Li5  1  0.09928400  0.60249000  0.89956500  1
  Li  Li6  1  0.29118900  0.77683600  0.19042400  1
  Li  Li7  1  0.29111000  0.77692500  0.69045500  1
  Li  Li8  1  0.70890400  0.22310300  0.30954700  1
  Li  Li9  1  0.70878900  0.22306300  0.80953000  1
  Mn  Mn10  1  0.49998500  0.99999000  0.49990000  1
  Mn  Mn11  1  0.89102900  0.90032800  0.84716400  1
  Mn  Mn12  1  0.10893900  0.09920000  0.15262000  1
  Mn  Mn13  1  0.50037000  0.00030000  0.00015800  1
  Mn  Mn14  1  0.89173400  0.90060100  0.34724800  1
  Mn  Mn15  1  0.10869000  0.09937700  0.65290600  1
  V  V16  1  0.70493300  0.68735400  0.55168000  1
  V  V17  1  0.29492100  0.31276500  0.44824800  1
  V  V18  1  0.70487000  0.68740300  0.05171300  1
  V  V19  1  0.29485400  0.31253000  0.94822700  1
  O  O20  1  0.07032300  0.83236000  0.02503900  1
  O  O21  1  0.07035100  0.83242200  0.52506300  1
  O  O22  1  0.92967200  0.16756600  0.47494100  1
  O  O23  1  0.92965400  0.16750000  0.97493200  1
  O  O24  1  0.68495500  0.93581300  0.16027700  1
  O  O25  1  0.68484800  0.93583400  0.66030000  1
  O  O26  1  0.31527600  0.06428000  0.33974300  1
  O  O27  1  0.31506400  0.06423200  0.83978400  1
  O  O28  1  0.32736100  0.54078600  0.06886800  1
  O  O29  1  0.32737000  0.54078300  0.56882000  1
  O  O30  1  0.67257000  0.45928400  0.43115100  1
  O  O31  1  0.67252400  0.45923000  0.93116000  1
  O  O32  1  0.49333200  0.23699500  0.10528200  1
  O  O33  1  0.49327400  0.23702600  0.60531800  1
  O  O34  1  0.50686900  0.76320600  0.39478900  1
  O  O35  1  0.50666600  0.76305900  0.89476400  1
  O  O36  1  0.88311500  0.65431300  0.21057400  1
  O  O37  1  0.88309300  0.65430100  0.71054500  1
  O  O38  1  0.11687000  0.34561200  0.28940500  1
  O  O39  1  0.11678600  0.34563900  0.78941100  1
