# generated using pymatgen
data_CaLaGa2
_symmetry_space_group_name_H-M   'P 1'
_cell_length_a   14.38353338
_cell_length_b   14.38353338
_cell_length_c   14.38353338
_cell_angle_alpha   131.48742874
_cell_angle_beta   118.97861205
_cell_angle_gamma   81.55043283
_symmetry_Int_Tables_number   1
_chemical_formula_structural   CaLaGa2
_chemical_formula_sum   'Ca1 La1 Ga2'
_cell_volume   1880.04704937
_cell_formula_units_Z   1
loop_
 _symmetry_equiv_pos_site_id
 _symmetry_equiv_pos_as_xyz
  1  'x, y, z'
loop_
 _atom_site_type_symbol
 _atom_site_label
 _atom_site_symmetry_multiplicity
 _atom_site_fract_x
 _atom_site_fract_y
 _atom_site_fract_z
 _atom_site_occupancy
  Ca  Ca0  1  0.00000000  0.00000000  0.00000000  1
  La  La1  1  0.00000000  0.50000000  0.50000000  1
  Ga  Ga2  1  0.00000000  0.25778100  0.25778100  1
  Ga  Ga3  1  0.00000000  0.74221900  0.74221900  1
