# generated using pymatgen
data_Sc2NiPd
_symmetry_space_group_name_H-M   'P 1'
_cell_length_a   11.59974052
_cell_length_b   11.59974052
_cell_length_c   11.59974052
_cell_angle_alpha   131.89725497
_cell_angle_beta   118.69041266
_cell_angle_gamma   81.49628069
_symmetry_Int_Tables_number   1
_chemical_formula_structural   Sc2NiPd
_chemical_formula_sum   'Sc2 Ni1 Pd1'
_cell_volume   982.82983990
_cell_formula_units_Z   1
loop_
 _symmetry_equiv_pos_site_id
 _symmetry_equiv_pos_as_xyz
  1  'x, y, z'
loop_
 _atom_site_type_symbol
 _atom_site_label
 _atom_site_symmetry_multiplicity
 _atom_site_fract_x
 _atom_site_fract_y
 _atom_site_fract_z
 _atom_site_occupancy
  Sc  Sc0  1  0.00000000  0.23857100  0.23857100  1
  Sc  Sc1  1  0.00000000  0.76142900  0.76142900  1
  Ni  Ni2  1  0.00000000  0.00000000  0.00000000  1
  Pd  Pd3  1  0.00000000  0.50000000  0.50000000  1
