# generated using pymatgen
data_AlCoO3
_symmetry_space_group_name_H-M   'P 1'
_cell_length_a   6.36788968
_cell_length_b   6.36788968
_cell_length_c   5.03023360
_cell_angle_alpha   82.35712921
_cell_angle_beta   82.35712921
_cell_angle_gamma   84.50423859
_symmetry_Int_Tables_number   1
_chemical_formula_structural   AlCoO3
_chemical_formula_sum   'Al4 Co4 O12'
_cell_volume   199.73401558
_cell_formula_units_Z   4
loop_
 _symmetry_equiv_pos_site_id
 _symmetry_equiv_pos_as_xyz
  1  'x, y, z'
loop_
 _atom_site_type_symbol
 _atom_site_label
 _atom_site_symmetry_multiplicity
 _atom_site_fract_x
 _atom_site_fract_y
 _atom_site_fract_z
 _atom_site_occupancy
  Al  Al0  1  0.78633500  0.60054700  0.19673400  1
  Al  Al1  1  0.60054700  0.78633500  0.69673400  1
  Al  Al2  1  0.39945300  0.21366500  0.30326600  1
  Al  Al3  1  0.21366500  0.39945300  0.80326600  1
  Co  Co4  1  0.91341100  0.08658900  0.25000000  1
  Co  Co5  1  0.73096900  0.26903100  0.75000000  1
  Co  Co6  1  0.26903100  0.73096900  0.25000000  1
  Co  Co7  1  0.08658900  0.91341100  0.75000000  1
  O  O8  1  0.97217700  0.80717600  0.11620600  1
  O  O9  1  0.86174800  0.35647800  0.39039400  1
  O  O10  1  0.80717600  0.97217700  0.61620600  1
  O  O11  1  0.71836400  0.56008900  0.88049800  1
  O  O12  1  0.56008900  0.71836400  0.38049800  1
  O  O13  1  0.64352200  0.13825200  0.10960600  1
  O  O14  1  0.35647800  0.86174800  0.89039400  1
  O  O15  1  0.43991100  0.28163600  0.61950200  1
  O  O16  1  0.28163600  0.43991100  0.11950200  1
  O  O17  1  0.19282400  0.02782300  0.38379400  1
  O  O18  1  0.13825200  0.64352200  0.60960600  1
  O  O19  1  0.02782300  0.19282400  0.88379400  1
