# generated using pymatgen
data_CrCo5O12
_symmetry_space_group_name_H-M   'P 1'
_cell_length_a   4.92381421
_cell_length_b   4.92381421
_cell_length_c   9.79612993
_cell_angle_alpha   89.95723697
_cell_angle_beta   89.95723697
_cell_angle_gamma   120.05065246
_symmetry_Int_Tables_number   1
_chemical_formula_structural   CrCo5O12
_chemical_formula_sum   'Cr1 Co5 O12'
_cell_volume   205.57301478
_cell_formula_units_Z   1
loop_
 _symmetry_equiv_pos_site_id
 _symmetry_equiv_pos_as_xyz
  1  'x, y, z'
loop_
 _atom_site_type_symbol
 _atom_site_label
 _atom_site_symmetry_multiplicity
 _atom_site_fract_x
 _atom_site_fract_y
 _atom_site_fract_z
 _atom_site_occupancy
  Cr  Cr0  1  0.00000000  0.00000000  0.00000000  1
  Co  Co1  1  0.83337900  0.16662100  0.50000000  1
  Co  Co2  1  0.33339900  0.66660100  0.00000000  1
  Co  Co3  1  0.66660100  0.33339900  0.00000000  1
  Co  Co4  1  0.16662100  0.83337900  0.50000000  1
  Co  Co5  1  0.50000000  0.50000000  0.50000000  1
  O  O6  1  0.99962400  0.34018000  0.90157800  1
  O  O7  1  0.65982000  0.00037600  0.09842200  1
  O  O8  1  0.83312400  0.49987500  0.59684300  1
  O  O9  1  0.49987500  0.83312400  0.59684300  1
  O  O10  1  0.50012500  0.16687600  0.40315700  1
  O  O11  1  0.83354800  0.83354800  0.40315400  1
  O  O12  1  0.16687600  0.50012500  0.40315700  1
  O  O13  1  0.34018000  0.99962400  0.90157800  1
  O  O14  1  0.65991900  0.65991900  0.90169600  1
  O  O15  1  0.00037600  0.65982000  0.09842200  1
  O  O16  1  0.34008100  0.34008100  0.09830400  1
  O  O17  1  0.16645200  0.16645200  0.59684600  1
