# generated using pymatgen
data_Cs3ErO3
_symmetry_space_group_name_H-M   'P 1'
_cell_length_a   7.59831074
_cell_length_b   7.59831074
_cell_length_c   7.63076953
_cell_angle_alpha   83.97567282
_cell_angle_beta   83.97567282
_cell_angle_gamma   116.33012335
_symmetry_Int_Tables_number   1
_chemical_formula_structural   Cs3ErO3
_chemical_formula_sum   'Cs6 Er2 O6'
_cell_volume   386.95629521
_cell_formula_units_Z   2
loop_
 _symmetry_equiv_pos_site_id
 _symmetry_equiv_pos_as_xyz
  1  'x, y, z'
loop_
 _atom_site_type_symbol
 _atom_site_label
 _atom_site_symmetry_multiplicity
 _atom_site_fract_x
 _atom_site_fract_y
 _atom_site_fract_z
 _atom_site_occupancy
  Cs  Cs0  1  0.79104400  0.20895600  0.50000000  1
  Cs  Cs1  1  0.73820200  0.26179800  0.00000000  1
  Cs  Cs2  1  0.64079900  0.64079900  0.65019300  1
  Cs  Cs3  1  0.35920100  0.35920100  0.34980700  1
  Cs  Cs4  1  0.26179800  0.73820200  0.00000000  1
  Cs  Cs5  1  0.20895600  0.79104400  0.50000000  1
  Er  Er6  1  0.82930500  0.82930500  0.14846800  1
  Er  Er7  1  0.17069500  0.17069500  0.85153200  1
  O  O8  1  0.83555000  0.56752400  0.26449500  1
  O  O9  1  0.90087800  0.90087800  0.85800400  1
  O  O10  1  0.43247600  0.16445000  0.73550500  1
  O  O11  1  0.56752400  0.83555000  0.26449500  1
  O  O12  1  0.09912200  0.09912200  0.14199600  1
  O  O13  1  0.16445000  0.43247600  0.73550500  1
