# generated using pymatgen
data_Ti2GaTc
_symmetry_space_group_name_H-M   'P 1'
_cell_length_a   10.56972356
_cell_length_b   10.56972356
_cell_length_c   10.56972356
_cell_angle_alpha   125.99364934
_cell_angle_beta   118.44325622
_cell_angle_gamma   86.33149498
_symmetry_Int_Tables_number   1
_chemical_formula_structural   Ti2GaTc
_chemical_formula_sum   'Ti2 Ga1 Tc1'
_cell_volume   800.43960442
_cell_formula_units_Z   1
loop_
 _symmetry_equiv_pos_site_id
 _symmetry_equiv_pos_as_xyz
  1  'x, y, z'
loop_
 _atom_site_type_symbol
 _atom_site_label
 _atom_site_symmetry_multiplicity
 _atom_site_fract_x
 _atom_site_fract_y
 _atom_site_fract_z
 _atom_site_occupancy
  Ti  Ti0  1  0.00000000  0.28047100  0.28047100  1
  Ti  Ti1  1  0.00000000  0.71952900  0.71952900  1
  Ga  Ga2  1  0.00000000  0.00000000  0.00000000  1
  Tc  Tc3  1  0.00000000  0.50000000  0.50000000  1
