# generated using pymatgen
data_Mn3NiO8
_symmetry_space_group_name_H-M   'P 1'
_cell_length_a   5.72022769
_cell_length_b   5.72022769
_cell_length_c   5.72022746
_cell_angle_alpha   60.78785639
_cell_angle_beta   60.78785639
_cell_angle_gamma   60.78786829
_symmetry_Int_Tables_number   1
_chemical_formula_structural   Mn3NiO8
_chemical_formula_sum   'Mn3 Ni1 O8'
_cell_volume   134.70239917
_cell_formula_units_Z   1
loop_
 _symmetry_equiv_pos_site_id
 _symmetry_equiv_pos_as_xyz
  1  'x, y, z'
loop_
 _atom_site_type_symbol
 _atom_site_label
 _atom_site_symmetry_multiplicity
 _atom_site_fract_x
 _atom_site_fract_y
 _atom_site_fract_z
 _atom_site_occupancy
  Mn  Mn0  1  0.00000000  0.50000000  0.00000000  1
  Mn  Mn1  1  0.00000000  0.00000000  0.50000000  1
  Mn  Mn2  1  0.50000000  0.00000000  0.00000000  1
  Ni  Ni3  1  0.00000000  0.00000000  0.00000000  1
  O  O4  1  0.76670400  0.76670400  0.20623200  1
  O  O5  1  0.20623200  0.76670400  0.76670400  1
  O  O6  1  0.76670400  0.20623200  0.76670400  1
  O  O7  1  0.76266100  0.76266100  0.76266100  1
  O  O8  1  0.23733900  0.23733900  0.23733900  1
  O  O9  1  0.23329600  0.79376800  0.23329600  1
  O  O10  1  0.79376800  0.23329600  0.23329600  1
  O  O11  1  0.23329600  0.23329600  0.79376800  1
