# generated using pymatgen
data_BaSnHg2
_symmetry_space_group_name_H-M   'P 1'
_cell_length_a   13.40639098
_cell_length_b   13.40639098
_cell_length_c   13.40639098
_cell_angle_alpha   123.68803006
_cell_angle_beta   118.72168522
_cell_angle_gamma   87.98127826
_symmetry_Int_Tables_number   1
_chemical_formula_structural   BaSnHg2
_chemical_formula_sum   'Ba1 Sn1 Hg2'
_cell_volume   1667.54866270
_cell_formula_units_Z   1
loop_
 _symmetry_equiv_pos_site_id
 _symmetry_equiv_pos_as_xyz
  1  'x, y, z'
loop_
 _atom_site_type_symbol
 _atom_site_label
 _atom_site_symmetry_multiplicity
 _atom_site_fract_x
 _atom_site_fract_y
 _atom_site_fract_z
 _atom_site_occupancy
  Ba  Ba0  1  0.00000000  0.50000000  0.50000000  1
  Sn  Sn1  1  0.00000000  0.00000000  0.00000000  1
  Hg  Hg2  1  0.00000000  0.22851500  0.22851500  1
  Hg  Hg3  1  0.00000000  0.77148500  0.77148500  1
