# generated using pymatgen
data_BaCaI4
_symmetry_space_group_name_H-M   'P 1'
_cell_length_a   9.80306780
_cell_length_b   9.80306780
_cell_length_c   9.80306811
_cell_angle_alpha   34.17215111
_cell_angle_beta   34.17215111
_cell_angle_gamma   34.17215031
_symmetry_Int_Tables_number   1
_chemical_formula_structural   BaCaI4
_chemical_formula_sum   'Ba1 Ca1 I4'
_cell_volume   265.00354265
_cell_formula_units_Z   1
loop_
 _symmetry_equiv_pos_site_id
 _symmetry_equiv_pos_as_xyz
  1  'x, y, z'
loop_
 _atom_site_type_symbol
 _atom_site_label
 _atom_site_symmetry_multiplicity
 _atom_site_fract_x
 _atom_site_fract_y
 _atom_site_fract_z
 _atom_site_occupancy
  Ba  Ba0  1  0.00000000  0.00000000  0.00000000  1
  Ca  Ca1  1  0.50000000  0.50000000  0.50000000  1
  I  I2  1  0.61893400  0.61893400  0.61893400  1
  I  I3  1  0.86912000  0.86912000  0.86912000  1
  I  I4  1  0.13088000  0.13088000  0.13088000  1
  I  I5  1  0.38106600  0.38106600  0.38106600  1
