# generated using pymatgen
data_MnV3Ni2(PO4)6
_symmetry_space_group_name_H-M   'P 1'
_cell_length_a   8.47950031
_cell_length_b   8.47950031
_cell_length_c   8.47950028
_cell_angle_alpha   61.39974871
_cell_angle_beta   61.39974871
_cell_angle_gamma   61.39975122
_symmetry_Int_Tables_number   1
_chemical_formula_structural   MnV3Ni2(PO4)6
_chemical_formula_sum   'Mn1 V3 Ni2 P6 O24'
_cell_volume   444.67317044
_cell_formula_units_Z   1
loop_
 _symmetry_equiv_pos_site_id
 _symmetry_equiv_pos_as_xyz
  1  'x, y, z'
loop_
 _atom_site_type_symbol
 _atom_site_label
 _atom_site_symmetry_multiplicity
 _atom_site_fract_x
 _atom_site_fract_y
 _atom_site_fract_z
 _atom_site_occupancy
  Mn  Mn0  1  0.85674100  0.85674100  0.85674100  1
  V  V1  1  0.35636500  0.35636500  0.35636500  1
  V  V2  1  0.14213000  0.14213000  0.14213000  1
  V  V3  1  0.64327200  0.64327200  0.64327200  1
  Ni  Ni4  1  0.99884900  0.99884900  0.99884900  1
  Ni  Ni5  1  0.49879900  0.49879900  0.49879900  1
  P  P6  1  0.75228400  0.04622800  0.45256600  1
  P  P7  1  0.04622800  0.45256600  0.75228400  1
  P  P8  1  0.45256600  0.75228400  0.04622800  1
  P  P9  1  0.54227400  0.25298300  0.95668700  1
  P  P10  1  0.95668700  0.54227400  0.25298300  1
  P  P11  1  0.25298300  0.95668700  0.54227400  1
  O  O12  1  0.88120200  0.49622700  0.68865100  1
  O  O13  1  0.49622700  0.68865100  0.88120200  1
  O  O14  1  0.68865100  0.88120200  0.49622700  1
  O  O15  1  0.91047500  0.06101700  0.25213100  1
  O  O16  1  0.81676200  0.01868900  0.60233300  1
  O  O17  1  0.58925900  0.24415700  0.42927800  1
  O  O18  1  0.06101700  0.25213100  0.91047500  1
  O  O19  1  0.24415700  0.42927800  0.58925900  1
  O  O20  1  0.38163100  0.18560000  0.99795300  1
  O  O21  1  0.42927800  0.58925900  0.24415700  1
  O  O22  1  0.73643200  0.09920200  0.95037300  1
  O  O23  1  0.99795300  0.38163100  0.18560000  1
  O  O24  1  0.01868900  0.60233300  0.81676200  1
  O  O25  1  0.25213100  0.91047500  0.06101700  1
  O  O26  1  0.55378000  0.41472200  0.75849700  1
  O  O27  1  0.60233300  0.81676200  0.01868900  1
  O  O28  1  0.75849700  0.55378000  0.41472200  1
  O  O29  1  0.95037300  0.73643200  0.09920200  1
  O  O30  1  0.41472200  0.75849700  0.55378000  1
  O  O31  1  0.18560000  0.99795300  0.38163100  1
  O  O32  1  0.09920200  0.95037300  0.73643200  1
  O  O33  1  0.33355200  0.11136400  0.48751900  1
  O  O34  1  0.48751900  0.33355200  0.11136400  1
  O  O35  1  0.11136400  0.48751900  0.33355200  1
