# generated using pymatgen
data_TlSnPb2
_symmetry_space_group_name_H-M   'P 1'
_cell_length_a   11.90439512
_cell_length_b   11.90439512
_cell_length_c   11.90439512
_cell_angle_alpha   123.94273431
_cell_angle_beta   118.91879959
_cell_angle_gamma   87.59667516
_symmetry_Int_Tables_number   1
_chemical_formula_structural   TlSnPb2
_chemical_formula_sum   'Tl1 Sn1 Pb2'
_cell_volume   1163.04131825
_cell_formula_units_Z   1
loop_
 _symmetry_equiv_pos_site_id
 _symmetry_equiv_pos_as_xyz
  1  'x, y, z'
loop_
 _atom_site_type_symbol
 _atom_site_label
 _atom_site_symmetry_multiplicity
 _atom_site_fract_x
 _atom_site_fract_y
 _atom_site_fract_z
 _atom_site_occupancy
  Tl  Tl0  1  0.50000000  0.00000000  0.50000000  1
  Sn  Sn1  1  0.00000000  0.00000000  0.00000000  1
  Pb  Pb2  1  0.77411800  0.00000000  0.77411900  1
  Pb  Pb3  1  0.22588100  0.00000000  0.22588200  1
