# generated using pymatgen
data_MgTiPd2
_symmetry_space_group_name_H-M   'P 1'
_cell_length_a   13.07189799
_cell_length_b   13.07189799
_cell_length_c   13.07189799
_cell_angle_alpha   138.47332242
_cell_angle_beta   136.03026458
_cell_angle_gamma   62.07251241
_symmetry_Int_Tables_number   1
_chemical_formula_structural   MgTiPd2
_chemical_formula_sum   'Mg1 Ti1 Pd2'
_cell_volume   1016.00219242
_cell_formula_units_Z   1
loop_
 _symmetry_equiv_pos_site_id
 _symmetry_equiv_pos_as_xyz
  1  'x, y, z'
loop_
 _atom_site_type_symbol
 _atom_site_label
 _atom_site_symmetry_multiplicity
 _atom_site_fract_x
 _atom_site_fract_y
 _atom_site_fract_z
 _atom_site_occupancy
  Mg  Mg0  1  0.00000000  0.00000000  0.00000000  1
  Ti  Ti1  1  0.50000000  0.00000000  0.50000000  1
  Pd  Pd2  1  0.72495500  0.00000000  0.72495500  1
  Pd  Pd3  1  0.27504500  0.00000000  0.27504500  1
