# generated using pymatgen
data_Sn(PO3)4
_symmetry_space_group_name_H-M   'P 1'
_cell_length_a   7.54529807
_cell_length_b   7.54529807
_cell_length_c   10.12879353
_cell_angle_alpha   67.99654384
_cell_angle_beta   67.99654384
_cell_angle_gamma   66.99573709
_symmetry_Int_Tables_number   1
_chemical_formula_structural   Sn(PO3)4
_chemical_formula_sum   'Sn2 P8 O24'
_cell_volume   474.20155232
_cell_formula_units_Z   2
loop_
 _symmetry_equiv_pos_site_id
 _symmetry_equiv_pos_as_xyz
  1  'x, y, z'
loop_
 _atom_site_type_symbol
 _atom_site_label
 _atom_site_symmetry_multiplicity
 _atom_site_fract_x
 _atom_site_fract_y
 _atom_site_fract_z
 _atom_site_occupancy
  Sn  Sn0  1  0.50000000  0.00000000  0.00000000  1
  Sn  Sn1  1  0.00000000  0.50000000  0.50000000  1
  P  P2  1  0.74843200  0.25942000  0.47009600  1
  P  P3  1  0.74058000  0.25156800  0.02990400  1
  P  P4  1  0.69060600  0.65886800  0.81592400  1
  P  P5  1  0.25942000  0.74843200  0.97009600  1
  P  P6  1  0.25156800  0.74058000  0.52990400  1
  P  P7  1  0.34113200  0.30939400  0.68407600  1
  P  P8  1  0.65886800  0.69060600  0.31592400  1
  P  P9  1  0.30939400  0.34113200  0.18407600  1
  O  O10  1  0.66255400  0.46689600  0.34823100  1
  O  O11  1  0.20281300  0.34764000  0.34201100  1
  O  O12  1  0.79718700  0.65236000  0.65798900  1
  O  O13  1  0.81337700  0.32867500  0.56606300  1
  O  O14  1  0.32867500  0.81337700  0.06606300  1
  O  O15  1  0.46689600  0.66255400  0.84823100  1
  O  O16  1  0.30371400  0.16360900  0.15004100  1
  O  O17  1  0.21027700  0.54003100  0.07549900  1
  O  O18  1  0.54003100  0.21027700  0.57549900  1
  O  O19  1  0.10108600  0.87601800  0.89815000  1
  O  O20  1  0.33744600  0.53310400  0.65176900  1
  O  O21  1  0.34764000  0.20281300  0.84201100  1
  O  O22  1  0.83639100  0.69628600  0.34995900  1
  O  O23  1  0.12398200  0.89891400  0.60185000  1
  O  O24  1  0.87601800  0.10108600  0.39815000  1
  O  O25  1  0.67132500  0.18662300  0.93393700  1
  O  O26  1  0.65236000  0.79718700  0.15798900  1
  O  O27  1  0.18662300  0.67132500  0.43393700  1
  O  O28  1  0.89891400  0.12398200  0.10185000  1
  O  O29  1  0.45996900  0.78972300  0.42450100  1
  O  O30  1  0.78972300  0.45996900  0.92450100  1
  O  O31  1  0.69628600  0.83639100  0.84995900  1
  O  O32  1  0.53310400  0.33744600  0.15176900  1
  O  O33  1  0.16360900  0.30371400  0.65004100  1
