# generated using pymatgen
data_HfVAu2
_symmetry_space_group_name_H-M   'P 1'
_cell_length_a   11.08641053
_cell_length_b   11.08641053
_cell_length_c   11.08641053
_cell_angle_alpha   123.31536035
_cell_angle_beta   118.94776967
_cell_angle_gamma   88.09404864
_symmetry_Int_Tables_number   1
_chemical_formula_structural   HfVAu2
_chemical_formula_sum   'Hf1 V1 Au2'
_cell_volume   944.67318901
_cell_formula_units_Z   1
loop_
 _symmetry_equiv_pos_site_id
 _symmetry_equiv_pos_as_xyz
  1  'x, y, z'
loop_
 _atom_site_type_symbol
 _atom_site_label
 _atom_site_symmetry_multiplicity
 _atom_site_fract_x
 _atom_site_fract_y
 _atom_site_fract_z
 _atom_site_occupancy
  Hf  Hf0  1  0.00000000  0.50000000  0.50000000  1
  V  V1  1  0.00000000  0.00000000  0.00000000  1
  Au  Au2  1  0.00000000  0.25116600  0.25116600  1
  Au  Au3  1  0.00000000  0.74883400  0.74883400  1
