# generated using pymatgen
data_BaTi6O12
_symmetry_space_group_name_H-M   'P 1'
_cell_length_a   8.51133723
_cell_length_b   8.51133723
_cell_length_c   8.51133723
_cell_angle_alpha   106.07822818
_cell_angle_beta   106.07822818
_cell_angle_gamma   116.49379596
_symmetry_Int_Tables_number   1
_chemical_formula_structural   BaTi6O12
_chemical_formula_sum   'Ba2 Ti12 O24'
_cell_volume   469.23707805
_cell_formula_units_Z   2
loop_
 _symmetry_equiv_pos_site_id
 _symmetry_equiv_pos_as_xyz
  1  'x, y, z'
loop_
 _atom_site_type_symbol
 _atom_site_label
 _atom_site_symmetry_multiplicity
 _atom_site_fract_x
 _atom_site_fract_y
 _atom_site_fract_z
 _atom_site_occupancy
  Ba  Ba0  1  0.21922100  0.21922100  0.00000000  1
  Ba  Ba1  1  0.78077900  0.78077900  0.00000000  1
  Ti  Ti2  1  0.31452000  0.83182000  0.81549200  1
  Ti  Ti3  1  0.65017800  0.16990600  0.82008400  1
  Ti  Ti4  1  0.68548000  0.16818000  0.18450800  1
  Ti  Ti5  1  0.49902800  0.31452000  0.48270000  1
  Ti  Ti6  1  0.83009400  0.65017800  0.48027300  1
  Ti  Ti7  1  0.16818000  0.98367200  0.48270000  1
  Ti  Ti8  1  0.50097200  0.68548000  0.51730000  1
  Ti  Ti9  1  0.16990600  0.34982200  0.51972700  1
  Ti  Ti10  1  0.83182000  0.01632800  0.51730000  1
  Ti  Ti11  1  0.98367200  0.50097200  0.81549200  1
  Ti  Ti12  1  0.34982200  0.83009400  0.17991600  1
  Ti  Ti13  1  0.01632800  0.49902800  0.18450800  1
  O  O14  1  0.80278700  0.84787500  0.65066100  1
  O  O15  1  0.50135300  0.87364200  0.70958600  1
  O  O16  1  0.83594400  0.20823300  0.70958600  1
  O  O17  1  0.82163600  0.46763900  0.95526800  1
  O  O18  1  0.48762900  0.13363200  0.95526800  1
  O  O19  1  0.53993100  0.83611700  0.37604900  1
  O  O20  1  0.46006900  0.16388300  0.62395100  1
  O  O21  1  0.79176700  0.50135300  0.62771100  1
  O  O22  1  0.51237100  0.86636800  0.04473200  1
  O  O23  1  0.49864700  0.12635800  0.29041400  1
  O  O24  1  0.13363200  0.17836400  0.64600300  1
  O  O25  1  0.46763900  0.51237100  0.64600300  1
  O  O26  1  0.19721300  0.15212500  0.34933900  1
  O  O27  1  0.53236100  0.48762900  0.35399700  1
  O  O28  1  0.16388300  0.53993100  0.70381400  1
  O  O29  1  0.15212500  0.80278700  0.95491200  1
  O  O30  1  0.20823300  0.49864700  0.37228900  1
  O  O31  1  0.87364200  0.16405600  0.37228900  1
  O  O32  1  0.12635800  0.83594400  0.62771100  1
  O  O33  1  0.84787500  0.19721300  0.04508800  1
  O  O34  1  0.17836400  0.53236100  0.04473200  1
  O  O35  1  0.83611700  0.46006900  0.29618600  1
  O  O36  1  0.16405600  0.79176700  0.29041400  1
  O  O37  1  0.86636800  0.82163600  0.35399700  1
