# generated using pymatgen
data_Cs2CdHg
_symmetry_space_group_name_H-M   'P 1'
_cell_length_a   14.59200854
_cell_length_b   14.59200854
_cell_length_c   14.59200854
_cell_angle_alpha   121.94314848
_cell_angle_beta   114.89524087
_cell_angle_gamma   92.86380393
_symmetry_Int_Tables_number   1
_chemical_formula_structural   Cs2CdHg
_chemical_formula_sum   'Cs2 Cd1 Hg1'
_cell_volume   2236.45170792
_cell_formula_units_Z   1
loop_
 _symmetry_equiv_pos_site_id
 _symmetry_equiv_pos_as_xyz
  1  'x, y, z'
loop_
 _atom_site_type_symbol
 _atom_site_label
 _atom_site_symmetry_multiplicity
 _atom_site_fract_x
 _atom_site_fract_y
 _atom_site_fract_z
 _atom_site_occupancy
  Cs  Cs0  1  0.74905300  0.00000000  0.74905300  1
  Cs  Cs1  1  0.25094700  0.00000000  0.25094700  1
  Cd  Cd2  1  0.00000000  0.00000000  0.00000000  1
  Hg  Hg3  1  0.50000000  0.00000000  0.50000000  1
