# generated using pymatgen
data_V2Cu2O7
_symmetry_space_group_name_H-M   'P 1'
_cell_length_a   5.55164061
_cell_length_b   5.55164061
_cell_length_c   10.13981014
_cell_angle_alpha   77.02916679
_cell_angle_beta   77.02916679
_cell_angle_gamma   95.49600876
_symmetry_Int_Tables_number   1
_chemical_formula_structural   V2Cu2O7
_chemical_formula_sum   'V4 Cu4 O14'
_cell_volume   293.23550580
_cell_formula_units_Z   2
loop_
 _symmetry_equiv_pos_site_id
 _symmetry_equiv_pos_as_xyz
  1  'x, y, z'
loop_
 _atom_site_type_symbol
 _atom_site_label
 _atom_site_symmetry_multiplicity
 _atom_site_fract_x
 _atom_site_fract_y
 _atom_site_fract_z
 _atom_site_occupancy
  V  V0  1  0.49806500  0.00160500  0.70510000  1
  V  V1  1  0.00160500  0.49806500  0.20510000  1
  V  V2  1  0.99839500  0.50193500  0.79490000  1
  V  V3  1  0.50193500  0.99839500  0.29490000  1
  Cu  Cu4  1  0.69716800  0.83902700  0.99501200  1
  Cu  Cu5  1  0.16097300  0.30283200  0.50498800  1
  Cu  Cu6  1  0.83902700  0.69716800  0.49501200  1
  Cu  Cu7  1  0.30283200  0.16097300  0.00498800  1
  O  O8  1  0.75836300  0.93550700  0.60199700  1
  O  O9  1  0.54370200  0.05147200  0.86569500  1
  O  O10  1  0.39937400  0.25150800  0.61463300  1
  O  O11  1  0.25593700  0.74406300  0.75000000  1
  O  O12  1  0.93550700  0.75836300  0.10199700  1
  O  O13  1  0.05147200  0.54370200  0.36569500  1
  O  O14  1  0.74849200  0.60062600  0.88536700  1
  O  O15  1  0.25150800  0.39937400  0.11463300  1
  O  O16  1  0.94852800  0.45629800  0.63430500  1
  O  O17  1  0.06449300  0.24163700  0.89800300  1
  O  O18  1  0.74406300  0.25593700  0.25000000  1
  O  O19  1  0.60062600  0.74849200  0.38536700  1
  O  O20  1  0.45629800  0.94852800  0.13430500  1
  O  O21  1  0.24163700  0.06449300  0.39800300  1
