# generated using pymatgen
data_ZnP2H14C2(NO)6
_symmetry_space_group_name_H-M   'P 1'
_cell_length_a   10.50030460
_cell_length_b   9.71390238
_cell_length_c   9.29857554
_cell_angle_alpha   67.00652020
_cell_angle_beta   58.38681794
_cell_angle_gamma   54.60666186
_symmetry_Int_Tables_number   1
_chemical_formula_structural   ZnP2H14C2(NO)6
_chemical_formula_sum   'Zn2 P4 H28 C4 N12 O12'
_cell_volume   653.24034093
_cell_formula_units_Z   2
loop_
 _symmetry_equiv_pos_site_id
 _symmetry_equiv_pos_as_xyz
  1  'x, y, z'
loop_
 _atom_site_type_symbol
 _atom_site_label
 _atom_site_symmetry_multiplicity
 _atom_site_fract_x
 _atom_site_fract_y
 _atom_site_fract_z
 _atom_site_occupancy
  Zn  Zn0  1  0.83005300  0.66994700  0.83005300  1
  Zn  Zn1  1  0.58005300  0.41994700  0.58005300  1
  P  P2  1  0.19779500  0.63858100  0.62018200  1
  P  P3  1  0.70655800  0.62981800  0.61141900  1
  P  P4  1  0.62018200  0.54344200  0.19779500  1
  P  P5  1  0.61141900  0.05220500  0.70655800  1
  H  H6  1  0.39863900  0.95677000  0.60531400  1
  H  H7  1  0.39393900  0.94150300  0.01128100  1
  H  H8  1  0.30849700  0.85606100  0.59672200  1
  H  H9  1  0.29323000  0.85136100  0.21072300  1
  H  H10  1  0.01060300  0.99581500  0.36614100  1
  H  H11  1  0.36614100  0.62744100  0.01060300  1
  H  H12  1  0.29390400  0.61610900  0.88238000  1
  H  H13  1  0.21072300  0.64468600  0.29323000  1
  H  H14  1  0.26876700  0.50073400  0.53577400  1
  H  H15  1  0.74926600  0.98123300  0.55527400  1
  H  H16  1  0.01128100  0.65327800  0.39393900  1
  H  H17  1  0.02905000  0.62169200  0.01265500  1
  H  H18  1  0.63389100  0.95609600  0.04239300  1
  H  H19  1  0.90791300  0.63984500  0.23342200  1
  H  H20  1  0.62255900  0.88385900  0.25418500  1
  H  H21  1  0.25418500  0.23939700  0.62255900  1
  H  H22  1  0.23342200  0.21882000  0.90791300  1
  H  H23  1  0.04239300  0.36762000  0.63389100  1
  H  H24  1  0.01265500  0.33660200  0.02905000  1
  H  H25  1  0.55527400  0.71422600  0.74926600  1
  H  H26  1  0.53577400  0.69472600  0.26876700  1
  H  H27  1  0.91339800  0.23734500  0.62830800  1
  H  H28  1  0.88238000  0.20760700  0.29390400  1
  H  H29  1  0.03118000  0.01657800  0.61015500  1
  H  H30  1  0.61015500  0.34208700  0.03118000  1
  H  H31  1  0.62830800  0.22095000  0.91339800  1
  H  H32  1  0.59672200  0.23871900  0.30849700  1
  H  H33  1  0.60531400  0.03927700  0.39863900  1
  C  C34  1  0.13603600  0.63345300  0.13672600  1
  C  C35  1  0.15621500  0.11327400  0.61654700  1
  C  C36  1  0.13672600  0.09378500  0.13603600  1
  C  C37  1  0.61654700  0.11396400  0.15621500  1
  N  N38  1  0.29895900  0.96398500  0.60352900  1
  N  N39  1  0.28601500  0.95104100  0.11647300  1
  N  N40  1  0.27527300  0.62759400  0.99763900  1
  N  N41  1  0.11647300  0.64647100  0.28601500  1
  N  N42  1  0.01688800  0.62678200  0.12735200  1
  N  N43  1  0.62240600  0.97472700  0.15050700  1
  N  N44  1  0.15050700  0.25236100  0.62240600  1
  N  N45  1  0.12735200  0.22897800  0.01688800  1
  N  N46  1  0.02102200  0.12264800  0.62321800  1
  N  N47  1  0.99763900  0.09949300  0.27527300  1
  N  N48  1  0.62321800  0.23311200  0.02102200  1
  N  N49  1  0.60352900  0.13352700  0.29895900  1
  O  O50  1  0.34214800  0.60414200  0.65959600  1
  O  O51  1  0.14049900  0.80363700  0.50481000  1
  O  O52  1  0.05428000  0.62194500  0.79158000  1
  O  O53  1  0.44636300  0.10950100  0.69894600  1
  O  O54  1  0.64585800  0.90785200  0.85588600  1
  O  O55  1  0.85588600  0.59040400  0.64585800  1
  O  O56  1  0.69894600  0.74519000  0.44636300  1
  O  O57  1  0.79158000  0.53219500  0.05428000  1
  O  O58  1  0.71780500  0.45842000  0.62805500  1
  O  O59  1  0.50481000  0.55105400  0.14049900  1
  O  O60  1  0.65959600  0.39411400  0.34214800  1
  O  O61  1  0.62805500  0.19572000  0.71780500  1
