# generated using pymatgen
data_Mn2CoMo
_symmetry_space_group_name_H-M   'P 1'
_cell_length_a   9.89634828
_cell_length_b   9.89634828
_cell_length_c   9.89634828
_cell_angle_alpha   121.70082917
_cell_angle_beta   116.54850065
_cell_angle_gamma   91.57931892
_symmetry_Int_Tables_number   1
_chemical_formula_structural   Mn2CoMo
_chemical_formula_sum   'Mn2 Co1 Mo1'
_cell_volume   692.43136727
_cell_formula_units_Z   1
loop_
 _symmetry_equiv_pos_site_id
 _symmetry_equiv_pos_as_xyz
  1  'x, y, z'
loop_
 _atom_site_type_symbol
 _atom_site_label
 _atom_site_symmetry_multiplicity
 _atom_site_fract_x
 _atom_site_fract_y
 _atom_site_fract_z
 _atom_site_occupancy
  Mn  Mn0  1  0.77735400  0.00000000  0.77735400  1
  Mn  Mn1  1  0.22264600  0.00000000  0.22264600  1
  Co  Co2  1  0.00000000  0.00000000  0.00000000  1
  Mo  Mo3  1  0.50000000  0.00000000  0.50000000  1
