# generated using pymatgen
data_CeZr6O14
_symmetry_space_group_name_H-M   'P 1'
_cell_length_a   3.68250400
_cell_length_b   5.29756400
_cell_length_c   25.72219700
_cell_angle_alpha   90.00000000
_cell_angle_beta   90.00000000
_cell_angle_gamma   90.00000000
_symmetry_Int_Tables_number   1
_chemical_formula_structural   CeZr6O14
_chemical_formula_sum   'Ce2 Zr12 O28'
_cell_volume   501.79635169
_cell_formula_units_Z   2
loop_
 _symmetry_equiv_pos_site_id
 _symmetry_equiv_pos_as_xyz
  1  'x, y, z'
loop_
 _atom_site_type_symbol
 _atom_site_label
 _atom_site_symmetry_multiplicity
 _atom_site_fract_x
 _atom_site_fract_y
 _atom_site_fract_z
 _atom_site_occupancy
  Ce  Ce0  1  0.50000000  0.50105200  0.64362300  1
  Ce  Ce1  1  0.50000000  0.50105200  0.35637700  1
  Zr  Zr2  1  0.00000000  0.00028800  0.71712400  1
  Zr  Zr3  1  0.00000000  0.99917600  0.85841200  1
  Zr  Zr4  1  0.00000000  0.99946800  0.00000000  1
  Zr  Zr5  1  0.00000000  0.99917600  0.14158800  1
  Zr  Zr6  1  0.00000000  0.00028800  0.28287600  1
  Zr  Zr7  1  0.00000000  0.99994500  0.42983300  1
  Zr  Zr8  1  0.00000000  0.99994500  0.57016700  1
  Zr  Zr9  1  0.50000000  0.50054600  0.92924900  1
  Zr  Zr10  1  0.50000000  0.50003600  0.21214200  1
  Zr  Zr11  1  0.50000000  0.49982100  0.50000000  1
  Zr  Zr12  1  0.50000000  0.50003600  0.78785800  1
  Zr  Zr13  1  0.50000000  0.50054600  0.07075100  1
  O  O14  1  0.00000000  0.19805700  0.92923400  1
  O  O15  1  0.00000000  0.20145600  0.78822700  1
  O  O16  1  0.00000000  0.69943600  0.78672800  1
  O  O17  1  0.00000000  0.19805700  0.07076600  1
  O  O18  1  0.00000000  0.69756000  0.07112000  1
  O  O19  1  0.00000000  0.20145600  0.21177300  1
  O  O20  1  0.00000000  0.69943600  0.21327200  1
  O  O21  1  0.00000000  0.20952300  0.35635800  1
  O  O22  1  0.00000000  0.73769000  0.35674000  1
  O  O23  1  0.00000000  0.20600000  0.50000000  1
  O  O24  1  0.00000000  0.69756000  0.92888000  1
  O  O25  1  0.00000000  0.70216800  0.50000000  1
  O  O26  1  0.00000000  0.20952300  0.64364200  1
  O  O27  1  0.00000000  0.73769000  0.64326000  1
  O  O28  1  0.50000000  0.27971000  0.43099700  1
  O  O29  1  0.50000000  0.79229100  0.43212400  1
  O  O30  1  0.50000000  0.27971000  0.56900300  1
  O  O31  1  0.50000000  0.28160900  0.71882700  1
  O  O32  1  0.50000000  0.79392900  0.71861800  1
  O  O33  1  0.50000000  0.30053800  0.85877900  1
  O  O34  1  0.50000000  0.80120100  0.85760200  1
  O  O35  1  0.50000000  0.30178000  0.00000000  1
  O  O36  1  0.50000000  0.80268000  0.00000000  1
  O  O37  1  0.50000000  0.30053800  0.14122100  1
  O  O38  1  0.50000000  0.80120100  0.14239800  1
  O  O39  1  0.50000000  0.28160900  0.28117300  1
  O  O40  1  0.50000000  0.79392900  0.28138200  1
  O  O41  1  0.50000000  0.79229100  0.56787600  1
