# generated using pymatgen
data_Ca4Bi6O13
_symmetry_space_group_name_H-M   'P 1'
_cell_length_a   9.44623430
_cell_length_b   9.44623430
_cell_length_c   9.30454716
_cell_angle_alpha   78.15041454
_cell_angle_beta   78.15041454
_cell_angle_gamma   100.99064395
_symmetry_Int_Tables_number   1
_chemical_formula_structural   Ca4Bi6O13
_chemical_formula_sum   'Ca8 Bi12 O26'
_cell_volume   771.39957518
_cell_formula_units_Z   2
loop_
 _symmetry_equiv_pos_site_id
 _symmetry_equiv_pos_as_xyz
  1  'x, y, z'
loop_
 _atom_site_type_symbol
 _atom_site_label
 _atom_site_symmetry_multiplicity
 _atom_site_fract_x
 _atom_site_fract_y
 _atom_site_fract_z
 _atom_site_occupancy
  Ca  Ca0  1  0.45106100  0.69883900  0.57027100  1
  Ca  Ca1  1  0.19773000  0.95138400  0.57044400  1
  Ca  Ca2  1  0.98373100  0.73657000  0.42980900  1
  Ca  Ca3  1  0.73657000  0.98373100  0.42980900  1
  Ca  Ca4  1  0.48309200  0.23626000  0.42954100  1
  Ca  Ca5  1  0.23626000  0.48309200  0.42954100  1
  Ca  Ca6  1  0.69883900  0.45106100  0.57027100  1
  Ca  Ca7  1  0.95138400  0.19773000  0.57044400  1
  Bi  Bi8  1  0.05341800  0.55365000  0.77331400  1
  Bi  Bi9  1  0.13909700  0.86747000  0.00097200  1
  Bi  Bi10  1  0.36802700  0.63968600  0.99914300  1
  Bi  Bi11  1  0.68871300  0.68871300  0.22203600  1
  Bi  Bi12  1  0.18662800  0.18662800  0.22288800  1
  Bi  Bi13  1  0.44005200  0.94036400  0.22665500  1
  Bi  Bi14  1  0.79821700  0.79821700  0.77714000  1
  Bi  Bi15  1  0.29995200  0.29995200  0.77813100  1
  Bi  Bi16  1  0.55365000  0.05341800  0.77331400  1
  Bi  Bi17  1  0.63968600  0.36802700  0.99914300  1
  Bi  Bi18  1  0.86747000  0.13909700  0.00097200  1
  Bi  Bi19  1  0.94036400  0.44005200  0.22665500  1
  O  O20  1  0.05612400  0.05612400  0.01622200  1
  O  O21  1  0.18206400  0.68145700  0.55758200  1
  O  O22  1  0.44617400  0.69065300  0.30164400  1
  O  O23  1  0.19144300  0.94490300  0.30448300  1
  O  O24  1  0.06271200  0.80071600  0.82123400  1
  O  O25  1  0.29788700  0.56501100  0.82014800  1
  O  O26  1  0.56412400  0.56412400  0.98374900  1
  O  O27  1  0.46024500  0.96061100  0.44249500  1
  O  O28  1  0.71592000  0.71592000  0.43595800  1
  O  O29  1  0.21511500  0.21511500  0.43749900  1
  O  O30  1  0.59738000  0.84366400  0.69515800  1
  O  O31  1  0.34181600  0.09737200  0.69843100  1
  O  O32  1  0.09737200  0.34181600  0.69843100  1
  O  O33  1  0.84366400  0.59738000  0.69515800  1
  O  O34  1  0.97474000  0.70789300  0.17986200  1
  O  O35  1  0.47328500  0.21135600  0.17870900  1
  O  O36  1  0.21135600  0.47328500  0.17870900  1
  O  O37  1  0.70789300  0.97474000  0.17986200  1
  O  O38  1  0.68145700  0.18206400  0.55758200  1
  O  O39  1  0.43435000  0.43435000  0.56407600  1
  O  O40  1  0.93362600  0.93362600  0.56250800  1
  O  O41  1  0.94490300  0.19144300  0.30448300  1
  O  O42  1  0.69065300  0.44617300  0.30164400  1
  O  O43  1  0.56501100  0.29788700  0.82014800  1
  O  O44  1  0.80071600  0.06271200  0.82123400  1
  O  O45  1  0.96061100  0.46024500  0.44249500  1
