# generated using pymatgen
data_Fe7(PO5)4
_symmetry_space_group_name_H-M   'P 1'
_cell_length_a   15.21372100
_cell_length_b   7.36920600
_cell_length_c   7.40731140
_cell_angle_alpha   61.93719596
_cell_angle_beta   90.00000000
_cell_angle_gamma   90.00000000
_symmetry_Int_Tables_number   1
_chemical_formula_structural   Fe7(PO5)4
_chemical_formula_sum   'Fe14 P8 O40'
_cell_volume   732.82153117
_cell_formula_units_Z   2
loop_
 _symmetry_equiv_pos_site_id
 _symmetry_equiv_pos_as_xyz
  1  'x, y, z'
loop_
 _atom_site_type_symbol
 _atom_site_label
 _atom_site_symmetry_multiplicity
 _atom_site_fract_x
 _atom_site_fract_y
 _atom_site_fract_z
 _atom_site_occupancy
  Fe  Fe0  1  0.50000000  0.50000000  0.50000000  1
  Fe  Fe1  1  0.38703000  0.71925100  0.77096400  1
  Fe  Fe2  1  0.37322300  0.23938500  0.75278000  1
  Fe  Fe3  1  0.25122700  0.98838200  0.51450600  1
  Fe  Fe4  1  0.11297000  0.71925100  0.27096400  1
  Fe  Fe5  1  0.24877300  0.98838200  0.01450600  1
  Fe  Fe6  1  0.87322300  0.76061500  0.74722000  1
  Fe  Fe7  1  0.12677700  0.23938500  0.25278000  1
  Fe  Fe8  1  0.00000000  0.50000000  0.00000000  1
  Fe  Fe9  1  0.88703000  0.28074900  0.72903600  1
  Fe  Fe10  1  0.74877300  0.01161800  0.48549400  1
  Fe  Fe11  1  0.62677700  0.76061500  0.24722000  1
  Fe  Fe12  1  0.75122700  0.01161800  0.98549400  1
  Fe  Fe13  1  0.61297000  0.28074900  0.22903600  1
  P  P14  1  0.43739600  0.99830800  0.25750200  1
  P  P15  1  0.18941600  0.49421500  0.74715800  1
  P  P16  1  0.31058400  0.49421500  0.24715800  1
  P  P17  1  0.06260400  0.99830800  0.75750200  1
  P  P18  1  0.68941600  0.50578500  0.75284200  1
  P  P19  1  0.93739600  0.00169200  0.24249800  1
  P  P20  1  0.81058400  0.50578500  0.25284200  1
  P  P21  1  0.56260400  0.00169200  0.74249800  1
  O  O22  1  0.49644900  0.80845600  0.30025600  1
  O  O23  1  0.42801800  0.49655800  0.72181500  1
  O  O24  1  0.37611600  0.93286500  0.44607000  1
  O  O25  1  0.36529900  0.54564700  0.05852800  1
  O  O26  1  0.25023300  0.67854400  0.71047100  1
  O  O27  1  0.49595900  0.17997400  0.21576000  1
  O  O28  1  0.12388400  0.93286500  0.94607000  1
  O  O29  1  0.13470100  0.54564700  0.55852800  1
  O  O30  1  0.37687500  0.05105300  0.06877000  1
  O  O31  1  0.31521300  0.99029700  0.75872300  1
  O  O32  1  0.25013600  0.30299500  0.80810000  1
  O  O33  1  0.24976700  0.67854400  0.21047100  1
  O  O34  1  0.37307100  0.43128300  0.43282700  1
  O  O35  1  0.12692900  0.43128300  0.93282700  1
  O  O36  1  0.24986400  0.30299500  0.30810000  1
  O  O37  1  0.00355100  0.80845600  0.80025600  1
  O  O38  1  0.12312500  0.05105300  0.56877000  1
  O  O39  1  0.18478700  0.99029700  0.25872300  1
  O  O40  1  0.92801800  0.50344200  0.77818500  1
  O  O41  1  0.07198200  0.49655800  0.22181500  1
  O  O42  1  0.00404100  0.17997400  0.71576000  1
  O  O43  1  0.99595900  0.82002600  0.28424000  1
  O  O44  1  0.87687500  0.94894700  0.43123000  1
  O  O45  1  0.99644900  0.19154400  0.19974400  1
  O  O46  1  0.75013600  0.69700500  0.69190000  1
  O  O47  1  0.87307100  0.56871700  0.06717300  1
  O  O48  1  0.87611600  0.06713500  0.05393000  1
  O  O49  1  0.62692900  0.56871700  0.56717300  1
  O  O50  1  0.75023300  0.32145600  0.78952900  1
  O  O51  1  0.86529900  0.45435300  0.44147200  1
  O  O52  1  0.81521300  0.00970300  0.74127700  1
  O  O53  1  0.62312500  0.94894700  0.93123000  1
  O  O54  1  0.74986400  0.69700500  0.19190000  1
  O  O55  1  0.63470100  0.45435300  0.94147200  1
  O  O56  1  0.50404100  0.82002600  0.78424000  1
  O  O57  1  0.74976700  0.32145600  0.28952900  1
  O  O58  1  0.62388400  0.06713500  0.55393000  1
  O  O59  1  0.50355100  0.19154400  0.69974400  1
  O  O60  1  0.57198200  0.50344200  0.27818500  1
  O  O61  1  0.68478700  0.00970300  0.24127700  1
