# generated using pymatgen
data_KAl11O17
_symmetry_space_group_name_H-M   'P 1'
_cell_length_a   5.65088113
_cell_length_b   5.65088113
_cell_length_c   22.95569600
_cell_angle_alpha   90.00000000
_cell_angle_beta   90.00000000
_cell_angle_gamma   119.71676276
_symmetry_Int_Tables_number   1
_chemical_formula_structural   KAl11O17
_chemical_formula_sum   'K2 Al22 O34'
_cell_volume   636.62822961
_cell_formula_units_Z   2
loop_
 _symmetry_equiv_pos_site_id
 _symmetry_equiv_pos_as_xyz
  1  'x, y, z'
loop_
 _atom_site_type_symbol
 _atom_site_label
 _atom_site_symmetry_multiplicity
 _atom_site_fract_x
 _atom_site_fract_y
 _atom_site_fract_z
 _atom_site_occupancy
  K  K0  1  0.39483400  0.60516600  0.25000000  1
  K  K1  1  0.60516600  0.39483400  0.75000000  1
  Al  Al2  1  0.83291600  0.67038900  0.10636200  1
  Al  Al3  1  0.83291600  0.67038900  0.39363800  1
  Al  Al4  1  0.16526900  0.83473100  0.52533400  1
  Al  Al5  1  0.16744400  0.83255600  0.67475800  1
  Al  Al6  1  0.50000000  0.50000000  0.50000000  1
  Al  Al7  1  0.50000000  0.50000000  0.00000000  1
  Al  Al8  1  0.16744400  0.83255600  0.82524200  1
  Al  Al9  1  0.16526900  0.83473100  0.97466600  1
  Al  Al10  1  0.32904100  0.67095900  0.10431400  1
  Al  Al11  1  0.32904100  0.67095900  0.39568600  1
  Al  Al12  1  0.32961100  0.16708400  0.10636200  1
  Al  Al13  1  0.32961100  0.16708400  0.39363800  1
  Al  Al14  1  0.67038900  0.83291600  0.89363800  1
  Al  Al15  1  0.67038900  0.83291600  0.60636200  1
  Al  Al16  1  0.67095900  0.32904100  0.89568600  1
  Al  Al17  1  0.83255600  0.16744400  0.17475800  1
  Al  Al18  1  0.83473100  0.16526900  0.02533400  1
  Al  Al19  1  0.83255600  0.16744400  0.32524200  1
  Al  Al20  1  0.83473100  0.16526900  0.47466600  1
  Al  Al21  1  0.67095900  0.32904100  0.60431400  1
  Al  Al22  1  0.16708400  0.32961100  0.60636200  1
  Al  Al23  1  0.16708400  0.32961100  0.89363800  1
  O  O24  1  0.81015900  0.65465200  0.54908000  1
  O  O25  1  0.81015900  0.65465200  0.95092000  1
  O  O26  1  0.00127500  0.50681500  0.35560000  1
  O  O27  1  0.00127500  0.50681500  0.14440000  1
  O  O28  1  0.16302900  0.83697100  0.75000000  1
  O  O29  1  0.34194000  0.65806000  0.95005000  1
  O  O30  1  0.49679400  0.50320600  0.14077800  1
  O  O31  1  0.50320600  0.49679400  0.85922200  1
  O  O32  1  0.50320600  0.49679400  0.64077800  1
  O  O33  1  0.49679400  0.50320600  0.35922200  1
  O  O34  1  0.16431300  0.83568700  0.05456500  1
  O  O35  1  0.16431300  0.83568700  0.44543500  1
  O  O36  1  0.34194000  0.65806000  0.54995000  1
  O  O37  1  0.99721600  0.00278400  0.14311800  1
  O  O38  1  0.99721600  0.00278400  0.35688200  1
  O  O39  1  0.65465200  0.81015900  0.04908000  1
  O  O40  1  0.65465200  0.81015900  0.45092000  1
  O  O41  1  0.49318500  0.99872500  0.14440000  1
  O  O42  1  0.49318500  0.99872500  0.35560000  1
  O  O43  1  0.50681500  0.00127500  0.64440000  1
  O  O44  1  0.50681500  0.00127500  0.85560000  1
  O  O45  1  0.34534800  0.18984100  0.54908000  1
  O  O46  1  0.34534800  0.18984100  0.95092000  1
  O  O47  1  0.00278400  0.99721600  0.85688200  1
  O  O48  1  0.83568700  0.16431300  0.94543500  1
  O  O49  1  0.65806000  0.34194000  0.04995000  1
  O  O50  1  0.65806000  0.34194000  0.45005000  1
  O  O51  1  0.00278400  0.99721600  0.64311800  1
  O  O52  1  0.83568700  0.16431300  0.55456500  1
  O  O53  1  0.83697100  0.16302900  0.25000000  1
  O  O54  1  0.99872500  0.49318500  0.64440000  1
  O  O55  1  0.99872500  0.49318500  0.85560000  1
  O  O56  1  0.18984100  0.34534800  0.04908000  1
  O  O57  1  0.18984100  0.34534800  0.45092000  1
