# generated using pymatgen
data_VNi3Sb2(PO4)6
_symmetry_space_group_name_H-M   'P 1'
_cell_length_a   8.82177162
_cell_length_b   8.82177162
_cell_length_c   8.82177116
_cell_angle_alpha   58.76067364
_cell_angle_beta   58.76067364
_cell_angle_gamma   58.76067470
_symmetry_Int_Tables_number   1
_chemical_formula_structural   VNi3Sb2(PO4)6
_chemical_formula_sum   'V1 Ni3 Sb2 P6 O24'
_cell_volume   471.71609509
_cell_formula_units_Z   1
loop_
 _symmetry_equiv_pos_site_id
 _symmetry_equiv_pos_as_xyz
  1  'x, y, z'
loop_
 _atom_site_type_symbol
 _atom_site_label
 _atom_site_symmetry_multiplicity
 _atom_site_fract_x
 _atom_site_fract_y
 _atom_site_fract_z
 _atom_site_occupancy
  V  V0  1  0.85692500  0.85692500  0.85692500  1
  Ni  Ni1  1  0.35266900  0.35266900  0.35266900  1
  Ni  Ni2  1  0.15261800  0.15261800  0.15261800  1
  Ni  Ni3  1  0.64639800  0.64639800  0.64639800  1
  Sb  Sb4  1  0.01894000  0.01894000  0.01894000  1
  Sb  Sb5  1  0.50451000  0.50451000  0.50451000  1
  P  P6  1  0.74831000  0.03754700  0.46485900  1
  P  P7  1  0.03754700  0.46485900  0.74831000  1
  P  P8  1  0.46485900  0.74831000  0.03754700  1
  P  P9  1  0.54026900  0.24577400  0.95485500  1
  P  P10  1  0.95485500  0.54026900  0.24577400  1
  P  P11  1  0.24577400  0.95485500  0.54026900  1
  O  O12  1  0.89179200  0.48786100  0.69132000  1
  O  O13  1  0.48786100  0.69132000  0.89179200  1
  O  O14  1  0.69132000  0.89179200  0.48786100  1
  O  O15  1  0.91756500  0.06463600  0.26873700  1
  O  O16  1  0.81602700  0.98584600  0.62209400  1
  O  O17  1  0.58706500  0.23410700  0.45572200  1
  O  O18  1  0.06463600  0.26873700  0.91756500  1
  O  O19  1  0.23410700  0.45572200  0.58706500  1
  O  O20  1  0.38335200  0.20185700  0.98116300  1
  O  O21  1  0.45572200  0.58706500  0.23410700  1
  O  O22  1  0.73475400  0.07656000  0.91754700  1
  O  O23  1  0.98116300  0.38335200  0.20185700  1
  O  O24  1  0.98584600  0.62209400  0.81602700  1
  O  O25  1  0.26873700  0.91756500  0.06463600  1
  O  O26  1  0.56875800  0.41052900  0.75628100  1
  O  O27  1  0.62209400  0.81602700  0.98584600  1
  O  O28  1  0.75628100  0.56875800  0.41052900  1
  O  O29  1  0.91754700  0.73475400  0.07656000  1
  O  O30  1  0.41052900  0.75628100  0.56875800  1
  O  O31  1  0.20185700  0.98116300  0.38335200  1
  O  O32  1  0.07656000  0.91754700  0.73475400  1
  O  O33  1  0.28430900  0.10954300  0.52890300  1
  O  O34  1  0.52890300  0.28430900  0.10954300  1
  O  O35  1  0.10954300  0.52890300  0.28430900  1
