# generated using pymatgen
data_Ti2Fe4O9
_symmetry_space_group_name_H-M   'P 1'
_cell_length_a   5.14511200
_cell_length_b   5.51593287
_cell_length_c   11.66543599
_cell_angle_alpha   97.41181546
_cell_angle_beta   102.65347386
_cell_angle_gamma   91.13795417
_symmetry_Int_Tables_number   1
_chemical_formula_structural   Ti2Fe4O9
_chemical_formula_sum   'Ti4 Fe8 O18'
_cell_volume   319.93009435
_cell_formula_units_Z   2
loop_
 _symmetry_equiv_pos_site_id
 _symmetry_equiv_pos_as_xyz
  1  'x, y, z'
loop_
 _atom_site_type_symbol
 _atom_site_label
 _atom_site_symmetry_multiplicity
 _atom_site_fract_x
 _atom_site_fract_y
 _atom_site_fract_z
 _atom_site_occupancy
  Ti  Ti0  1  0.04763500  0.33429600  0.09701000  1
  Ti  Ti1  1  0.71991000  0.01006100  0.42679200  1
  Ti  Ti2  1  0.28009000  0.98993900  0.57320800  1
  Ti  Ti3  1  0.95236500  0.66570400  0.90299000  1
  Fe  Fe4  1  0.54996500  0.84191100  0.09648300  1
  Fe  Fe5  1  0.61843100  0.33238800  0.23636300  1
  Fe  Fe6  1  0.12163400  0.81659700  0.23629200  1
  Fe  Fe7  1  0.77926100  0.48904000  0.56797000  1
  Fe  Fe8  1  0.22073900  0.51096000  0.43203000  1
  Fe  Fe9  1  0.87836600  0.18340300  0.76370800  1
  Fe  Fe10  1  0.38156900  0.66761200  0.76363700  1
  Fe  Fe11  1  0.45003500  0.15808900  0.90351700  1
  O  O12  1  0.37876200  0.57670400  0.16741100  1
  O  O13  1  0.89887800  0.68337000  0.05907000  1
  O  O14  1  0.78967200  0.97287000  0.27386900  1
  O  O15  1  0.26158700  0.09200700  0.16651900  1
  O  O16  1  0.69898500  0.19075500  0.06951900  1
  O  O17  1  0.97667600  0.48604300  0.26177500  1
  O  O18  1  0.56032700  0.33593800  0.39558100  1
  O  O19  1  0.93891800  0.76999700  0.49813800  1
  O  O20  1  0.36611200  0.85877100  0.39768300  1
  O  O21  1  0.63388800  0.14122900  0.60231700  1
  O  O22  1  0.06108200  0.23000300  0.50186200  1
  O  O23  1  0.43967300  0.66406200  0.60441900  1
  O  O24  1  0.02332400  0.51395700  0.73822500  1
  O  O25  1  0.30101500  0.80924500  0.93048100  1
  O  O26  1  0.73841300  0.90799300  0.83348100  1
  O  O27  1  0.21032800  0.02713000  0.72613100  1
  O  O28  1  0.10112200  0.31663000  0.94093000  1
  O  O29  1  0.62123800  0.42329600  0.83258900  1
