# generated using pymatgen
data_Na11(WO3)13
_symmetry_space_group_name_H-M   'P 1'
_cell_length_a   6.85860300
_cell_length_b   8.92620072
_cell_length_c   14.30685143
_cell_angle_alpha   75.36292751
_cell_angle_beta   80.77266877
_cell_angle_gamma   74.92010729
_symmetry_Int_Tables_number   1
_chemical_formula_structural   Na11(WO3)13
_chemical_formula_sum   'Na11 W13 O39'
_cell_volume   814.06769703
_cell_formula_units_Z   1
loop_
 _symmetry_equiv_pos_site_id
 _symmetry_equiv_pos_as_xyz
  1  'x, y, z'
loop_
 _atom_site_type_symbol
 _atom_site_label
 _atom_site_symmetry_multiplicity
 _atom_site_fract_x
 _atom_site_fract_y
 _atom_site_fract_z
 _atom_site_occupancy
  Na  Na0  1  0.61594900  0.19256900  0.46112100  1
  Na  Na1  1  0.46131000  0.27057100  0.84616400  1
  Na  Na2  1  0.00000000  0.50000000  0.00000000  1
  Na  Na3  1  0.84710400  0.57654500  0.38401200  1
  Na  Na4  1  0.15289600  0.42345500  0.61598800  1
  Na  Na5  1  0.23181300  0.88430400  0.92269800  1
  Na  Na6  1  0.76818700  0.11569600  0.07730200  1
  Na  Na7  1  0.53869000  0.72942900  0.15383600  1
  Na  Na8  1  0.07670400  0.96254600  0.30812000  1
  Na  Na9  1  0.38405100  0.80743100  0.53887900  1
  Na  Na10  1  0.92329600  0.03745400  0.69188000  1
  W  W11  1  0.65258800  0.42442900  0.61684400  1
  W  W12  1  0.34741200  0.57557100  0.38315600  1
  W  W13  1  0.50000000  0.50000000  0.00000000  1
  W  W14  1  0.42387900  0.03498500  0.69180000  1
  W  W15  1  0.57612100  0.96501500  0.30820000  1
  W  W16  1  0.80721000  0.34641200  0.23019900  1
  W  W17  1  0.96046000  0.27312600  0.84618900  1
  W  W18  1  0.11300900  0.19442600  0.46073600  1
  W  W19  1  0.26813900  0.11697400  0.07827300  1
  W  W20  1  0.88699100  0.80557400  0.53926400  1
  W  W21  1  0.73186100  0.88302600  0.92172700  1
  W  W22  1  0.03954000  0.72687400  0.15381100  1
  W  W23  1  0.19279000  0.65358800  0.76980100  1
  O  O24  1  0.50000000  0.50000000  0.50000000  1
  O  O25  1  0.57185500  0.46852900  0.31217600  1
  O  O26  1  0.65411900  0.42581300  0.10895400  1
  O  O27  1  0.34588100  0.57418700  0.89104600  1
  O  O28  1  0.26358200  0.62482400  0.07758900  1
  O  O29  1  0.42814500  0.53147100  0.68782400  1
  O  O30  1  0.70268800  0.14872800  0.26947000  1
  O  O31  1  0.76655700  0.60901200  0.57468400  1
  O  O32  1  0.53627500  0.23615400  0.65299900  1
  O  O33  1  0.23344300  0.39098800  0.42531600  1
  O  O34  1  0.91326600  0.54377500  0.19157800  1
  O  O35  1  0.08673400  0.45622500  0.80842200  1
  O  O36  1  0.38607600  0.30113000  0.03580400  1
  O  O37  1  0.35379100  0.06798300  0.38460100  1
  O  O38  1  0.19128200  0.15379400  0.76870000  1
  O  O39  1  0.04522000  0.22367000  0.14858800  1
  O  O40  1  0.12264000  0.18936600  0.96217300  1
  O  O41  1  0.73641800  0.37517600  0.92241100  1
  O  O42  1  0.80753600  0.34291500  0.72749800  1
  O  O43  1  0.64620900  0.93201700  0.61539900  1
  O  O44  1  0.57555800  0.96465300  0.81135600  1
  O  O45  1  0.42444200  0.03534700  0.18864400  1
  O  O46  1  0.87743300  0.31010100  0.54043600  1
  O  O47  1  0.50000000  0.00000000  0.00000000  1
  O  O48  1  0.26402500  0.11920900  0.57389800  1
  O  O49  1  0.96297400  0.26894400  0.35072800  1
  O  O50  1  0.29731200  0.85127200  0.73053000  1
  O  O51  1  0.84366500  0.07282000  0.88559800  1
  O  O52  1  0.00000000  0.00000000  0.50000000  1
  O  O53  1  0.61392400  0.69887000  0.96419600  1
  O  O54  1  0.46372500  0.76384600  0.34700100  1
  O  O55  1  0.15633500  0.92718000  0.11440200  1
  O  O56  1  0.12256700  0.68989900  0.45956400  1
  O  O57  1  0.73597500  0.88079100  0.42610200  1
  O  O58  1  0.80871800  0.84620600  0.23130000  1
  O  O59  1  0.95478000  0.77633000  0.85141200  1
  O  O60  1  0.03702600  0.73105600  0.64927200  1
  O  O61  1  0.19246400  0.65708500  0.27250200  1
  O  O62  1  0.87736000  0.81063400  0.03782700  1
