# generated using pymatgen
data_CeSe2
_symmetry_space_group_name_H-M   'P 1'
_cell_length_a   5.64078300
_cell_length_b   6.88403600
_cell_length_c   16.47190800
_cell_angle_alpha   90.00000000
_cell_angle_beta   90.00000000
_cell_angle_gamma   90.00000000
_symmetry_Int_Tables_number   1
_chemical_formula_structural   CeSe2
_chemical_formula_sum   'Ce8 Se16'
_cell_volume   639.62647809
_cell_formula_units_Z   8
loop_
 _symmetry_equiv_pos_site_id
 _symmetry_equiv_pos_as_xyz
  1  'x, y, z'
loop_
 _atom_site_type_symbol
 _atom_site_label
 _atom_site_symmetry_multiplicity
 _atom_site_fract_x
 _atom_site_fract_y
 _atom_site_fract_z
 _atom_site_occupancy
  Ce  Ce0  1  0.50000000  0.99852600  0.53962900  1
  Ce  Ce1  1  0.50000000  0.00147400  0.03962900  1
  Ce  Ce2  1  0.50000000  0.50884900  0.79950400  1
  Ce  Ce3  1  0.50000000  0.49115100  0.29950400  1
  Ce  Ce4  1  0.00000000  0.99633400  0.23499400  1
  Ce  Ce5  1  0.00000000  0.00366600  0.73499400  1
  Ce  Ce6  1  0.00000000  0.52834700  0.99332300  1
  Ce  Ce7  1  0.00000000  0.47165300  0.49332300  1
  Se  Se8  1  0.00000000  0.38238500  0.82693200  1
  Se  Se9  1  0.00000000  0.61761500  0.32693200  1
  Se  Se10  1  0.00000000  0.86119600  0.56517500  1
  Se  Se11  1  0.00000000  0.13880400  0.06517500  1
  Se  Se12  1  0.50000000  0.39465700  0.97098600  1
  Se  Se13  1  0.50000000  0.60534300  0.47098600  1
  Se  Se14  1  0.50000000  0.86735000  0.70610300  1
  Se  Se15  1  0.50000000  0.13265000  0.20610300  1
  Se  Se16  1  0.25437000  0.32097500  0.63947300  1
  Se  Se17  1  0.74563000  0.32097500  0.63947300  1
  Se  Se18  1  0.74563000  0.67902500  0.13947300  1
  Se  Se19  1  0.25437000  0.67902500  0.13947300  1
  Se  Se20  1  0.24680200  0.84410100  0.89395400  1
  Se  Se21  1  0.75319800  0.84410100  0.89395400  1
  Se  Se22  1  0.75319800  0.15589900  0.39395400  1
  Se  Se23  1  0.24680200  0.15589900  0.39395400  1
