# generated using pymatgen
data_K9(WO3)20
_symmetry_space_group_name_H-M   'P 1'
_cell_length_a   13.02627680
_cell_length_b   13.02627680
_cell_length_c   13.02627680
_cell_angle_alpha   95.07532641
_cell_angle_beta   95.07532641
_cell_angle_gamma   145.39323170
_symmetry_Int_Tables_number   1
_chemical_formula_structural   K9(WO3)20
_chemical_formula_sum   'K9 W20 O60'
_cell_volume   1198.53494404
_cell_formula_units_Z   1
loop_
 _symmetry_equiv_pos_site_id
 _symmetry_equiv_pos_as_xyz
  1  'x, y, z'
loop_
 _atom_site_type_symbol
 _atom_site_label
 _atom_site_symmetry_multiplicity
 _atom_site_fract_x
 _atom_site_fract_y
 _atom_site_fract_z
 _atom_site_occupancy
  K  K0  1  0.57643600  0.75076700  0.32720300  1
  K  K1  1  0.07653700  0.25079000  0.32732700  1
  K  K2  1  0.75076700  0.42356400  0.17433100  1
  K  K3  1  0.25079000  0.92346300  0.17425300  1
  K  K4  1  0.50000000  0.50000000  0.00000000  1
  K  K5  1  0.24923300  0.57643600  0.82566900  1
  K  K6  1  0.74921000  0.07653700  0.82574700  1
  K  K7  1  0.92346300  0.74921000  0.67267300  1
  K  K8  1  0.42356400  0.24923300  0.67279700  1
  W  W9  1  0.61002400  0.31652700  0.42657400  1
  W  W10  1  0.11004700  0.81655000  0.42657400  1
  W  W11  1  0.18345000  0.61002400  0.29349700  1
  W  W12  1  0.68347300  0.11004700  0.29349700  1
  W  W13  1  0.89428900  0.81872700  0.20880800  1
  W  W14  1  0.39008100  0.31452000  0.20880800  1
  W  W15  1  0.68548000  0.89428900  0.07556200  1
  W  W16  1  0.18127300  0.39008100  0.07556200  1
  W  W17  1  0.50000000  0.00000000  0.00000000  1
  W  W18  1  0.00000000  0.50000000  0.00000000  1
  W  W19  1  0.31452000  0.10571100  0.92443800  1
  W  W20  1  0.81872700  0.60991900  0.92443800  1
  W  W21  1  0.60991900  0.68548000  0.79119200  1
  W  W22  1  0.10571100  0.18127300  0.79119200  1
  W  W23  1  0.31652700  0.88995300  0.70650300  1
  W  W24  1  0.81655000  0.38997600  0.70650300  1
  W  W25  1  0.38997600  0.68347300  0.57342600  1
  W  W26  1  0.88995300  0.18345000  0.57342600  1
  W  W27  1  0.50000000  0.50000000  0.50000000  1
  W  W28  1  0.00000000  0.00000000  0.50000000  1
  O  O29  1  0.78727300  0.14317400  0.43054500  1
  O  O30  1  0.28737100  0.64327200  0.43054500  1
  O  O31  1  0.85880600  0.56625400  0.42506000  1
  O  O32  1  0.35886500  0.06624400  0.42510900  1
  O  O33  1  0.14317400  0.71262900  0.35590100  1
  O  O34  1  0.64327200  0.21272700  0.35590100  1
  O  O35  1  0.42162800  0.42277400  0.34518800  1
  O  O36  1  0.92241400  0.92355900  0.34518800  1
  O  O37  1  0.00003500  0.79080900  0.29029100  1
  O  O38  1  0.49948200  0.29025600  0.29029100  1
  O  O39  1  0.93375600  0.35886500  0.29262100  1
  O  O40  1  0.43374600  0.85880600  0.29255200  1
  O  O41  1  0.14205300  0.06635700  0.20841000  1
  O  O42  1  0.64146400  0.56616500  0.20762900  1
  O  O43  1  0.70974400  0.00003500  0.20922600  1
  O  O44  1  0.20919100  0.49948200  0.20922600  1
  O  O45  1  0.57640700  0.07761300  0.15405200  1
  O  O46  1  0.07643900  0.57764500  0.15405200  1
  O  O47  1  0.78711100  0.85658200  0.14366100  1
  O  O48  1  0.28707800  0.35655000  0.14366100  1
  O  O49  1  0.93364300  0.14205300  0.07569600  1
  O  O50  1  0.43383500  0.64146400  0.07529800  1
  O  O51  1  0.35655000  0.21288900  0.06947100  1
  O  O52  1  0.85658200  0.71292200  0.06947100  1
  O  O53  1  0.25008300  0.74992800  0.00001100  1
  O  O54  1  0.42277400  0.07758600  0.00114600  1
  O  O55  1  0.74991700  0.25007200  0.99998900  1
  O  O56  1  0.92355900  0.57837200  0.00114600  1
  O  O57  1  0.07644100  0.42162800  0.99885400  1
  O  O58  1  0.57722600  0.92241400  0.99885400  1
  O  O59  1  0.64345000  0.78711100  0.93052900  1
  O  O60  1  0.14341800  0.28707800  0.93052900  1
  O  O61  1  0.56616500  0.35853600  0.92470200  1
  O  O62  1  0.06635700  0.85794700  0.92430400  1
  O  O63  1  0.71292200  0.64345000  0.85633900  1
  O  O64  1  0.21288900  0.14341800  0.85633900  1
  O  O65  1  0.42359300  0.92238700  0.84594800  1
  O  O66  1  0.92356100  0.42235500  0.84594800  1
  O  O67  1  0.29025600  0.99996500  0.79077400  1
  O  O68  1  0.79080900  0.50051800  0.79077400  1
  O  O69  1  0.35853600  0.43383500  0.79237100  1
  O  O70  1  0.85794700  0.93364300  0.79159000  1
  O  O71  1  0.56625400  0.14119400  0.70744800  1
  O  O72  1  0.06624400  0.64113500  0.70737900  1
  O  O73  1  0.50051800  0.70974400  0.70970900  1
  O  O74  1  0.99996500  0.20919100  0.70970900  1
  O  O75  1  0.57837200  0.57722600  0.65481200  1
  O  O76  1  0.07758600  0.07644100  0.65481200  1
  O  O77  1  0.35672800  0.78727300  0.64409900  1
  O  O78  1  0.85682600  0.28737100  0.64409900  1
  O  O79  1  0.14119400  0.43374600  0.57494000  1
  O  O80  1  0.64113500  0.93375600  0.57489100  1
  O  O81  1  0.71262900  0.35672800  0.56945500  1
  O  O82  1  0.21272700  0.85682600  0.56945500  1
  O  O83  1  0.57764500  0.42359300  0.50120600  1
  O  O84  1  0.07761300  0.92356100  0.50120600  1
  O  O85  1  0.25007200  0.25008300  0.50015500  1
  O  O86  1  0.74992800  0.74991700  0.49984500  1
  O  O87  1  0.42235500  0.57640700  0.49879400  1
  O  O88  1  0.92238700  0.07643900  0.49879400  1
