# generated using pymatgen
data_Li7V3P8O29
_symmetry_space_group_name_H-M   'P 1'
_cell_length_a   9.78936600
_cell_length_b   9.80493279
_cell_length_c   13.80023403
_cell_angle_alpha   89.85268277
_cell_angle_beta   89.70898264
_cell_angle_gamma   60.15597182
_symmetry_Int_Tables_number   1
_chemical_formula_structural   Li7V3P8O29
_chemical_formula_sum   'Li14 V6 P16 O58'
_cell_volume   1148.92345130
_cell_formula_units_Z   2
loop_
 _symmetry_equiv_pos_site_id
 _symmetry_equiv_pos_as_xyz
  1  'x, y, z'
loop_
 _atom_site_type_symbol
 _atom_site_label
 _atom_site_symmetry_multiplicity
 _atom_site_fract_x
 _atom_site_fract_y
 _atom_site_fract_z
 _atom_site_occupancy
  Li  Li0  1  0.23490900  0.09347200  0.56164100  1
  Li  Li1  1  0.09527300  0.67025100  0.56256000  1
  Li  Li2  1  0.33257000  0.33361700  0.38241000  1
  Li  Li3  1  0.33120400  0.33467400  0.88282900  1
  Li  Li4  1  0.23340300  0.67077000  0.06159900  1
  Li  Li5  1  0.67269200  0.09165900  0.06180400  1
  Li  Li6  1  0.67014200  0.23156700  0.56350100  1
  Li  Li7  1  0.32791800  0.90563700  0.93742200  1
  Li  Li8  1  0.76614900  0.33042900  0.93616700  1
  Li  Li9  1  0.66324200  0.67070100  0.61612800  1
  Li  Li10  1  0.66966600  0.66876400  0.11690100  1
  Li  Li11  1  0.90532500  0.32888100  0.43745500  1
  Li  Li12  1  0.99995500  0.99876400  0.99709800  1
  Li  Li13  1  0.00935500  0.97223500  0.49827100  1
  V  V14  1  0.43337900  0.56978700  0.25462000  1
  V  V15  1  0.56524500  0.43431400  0.74866400  1
  V  V16  1  0.43471400  0.00076100  0.74981500  1
  V  V17  1  0.56776000  0.99590000  0.25405300  1
  V  V18  1  0.00453800  0.43286300  0.24439000  1
  V  V19  1  0.99615600  0.57006400  0.75411500  1
  P  P20  1  0.08642700  0.22602700  0.84421400  1
  P  P21  1  0.22424700  0.08997400  0.34333200  1
  P  P22  1  0.08798000  0.68406900  0.34571000  1
  P  P23  1  0.33729300  0.33325900  0.12728500  1
  P  P24  1  0.32934200  0.33475200  0.62508800  1
  P  P25  1  0.22662500  0.68321700  0.84436100  1
  P  P26  1  0.31249500  0.77531700  0.65511300  1
  P  P27  1  0.68487500  0.08855900  0.84678700  1
  P  P28  1  0.31529900  0.91084500  0.15576300  1
  P  P29  1  0.68302600  0.22574400  0.34280900  1
  P  P30  1  0.77332200  0.31760800  0.15642700  1
  P  P31  1  0.67017400  0.66338500  0.37259600  1
  P  P32  1  0.66688100  0.66571600  0.87502100  1
  P  P33  1  0.91321800  0.31685400  0.65473400  1
  P  P34  1  0.77612900  0.91274900  0.65690500  1
  P  P35  1  0.91292300  0.77587100  0.15763100  1
  O  O36  1  0.00400100  0.23197900  0.56440300  1
  O  O37  1  0.07768800  0.25578200  0.33935600  1
  O  O38  1  0.23056500  0.99286600  0.06480000  1
  O  O39  1  0.25204600  0.07976900  0.84394500  1
  O  O40  1  0.10430100  0.37398400  0.83247200  1
  O  O41  1  0.18649800  0.33755500  0.17159500  1
  O  O42  1  0.10166300  0.52052800  0.33213200  1
  O  O43  1  0.01024800  0.77594100  0.07349600  1
  O  O44  1  0.07969800  0.66585500  0.84015500  1
  O  O45  1  0.32600400  0.18602300  0.66443000  1
  O  O46  1  0.37265400  0.10832200  0.32972000  1
  O  O47  1  0.18203300  0.48481000  0.66756600  1
  O  O48  1  0.33518800  0.33674900  0.01851600  1
  O  O49  1  0.32451300  0.33776500  0.51612200  1
  O  O50  1  0.33683400  0.48254500  0.16728100  1
  O  O51  1  0.51785400  0.10812300  0.83258600  1
  O  O52  1  0.48444600  0.18202800  0.16650400  1
  O  O53  1  0.25643100  0.65949500  0.33720000  1
  O  O54  1  0.21796600  0.78949300  0.75430500  1
  O  O55  1  0.21217800  0.77795900  0.57296600  1
  O  O56  1  0.22795000  0.77166900  0.93419600  1
  O  O57  1  0.37399700  0.51801100  0.83322300  1
  O  O58  1  0.48279200  0.32992000  0.66224100  1
  O  O59  1  0.33543200  0.74361800  0.16003200  1
  O  O60  1  0.51809000  0.37445100  0.33030400  1
  O  O61  1  0.66256800  0.08189500  0.34078800  1
  O  O62  1  0.21126600  0.99985400  0.24967000  1
  O  O63  1  0.22394900  0.00618900  0.43435400  1
  O  O64  1  0.78063200  0.00824400  0.57330200  1
  O  O65  1  0.33138400  0.92217600  0.65614500  1
  O  O66  1  0.47892000  0.62753900  0.66575100  1
  O  O67  1  0.66732700  0.25438200  0.84100300  1
  O  O68  1  0.52426400  0.66021300  0.32875800  1
  O  O69  1  0.62256900  0.48028600  0.16823600  1
  O  O70  1  0.76947400  0.22864000  0.06781100  1
  O  O71  1  0.76919000  0.23286700  0.43199100  1
  O  O72  1  0.78859400  0.21202800  0.24989900  1
  O  O73  1  0.74841300  0.33304400  0.65506900  1
  O  O74  1  0.51569200  0.81442100  0.83538900  1
  O  O75  1  0.48010200  0.89524900  0.16871700  1
  O  O76  1  0.67079800  0.51393500  0.83669500  1
  O  O77  1  0.66820200  0.66730900  0.98341100  1
  O  O78  1  0.67078200  0.65897400  0.48089200  1
  O  O79  1  0.81991000  0.51630200  0.33142600  1
  O  O80  1  0.62734300  0.89457300  0.66664400  1
  O  O81  1  0.66334500  0.81430000  0.32900300  1
  O  O82  1  0.91632000  0.34002600  0.15863300  1
  O  O83  1  0.00527500  0.20990600  0.74566000  1
  O  O84  1  0.98855600  0.22469600  0.92744100  1
  O  O85  1  0.89521400  0.48198300  0.66806100  1
  O  O86  1  0.81354700  0.66498300  0.82882100  1
  O  O87  1  0.89441700  0.62769500  0.16842200  1
  O  O88  1  0.74598300  0.92106600  0.15766000  1
  O  O89  1  0.76915400  0.00581400  0.93757800  1
  O  O90  1  0.78987000  0.99436200  0.75510100  1
  O  O91  1  0.92236000  0.74620600  0.65817200  1
  O  O92  1  0.00787800  0.76833200  0.43715600  1
  O  O93  1  0.99294300  0.79202100  0.25536800  1
