# generated using pymatgen
data_Tb(BiO2)3
_symmetry_space_group_name_H-M   'P 1'
_cell_length_a   9.60853627
_cell_length_b   9.60853627
_cell_length_c   9.60853627
_cell_angle_alpha   109.47122063
_cell_angle_beta   109.47122063
_cell_angle_gamma   109.47122063
_symmetry_Int_Tables_number   1
_chemical_formula_structural   Tb(BiO2)3
_chemical_formula_sum   'Tb4 Bi12 O24'
_cell_volume   682.88851752
_cell_formula_units_Z   4
loop_
 _symmetry_equiv_pos_site_id
 _symmetry_equiv_pos_as_xyz
  1  'x, y, z'
loop_
 _atom_site_type_symbol
 _atom_site_label
 _atom_site_symmetry_multiplicity
 _atom_site_fract_x
 _atom_site_fract_y
 _atom_site_fract_z
 _atom_site_occupancy
  Tb  Tb0  1  0.00312800  0.50000000  0.00000000  1
  Tb  Tb1  1  0.50000000  0.00000000  0.00312800  1
  Tb  Tb2  1  0.49687200  0.49687200  0.49687200  1
  Tb  Tb3  1  0.00000000  0.00312800  0.50000000  1
  Bi  Bi4  1  0.96664700  0.25000000  0.21664700  1
  Bi  Bi5  1  0.71929200  0.46929200  0.25000000  1
  Bi  Bi6  1  0.78070800  0.03070800  0.75000000  1
  Bi  Bi7  1  0.75000000  0.28335300  0.53335300  1
  Bi  Bi8  1  0.75000000  0.78070800  0.03070800  1
  Bi  Bi9  1  0.53335300  0.75000000  0.28335300  1
  Bi  Bi10  1  0.46929200  0.25000000  0.71929200  1
  Bi  Bi11  1  0.25000000  0.71929200  0.46929200  1
  Bi  Bi12  1  0.25000000  0.21664700  0.96664700  1
  Bi  Bi13  1  0.28335300  0.53335300  0.75000000  1
  Bi  Bi14  1  0.21664700  0.96664700  0.25000000  1
  Bi  Bi15  1  0.03070800  0.75000000  0.78070800  1
  O  O16  1  0.01017300  0.04550200  0.27687100  1
  O  O17  1  0.76669800  0.03532900  0.48982700  1
  O  O18  1  0.73330200  0.22312900  0.26863100  1
  O  O19  1  0.98742500  0.95417600  0.71743000  1
  O  O20  1  0.51257500  0.23000500  0.96675200  1
  O  O21  1  0.76325400  0.54582400  0.53324800  1
  O  O22  1  0.73674600  0.26999500  0.78257000  1
  O  O23  1  0.45449800  0.46467100  0.23136900  1
  O  O24  1  0.46467100  0.23136900  0.45449800  1
  O  O25  1  0.78257000  0.73674600  0.26999500  1
  O  O26  1  0.71743000  0.98742500  0.95417600  1
  O  O27  1  0.23000500  0.96675200  0.51257500  1
  O  O28  1  0.48982700  0.76669800  0.03532900  1
  O  O29  1  0.26863100  0.73330200  0.22312900  1
  O  O30  1  0.23136900  0.45449800  0.46467100  1
  O  O31  1  0.54582400  0.53324800  0.76325400  1
  O  O32  1  0.96675200  0.51257500  0.23000500  1
  O  O33  1  0.53324800  0.76325400  0.54582400  1
  O  O34  1  0.27687100  0.01017300  0.04550200  1
  O  O35  1  0.22312900  0.26863100  0.73330200  1
  O  O36  1  0.04550200  0.27687100  0.01017300  1
  O  O37  1  0.03532900  0.48982700  0.76669800  1
  O  O38  1  0.26999500  0.78257000  0.73674600  1
  O  O39  1  0.95417600  0.71743000  0.98742500  1
