# generated using pymatgen
data_Ho9B4O19
_symmetry_space_group_name_H-M   'P 1'
_cell_length_a   7.29119000
_cell_length_b   9.32427519
_cell_length_c   12.60071813
_cell_angle_alpha   79.06107621
_cell_angle_beta   81.66600264
_cell_angle_gamma   78.76169591
_symmetry_Int_Tables_number   1
_chemical_formula_structural   Ho9B4O19
_chemical_formula_sum   'Ho18 B8 O38'
_cell_volume   819.76659450
_cell_formula_units_Z   2
loop_
 _symmetry_equiv_pos_site_id
 _symmetry_equiv_pos_as_xyz
  1  'x, y, z'
loop_
 _atom_site_type_symbol
 _atom_site_label
 _atom_site_symmetry_multiplicity
 _atom_site_fract_x
 _atom_site_fract_y
 _atom_site_fract_z
 _atom_site_occupancy
  Ho  Ho0  1  0.75076800  0.00551300  0.99276200  1
  Ho  Ho1  1  0.24923200  0.99448700  0.00723800  1
  Ho  Ho2  1  0.37608900  0.89357500  0.59727400  1
  Ho  Ho3  1  0.87996900  0.88793200  0.59446600  1
  Ho  Ho4  1  0.46395200  0.84088600  0.26587800  1
  Ho  Ho5  1  0.98279600  0.84000300  0.26540800  1
  Ho  Ho6  1  0.68615700  0.51864900  0.73588700  1
  Ho  Ho7  1  0.18380400  0.53446800  0.73280200  1
  Ho  Ho8  1  0.57583200  0.64617600  0.04450400  1
  Ho  Ho9  1  0.07934500  0.64463900  0.04394000  1
  Ho  Ho10  1  0.92065500  0.35536100  0.95606000  1
  Ho  Ho11  1  0.42416800  0.35382400  0.95549600  1
  Ho  Ho12  1  0.31384300  0.48135100  0.26411300  1
  Ho  Ho13  1  0.81619600  0.46553200  0.26719800  1
  Ho  Ho14  1  0.53604800  0.15911400  0.73412200  1
  Ho  Ho15  1  0.01720400  0.15999700  0.73459200  1
  Ho  Ho16  1  0.62391100  0.10642500  0.40272600  1
  Ho  Ho17  1  0.12003100  0.11206800  0.40553400  1
  B  B18  1  0.34149800  0.81618500  0.82050000  1
  B  B19  1  0.84052100  0.81395400  0.82031000  1
  B  B20  1  0.71763200  0.65763300  0.46924000  1
  B  B21  1  0.21733800  0.64837600  0.48534400  1
  B  B22  1  0.28236800  0.34236700  0.53076000  1
  B  B23  1  0.78266200  0.35162400  0.51465600  1
  B  B24  1  0.65850200  0.18381500  0.17950000  1
  B  B25  1  0.15947900  0.18604600  0.17969000  1
  O  O26  1  0.31585400  0.96568700  0.77069000  1
  O  O27  1  0.81523700  0.96548100  0.77148700  1
  O  O28  1  0.39905400  0.97167800  0.41551700  1
  O  O29  1  0.90946300  0.96725500  0.41372200  1
  O  O30  1  0.82280100  0.77770900  0.93122700  1
  O  O31  1  0.32256500  0.77796400  0.93226300  1
  O  O32  1  0.52509300  0.88107700  0.08726200  1
  O  O33  1  0.99107800  0.88049100  0.08675700  1
  O  O34  1  0.88359800  0.71040600  0.75028400  1
  O  O35  1  0.38542900  0.71109500  0.75084800  1
  O  O36  1  0.68047600  0.70769600  0.56766400  1
  O  O37  1  0.17667900  0.73285400  0.56746400  1
  O  O38  1  0.72163600  0.74124500  0.36802900  1
  O  O39  1  0.23151600  0.69851600  0.37688100  1
  O  O40  1  0.14856500  0.49574800  0.91164400  1
  O  O41  1  0.64692100  0.49996400  0.91090400  1
  O  O42  1  0.54905100  0.60565400  0.23449000  1
  O  O43  1  0.03096600  0.60506400  0.23433300  1
  O  O44  1  0.24219300  0.49681700  0.53223700  1
  O  O45  1  0.75780700  0.50318300  0.46776300  1
  O  O46  1  0.45094900  0.39434600  0.76551000  1
  O  O47  1  0.96903400  0.39493600  0.76566700  1
  O  O48  1  0.35307900  0.50003600  0.08909600  1
  O  O49  1  0.85143500  0.50425200  0.08835600  1
  O  O50  1  0.27836400  0.25875500  0.63197100  1
  O  O51  1  0.76848400  0.30148400  0.62311900  1
  O  O52  1  0.31952400  0.29230400  0.43233600  1
  O  O53  1  0.82332100  0.26714600  0.43253600  1
  O  O54  1  0.61457100  0.28890500  0.24915200  1
  O  O55  1  0.11640200  0.28959400  0.24971600  1
  O  O56  1  0.47490700  0.11892300  0.91273800  1
  O  O57  1  0.00892200  0.11950900  0.91324300  1
  O  O58  1  0.67743500  0.22203600  0.06773700  1
  O  O59  1  0.17719900  0.22229100  0.06877300  1
  O  O60  1  0.60094600  0.02832200  0.58448300  1
  O  O61  1  0.09053700  0.03274500  0.58627800  1
  O  O62  1  0.68414600  0.03431300  0.22931000  1
  O  O63  1  0.18476300  0.03451900  0.22851300  1
