# generated using pymatgen
data_Bi12PO20
_symmetry_space_group_name_H-M   'P 1'
_cell_length_a   8.94256620
_cell_length_b   8.94256620
_cell_length_c   8.94256620
_cell_angle_alpha   109.47122063
_cell_angle_beta   109.47122063
_cell_angle_gamma   109.47122063
_symmetry_Int_Tables_number   1
_chemical_formula_structural   Bi12PO20
_chemical_formula_sum   'Bi12 P1 O20'
_cell_volume   550.50922384
_cell_formula_units_Z   1
loop_
 _symmetry_equiv_pos_site_id
 _symmetry_equiv_pos_as_xyz
  1  'x, y, z'
loop_
 _atom_site_type_symbol
 _atom_site_label
 _atom_site_symmetry_multiplicity
 _atom_site_fract_x
 _atom_site_fract_y
 _atom_site_fract_z
 _atom_site_occupancy
  Bi  Bi0  1  0.80159400  0.14767600  0.30090800  1
  Bi  Bi1  1  0.85232400  0.65391900  0.15323300  1
  Bi  Bi2  1  0.49931400  0.34608100  0.19840600  1
  Bi  Bi3  1  0.34608100  0.19840600  0.49931400  1
  Bi  Bi4  1  0.65391900  0.15323300  0.85232400  1
  Bi  Bi5  1  0.84676700  0.50068600  0.69909200  1
  Bi  Bi6  1  0.19840600  0.49931400  0.34608100  1
  Bi  Bi7  1  0.69909200  0.84676700  0.50068600  1
  Bi  Bi8  1  0.30090800  0.80159400  0.14767600  1
  Bi  Bi9  1  0.14767600  0.30090800  0.80159400  1
  Bi  Bi10  1  0.50068600  0.69909200  0.84676700  1
  Bi  Bi11  1  0.15323300  0.85232400  0.65391900  1
  P  P12  1  0.00000000  0.00000000  0.00000000  1
  O  O13  1  0.59851600  0.00000000  0.00000000  1
  O  O14  1  0.75823300  0.37592200  0.11828900  1
  O  O15  1  0.17574800  0.00000000  0.00000000  1
  O  O16  1  0.61768900  0.24176700  0.36005700  1
  O  O17  1  0.88171100  0.25763200  0.63994300  1
  O  O18  1  0.00000000  0.17574800  0.00000000  1
  O  O19  1  0.00000000  0.00000000  0.17574800  1
  O  O20  1  0.74236800  0.62407800  0.38231100  1
  O  O21  1  0.40148400  0.40148400  0.40148400  1
  O  O22  1  0.37592200  0.11828900  0.75823300  1
  O  O23  1  0.62407800  0.38231100  0.74236800  1
  O  O24  1  0.36005700  0.61768900  0.24176700  1
  O  O25  1  0.63994300  0.88171100  0.25763200  1
  O  O26  1  0.00000000  0.59851600  0.00000000  1
  O  O27  1  0.00000000  0.00000000  0.59851600  1
  O  O28  1  0.24176700  0.36005700  0.61768900  1
  O  O29  1  0.82425200  0.82425200  0.82425200  1
  O  O30  1  0.38231100  0.74236800  0.62407800  1
  O  O31  1  0.11828900  0.75823300  0.37592200  1
  O  O32  1  0.25763200  0.63994300  0.88171100  1
