# generated using pymatgen
data_Bi12PbO19
_symmetry_space_group_name_H-M   'P 1'
_cell_length_a   9.05767483
_cell_length_b   9.05767483
_cell_length_c   9.05767471
_cell_angle_alpha   109.81767677
_cell_angle_beta   109.81767677
_cell_angle_gamma   109.81766740
_symmetry_Int_Tables_number   1
_chemical_formula_structural   Bi12PbO19
_chemical_formula_sum   'Bi12 Pb1 O19'
_cell_volume   564.58568458
_cell_formula_units_Z   1
loop_
 _symmetry_equiv_pos_site_id
 _symmetry_equiv_pos_as_xyz
  1  'x, y, z'
loop_
 _atom_site_type_symbol
 _atom_site_label
 _atom_site_symmetry_multiplicity
 _atom_site_fract_x
 _atom_site_fract_y
 _atom_site_fract_z
 _atom_site_occupancy
  Bi  Bi0  1  0.68072200  0.83294700  0.47674500  1
  Bi  Bi1  1  0.19453600  0.49275800  0.32194500  1
  Bi  Bi2  1  0.16291700  0.85640700  0.66144800  1
  Bi  Bi3  1  0.13891100  0.29687200  0.82451600  1
  Bi  Bi4  1  0.47674500  0.68072200  0.83294700  1
  Bi  Bi5  1  0.29687200  0.82451600  0.13891100  1
  Bi  Bi6  1  0.66144800  0.16291700  0.85640700  1
  Bi  Bi7  1  0.49275800  0.32194500  0.19453600  1
  Bi  Bi8  1  0.85640700  0.66144800  0.16291700  1
  Bi  Bi9  1  0.83294700  0.47674500  0.68072200  1
  Bi  Bi10  1  0.82451600  0.13891100  0.29687200  1
  Bi  Bi11  1  0.32194500  0.19453600  0.49275800  1
  Pb  Pb12  1  0.95935400  0.95935400  0.95935400  1
  O  O13  1  0.38789000  0.38789000  0.38789000  1
  O  O14  1  0.37493600  0.73622100  0.62509600  1
  O  O15  1  0.64768400  0.88498300  0.25687200  1
  O  O16  1  0.36785300  0.63193600  0.24818300  1
  O  O17  1  0.01904700  0.23930200  0.00398800  1
  O  O18  1  0.11657800  0.76111300  0.38045000  1
  O  O19  1  0.63100000  0.00225200  0.00196700  1
  O  O20  1  0.00225200  0.00196700  0.63100000  1
  O  O21  1  0.24818300  0.36785300  0.63193600  1
  O  O22  1  0.25687200  0.64768400  0.88498300  1
  O  O23  1  0.76111300  0.38045000  0.11657800  1
  O  O24  1  0.73622100  0.62509600  0.37493600  1
  O  O25  1  0.00196700  0.63100000  0.00225200  1
  O  O26  1  0.88498300  0.25687200  0.64768400  1
  O  O27  1  0.23930200  0.00398800  0.01904700  1
  O  O28  1  0.00398800  0.01904700  0.23930200  1
  O  O29  1  0.38045000  0.11657800  0.76111300  1
  O  O30  1  0.62509600  0.37493600  0.73622100  1
  O  O31  1  0.63193600  0.24818300  0.36785300  1
