# generated using pymatgen
data_SmY15O24
_symmetry_space_group_name_H-M   'P 1'
_cell_length_a   9.28561225
_cell_length_b   9.28561225
_cell_length_c   10.72652982
_cell_angle_alpha   54.79838806
_cell_angle_beta   54.79838806
_cell_angle_gamma   70.59430202
_symmetry_Int_Tables_number   1
_chemical_formula_structural   SmY15O24
_chemical_formula_sum   'Sm1 Y15 O24'
_cell_volume   617.53452145
_cell_formula_units_Z   1
loop_
 _symmetry_equiv_pos_site_id
 _symmetry_equiv_pos_as_xyz
  1  'x, y, z'
loop_
 _atom_site_type_symbol
 _atom_site_label
 _atom_site_symmetry_multiplicity
 _atom_site_fract_x
 _atom_site_fract_y
 _atom_site_fract_z
 _atom_site_occupancy
  Sm  Sm0  1  0.03221400  0.96778600  0.50000000  1
  Y  Y1  1  0.96708100  0.03291900  0.00000000  1
  Y  Y2  1  0.99996300  0.49874700  0.75068800  1
  Y  Y3  1  0.71605200  0.21761100  0.78381500  1
  Y  Y4  1  0.78238900  0.28394800  0.21618500  1
  Y  Y5  1  0.25035400  0.25113400  0.03155200  1
  Y  Y6  1  0.25049300  0.25030900  0.53316100  1
  Y  Y7  1  0.50125300  0.00003700  0.24931200  1
  Y  Y8  1  0.99994600  0.50146700  0.24877600  1
  Y  Y9  1  0.49853300  0.00005400  0.75122400  1
  Y  Y10  1  0.53307700  0.46692300  0.50000000  1
  Y  Y11  1  0.46686900  0.53313100  0.00000000  1
  Y  Y12  1  0.74969100  0.74950700  0.46683900  1
  Y  Y13  1  0.74886600  0.74964600  0.96844800  1
  Y  Y14  1  0.21735700  0.71611600  0.28273300  1
  Y  Y15  1  0.28388400  0.78264300  0.71726700  1
  O  O16  1  0.45676100  0.24001900  0.78145100  1
  O  O17  1  0.04251200  0.26074900  0.97799300  1
  O  O18  1  0.03126900  0.72502100  0.76502200  1
  O  O19  1  0.72869800  0.03178700  0.26071300  1
  O  O20  1  0.53218200  0.22807100  0.47942000  1
  O  O21  1  0.22915900  0.53233700  0.97890600  1
  O  O22  1  0.75998100  0.54323900  0.21854900  1
  O  O23  1  0.73925100  0.95748800  0.02200700  1
  O  O24  1  0.22888100  0.98922400  0.79293300  1
  O  O25  1  0.98903200  0.23407300  0.28820000  1
  O  O26  1  0.51074500  0.27095000  0.01129600  1
  O  O27  1  0.27092300  0.51082900  0.51117500  1
  O  O28  1  0.01077600  0.77111900  0.20706700  1
  O  O29  1  0.48917100  0.72907700  0.48882500  1
  O  O30  1  0.76592700  0.01096800  0.71180000  1
  O  O31  1  0.72905000  0.48925500  0.98870400  1
  O  O32  1  0.23864500  0.45684000  0.28223400  1
  O  O33  1  0.26566400  0.04260300  0.47750300  1
  O  O34  1  0.77192900  0.46781800  0.52058000  1
  O  O35  1  0.46766300  0.77084100  0.02109400  1
  O  O36  1  0.27497900  0.96873100  0.23497800  1
  O  O37  1  0.96821300  0.27130200  0.73928700  1
  O  O38  1  0.54316000  0.76135500  0.71776600  1
  O  O39  1  0.95739700  0.73433600  0.52249700  1
