# generated using pymatgen
data_V2Co(HO2)4
_symmetry_space_group_name_H-M   'P 1'
_cell_length_a   5.69300100
_cell_length_b   10.77121800
_cell_length_c   11.91821000
_cell_angle_alpha   90.00000000
_cell_angle_beta   90.00000000
_cell_angle_gamma   90.00000000
_symmetry_Int_Tables_number   1
_chemical_formula_structural   V2Co(HO2)4
_chemical_formula_sum   'V8 Co4 H16 O32'
_cell_volume   730.83124996
_cell_formula_units_Z   4
loop_
 _symmetry_equiv_pos_site_id
 _symmetry_equiv_pos_as_xyz
  1  'x, y, z'
loop_
 _atom_site_type_symbol
 _atom_site_label
 _atom_site_symmetry_multiplicity
 _atom_site_fract_x
 _atom_site_fract_y
 _atom_site_fract_z
 _atom_site_occupancy
  V  V0  1  0.19328200  0.03169300  0.17408200  1
  V  V1  1  0.19328200  0.46830700  0.17408200  1
  V  V2  1  0.30671800  0.53169300  0.67408200  1
  V  V3  1  0.30671800  0.96830700  0.67408200  1
  V  V4  1  0.69328200  0.03169300  0.32591800  1
  V  V5  1  0.69328200  0.46830700  0.32591800  1
  V  V6  1  0.80671800  0.53169300  0.82591800  1
  V  V7  1  0.80671800  0.96830700  0.82591800  1
  Co  Co8  1  0.01838800  0.75000000  0.04066200  1
  Co  Co9  1  0.48161200  0.25000000  0.54066200  1
  Co  Co10  1  0.51838800  0.75000000  0.45933800  1
  Co  Co11  1  0.98161200  0.25000000  0.95933800  1
  H  H12  1  0.05143300  0.75000000  0.41559000  1
  H  H13  1  0.12103000  0.17749900  0.40335400  1
  H  H14  1  0.12103000  0.32250100  0.40335400  1
  H  H15  1  0.17060800  0.75000000  0.29226500  1
  H  H16  1  0.32939200  0.25000000  0.79226500  1
  H  H17  1  0.37897000  0.82250100  0.90335400  1
  H  H18  1  0.37897000  0.67749900  0.90335400  1
  H  H19  1  0.44856700  0.25000000  0.91559000  1
  H  H20  1  0.55143300  0.75000000  0.08441000  1
  H  H21  1  0.62103000  0.17749900  0.09664600  1
  H  H22  1  0.62103000  0.32250100  0.09664600  1
  H  H23  1  0.67060800  0.75000000  0.20773500  1
  H  H24  1  0.82939200  0.25000000  0.70773500  1
  H  H25  1  0.87897000  0.67749900  0.59664600  1
  H  H26  1  0.87897000  0.82250100  0.59664600  1
  H  H27  1  0.94856700  0.25000000  0.58441000  1
  O  O28  1  0.00047800  0.07130500  0.29181900  1
  O  O29  1  0.00047800  0.42869500  0.29181900  1
  O  O30  1  0.11369500  0.11614700  0.06317000  1
  O  O31  1  0.11369500  0.38385300  0.06317000  1
  O  O32  1  0.15225700  0.25000000  0.45201200  1
  O  O33  1  0.16324200  0.62065100  0.14465900  1
  O  O34  1  0.16324200  0.87934900  0.14465900  1
  O  O35  1  0.19925000  0.75000000  0.37291100  1
  O  O36  1  0.30075000  0.25000000  0.87291100  1
  O  O37  1  0.33675800  0.12065100  0.64465900  1
  O  O38  1  0.33675800  0.37934900  0.64465900  1
  O  O39  1  0.34774300  0.75000000  0.95201200  1
  O  O40  1  0.38630500  0.88385300  0.56317000  1
  O  O41  1  0.38630500  0.61614700  0.56317000  1
  O  O42  1  0.49952200  0.92869500  0.79181900  1
  O  O43  1  0.49952200  0.57130500  0.79181900  1
  O  O44  1  0.50047800  0.07130500  0.20818100  1
  O  O45  1  0.50047800  0.42869500  0.20818100  1
  O  O46  1  0.61369500  0.11614700  0.43683000  1
  O  O47  1  0.61369500  0.38385300  0.43683000  1
  O  O48  1  0.65225700  0.25000000  0.04798800  1
  O  O49  1  0.66324200  0.62065100  0.35534100  1
  O  O50  1  0.66324200  0.87934900  0.35534100  1
  O  O51  1  0.69925000  0.75000000  0.12708900  1
  O  O52  1  0.80075000  0.25000000  0.62708900  1
  O  O53  1  0.83675800  0.12065100  0.85534100  1
  O  O54  1  0.83675800  0.37934900  0.85534100  1
  O  O55  1  0.84774300  0.75000000  0.54798800  1
  O  O56  1  0.88630500  0.61614700  0.93683000  1
  O  O57  1  0.88630500  0.88385300  0.93683000  1
  O  O58  1  0.99952200  0.57130500  0.70818100  1
  O  O59  1  0.99952200  0.92869500  0.70818100  1
