# generated using pymatgen
data_VF5
_symmetry_space_group_name_H-M   'P 1'
_cell_length_a   10.55601100
_cell_length_b   5.36141800
_cell_length_c   6.22170761
_cell_angle_alpha   75.83915095
_cell_angle_beta   90.00000000
_cell_angle_gamma   90.00000000
_symmetry_Int_Tables_number   1
_chemical_formula_structural   VF5
_chemical_formula_sum   'V4 F20'
_cell_volume   341.41878738
_cell_formula_units_Z   4
loop_
 _symmetry_equiv_pos_site_id
 _symmetry_equiv_pos_as_xyz
  1  'x, y, z'
loop_
 _atom_site_type_symbol
 _atom_site_label
 _atom_site_symmetry_multiplicity
 _atom_site_fract_x
 _atom_site_fract_y
 _atom_site_fract_z
 _atom_site_occupancy
  V  V0  1  0.95312700  0.57533600  0.73410600  1
  V  V1  1  0.45312700  0.42466400  0.76589400  1
  V  V2  1  0.54687300  0.57533600  0.23410600  1
  V  V3  1  0.04687300  0.42466400  0.26589400  1
  F  F4  1  0.07116300  0.81408600  0.68839300  1
  F  F5  1  0.82315600  0.78190100  0.68230700  1
  F  F6  1  0.37306000  0.72219000  0.69931000  1
  F  F7  1  0.58103300  0.61407000  0.91297400  1
  F  F8  1  0.42883700  0.81408600  0.18839300  1
  F  F9  1  0.67684400  0.78190100  0.18230700  1
  F  F10  1  0.12694000  0.72219000  0.19931000  1
  F  F11  1  0.58218400  0.62169400  0.52902900  1
  F  F12  1  0.91896700  0.61407000  0.41297400  1
  F  F13  1  0.08218400  0.37830600  0.97097100  1
  F  F14  1  0.91781600  0.62169400  0.02902900  1
  F  F15  1  0.08103300  0.38593000  0.58702600  1
  F  F16  1  0.41781600  0.37830600  0.47097100  1
  F  F17  1  0.87306000  0.27781000  0.80069000  1
  F  F18  1  0.32315600  0.21809900  0.81769300  1
  F  F19  1  0.57116300  0.18591400  0.81160700  1
  F  F20  1  0.41896700  0.38593000  0.08702600  1
  F  F21  1  0.62694000  0.27781000  0.30069000  1
  F  F22  1  0.17684400  0.21809900  0.31769300  1
  F  F23  1  0.92883700  0.18591400  0.31160700  1
