# generated using pymatgen
data_V2GaO5
_symmetry_space_group_name_H-M   'P 1'
_cell_length_a   6.12841700
_cell_length_b   9.14512897
_cell_length_c   9.95704636
_cell_angle_alpha   95.13727531
_cell_angle_beta   107.88233097
_cell_angle_gamma   99.55179004
_symmetry_Int_Tables_number   1
_chemical_formula_structural   V2GaO5
_chemical_formula_sum   'V12 Ga6 O30'
_cell_volume   517.81988347
_cell_formula_units_Z   6
loop_
 _symmetry_equiv_pos_site_id
 _symmetry_equiv_pos_as_xyz
  1  'x, y, z'
loop_
 _atom_site_type_symbol
 _atom_site_label
 _atom_site_symmetry_multiplicity
 _atom_site_fract_x
 _atom_site_fract_y
 _atom_site_fract_z
 _atom_site_occupancy
  V  V0  1  0.93017500  0.02571100  0.34692100  1
  V  V1  1  0.43087800  0.03123500  0.34677700  1
  V  V2  1  0.00000000  0.00000000  0.00000000  1
  V  V3  1  0.50000000  0.00000000  0.00000000  1
  V  V4  1  0.79363100  0.38073800  0.38650800  1
  V  V5  1  0.86538500  0.35467100  0.05167200  1
  V  V6  1  0.36353500  0.35474100  0.05144200  1
  V  V7  1  0.13461500  0.64532800  0.94832800  1
  V  V8  1  0.63646500  0.64525900  0.94855800  1
  V  V9  1  0.20636900  0.61926200  0.61349200  1
  V  V10  1  0.06982500  0.97428900  0.65307900  1
  V  V11  1  0.56912200  0.96876500  0.65322300  1
  Ga  Ga12  1  0.93747500  0.31150500  0.72174500  1
  Ga  Ga13  1  0.43997400  0.31201100  0.72208400  1
  Ga  Ga14  1  0.28826600  0.37780800  0.38764900  1
  Ga  Ga15  1  0.71173400  0.62219200  0.61235100  1
  Ga  Ga16  1  0.56002600  0.68798900  0.27791600  1
  Ga  Ga17  1  0.06252500  0.68849500  0.27825500  1
  O  O18  1  0.73900400  0.00034000  0.49948200  1
  O  O19  1  0.26099600  0.99966000  0.50051800  1
  O  O20  1  0.60599600  0.02196200  0.21321400  1
  O  O21  1  0.11790600  0.02260500  0.21317100  1
  O  O22  1  0.14907800  0.20281300  0.69644800  1
  O  O23  1  0.64813400  0.20029600  0.69606200  1
  O  O24  1  0.29347900  0.15504500  0.00946400  1
  O  O25  1  0.79398100  0.15516800  0.01035900  1
  O  O26  1  0.50008700  0.23706700  0.38858300  1
  O  O27  1  0.00942100  0.24660700  0.39158300  1
  O  O28  1  0.05883500  0.40104300  0.91802400  1
  O  O29  1  0.55965100  0.40123000  0.91808700  1
  O  O30  1  0.18437900  0.37428000  0.17998000  1
  O  O31  1  0.68233300  0.37635900  0.17901400  1
  O  O32  1  0.91069200  0.45775400  0.60199700  1
  O  O33  1  0.41959400  0.45868000  0.60121900  1
  O  O34  1  0.58040600  0.54132000  0.39878100  1
  O  O35  1  0.08930800  0.54224600  0.39800300  1
  O  O36  1  0.31766700  0.62364100  0.82098600  1
  O  O37  1  0.81562100  0.62572000  0.82002000  1
  O  O38  1  0.94116500  0.59895700  0.08197600  1
  O  O39  1  0.44034900  0.59877000  0.08191300  1
  O  O40  1  0.49991300  0.76293300  0.61141700  1
  O  O41  1  0.99057900  0.75339300  0.60841700  1
  O  O42  1  0.70652100  0.84495500  0.99053600  1
  O  O43  1  0.20601900  0.84483200  0.98964100  1
  O  O44  1  0.35186600  0.79970400  0.30393800  1
  O  O45  1  0.85092200  0.79718700  0.30355200  1
  O  O46  1  0.39400400  0.97803800  0.78678600  1
  O  O47  1  0.88209400  0.97739500  0.78682900  1
