# generated using pymatgen
data_NiSn(PO4)2
_symmetry_space_group_name_H-M   'P 1'
_cell_length_a   4.93795698
_cell_length_b   11.65331578
_cell_length_c   11.65268295
_cell_angle_alpha   118.58075487
_cell_angle_beta   90.30968742
_cell_angle_gamma   89.69520131
_symmetry_Int_Tables_number   1
_chemical_formula_structural   NiSn(PO4)2
_chemical_formula_sum   'Ni4 Sn4 P8 O32'
_cell_volume   588.81639655
_cell_formula_units_Z   4
loop_
 _symmetry_equiv_pos_site_id
 _symmetry_equiv_pos_as_xyz
  1  'x, y, z'
loop_
 _atom_site_type_symbol
 _atom_site_label
 _atom_site_symmetry_multiplicity
 _atom_site_fract_x
 _atom_site_fract_y
 _atom_site_fract_z
 _atom_site_occupancy
  Ni  Ni0  1  0.44027200  0.98738900  0.76286900  1
  Ni  Ni1  1  0.56005500  0.01285600  0.23755900  1
  Ni  Ni2  1  0.43902500  0.48699800  0.26255200  1
  Ni  Ni3  1  0.56010100  0.51292300  0.73727600  1
  Sn  Sn4  1  0.95190600  0.26269200  0.98732200  1
  Sn  Sn5  1  0.95195400  0.76269400  0.48731300  1
  Sn  Sn6  1  0.04804400  0.73731900  0.01268300  1
  Sn  Sn7  1  0.04811600  0.23732200  0.51268400  1
  P  P8  1  0.39038500  0.16996400  0.07983100  1
  P  P9  1  0.39039000  0.67010300  0.57983500  1
  P  P10  1  0.60964700  0.83000700  0.92025400  1
  P  P11  1  0.60967400  0.32997700  0.42012700  1
  P  P12  1  0.90167300  0.57768200  0.17225400  1
  P  P13  1  0.90203900  0.07771900  0.67224300  1
  P  P14  1  0.09804500  0.42228600  0.82767000  1
  P  P15  1  0.09820100  0.92224100  0.32776000  1
  O  O16  1  0.65973500  0.40381800  0.34622400  1
  O  O17  1  0.66004800  0.90392300  0.84641700  1
  O  O18  1  0.33997900  0.59617600  0.65365500  1
  O  O19  1  0.34019800  0.09610800  0.15370800  1
  O  O20  1  0.69755400  0.18398600  0.06596300  1
  O  O21  1  0.69762500  0.68399400  0.56598000  1
  O  O22  1  0.30244600  0.81602500  0.93404100  1
  O  O23  1  0.30247000  0.31595300  0.43399300  1
  O  O24  1  0.20453600  0.56832300  0.18154900  1
  O  O25  1  0.20490000  0.06846400  0.68163200  1
  O  O26  1  0.79524700  0.43160900  0.81828000  1
  O  O27  1  0.79537200  0.93160700  0.31851200  1
  O  O28  1  0.17872900  0.34737700  0.90267200  1
  O  O29  1  0.17905600  0.84736700  0.40274300  1
  O  O30  1  0.82110400  0.65258700  0.09726300  1
  O  O31  1  0.82120400  0.15261800  0.59726700  1
  O  O32  1  0.24212400  0.10794200  0.94101300  1
  O  O33  1  0.24204000  0.60801800  0.44103400  1
  O  O34  1  0.24191500  0.30872800  0.14194100  1
  O  O35  1  0.24227900  0.80890700  0.64192800  1
  O  O36  1  0.75787400  0.69117200  0.85804300  1
  O  O37  1  0.75800400  0.19116800  0.35803700  1
  O  O38  1  0.75788400  0.89199400  0.05903900  1
  O  O39  1  0.75798700  0.39204300  0.55891000  1
  O  O40  1  0.75341800  0.64446800  0.30960500  1
  O  O41  1  0.75357700  0.14447900  0.80958500  1
  O  O42  1  0.75338400  0.44032000  0.10551900  1
  O  O43  1  0.75371700  0.94038700  0.60554200  1
  O  O44  1  0.24652400  0.35552300  0.69037000  1
  O  O45  1  0.24652700  0.85549200  0.19041100  1
  O  O46  1  0.24643600  0.55964000  0.89442700  1
  O  O47  1  0.24658000  0.05961200  0.39446300  1
