# generated using pymatgen
data_MgAl10O16
_symmetry_space_group_name_H-M   'P 1'
_cell_length_a   9.70639787
_cell_length_b   9.70639787
_cell_length_c   9.70639845
_cell_angle_alpha   34.26748009
_cell_angle_beta   34.26748009
_cell_angle_gamma   34.26747930
_symmetry_Int_Tables_number   1
_chemical_formula_structural   MgAl10O16
_chemical_formula_sum   'Mg1 Al10 O16'
_cell_volume   258.54381907
_cell_formula_units_Z   1
loop_
 _symmetry_equiv_pos_site_id
 _symmetry_equiv_pos_as_xyz
  1  'x, y, z'
loop_
 _atom_site_type_symbol
 _atom_site_label
 _atom_site_symmetry_multiplicity
 _atom_site_fract_x
 _atom_site_fract_y
 _atom_site_fract_z
 _atom_site_occupancy
  Mg  Mg0  1  0.80998100  0.80998100  0.80998100  1
  Al  Al1  1  0.30979200  0.30979200  0.30979200  1
  Al  Al2  1  0.24340000  0.75950600  0.75950600  1
  Al  Al3  1  0.18925600  0.18925600  0.18925600  1
  Al  Al4  1  0.75950600  0.24340000  0.75950600  1
  Al  Al5  1  0.24558900  0.24558900  0.74929200  1
  Al  Al6  1  0.75950600  0.75950600  0.24340000  1
  Al  Al7  1  0.24558900  0.74929200  0.24558900  1
  Al  Al8  1  0.74929200  0.24558900  0.24558900  1
  Al  Al9  1  0.49778400  0.49778400  0.49778400  1
  Al  Al10  1  0.69177700  0.69177700  0.69177700  1
  O  O11  1  0.38834100  0.38834100  0.85080300  1
  O  O12  1  0.38834100  0.85080300  0.38834100  1
  O  O13  1  0.12049300  0.12049300  0.61834000  1
  O  O14  1  0.12049300  0.61834000  0.12049300  1
  O  O15  1  0.61834000  0.12049300  0.12049300  1
  O  O16  1  0.37541400  0.37541400  0.37541400  1
  O  O17  1  0.16253200  0.60138300  0.60138300  1
  O  O18  1  0.88270700  0.88270700  0.88270700  1
  O  O19  1  0.62298200  0.62298200  0.62298200  1
  O  O20  1  0.85080300  0.38834100  0.38834100  1
  O  O21  1  0.37784400  0.88227500  0.88227500  1
  O  O22  1  0.12262900  0.12262900  0.12262900  1
  O  O23  1  0.88227500  0.88227500  0.37784400  1
  O  O24  1  0.88227500  0.37784400  0.88227500  1
  O  O25  1  0.60138300  0.16253200  0.60138300  1
  O  O26  1  0.60138300  0.60138300  0.16253200  1
