# generated using pymatgen
data_Zr2PdPt
_symmetry_space_group_name_H-M   'P 1'
_cell_length_a   10.91439972
_cell_length_b   10.91439972
_cell_length_c   10.91439972
_cell_angle_alpha   125.41370004
_cell_angle_beta   118.31506156
_cell_angle_gamma   86.91624433
_symmetry_Int_Tables_number   1
_chemical_formula_structural   Zr2PdPt
_chemical_formula_sum   'Zr2 Pd1 Pt1'
_cell_volume   887.46045563
_cell_formula_units_Z   1
loop_
 _symmetry_equiv_pos_site_id
 _symmetry_equiv_pos_as_xyz
  1  'x, y, z'
loop_
 _atom_site_type_symbol
 _atom_site_label
 _atom_site_symmetry_multiplicity
 _atom_site_fract_x
 _atom_site_fract_y
 _atom_site_fract_z
 _atom_site_occupancy
  Zr  Zr0  1  0.00000000  0.25330700  0.25330700  1
  Zr  Zr1  1  0.00000000  0.74669300  0.74669300  1
  Pd  Pd2  1  0.00000000  0.00000000  0.00000000  1
  Pt  Pt3  1  0.00000000  0.50000000  0.50000000  1
