# generated using pymatgen
data_TiMnIr2
_symmetry_space_group_name_H-M   'P 1'
_cell_length_a   10.18082241
_cell_length_b   10.18082241
_cell_length_c   10.18082241
_cell_angle_alpha   126.92176623
_cell_angle_beta   117.67696360
_cell_angle_gamma   86.26108905
_symmetry_Int_Tables_number   1
_chemical_formula_structural   TiMnIr2
_chemical_formula_sum   'Ti1 Mn1 Ir2'
_cell_volume   712.20205401
_cell_formula_units_Z   1
loop_
 _symmetry_equiv_pos_site_id
 _symmetry_equiv_pos_as_xyz
  1  'x, y, z'
loop_
 _atom_site_type_symbol
 _atom_site_label
 _atom_site_symmetry_multiplicity
 _atom_site_fract_x
 _atom_site_fract_y
 _atom_site_fract_z
 _atom_site_occupancy
  Ti  Ti0  1  0.00000000  0.00000000  0.00000000  1
  Mn  Mn1  1  0.00000000  0.50000000  0.50000000  1
  Ir  Ir2  1  0.00000000  0.22971600  0.22971600  1
  Ir  Ir3  1  0.00000000  0.77028400  0.77028400  1
