# generated using pymatgen
data_In(HO)3
_symmetry_space_group_name_H-M   'P 1'
_cell_length_a   7.02440700
_cell_length_b   7.00369518
_cell_length_c   7.05351066
_cell_angle_alpha   111.34406542
_cell_angle_beta   110.35065455
_cell_angle_gamma   106.90121150
_symmetry_Int_Tables_number   1
_chemical_formula_structural   In(HO)3
_chemical_formula_sum   'In4 H12 O12'
_cell_volume   266.19804740
_cell_formula_units_Z   4
loop_
 _symmetry_equiv_pos_site_id
 _symmetry_equiv_pos_as_xyz
  1  'x, y, z'
loop_
 _atom_site_type_symbol
 _atom_site_label
 _atom_site_symmetry_multiplicity
 _atom_site_fract_x
 _atom_site_fract_y
 _atom_site_fract_z
 _atom_site_occupancy
  In  In0  1  0.51152200  0.01121900  0.00759700  1
  In  In1  1  0.00270000  0.47981300  0.01199700  1
  In  In2  1  0.99778800  0.00211100  0.49993800  1
  In  In3  1  0.47935000  0.48797200  0.47575200  1
  H  H4  1  0.82165900  0.45667700  0.28249500  1
  H  H5  1  0.70601100  0.16570700  0.55092900  1
  H  H6  1  0.55913900  0.72556600  0.16771400  1
  H  H7  1  0.89984800  0.71874800  0.63603200  1
  H  H8  1  0.03674000  0.32474000  0.37016100  1
  H  H9  1  0.28948300  0.25853400  0.96664800  1
  H  H10  1  0.71622000  0.65738500  0.94299500  1
  H  H11  1  0.63278600  0.94841200  0.68155700  1
  H  H12  1  0.27750500  0.83174800  0.45577900  1
  H  H13  1  0.34961200  0.03100300  0.31124500  1
  H  H14  1  0.18135300  0.50928500  0.69186800  1
  H  H15  1  0.07720000  0.69350300  0.79143800  1
  O  O16  1  0.83276800  0.32576300  0.17068100  1
  O  O17  1  0.47814300  0.15345000  0.32161500  1
  O  O18  1  0.82642800  0.15649900  0.66996100  1
  O  O19  1  0.30994200  0.47051100  0.15575900  1
  O  O20  1  0.67859000  0.84018400  0.16230800  1
  O  O21  1  0.80241300  0.66463800  0.47055000  1
  O  O22  1  0.16330500  0.33783000  0.50918500  1
  O  O23  1  0.26929600  0.10717000  0.83652800  1
  O  O24  1  0.74498600  0.56077900  0.82203800  1
  O  O25  1  0.15799000  0.83396900  0.32918700  1
  O  O26  1  0.50736100  0.83318100  0.68101600  1
  O  O27  1  0.19886200  0.65508100  0.84978700  1
