# generated using pymatgen
data_Mn3CoO8
_symmetry_space_group_name_H-M   'P 1'
_cell_length_a   8.24300200
_cell_length_b   8.24300200
_cell_length_c   8.24300200
_cell_angle_alpha   90.00000000
_cell_angle_beta   90.00000000
_cell_angle_gamma   90.00000000
_symmetry_Int_Tables_number   1
_chemical_formula_structural   Mn3CoO8
_chemical_formula_sum   'Mn12 Co4 O32'
_cell_volume   560.08793259
_cell_formula_units_Z   4
loop_
 _symmetry_equiv_pos_site_id
 _symmetry_equiv_pos_as_xyz
  1  'x, y, z'
loop_
 _atom_site_type_symbol
 _atom_site_label
 _atom_site_symmetry_multiplicity
 _atom_site_fract_x
 _atom_site_fract_y
 _atom_site_fract_z
 _atom_site_occupancy
  Mn  Mn0  1  0.12718700  0.12281300  0.62500000  1
  Mn  Mn1  1  0.12500000  0.37281300  0.87718700  1
  Mn  Mn2  1  0.12281300  0.62500000  0.12718700  1
  Mn  Mn3  1  0.37718700  0.37500000  0.62718700  1
  Mn  Mn4  1  0.37500000  0.62718700  0.37718700  1
  Mn  Mn5  1  0.37281300  0.87718700  0.12500000  1
  Mn  Mn6  1  0.62718700  0.37718700  0.37500000  1
  Mn  Mn7  1  0.62500000  0.12718700  0.12281300  1
  Mn  Mn8  1  0.62281300  0.87500000  0.87281300  1
  Mn  Mn9  1  0.87718700  0.12500000  0.37281300  1
  Mn  Mn10  1  0.87500000  0.87281300  0.62281300  1
  Mn  Mn11  1  0.87281300  0.62281300  0.87500000  1
  Co  Co12  1  0.12500000  0.87500000  0.37500000  1
  Co  Co13  1  0.37500000  0.12500000  0.87500000  1
  Co  Co14  1  0.62500000  0.62500000  0.62500000  1
  Co  Co15  1  0.87500000  0.37500000  0.12500000  1
  O  O16  1  0.11241700  0.11286700  0.39006800  1
  O  O17  1  0.10993200  0.88758300  0.61286700  1
  O  O18  1  0.10740900  0.60740900  0.89259100  1
  O  O19  1  0.13713300  0.13758300  0.85993200  1
  O  O20  1  0.11286700  0.39006800  0.11241700  1
  O  O21  1  0.14259100  0.35740900  0.64259100  1
  O  O22  1  0.14006800  0.63713300  0.36241700  1
  O  O23  1  0.13758300  0.85993200  0.13713300  1
  O  O24  1  0.36241700  0.14006800  0.63713300  1
  O  O25  1  0.35993200  0.36286700  0.86241700  1
  O  O26  1  0.35740900  0.64259100  0.14259100  1
  O  O27  1  0.38713300  0.60993200  0.61241700  1
  O  O28  1  0.36286700  0.86241700  0.35993200  1
  O  O29  1  0.39259100  0.39259100  0.39259100  1
  O  O30  1  0.39006800  0.11241700  0.11286700  1
  O  O31  1  0.38758300  0.88713300  0.89006800  1
  O  O32  1  0.61241700  0.38713300  0.60993200  1
  O  O33  1  0.60993200  0.61241700  0.38713300  1
  O  O34  1  0.60740900  0.89259100  0.10740900  1
  O  O35  1  0.63713300  0.36241700  0.14006800  1
  O  O36  1  0.61286700  0.10993200  0.88758300  1
  O  O37  1  0.64259100  0.14259100  0.35740900  1
  O  O38  1  0.64006800  0.86286700  0.63758300  1
  O  O39  1  0.63758300  0.64006800  0.86286700  1
  O  O40  1  0.86241700  0.35993200  0.36286700  1
  O  O41  1  0.85993200  0.13713300  0.13758300  1
  O  O42  1  0.85740900  0.85740900  0.85740900  1
  O  O43  1  0.88713300  0.89006800  0.38758300  1
  O  O44  1  0.86286700  0.63758300  0.64006800  1
  O  O45  1  0.89259100  0.10740900  0.60740900  1
  O  O46  1  0.89006800  0.38758300  0.88713300  1
  O  O47  1  0.88758300  0.61286700  0.10993200  1
