# generated using pymatgen
data_Ca3V10O25
_symmetry_space_group_name_H-M   'P 1'
_cell_length_a   6.30581800
_cell_length_b   9.17301562
_cell_length_c   18.10158893
_cell_angle_alpha   86.11053571
_cell_angle_beta   88.17759682
_cell_angle_gamma   78.84346523
_symmetry_Int_Tables_number   1
_chemical_formula_structural   Ca3V10O25
_chemical_formula_sum   'Ca6 V20 O50'
_cell_volume   1024.71718066
_cell_formula_units_Z   2
loop_
 _symmetry_equiv_pos_site_id
 _symmetry_equiv_pos_as_xyz
  1  'x, y, z'
loop_
 _atom_site_type_symbol
 _atom_site_label
 _atom_site_symmetry_multiplicity
 _atom_site_fract_x
 _atom_site_fract_y
 _atom_site_fract_z
 _atom_site_occupancy
  Ca  Ca0  1  0.79307100  0.49328000  0.84769600  1
  Ca  Ca1  1  0.95219500  0.49622900  0.65862400  1
  Ca  Ca2  1  0.41095900  0.50694300  0.94811100  1
  Ca  Ca3  1  0.14613300  0.50007700  0.46285700  1
  Ca  Ca4  1  0.40274600  0.49587100  0.27884200  1
  Ca  Ca5  1  0.19095800  0.50638800  0.12456800  1
  V  V6  1  0.82681600  0.16199500  0.98093900  1
  V  V7  1  0.61870000  0.84283500  0.95751600  1
  V  V8  1  0.82518200  0.84992500  0.75633100  1
  V  V9  1  0.96764000  0.15310800  0.44253300  1
  V  V10  1  0.77838700  0.15680200  0.64112700  1
  V  V11  1  0.58321800  0.15668500  0.84161600  1
  V  V12  1  0.56330000  0.84157100  0.61875900  1
  V  V13  1  0.37460600  0.83898400  0.81760100  1
  V  V14  1  0.96571600  0.83996800  0.21912300  1
  V  V15  1  0.76347800  0.84427200  0.42003700  1
  V  V16  1  0.42801800  0.15163500  0.38314800  1
  V  V17  1  0.23881800  0.15392000  0.58179100  1
  V  V18  1  0.63509600  0.16129400  0.18179200  1
  V  V19  1  0.04547900  0.14150200  0.78210800  1
  V  V20  1  0.02236000  0.84500300  0.55766300  1
  V  V21  1  0.41868700  0.84189900  0.15900500  1
  V  V22  1  0.21934300  0.84798100  0.35844200  1
  V  V23  1  0.18170100  0.15733900  0.24198800  1
  V  V24  1  0.37858100  0.14795600  0.04304100  1
  V  V25  1  0.15464700  0.86206400  0.01575600  1
  O  O26  1  0.88537600  0.89994900  0.98747700  1
  O  O27  1  0.77173300  0.35220500  0.96860000  1
  O  O28  1  0.99584900  0.33608700  0.77031000  1
  O  O29  1  0.90721500  0.65863700  0.76211600  1
  O  O30  1  0.69451800  0.65448900  0.95626700  1
  O  O31  1  0.88630100  0.13833000  0.87291900  1
  O  O32  1  0.85383100  0.89355800  0.64826500  1
  O  O33  1  0.65420900  0.89205600  0.84977900  1
  O  O34  1  0.74463600  0.10651400  0.74855200  1
  O  O35  1  0.54824100  0.10774000  0.95041200  1
  O  O36  1  0.94589900  0.10649300  0.54664400  1
  O  O37  1  0.52444000  0.86555200  0.72154000  1
  O  O38  1  0.72017300  0.86955500  0.52353100  1
  O  O39  1  0.31537600  0.86456700  0.92644900  1
  O  O40  1  0.92142300  0.86662500  0.32431600  1
  O  O41  1  0.91329800  0.33730100  0.43439900  1
  O  O42  1  0.50848800  0.34516200  0.84348000  1
  O  O43  1  0.71371300  0.34167200  0.63349300  1
  O  O44  1  0.43315400  0.64852900  0.83118700  1
  O  O45  1  0.62169400  0.65779400  0.62301800  1
  O  O46  1  0.81515500  0.65978300  0.42373900  1
  O  O47  1  0.08618100  0.91448700  0.78580800  1
  O  O48  1  0.69871800  0.88685000  0.18920600  1
  O  O49  1  0.49384700  0.90439600  0.38848500  1
  O  O50  1  0.29347500  0.89619800  0.58796600  1
  O  O51  1  0.72582400  0.10236400  0.41379400  1
  O  O52  1  0.50499800  0.10540500  0.61120600  1
  O  O53  1  0.90247200  0.11245200  0.21198400  1
  O  O54  1  0.31405200  0.10249500  0.81158400  1
  O  O55  1  0.18606900  0.34417800  0.57462300  1
  O  O56  1  0.38498700  0.34336400  0.38200400  1
  O  O57  1  0.56402800  0.34918700  0.17914500  1
  O  O58  1  0.46792700  0.65266500  0.17321000  1
  O  O59  1  0.29641600  0.65796900  0.37018300  1
  O  O60  1  0.09096500  0.65508600  0.56527800  1
  O  O61  1  0.67550900  0.13818400  0.07891200  1
  O  O62  1  0.08366300  0.13216300  0.67206600  1
  O  O63  1  0.48216400  0.13311900  0.27499500  1
  O  O64  1  0.27651900  0.12898800  0.47825100  1
  O  O65  1  0.24987900  0.89568100  0.25161400  1
  O  O66  1  0.45760200  0.89079300  0.05216600  1
  O  O67  1  0.05435800  0.88817100  0.45022500  1
  O  O68  1  0.34886900  0.10277100  0.15083900  1
  O  O69  1  0.14349700  0.10880900  0.35173200  1
  O  O70  1  0.11704800  0.86579400  0.12693100  1
  O  O71  1  0.13092600  0.34662400  0.22927100  1
  O  O72  1  0.28887100  0.33941900  0.03346200  1
  O  O73  1  0.20110100  0.66512600  0.02433600  1
  O  O74  1  0.03276700  0.65169200  0.22419900  1
  O  O75  1  0.11541700  0.08451000  0.01442500  1
