# generated using pymatgen
data_Mg7Cu17O24
_symmetry_space_group_name_H-M   'P 1'
_cell_length_a   6.47254100
_cell_length_b   8.08846100
_cell_length_c   9.42752600
_cell_angle_alpha   90.00000000
_cell_angle_beta   90.00000000
_cell_angle_gamma   90.00000000
_symmetry_Int_Tables_number   1
_chemical_formula_structural   Mg7Cu17O24
_chemical_formula_sum   'Mg7 Cu17 O24'
_cell_volume   493.55828302
_cell_formula_units_Z   1
loop_
 _symmetry_equiv_pos_site_id
 _symmetry_equiv_pos_as_xyz
  1  'x, y, z'
loop_
 _atom_site_type_symbol
 _atom_site_label
 _atom_site_symmetry_multiplicity
 _atom_site_fract_x
 _atom_site_fract_y
 _atom_site_fract_z
 _atom_site_occupancy
  Mg  Mg0  1  0.18484500  0.75082600  0.00000000  1
  Mg  Mg1  1  0.68473700  0.74962300  0.00000000  1
  Mg  Mg2  1  0.31512500  0.00000000  0.50000000  1
  Mg  Mg3  1  0.81442800  0.00000000  0.50000000  1
  Mg  Mg4  1  0.18484500  0.24917400  0.00000000  1
  Mg  Mg5  1  0.68473700  0.25037700  0.00000000  1
  Mg  Mg6  1  0.31740500  0.50000000  0.50000000  1
  Cu  Cu7  1  0.08565900  0.74962200  0.33514200  1
  Cu  Cu8  1  0.58473300  0.74872500  0.33513500  1
  Cu  Cu9  1  0.08565900  0.74962200  0.66485800  1
  Cu  Cu10  1  0.58473300  0.74872500  0.66486500  1
  Cu  Cu11  1  0.41602800  0.00000000  0.83513700  1
  Cu  Cu12  1  0.91559900  0.00000000  0.83540100  1
  Cu  Cu13  1  0.41602800  0.00000000  0.16486300  1
  Cu  Cu14  1  0.91559900  0.00000000  0.16459900  1
  Cu  Cu15  1  0.08565900  0.25037800  0.33514200  1
  Cu  Cu16  1  0.58473300  0.25127500  0.33513500  1
  Cu  Cu17  1  0.08565900  0.25037800  0.66485800  1
  Cu  Cu18  1  0.58473300  0.25127500  0.66486500  1
  Cu  Cu19  1  0.40727400  0.50000000  0.83567600  1
  Cu  Cu20  1  0.91510100  0.50000000  0.83621000  1
  Cu  Cu21  1  0.40727400  0.50000000  0.16432400  1
  Cu  Cu22  1  0.91510100  0.50000000  0.16379000  1
  Cu  Cu23  1  0.82230500  0.50000000  0.50000000  1
  O  O24  1  0.93984200  0.75010100  0.84625400  1
  O  O25  1  0.93984200  0.75010100  0.15374600  1
  O  O26  1  0.44007100  0.74890800  0.84625900  1
  O  O27  1  0.44007100  0.74890800  0.15374100  1
  O  O28  1  0.26047900  0.74992800  0.50000000  1
  O  O29  1  0.75756200  0.74436700  0.50000000  1
  O  O30  1  0.23855700  0.00000000  0.00000000  1
  O  O31  1  0.73916900  0.00000000  0.00000000  1
  O  O32  1  0.05839800  0.00000000  0.34772300  1
  O  O33  1  0.56292200  0.00000000  0.34774500  1
  O  O34  1  0.05839800  0.00000000  0.65227700  1
  O  O35  1  0.56292200  0.00000000  0.65225500  1
  O  O36  1  0.93984200  0.24989900  0.84625400  1
  O  O37  1  0.44007100  0.25109200  0.84625900  1
  O  O38  1  0.44007100  0.25109200  0.15374100  1
  O  O39  1  0.93984200  0.24989900  0.15374600  1
  O  O40  1  0.26047900  0.25007200  0.50000000  1
  O  O41  1  0.75756200  0.25563300  0.50000000  1
  O  O42  1  0.23351800  0.50000000  0.00000000  1
  O  O43  1  0.73877900  0.50000000  0.00000000  1
  O  O44  1  0.07140600  0.50000000  0.34046200  1
  O  O45  1  0.55577200  0.50000000  0.34144200  1
  O  O46  1  0.07140600  0.50000000  0.65953800  1
  O  O47  1  0.55577200  0.50000000  0.65855800  1
