# generated using pymatgen
data_Sr18Co12O35
_symmetry_space_group_name_H-M   'P 1'
_cell_length_a   11.96704834
_cell_length_b   11.96704834
_cell_length_c   7.74025150
_cell_angle_alpha   80.70261555
_cell_angle_beta   80.70261555
_cell_angle_gamma   118.68877812
_symmetry_Int_Tables_number   1
_chemical_formula_structural   Sr18Co12O35
_chemical_formula_sum   'Sr18 Co12 O35'
_cell_volume   922.30076588
_cell_formula_units_Z   1
loop_
 _symmetry_equiv_pos_site_id
 _symmetry_equiv_pos_as_xyz
  1  'x, y, z'
loop_
 _atom_site_type_symbol
 _atom_site_label
 _atom_site_symmetry_multiplicity
 _atom_site_fract_x
 _atom_site_fract_y
 _atom_site_fract_z
 _atom_site_occupancy
  Sr  Sr0  1  0.50647400  0.15073400  0.83715700  1
  Sr  Sr1  1  0.19111400  0.81179700  0.00055600  1
  Sr  Sr2  1  0.81179700  0.19111400  0.00055600  1
  Sr  Sr3  1  0.00723600  0.00723600  0.00549300  1
  Sr  Sr4  1  0.15073400  0.50647400  0.83715700  1
  Sr  Sr5  1  0.00694500  0.00694500  0.48731600  1
  Sr  Sr6  1  0.18859500  0.81063200  0.49875300  1
  Sr  Sr7  1  0.50917300  0.14883000  0.33390900  1
  Sr  Sr8  1  0.81063200  0.18859500  0.49875300  1
  Sr  Sr9  1  0.84664100  0.47951600  0.66357400  1
  Sr  Sr10  1  0.68189500  0.68189500  0.65184600  1
  Sr  Sr11  1  0.47951600  0.84664100  0.66357400  1
  Sr  Sr12  1  0.14883000  0.50917300  0.33390900  1
  Sr  Sr13  1  0.68187500  0.68187500  0.16629600  1
  Sr  Sr14  1  0.31418100  0.31418100  0.84783000  1
  Sr  Sr15  1  0.31450800  0.31450800  0.33794300  1
  Sr  Sr16  1  0.84606900  0.48013000  0.17323000  1
  Sr  Sr17  1  0.48013000  0.84606900  0.17323000  1
  Co  Co18  1  0.26305400  0.06990800  0.66603900  1
  Co  Co19  1  0.59753900  0.40295600  0.00020400  1
  Co  Co20  1  0.40295600  0.59753900  0.00020400  1
  Co  Co21  1  0.71233800  0.93169500  0.83928200  1
  Co  Co22  1  0.93169500  0.71233800  0.83928200  1
  Co  Co23  1  0.06990800  0.26305400  0.66603900  1
  Co  Co24  1  0.40059800  0.59814000  0.49975200  1
  Co  Co25  1  0.59814000  0.40059800  0.49975200  1
  Co  Co26  1  0.26455500  0.06763600  0.16762600  1
  Co  Co27  1  0.92922400  0.73696100  0.33292100  1
  Co  Co28  1  0.06763600  0.26455500  0.16762600  1
  Co  Co29  1  0.73696100  0.92922400  0.33292100  1
  O  O30  1  0.24528900  0.05012600  0.92803800  1
  O  O31  1  0.58806400  0.74974100  0.91571200  1
  O  O32  1  0.13782100  0.13782100  0.68145100  1
  O  O33  1  0.63528900  0.03811400  0.83270400  1
  O  O34  1  0.70023800  0.31386900  0.99794900  1
  O  O35  1  0.31386900  0.70023800  0.99794900  1
  O  O36  1  0.74974100  0.58806400  0.91571200  1
  O  O37  1  0.03811400  0.63528900  0.83270400  1
  O  O38  1  0.05012600  0.24528900  0.92803800  1
  O  O39  1  0.58585900  0.41930600  0.76681800  1
  O  O40  1  0.30789400  0.69618100  0.49731200  1
  O  O41  1  0.03356900  0.64896000  0.32841100  1
  O  O42  1  0.64896000  0.03356900  0.32841100  1
  O  O43  1  0.96740300  0.35527800  0.66683800  1
  O  O44  1  0.24404100  0.05001800  0.42448600  1
  O  O45  1  0.58571800  0.42008600  0.23077800  1
  O  O46  1  0.57052000  0.74129500  0.42224900  1
  O  O47  1  0.95029800  0.77055500  0.59630900  1
  O  O48  1  0.26081500  0.42975400  0.57704200  1
  O  O49  1  0.69618100  0.30789400  0.49731200  1
  O  O50  1  0.42975400  0.26081500  0.57704200  1
  O  O51  1  0.35527800  0.96740300  0.66683800  1
  O  O52  1  0.41930600  0.58585900  0.76681800  1
  O  O53  1  0.05001800  0.24404100  0.42448600  1
  O  O54  1  0.74129500  0.57052000  0.42224900  1
  O  O55  1  0.77055500  0.95029800  0.59630900  1
  O  O56  1  0.42008600  0.58571800  0.23077800  1
  O  O57  1  0.95066300  0.77115000  0.04323900  1
  O  O58  1  0.14643000  0.14643000  0.17643900  1
  O  O59  1  0.85697100  0.85697100  0.32157800  1
  O  O60  1  0.96489400  0.35427400  0.17247700  1
  O  O61  1  0.42539600  0.25177000  0.08138800  1
  O  O62  1  0.25177000  0.42539600  0.08138800  1
  O  O63  1  0.35427400  0.96489400  0.17247700  1
  O  O64  1  0.77115000  0.95066300  0.04323900  1
