# generated using pymatgen
data_Mn3Ga4P6(H2O5)6
_symmetry_space_group_name_H-M   'P 1'
_cell_length_a   10.19927700
_cell_length_b   9.04683400
_cell_length_c   13.89968724
_cell_angle_alpha   69.75666873
_cell_angle_beta   90.00000000
_cell_angle_gamma   90.00000000
_symmetry_Int_Tables_number   1
_chemical_formula_structural   Mn3Ga4P6(H2O5)6
_chemical_formula_sum   'Mn6 Ga8 P12 H24 O60'
_cell_volume   1203.31990118
_cell_formula_units_Z   2
loop_
 _symmetry_equiv_pos_site_id
 _symmetry_equiv_pos_as_xyz
  1  'x, y, z'
loop_
 _atom_site_type_symbol
 _atom_site_label
 _atom_site_symmetry_multiplicity
 _atom_site_fract_x
 _atom_site_fract_y
 _atom_site_fract_z
 _atom_site_occupancy
  Mn  Mn0  1  0.78084900  0.27096700  0.50710700  1
  Mn  Mn1  1  0.50000000  0.00000000  0.00000000  1
  Mn  Mn2  1  0.71915100  0.27096700  0.00710700  1
  Mn  Mn3  1  0.00000000  0.00000000  0.50000000  1
  Mn  Mn4  1  0.28084900  0.72903300  0.99289300  1
  Mn  Mn5  1  0.21915100  0.72903300  0.49289300  1
  Ga  Ga6  1  0.58098100  0.59858700  0.33220000  1
  Ga  Ga7  1  0.06342100  0.10250100  0.82936900  1
  Ga  Ga8  1  0.08098100  0.40141300  0.16780000  1
  Ga  Ga9  1  0.43657900  0.10250100  0.32936900  1
  Ga  Ga10  1  0.56342100  0.89749900  0.67063100  1
  Ga  Ga11  1  0.91901900  0.59858700  0.83220000  1
  Ga  Ga12  1  0.93657900  0.89749900  0.17063100  1
  Ga  Ga13  1  0.41901900  0.40141300  0.66780000  1
  P  P14  1  0.99632700  0.74835900  0.00071800  1
  P  P15  1  0.88086700  0.53473700  0.29131300  1
  P  P16  1  0.38086700  0.46526300  0.20868700  1
  P  P17  1  0.49632700  0.25164100  0.49928200  1
  P  P18  1  0.35845100  0.03661900  0.78034000  1
  P  P19  1  0.85845100  0.96338100  0.71966000  1
  P  P20  1  0.14154900  0.03661900  0.28034000  1
  P  P21  1  0.64154900  0.96338100  0.21966000  1
  P  P22  1  0.50367300  0.74835900  0.50071800  1
  P  P23  1  0.61913300  0.53473700  0.79131300  1
  P  P24  1  0.11913300  0.46526300  0.70868700  1
  P  P25  1  0.00367300  0.25164100  0.99928200  1
  H  H26  1  0.37959900  0.79971800  0.16959100  1
  H  H27  1  0.72654300  0.80018700  0.02660100  1
  H  H28  1  0.12285700  0.63414800  0.34120000  1
  H  H29  1  0.27031200  0.56967000  0.35470900  1
  H  H30  1  0.60712100  0.69055500  0.02445000  1
  H  H31  1  0.10712100  0.30944500  0.47555000  1
  H  H32  1  0.73769200  0.08030000  0.86530400  1
  H  H33  1  0.77031200  0.43033000  0.14529100  1
  H  H34  1  0.62285700  0.36585200  0.15880000  1
  H  H35  1  0.22654300  0.19981300  0.47339900  1
  H  H36  1  0.87959900  0.20028200  0.33040900  1
  H  H37  1  0.76230800  0.08030000  0.36530400  1
  H  H38  1  0.23769200  0.91970000  0.63469600  1
  H  H39  1  0.12040100  0.79971800  0.66959100  1
  H  H40  1  0.77345700  0.80018700  0.52660100  1
  H  H41  1  0.37714300  0.63414800  0.84120000  1
  H  H42  1  0.22968800  0.56967000  0.85470900  1
  H  H43  1  0.26230800  0.91970000  0.13469600  1
  H  H44  1  0.89287900  0.69055500  0.52445000  1
  H  H45  1  0.39287900  0.30944500  0.97555000  1
  H  H46  1  0.72968800  0.43033000  0.64529100  1
  H  H47  1  0.87714300  0.36585200  0.65880000  1
  H  H48  1  0.27345700  0.19981300  0.97339900  1
  H  H49  1  0.62040100  0.20028200  0.83040900  1
  O  O50  1  0.33152900  0.86678700  0.10832800  1
  O  O51  1  0.90306100  0.82473300  0.05898800  1
  O  O52  1  0.96953200  0.68257300  0.26752800  1
  O  O53  1  0.19625400  0.59848400  0.39071600  1
  O  O54  1  0.63174900  0.79982200  0.01268200  1
  O  O55  1  0.73519500  0.58052100  0.26545500  1
  O  O56  1  0.41548300  0.55441400  0.28547900  1
  O  O57  1  0.09658500  0.63042700  0.07315700  1
  O  O58  1  0.90331100  0.42810700  0.40201600  1
  O  O59  1  0.40609200  0.33688200  0.55194000  1
  O  O60  1  0.40331100  0.57189300  0.09798400  1
  O  O61  1  0.59658500  0.36957300  0.42684300  1
  O  O62  1  0.44534300  0.18345400  0.76020300  1
  O  O63  1  0.91548300  0.44558600  0.21452100  1
  O  O64  1  0.23519500  0.41947900  0.23454500  1
  O  O65  1  0.21176100  0.07561900  0.75909000  1
  O  O66  1  0.13174900  0.20017800  0.48731800  1
  O  O67  1  0.89304900  0.05026800  0.79650000  1
  O  O68  1  0.69625400  0.40151600  0.10928400  1
  O  O69  1  0.46953200  0.31742700  0.23247200  1
  O  O70  1  0.58923800  0.12622500  0.57239000  1
  O  O71  1  0.40306100  0.17526700  0.44101200  1
  O  O72  1  0.38421100  0.92942200  0.89318300  1
  O  O73  1  0.88421100  0.07057800  0.60681700  1
  O  O74  1  0.09390800  0.33688200  0.05194000  1
  O  O75  1  0.08923800  0.87377500  0.92761000  1
  O  O76  1  0.83152900  0.13321300  0.39167200  1
  O  O77  1  0.05465700  0.18345400  0.26020300  1
  O  O78  1  0.39304900  0.94973200  0.70350000  1
  O  O79  1  0.71176100  0.92438100  0.74091000  1
  O  O80  1  0.28823900  0.07561900  0.25909000  1
  O  O81  1  0.60695100  0.05026800  0.29650000  1
  O  O82  1  0.94534300  0.81654600  0.73979700  1
  O  O83  1  0.16847100  0.86678700  0.60832800  1
  O  O84  1  0.91076200  0.12622500  0.07239000  1
  O  O85  1  0.90609200  0.66311800  0.94806000  1
  O  O86  1  0.11578900  0.92942200  0.39318300  1
  O  O87  1  0.61578900  0.07057800  0.10681700  1
  O  O88  1  0.59693900  0.82473300  0.55898800  1
  O  O89  1  0.41076200  0.87377500  0.42761000  1
  O  O90  1  0.53046800  0.68257300  0.76752800  1
  O  O91  1  0.30374600  0.59848400  0.89071600  1
  O  O92  1  0.10695100  0.94973200  0.20350000  1
  O  O93  1  0.86825100  0.79982200  0.51268200  1
  O  O94  1  0.78823900  0.92438100  0.24091000  1
  O  O95  1  0.76480500  0.58052100  0.76545500  1
  O  O96  1  0.08451700  0.55441400  0.78547900  1
  O  O97  1  0.55465700  0.81654600  0.23979700  1
  O  O98  1  0.40341500  0.63042700  0.57315700  1
  O  O99  1  0.59668900  0.42810700  0.90201600  1
  O  O100  1  0.59390800  0.66311800  0.44806000  1
  O  O101  1  0.09668900  0.57189300  0.59798400  1
  O  O102  1  0.90341500  0.36957300  0.92684300  1
  O  O103  1  0.58451700  0.44558600  0.71452100  1
  O  O104  1  0.26480500  0.41947900  0.73454500  1
  O  O105  1  0.36825100  0.20017800  0.98731800  1
  O  O106  1  0.80374600  0.40151600  0.60928400  1
  O  O107  1  0.03046800  0.31742700  0.73247200  1
  O  O108  1  0.09693900  0.17526700  0.94101200  1
  O  O109  1  0.66847100  0.13321300  0.89167200  1
