# generated using pymatgen
data_Co(IO3)2
_symmetry_space_group_name_H-M   'P 1'
_cell_length_a   11.09334288
_cell_length_b   11.09334288
_cell_length_c   5.13910800
_cell_angle_alpha   90.00000000
_cell_angle_beta   90.00000000
_cell_angle_gamma   120.00000524
_symmetry_Int_Tables_number   1
_chemical_formula_structural   Co(IO3)2
_chemical_formula_sum   'Co4 I8 O24'
_cell_volume   547.70061248
_cell_formula_units_Z   4
loop_
 _symmetry_equiv_pos_site_id
 _symmetry_equiv_pos_as_xyz
  1  'x, y, z'
loop_
 _atom_site_type_symbol
 _atom_site_label
 _atom_site_symmetry_multiplicity
 _atom_site_fract_x
 _atom_site_fract_y
 _atom_site_fract_z
 _atom_site_occupancy
  Co  Co0  1  0.33653000  0.17533100  0.06642100  1
  Co  Co1  1  0.33333300  0.66666700  0.57324800  1
  Co  Co2  1  0.83880100  0.66347000  0.06642100  1
  Co  Co3  1  0.82466900  0.16119900  0.06642100  1
  I  I4  1  0.49862400  0.51403500  0.99708800  1
  I  I5  1  0.48596500  0.98459000  0.99708800  1
  I  I6  1  0.66666700  0.33333300  0.45925000  1
  I  I7  1  0.01541000  0.50137600  0.99708800  1
  I  I8  1  0.67913500  0.83336400  0.48584200  1
  I  I9  1  0.15422900  0.32086500  0.48584200  1
  I  I10  1  0.00000000  0.00000000  0.01125800  1
  I  I11  1  0.16663600  0.84577100  0.48584200  1
  O  O12  1  0.48049900  0.63828900  0.78273500  1
  O  O13  1  0.37513600  0.34849100  0.83742400  1
  O  O14  1  0.51191300  0.31910000  0.29664600  1
  O  O15  1  0.66092400  0.53604200  0.85417000  1
  O  O16  1  0.46395800  0.12488200  0.85417000  1
  O  O17  1  0.36171100  0.84220900  0.78273500  1
  O  O18  1  0.80718700  0.48808700  0.29664600  1
  O  O19  1  0.68090000  0.19281300  0.29664600  1
  O  O20  1  0.51044700  0.79670900  0.34802700  1
  O  O21  1  0.65150900  0.02664500  0.83742400  1
  O  O22  1  0.97335500  0.62486400  0.83742400  1
  O  O23  1  0.87511800  0.33907600  0.85417000  1
  O  O24  1  0.79527100  0.98798300  0.28929200  1
  O  O25  1  0.69983500  0.70351700  0.29683100  1
  O  O26  1  0.00368200  0.30016500  0.29683100  1
  O  O27  1  0.15779100  0.51950100  0.78273500  1
  O  O28  1  0.95232100  0.11510100  0.83404900  1
  O  O29  1  0.88489900  0.83722100  0.83404900  1
  O  O30  1  0.28626300  0.48955300  0.34802700  1
  O  O31  1  0.19271200  0.20472900  0.28929200  1
  O  O32  1  0.01201700  0.80728800  0.28929200  1
  O  O33  1  0.16277900  0.04767900  0.83404900  1
  O  O34  1  0.29648300  0.99631800  0.29683100  1
  O  O35  1  0.20329100  0.71373700  0.34802700  1
