# generated using pymatgen
data_Na4H2RuN6O13
_symmetry_space_group_name_H-M   'P 1'
_cell_length_a   7.65393552
_cell_length_b   7.65393552
_cell_length_c   12.29190347
_cell_angle_alpha   87.48966146
_cell_angle_beta   87.48966146
_cell_angle_gamma   116.96806293
_symmetry_Int_Tables_number   1
_chemical_formula_structural   Na4H2RuN6O13
_chemical_formula_sum   'Na8 H4 Ru2 N12 O26'
_cell_volume   639.53305392
_cell_formula_units_Z   2
loop_
 _symmetry_equiv_pos_site_id
 _symmetry_equiv_pos_as_xyz
  1  'x, y, z'
loop_
 _atom_site_type_symbol
 _atom_site_label
 _atom_site_symmetry_multiplicity
 _atom_site_fract_x
 _atom_site_fract_y
 _atom_site_fract_z
 _atom_site_occupancy
  Na  Na0  1  0.72240800  0.97199000  0.38067300  1
  Na  Na1  1  0.02801000  0.27759200  0.11932700  1
  Na  Na2  1  0.27759200  0.02801000  0.61932700  1
  Na  Na3  1  0.97199000  0.72240800  0.88067300  1
  Na  Na4  1  0.34404200  0.16986900  0.30637500  1
  Na  Na5  1  0.83013100  0.65595800  0.19362500  1
  Na  Na6  1  0.65595800  0.83013100  0.69362500  1
  Na  Na7  1  0.16986900  0.34404200  0.80637500  1
  H  H8  1  0.46751700  0.56326500  0.31234100  1
  H  H9  1  0.43673500  0.53248300  0.18765900  1
  H  H10  1  0.53248300  0.43673500  0.68765900  1
  H  H11  1  0.56326500  0.46751700  0.81234100  1
  Ru  Ru12  1  0.00000000  0.50000000  0.50000000  1
  Ru  Ru13  1  0.50000000  0.00000000  0.00000000  1
  N  N14  1  0.01216000  0.75881600  0.43231400  1
  N  N15  1  0.24118400  0.98784000  0.06768600  1
  N  N16  1  0.98784000  0.24118400  0.56768600  1
  N  N17  1  0.75881600  0.01216000  0.93231400  1
  N  N18  1  0.69750500  0.34751200  0.48473200  1
  N  N19  1  0.65248800  0.30249500  0.01526800  1
  N  N20  1  0.30249500  0.65248800  0.51526800  1
  N  N21  1  0.34751200  0.69750500  0.98473200  1
  N  N22  1  0.04266900  0.42370700  0.34387900  1
  N  N23  1  0.57629300  0.95733100  0.15612100  1
  N  N24  1  0.95733100  0.57629300  0.65612100  1
  N  N25  1  0.42370700  0.04266900  0.84387900  1
  O  O26  1  0.15657600  0.92317600  0.44406300  1
  O  O27  1  0.07682400  0.84342400  0.05593700  1
  O  O28  1  0.84342400  0.07682400  0.55593700  1
  O  O29  1  0.92317600  0.15657600  0.94406300  1
  O  O30  1  0.87810600  0.75736900  0.37553600  1
  O  O31  1  0.24263100  0.12189400  0.12446400  1
  O  O32  1  0.12189400  0.24263100  0.62446400  1
  O  O33  1  0.75736900  0.87810600  0.87553600  1
  O  O34  1  0.63461900  0.24622300  0.40340300  1
  O  O35  1  0.75377700  0.36538100  0.09659700  1
  O  O36  1  0.36538100  0.75377700  0.59659700  1
  O  O37  1  0.24622300  0.63461900  0.90340300  1
  O  O38  1  0.57059800  0.34402300  0.55466000  1
  O  O39  1  0.65597700  0.42940200  0.94534000  1
  O  O40  1  0.42940200  0.65597700  0.44534000  1
  O  O41  1  0.34402300  0.57059800  0.05466000  1
  O  O42  1  0.05724600  0.52973100  0.25950300  1
  O  O43  1  0.47026900  0.94275400  0.24049700  1
  O  O44  1  0.94275400  0.47026900  0.74049700  1
  O  O45  1  0.52973100  0.05724600  0.75950300  1
  O  O46  1  0.04991800  0.26343300  0.32943100  1
  O  O47  1  0.73656700  0.95008200  0.17056900  1
  O  O48  1  0.95008200  0.73656700  0.67056900  1
  O  O49  1  0.26343300  0.04991800  0.82943100  1
  O  O50  1  0.49747600  0.50252400  0.25000000  1
  O  O51  1  0.50252400  0.49747600  0.75000000  1
