# generated using pymatgen
data_GeS2
_symmetry_space_group_name_H-M   'P 1'
_cell_length_a   6.11900800
_cell_length_b   6.11900800
_cell_length_c   6.11900800
_cell_angle_alpha   123.57483737
_cell_angle_beta   123.57483737
_cell_angle_gamma   83.91225427
_symmetry_Int_Tables_number   1
_chemical_formula_structural   GeS2
_chemical_formula_sum   'Ge2 S4'
_cell_volume   152.30994740
_cell_formula_units_Z   2
loop_
 _symmetry_equiv_pos_site_id
 _symmetry_equiv_pos_as_xyz
  1  'x, y, z'
loop_
 _atom_site_type_symbol
 _atom_site_label
 _atom_site_symmetry_multiplicity
 _atom_site_fract_x
 _atom_site_fract_y
 _atom_site_fract_z
 _atom_site_occupancy
  Ge  Ge0  1  0.75000000  0.25000000  0.50000000  1
  Ge  Ge1  1  0.00000000  0.00000000  0.00000000  1
  S  S2  1  0.87500000  0.90116900  0.52616900  1
  S  S3  1  0.09883100  0.62500000  0.97383100  1
  S  S4  1  0.37500000  0.34883100  0.47383100  1
  S  S5  1  0.65116900  0.12500000  0.02616900  1
