# generated using pymatgen
data_NaMg2Hg
_symmetry_space_group_name_H-M   'P 1'
_cell_length_a   12.40969895
_cell_length_b   12.40969895
_cell_length_c   12.40969895
_cell_angle_alpha   120.33350554
_cell_angle_beta   119.85918819
_cell_angle_gamma   89.83369543
_symmetry_Int_Tables_number   1
_chemical_formula_structural   NaMg2Hg
_chemical_formula_sum   'Na1 Mg2 Hg1'
_cell_volume   1349.34966911
_cell_formula_units_Z   1
loop_
 _symmetry_equiv_pos_site_id
 _symmetry_equiv_pos_as_xyz
  1  'x, y, z'
loop_
 _atom_site_type_symbol
 _atom_site_label
 _atom_site_symmetry_multiplicity
 _atom_site_fract_x
 _atom_site_fract_y
 _atom_site_fract_z
 _atom_site_occupancy
  Na  Na0  1  0.00000000  0.00000000  0.00000000  1
  Mg  Mg1  1  0.00000000  0.25782000  0.25782000  1
  Mg  Mg2  1  0.00000000  0.74218000  0.74218000  1
  Hg  Hg3  1  0.00000000  0.50000000  0.50000000  1
