# generated using pymatgen
data_Li3VP3O11
_symmetry_space_group_name_H-M   'P 1'
_cell_length_a   9.57552422
_cell_length_b   8.27486565
_cell_length_c   6.04103961
_cell_angle_alpha   95.63734127
_cell_angle_beta   101.50579706
_cell_angle_gamma   114.17832350
_symmetry_Int_Tables_number   1
_chemical_formula_structural   Li3VP3O11
_chemical_formula_sum   'Li6 V2 P6 O22'
_cell_volume   419.14530051
_cell_formula_units_Z   2
loop_
 _symmetry_equiv_pos_site_id
 _symmetry_equiv_pos_as_xyz
  1  'x, y, z'
loop_
 _atom_site_type_symbol
 _atom_site_label
 _atom_site_symmetry_multiplicity
 _atom_site_fract_x
 _atom_site_fract_y
 _atom_site_fract_z
 _atom_site_occupancy
  Li  Li0  1  0.96174900  0.85552900  0.60497900  1
  Li  Li1  1  0.11545400  0.57516500  0.38525500  1
  Li  Li2  1  0.52342000  0.97789900  0.76790800  1
  Li  Li3  1  0.47658000  0.02210100  0.23209200  1
  Li  Li4  1  0.88454600  0.42483500  0.61474500  1
  Li  Li5  1  0.03825100  0.14447100  0.39502100  1
  V  V6  1  0.72429700  0.69851500  0.89457500  1
  V  V7  1  0.27570300  0.30148500  0.10542500  1
  P  P8  1  0.22994400  0.66123900  0.92392500  1
  P  P9  1  0.10728300  0.88435900  0.14438200  1
  P  P10  1  0.40293800  0.31191200  0.64301200  1
  P  P11  1  0.59706200  0.68808800  0.35698800  1
  P  P12  1  0.89271700  0.11564100  0.85561800  1
  P  P13  1  0.77005600  0.33876100  0.07607500  1
  O  O14  1  0.10222800  0.61319800  0.69930600  1
  O  O15  1  0.06383200  0.90164300  0.36826100  1
  O  O16  1  0.22790400  0.48874800  0.00148700  1
  O  O17  1  0.16197800  0.72228700  0.13792300  1
  O  O18  1  0.38710100  0.81267200  0.93447900  1
  O  O19  1  0.03523100  0.17592400  0.07140200  1
  O  O20  1  0.26836600  0.30866700  0.43787200  1
  O  O21  1  0.30737400  0.23312200  0.82381700  1
  O  O22  1  0.51643200  0.80125200  0.42460800  1
  O  O23  1  0.51213100  0.51564700  0.75169000  1
  O  O24  1  0.74470400  0.95413900  0.87727900  1
  O  O25  1  0.25529600  0.04586100  0.12272100  1
  O  O26  1  0.48786900  0.48435300  0.24831000  1
  O  O27  1  0.48356800  0.19874800  0.57539200  1
  O  O28  1  0.69262600  0.76687800  0.17618300  1
  O  O29  1  0.73163400  0.69133300  0.56212800  1
  O  O30  1  0.96476900  0.82407600  0.92859800  1
  O  O31  1  0.61289900  0.18732800  0.06552100  1
  O  O32  1  0.83802200  0.27771300  0.86207700  1
  O  O33  1  0.77209600  0.51125200  0.99851300  1
  O  O34  1  0.93616800  0.09835700  0.63173900  1
  O  O35  1  0.89777200  0.38680200  0.30069400  1
