# generated using pymatgen
data_FeOF
_symmetry_space_group_name_H-M   'P 1'
_cell_length_a   3.09227700
_cell_length_b   14.13453000
_cell_length_c   14.13535281
_cell_angle_alpha   89.98062085
_cell_angle_beta   90.00000000
_cell_angle_gamma   90.00000000
_symmetry_Int_Tables_number   1
_chemical_formula_structural   FeOF
_chemical_formula_sum   'Fe18 O18 F18'
_cell_volume   617.82629760
_cell_formula_units_Z   18
loop_
 _symmetry_equiv_pos_site_id
 _symmetry_equiv_pos_as_xyz
  1  'x, y, z'
loop_
 _atom_site_type_symbol
 _atom_site_label
 _atom_site_symmetry_multiplicity
 _atom_site_fract_x
 _atom_site_fract_y
 _atom_site_fract_z
 _atom_site_occupancy
  Fe  Fe0  1  0.00000000  0.00619200  0.98415900  1
  Fe  Fe1  1  0.00000000  0.99319900  0.67461800  1
  Fe  Fe2  1  0.00000000  0.98514500  0.34213000  1
  Fe  Fe3  1  0.50000000  0.84387800  0.83744500  1
  Fe  Fe4  1  0.50000000  0.82177300  0.49633200  1
  Fe  Fe5  1  0.50000000  0.84422000  0.17087000  1
  Fe  Fe6  1  0.00000000  0.64950900  0.00047800  1
  Fe  Fe7  1  0.00000000  0.66371100  0.65725000  1
  Fe  Fe8  1  0.00000000  0.66857900  0.33950000  1
  Fe  Fe9  1  0.50000000  0.49864600  0.51687500  1
  Fe  Fe10  1  0.50000000  0.51690400  0.82877900  1
  Fe  Fe11  1  0.50000000  0.49296000  0.14903300  1
  Fe  Fe12  1  0.00000000  0.32978900  0.00409900  1
  Fe  Fe13  1  0.00000000  0.33276300  0.65561800  1
  Fe  Fe14  1  0.00000000  0.32106400  0.33499400  1
  Fe  Fe15  1  0.50000000  0.17871100  0.85127300  1
  Fe  Fe16  1  0.50000000  0.18108500  0.50235300  1
  Fe  Fe17  1  0.50000000  0.18215200  0.16503300  1
  O  O18  1  0.50000000  0.93578500  0.73147200  1
  O  O19  1  0.50000000  0.93063600  0.40427100  1
  O  O20  1  0.00000000  0.89625500  0.90288100  1
  O  O21  1  0.00000000  0.89649000  0.23162600  1
  O  O22  1  0.00000000  0.76251100  0.42813500  1
  O  O23  1  0.50000000  0.73825100  0.60043600  1
  O  O24  1  0.50000000  0.60168100  0.72698900  1
  O  O25  1  0.50000000  0.60688300  0.07217100  1
  O  O26  1  0.00000000  0.56484100  0.89804600  1
  O  O27  1  0.00000000  0.56740500  0.55669400  1
  O  O28  1  0.00000000  0.43002200  0.09830100  1
  O  O29  1  0.50000000  0.39551500  0.60178500  1
  O  O30  1  0.50000000  0.26931400  0.40073500  1
  O  O31  1  0.50000000  0.26730600  0.06069200  1
  O  O32  1  0.00000000  0.24083300  0.90067400  1
  O  O33  1  0.00000000  0.22710700  0.57062800  1
  O  O34  1  0.00000000  0.23145200  0.23212000  1
  O  O35  1  0.50000000  0.06755800  0.93215400  1
  F  F36  1  0.50000000  0.93652000  0.06434500  1
  F  F37  1  0.00000000  0.90346900  0.56352400  1
  F  F38  1  0.00000000  0.76934600  0.77270600  1
  F  F39  1  0.00000000  0.77325200  0.10043200  1
  F  F40  1  0.50000000  0.73218500  0.93616800  1
  F  F41  1  0.50000000  0.72604900  0.26197100  1
  F  F42  1  0.50000000  0.59519300  0.39177300  1
  F  F43  1  0.00000000  0.56568600  0.23645600  1
  F  F44  1  0.00000000  0.42879000  0.76877100  1
  F  F45  1  0.00000000  0.43572300  0.42949200  1
  F  F46  1  0.50000000  0.39732500  0.93593600  1
  F  F47  1  0.50000000  0.40368900  0.27033900  1
  F  F48  1  0.50000000  0.26575800  0.73307400  1
  F  F49  1  0.00000000  0.10685400  0.76500100  1
  F  F50  1  0.00000000  0.10071000  0.43488000  1
  F  F51  1  0.00000000  0.09434700  0.10433500  1
  F  F52  1  0.50000000  0.06291100  0.59969600  1
  F  F53  1  0.50000000  0.06206700  0.27045400  1
