# generated using pymatgen
data_Na2CdO2
_symmetry_space_group_name_H-M   'P 1'
_cell_length_a   9.39789403
_cell_length_b   9.39789403
_cell_length_c   10.85919831
_cell_angle_alpha   54.75075274
_cell_angle_beta   54.75075274
_cell_angle_gamma   70.13547410
_symmetry_Int_Tables_number   1
_chemical_formula_structural   Na2CdO2
_chemical_formula_sum   'Na16 Cd8 O16'
_cell_volume   639.59912950
_cell_formula_units_Z   8
loop_
 _symmetry_equiv_pos_site_id
 _symmetry_equiv_pos_as_xyz
  1  'x, y, z'
loop_
 _atom_site_type_symbol
 _atom_site_label
 _atom_site_symmetry_multiplicity
 _atom_site_fract_x
 _atom_site_fract_y
 _atom_site_fract_z
 _atom_site_occupancy
  Na  Na0  1  0.03799700  0.24195100  0.47201100  1
  Na  Na1  1  0.45364500  0.26820000  0.25834400  1
  Na  Na2  1  0.02692200  0.77785700  0.70121600  1
  Na  Na3  1  0.72939000  0.45763800  0.51878800  1
  Na  Na4  1  0.22214300  0.97307800  0.29878400  1
  Na  Na5  1  0.54236200  0.27061000  0.48121200  1
  Na  Na6  1  0.75804900  0.96200300  0.52798900  1
  Na  Na7  1  0.73180000  0.54635500  0.74165600  1
  Na  Na8  1  0.51309300  0.21961900  0.98122000  1
  Na  Na9  1  0.22493100  0.51080600  0.47377200  1
  Na  Na10  1  0.28504500  0.99095300  0.70461000  1
  Na  Na11  1  0.98406300  0.27044700  0.22302400  1
  Na  Na12  1  0.00904700  0.71495500  0.29539000  1
  Na  Na13  1  0.72955300  0.01593700  0.77697600  1
  Na  Na14  1  0.48919400  0.77506900  0.52622800  1
  Na  Na15  1  0.78038100  0.48690700  0.01878000  1
  Cd  Cd16  1  0.23275300  0.04550600  0.98458500  1
  Cd  Cd17  1  0.26843400  0.46549400  0.74919700  1
  Cd  Cd18  1  0.76776500  0.03937600  0.21393600  1
  Cd  Cd19  1  0.47883200  0.72395700  0.00104400  1
  Cd  Cd20  1  0.27604300  0.52116800  0.99895600  1
  Cd  Cd21  1  0.96062400  0.23223500  0.78606400  1
  Cd  Cd22  1  0.53450600  0.73156600  0.25080400  1
  Cd  Cd23  1  0.95449400  0.76724700  0.01541500  1
  O  O24  1  0.96348200  0.45923100  0.54453800  1
  O  O25  1  0.00057000  0.99776900  0.76190800  1
  O  O26  1  0.72947500  0.27052500  0.00000000  1
  O  O27  1  0.78317700  0.21682300  0.50000000  1
  O  O28  1  0.25380500  0.25756700  0.20926600  1
  O  O29  1  0.24147600  0.24749400  0.73429400  1
  O  O30  1  0.54076900  0.03651800  0.45546200  1
  O  O31  1  0.00223100  0.99943000  0.23809200  1
  O  O32  1  0.45767200  0.95506500  0.03997600  1
  O  O33  1  0.50037700  0.51429900  0.24222300  1
  O  O34  1  0.48570100  0.49962300  0.75777700  1
  O  O35  1  0.75250600  0.75852400  0.26570600  1
  O  O36  1  0.74243300  0.74619500  0.79073400  1
  O  O37  1  0.28789100  0.71210900  0.50000000  1
  O  O38  1  0.22243800  0.77756200  0.00000000  1
  O  O39  1  0.04493500  0.54232800  0.96002400  1
