# generated using pymatgen
data_LiMn3O6
_symmetry_space_group_name_H-M   'P 1'
_cell_length_a   12.91346488
_cell_length_b   12.91346488
_cell_length_c   12.91346488
_cell_angle_alpha   154.14711033
_cell_angle_beta   154.14711033
_cell_angle_gamma   36.88581786
_symmetry_Int_Tables_number   1
_chemical_formula_structural   LiMn3O6
_chemical_formula_sum   'Li4 Mn12 O24'
_cell_volume   408.90406362
_cell_formula_units_Z   4
loop_
 _symmetry_equiv_pos_site_id
 _symmetry_equiv_pos_as_xyz
  1  'x, y, z'
loop_
 _atom_site_type_symbol
 _atom_site_label
 _atom_site_symmetry_multiplicity
 _atom_site_fract_x
 _atom_site_fract_y
 _atom_site_fract_z
 _atom_site_occupancy
  Li  Li0  1  0.08191500  0.58191500  0.50000000  1
  Li  Li1  1  0.66808500  0.66808500  0.00000000  1
  Li  Li2  1  0.33191500  0.33191500  0.00000000  1
  Li  Li3  1  0.41808500  0.91808500  0.50000000  1
  Mn  Mn4  1  0.71153200  0.45846200  0.25307000  1
  Mn  Mn5  1  0.20539200  0.45846200  0.74693000  1
  Mn  Mn6  1  0.54153800  0.79460800  0.25307000  1
  Mn  Mn7  1  0.54153800  0.28846800  0.74693000  1
  Mn  Mn8  1  0.37500000  0.12500000  0.25000000  1
  Mn  Mn9  1  0.87500000  0.12500000  0.75000000  1
  Mn  Mn10  1  0.20846200  0.45539200  0.24693000  1
  Mn  Mn11  1  0.20846200  0.96153200  0.75307000  1
  Mn  Mn12  1  0.03846800  0.79153800  0.24693000  1
  Mn  Mn13  1  0.54460800  0.79153800  0.75307000  1
  Mn  Mn14  1  0.87500000  0.12500000  0.25000000  1
  Mn  Mn15  1  0.87500000  0.62500000  0.75000000  1
  O  O16  1  0.46317500  0.68633200  0.22315700  1
  O  O17  1  0.46317500  0.24001900  0.77684300  1
  O  O18  1  0.31366800  0.53682500  0.77684300  1
  O  O19  1  0.75998100  0.53682500  0.22315700  1
  O  O20  1  0.32716900  0.04692400  0.28024400  1
  O  O21  1  0.76668000  0.04692400  0.71975600  1
  O  O22  1  0.62114200  0.34510500  0.72396300  1
  O  O23  1  0.62114200  0.89717800  0.27603700  1
  O  O24  1  0.12885800  0.35282200  0.22396300  1
  O  O25  1  0.12885800  0.90489500  0.77603700  1
  O  O26  1  0.98332000  0.20307600  0.78024400  1
  O  O27  1  0.42283100  0.20307600  0.21975600  1
  O  O28  1  0.99001900  0.71317500  0.27684300  1
  O  O29  1  0.43633200  0.71317500  0.72315700  1
  O  O30  1  0.28682500  0.00998100  0.72315700  1
  O  O31  1  0.28682500  0.56366800  0.27684300  1
  O  O32  1  0.79692400  0.57716900  0.78024400  1
  O  O33  1  0.79692400  0.01668000  0.21975600  1
  O  O34  1  0.64717800  0.87114200  0.77603700  1
  O  O35  1  0.09510500  0.87114200  0.22396300  1
  O  O36  1  0.10282200  0.37885800  0.72396300  1
  O  O37  1  0.65489500  0.37885800  0.27603700  1
  O  O38  1  0.95307600  0.23332000  0.28024400  1
  O  O39  1  0.95307600  0.67283100  0.71975600  1
