# generated using pymatgen
data_NbCuRh2
_symmetry_space_group_name_H-M   'P 1'
_cell_length_a   9.97665560
_cell_length_b   9.97665560
_cell_length_c   9.97665560
_cell_angle_alpha   124.43813106
_cell_angle_beta   118.53248796
_cell_angle_gamma   87.52560059
_symmetry_Int_Tables_number   1
_chemical_formula_structural   NbCuRh2
_chemical_formula_sum   'Nb1 Cu1 Rh2'
_cell_volume   683.30231486
_cell_formula_units_Z   1
loop_
 _symmetry_equiv_pos_site_id
 _symmetry_equiv_pos_as_xyz
  1  'x, y, z'
loop_
 _atom_site_type_symbol
 _atom_site_label
 _atom_site_symmetry_multiplicity
 _atom_site_fract_x
 _atom_site_fract_y
 _atom_site_fract_z
 _atom_site_occupancy
  Nb  Nb0  1  0.00000000  0.50000000  0.50000000  1
  Cu  Cu1  1  0.00000000  0.00000000  0.00000000  1
  Rh  Rh2  1  0.00000000  0.26758900  0.26758900  1
  Rh  Rh3  1  0.00000000  0.73241100  0.73241100  1
