# generated using pymatgen
data_Li4Ti2Nb3Fe3O16
_symmetry_space_group_name_H-M   'P 1'
_cell_length_a   5.99740670
_cell_length_b   6.02968911
_cell_length_c   9.88860828
_cell_angle_alpha   90.15072799
_cell_angle_beta   89.49119895
_cell_angle_gamma   120.02915513
_symmetry_Int_Tables_number   1
_chemical_formula_structural   Li4Ti2Nb3Fe3O16
_chemical_formula_sum   'Li4 Ti2 Nb3 Fe3 O16'
_cell_volume   309.58398372
_cell_formula_units_Z   1
loop_
 _symmetry_equiv_pos_site_id
 _symmetry_equiv_pos_as_xyz
  1  'x, y, z'
loop_
 _atom_site_type_symbol
 _atom_site_label
 _atom_site_symmetry_multiplicity
 _atom_site_fract_x
 _atom_site_fract_y
 _atom_site_fract_z
 _atom_site_occupancy
  Li  Li0  1  0.33101100  0.66358800  0.90134700  1
  Li  Li1  1  0.00806800  0.00384100  0.99883900  1
  Li  Li2  1  0.02429300  0.01240900  0.48415400  1
  Li  Li3  1  0.67147600  0.33611500  0.39325900  1
  Ti  Ti4  1  0.28931600  0.63948900  0.48576600  1
  Ti  Ti5  1  0.65887600  0.32795400  0.00685800  1
  Nb  Nb6  1  0.63811100  0.81992900  0.22195700  1
  Nb  Nb7  1  0.81701400  0.65678800  0.71866400  1
  Nb  Nb8  1  0.80523600  0.16103300  0.71410300  1
  Fe  Fe9  1  0.18210900  0.83356700  0.21353500  1
  Fe  Fe10  1  0.18273600  0.34913600  0.21316000  1
  Fe  Fe11  1  0.36532000  0.16888900  0.71373700  1
  O  O12  1  0.16237700  0.82371700  0.59414700  1
  O  O13  1  0.04425800  0.52237200  0.34764300  1
  O  O14  1  0.33527700  0.66704900  0.09479300  1
  O  O15  1  0.99498400  0.99792400  0.29798900  1
  O  O16  1  0.00092900  0.00314200  0.81062300  1
  O  O17  1  0.15886700  0.33821600  0.59343300  1
  O  O18  1  0.49139000  0.96559900  0.35206700  1
  O  O19  1  0.49120200  0.52683100  0.35298600  1
  O  O20  1  0.34201200  0.17137200  0.09249300  1
  O  O21  1  0.66962000  0.83532100  0.59796900  1
  O  O22  1  0.52545500  0.48976400  0.84476300  1
  O  O23  1  0.52361900  0.03344000  0.85097000  1
  O  O24  1  0.69030700  0.35377000  0.58778900  1
  O  O25  1  0.81390400  0.65383000  0.09356900  1
  O  O26  1  0.96732800  0.48435800  0.83662100  1
  O  O27  1  0.81490500  0.16085500  0.09460300  1
