# generated using pymatgen
data_H8C2BrN
_symmetry_space_group_name_H-M   'P 1'
_cell_length_a   7.60338563
_cell_length_b   7.60338563
_cell_length_c   13.63188314
_cell_angle_alpha   87.19086545
_cell_angle_beta   87.19086545
_cell_angle_gamma   42.90522074
_symmetry_Int_Tables_number   1
_chemical_formula_structural   H8C2BrN
_chemical_formula_sum   'H32 C8 Br4 N4'
_cell_volume   535.77025802
_cell_formula_units_Z   4
loop_
 _symmetry_equiv_pos_site_id
 _symmetry_equiv_pos_as_xyz
  1  'x, y, z'
loop_
 _atom_site_type_symbol
 _atom_site_label
 _atom_site_symmetry_multiplicity
 _atom_site_fract_x
 _atom_site_fract_y
 _atom_site_fract_z
 _atom_site_occupancy
  H  H0  1  0.91216400  0.08461800  0.14053800  1
  H  H1  1  0.08461800  0.91216400  0.64053800  1
  H  H2  1  0.23710900  0.63082700  0.07062900  1
  H  H3  1  0.62532300  0.20579600  0.20026600  1
  H  H4  1  0.66188600  0.17809300  0.06890500  1
  H  H5  1  0.63082700  0.23710900  0.57062900  1
  H  H6  1  0.20579600  0.62532300  0.70026600  1
  H  H7  1  0.17809300  0.66188600  0.56890500  1
  H  H8  1  0.97982600  0.74173700  0.21571300  1
  H  H9  1  0.98440900  0.73590100  0.99649900  1
  H  H10  1  0.74173700  0.97982600  0.71571300  1
  H  H11  1  0.73590100  0.98440900  0.49649900  1
  H  H12  1  0.15490700  0.46150800  0.07762500  1
  H  H13  1  0.74472200  0.82996800  0.14806700  1
  H  H14  1  0.46150800  0.15490700  0.57762500  1
  H  H15  1  0.82996800  0.74472200  0.64806700  1
  H  H16  1  0.17003200  0.25527800  0.35193300  1
  H  H17  1  0.53849200  0.84509300  0.42237500  1
  H  H18  1  0.25527800  0.17003200  0.85193300  1
  H  H19  1  0.84509300  0.53849200  0.92237500  1
  H  H20  1  0.26409900  0.01559100  0.50350100  1
  H  H21  1  0.25826300  0.02017400  0.28428700  1
  H  H22  1  0.01559100  0.26409900  0.00350100  1
  H  H23  1  0.02017400  0.25826300  0.78428700  1
  H  H24  1  0.82190700  0.33811400  0.43109500  1
  H  H25  1  0.79420400  0.37467700  0.29973400  1
  H  H26  1  0.36917300  0.76289100  0.42937100  1
  H  H27  1  0.33811400  0.82190700  0.93109500  1
  H  H28  1  0.37467700  0.79420400  0.79973400  1
  H  H29  1  0.76289100  0.36917300  0.92937100  1
  H  H30  1  0.91538200  0.08783600  0.35946200  1
  H  H31  1  0.08783600  0.91538200  0.85946200  1
  C  C32  1  0.76312500  0.09202300  0.13867100  1
  C  C33  1  0.09202300  0.76312500  0.63867100  1
  C  C34  1  0.07935400  0.65127200  0.06743700  1
  C  C35  1  0.65127200  0.07935400  0.56743700  1
  C  C36  1  0.34872800  0.92064600  0.43256300  1
  C  C37  1  0.92064600  0.34872800  0.93256300  1
  C  C38  1  0.90797700  0.23687500  0.36132900  1
  C  C39  1  0.23687500  0.90797700  0.86132900  1
  Br  Br40  1  0.19365000  0.53607600  0.35978600  1
  Br  Br41  1  0.53607600  0.19365000  0.85978600  1
  Br  Br42  1  0.46392400  0.80635000  0.14021400  1
  Br  Br43  1  0.80635000  0.46392400  0.64021400  1
  N  N44  1  0.88757100  0.82409000  0.14758300  1
  N  N45  1  0.82409000  0.88757100  0.64758300  1
  N  N46  1  0.17591000  0.11242900  0.35241700  1
  N  N47  1  0.11242900  0.17591000  0.85241700  1
