# generated using pymatgen
data_Li3Fe2(PO4)3
_symmetry_space_group_name_H-M   'P 1'
_cell_length_a   9.05010392
_cell_length_b   8.41317413
_cell_length_c   8.41728451
_cell_angle_alpha   59.80761269
_cell_angle_beta   117.69662900
_cell_angle_gamma   117.68348093
_symmetry_Int_Tables_number   1
_chemical_formula_structural   Li3Fe2(PO4)3
_chemical_formula_sum   'Li6 Fe4 P6 O24'
_cell_volume   467.63481140
_cell_formula_units_Z   2
loop_
 _symmetry_equiv_pos_site_id
 _symmetry_equiv_pos_as_xyz
  1  'x, y, z'
loop_
 _atom_site_type_symbol
 _atom_site_label
 _atom_site_symmetry_multiplicity
 _atom_site_fract_x
 _atom_site_fract_y
 _atom_site_fract_z
 _atom_site_occupancy
  Li  Li0  1  0.85173400  0.66164200  0.91880800  1
  Li  Li1  1  0.85805400  0.26486800  0.67080200  1
  Li  Li2  1  0.61983800  0.80770200  0.25470300  1
  Li  Li3  1  0.13551900  0.07674200  0.73284800  1
  Li  Li4  1  0.13549600  0.73766300  0.32866500  1
  Li  Li5  1  0.13683400  0.32612500  0.07758100  1
  Fe  Fe6  1  0.95323900  0.65440000  0.64266400  1
  Fe  Fe7  1  0.55879800  0.85623700  0.84955400  1
  Fe  Fe8  1  0.43890700  0.14938600  0.14274200  1
  Fe  Fe9  1  0.04385100  0.34673500  0.34684300  1
  P  P10  1  0.75559000  0.25016700  0.96070900  1
  P  P11  1  0.74639800  0.95350300  0.54174300  1
  P  P12  1  0.74854600  0.54246400  0.24916000  1
  P  P13  1  0.24679100  0.45871900  0.74716300  1
  P  P14  1  0.25100900  0.04160700  0.46217900  1
  P  P15  1  0.24218800  0.75126800  0.03984900  1
  O  O16  1  0.80420700  0.46640700  0.82651800  1
  O  O17  1  0.73918400  0.12222700  0.86655200  1
  O  O18  1  0.58625600  0.19044000  0.00235400  1
  O  O19  1  0.89844400  0.15008200  0.53840500  1
  O  O20  1  0.72912800  0.85811900  0.74750500  1
  O  O21  1  0.79694500  0.82269800  0.50744800  1
  O  O22  1  0.80420100  0.50415800  0.46668100  1
  O  O23  1  0.90507600  0.55298800  0.20451000  1
  O  O24  1  0.91076300  0.22200400  0.15307600  1
  O  O25  1  0.41358500  0.61410500  0.80178900  1
  O  O26  1  0.26853000  0.25413200  0.87314000  1
  O  O27  1  0.42538300  0.01493500  0.61502400  1
  O  O28  1  0.57567600  0.98212100  0.38297000  1
  O  O29  1  0.71325600  0.74000100  0.12863100  1
  O  O30  1  0.58634800  0.38134100  0.20003600  1
  O  O31  1  0.09233300  0.79149400  0.84241300  1
  O  O32  1  0.09168600  0.45519600  0.78952200  1
  O  O33  1  0.19012300  0.49255900  0.53077100  1
  O  O34  1  0.19055200  0.16477700  0.49574200  1
  O  O35  1  0.26883100  0.13982900  0.25650700  1
  O  O36  1  0.10999800  0.83849000  0.47695400  1
  O  O37  1  0.41826700  0.80509400  0.01240800  1
  O  O38  1  0.25906700  0.87752900  0.13551500  1
  O  O39  1  0.19145100  0.53485100  0.16700000  1
