# generated using pymatgen
data_Mg2TlHg
_symmetry_space_group_name_H-M   'P 1'
_cell_length_a   12.52297595
_cell_length_b   12.52297595
_cell_length_c   12.52297595
_cell_angle_alpha   120.54644640
_cell_angle_beta   118.31016862
_cell_angle_gamma   91.00380841
_symmetry_Int_Tables_number   1
_chemical_formula_structural   Mg2TlHg
_chemical_formula_sum   'Mg2 Tl1 Hg1'
_cell_volume   1399.81210361
_cell_formula_units_Z   1
loop_
 _symmetry_equiv_pos_site_id
 _symmetry_equiv_pos_as_xyz
  1  'x, y, z'
loop_
 _atom_site_type_symbol
 _atom_site_label
 _atom_site_symmetry_multiplicity
 _atom_site_fract_x
 _atom_site_fract_y
 _atom_site_fract_z
 _atom_site_occupancy
  Mg  Mg0  1  0.75523700  0.00000000  0.75523700  1
  Mg  Mg1  1  0.24476300  0.00000000  0.24476300  1
  Tl  Tl2  1  0.50000000  0.00000000  0.50000000  1
  Hg  Hg3  1  0.00000000  0.00000000  0.00000000  1
