# generated using pymatgen
data_ReSiTc2
_symmetry_space_group_name_H-M   'P 1'
_cell_length_a   10.34612099
_cell_length_b   10.34612099
_cell_length_c   10.34612099
_cell_angle_alpha   127.49697812
_cell_angle_beta   117.41107716
_cell_angle_gamma   86.03822075
_symmetry_Int_Tables_number   1
_chemical_formula_structural   ReSiTc2
_chemical_formula_sum   'Re1 Si1 Tc2'
_cell_volume   744.12607131
_cell_formula_units_Z   1
loop_
 _symmetry_equiv_pos_site_id
 _symmetry_equiv_pos_as_xyz
  1  'x, y, z'
loop_
 _atom_site_type_symbol
 _atom_site_label
 _atom_site_symmetry_multiplicity
 _atom_site_fract_x
 _atom_site_fract_y
 _atom_site_fract_z
 _atom_site_occupancy
  Re  Re0  1  0.00000000  0.50000000  0.50000000  1
  Si  Si1  1  0.00000000  0.00000000  0.00000000  1
  Tc  Tc2  1  0.00000000  0.25242400  0.25242400  1
  Tc  Tc3  1  0.00000000  0.74757600  0.74757600  1
