# generated using pymatgen
data_V6O11F
_symmetry_space_group_name_H-M   'P 1'
_cell_length_a   5.50719834
_cell_length_b   5.50719834
_cell_length_c   7.12327817
_cell_angle_alpha   71.99374235
_cell_angle_beta   71.99374235
_cell_angle_gamma   74.03875501
_symmetry_Int_Tables_number   1
_chemical_formula_structural   V6O11F
_chemical_formula_sum   'V6 O11 F1'
_cell_volume   191.51550695
_cell_formula_units_Z   1
loop_
 _symmetry_equiv_pos_site_id
 _symmetry_equiv_pos_as_xyz
  1  'x, y, z'
loop_
 _atom_site_type_symbol
 _atom_site_label
 _atom_site_symmetry_multiplicity
 _atom_site_fract_x
 _atom_site_fract_y
 _atom_site_fract_z
 _atom_site_occupancy
  V  V0  1  0.32776500  0.67223500  0.00000000  1
  V  V1  1  0.01730600  0.31737700  0.82848300  1
  V  V2  1  0.30527000  0.69473000  0.50000000  1
  V  V3  1  0.03033200  0.33004500  0.31792600  1
  V  V4  1  0.66995500  0.96966800  0.68207400  1
  V  V5  1  0.68262300  0.98269400  0.17151700  1
  O  O6  1  0.30123500  0.04400300  0.82914900  1
  O  O7  1  0.89410200  0.23561800  0.12895800  1
  O  O8  1  0.23798500  0.57287200  0.78969600  1
  O  O9  1  0.55693900  0.90153800  0.47072900  1
  O  O10  1  0.76438200  0.10589800  0.87104200  1
  O  O11  1  0.42712800  0.76201500  0.21030400  1
  O  O12  1  0.09846200  0.44306100  0.52927100  1
  O  O13  1  0.35833700  0.28822800  0.17376700  1
  O  O14  1  0.71177200  0.64166300  0.82623300  1
  O  O15  1  0.02181900  0.97818100  0.50000000  1
  O  O16  1  0.95599700  0.69876500  0.17085100  1
  F  F17  1  0.63858700  0.36141300  0.50000000  1
