# generated using pymatgen
data_Al2NiPt
_symmetry_space_group_name_H-M   'P 1'
_cell_length_a   10.78962822
_cell_length_b   10.78962822
_cell_length_c   10.78962822
_cell_angle_alpha   128.61472434
_cell_angle_beta   115.79849687
_cell_angle_gamma   86.60106047
_symmetry_Int_Tables_number   1
_chemical_formula_structural   Al2NiPt
_chemical_formula_sum   'Al2 Ni1 Pt1'
_cell_volume   842.42915117
_cell_formula_units_Z   1
loop_
 _symmetry_equiv_pos_site_id
 _symmetry_equiv_pos_as_xyz
  1  'x, y, z'
loop_
 _atom_site_type_symbol
 _atom_site_label
 _atom_site_symmetry_multiplicity
 _atom_site_fract_x
 _atom_site_fract_y
 _atom_site_fract_z
 _atom_site_occupancy
  Al  Al0  1  0.50000000  0.25069900  0.75069900  1
  Al  Al1  1  0.50000000  0.74930100  0.24930100  1
  Ni  Ni2  1  0.50000000  0.00000000  0.50000000  1
  Pt  Pt3  1  0.50000000  0.50000000  0.00000000  1
