# generated using pymatgen
data_V2OF5
_symmetry_space_group_name_H-M   'P 1'
_cell_length_a   5.12848913
_cell_length_b   5.34986306
_cell_length_c   5.12852017
_cell_angle_alpha   118.12942042
_cell_angle_beta   118.98599114
_cell_angle_gamma   91.32534176
_symmetry_Int_Tables_number   1
_chemical_formula_structural   V2OF5
_chemical_formula_sum   'V2 O1 F5'
_cell_volume   102.61051467
_cell_formula_units_Z   1
loop_
 _symmetry_equiv_pos_site_id
 _symmetry_equiv_pos_as_xyz
  1  'x, y, z'
loop_
 _atom_site_type_symbol
 _atom_site_label
 _atom_site_symmetry_multiplicity
 _atom_site_fract_x
 _atom_site_fract_y
 _atom_site_fract_z
 _atom_site_occupancy
  V  V0  1  0.68125300  0.98807400  0.32701800  1
  V  V1  1  0.15438000  0.46127200  0.32581900  1
  O  O2  1  0.97855600  0.22444600  0.38742000  1
  F  F3  1  0.31613000  0.72396700  0.22365600  1
  F  F4  1  0.40017200  0.21703300  0.20703800  1
  F  F5  1  0.51160300  0.71709900  0.81675400  1
  F  F6  1  0.91523200  0.73150700  0.42896800  1
  F  F7  1  0.80382700  0.23183700  0.81680700  1
