# generated using pymatgen
data_Li6Mn17O40
_symmetry_space_group_name_H-M   'P 1'
_cell_length_a   5.83587841
_cell_length_b   5.83587841
_cell_length_c   24.05141726
_cell_angle_alpha   83.33216170
_cell_angle_beta   83.33216170
_cell_angle_gamma   59.81536134
_symmetry_Int_Tables_number   1
_chemical_formula_structural   Li6Mn17O40
_chemical_formula_sum   'Li6 Mn17 O40'
_cell_volume   701.68320835
_cell_formula_units_Z   1
loop_
 _symmetry_equiv_pos_site_id
 _symmetry_equiv_pos_as_xyz
  1  'x, y, z'
loop_
 _atom_site_type_symbol
 _atom_site_label
 _atom_site_symmetry_multiplicity
 _atom_site_fract_x
 _atom_site_fract_y
 _atom_site_fract_z
 _atom_site_occupancy
  Li  Li0  1  0.22353300  0.22353300  0.82735900  1
  Li  Li1  1  0.02550600  0.02550600  0.42755700  1
  Li  Li2  1  0.77270100  0.77270100  0.17410000  1
  Li  Li3  1  0.82670400  0.82670400  0.02530000  1
  Li  Li4  1  0.62498100  0.62498100  0.62417300  1
  Li  Li5  1  0.57629500  0.57629500  0.77311500  1
  Mn  Mn6  1  0.60633100  0.09643000  0.70093500  1
  Mn  Mn7  1  0.70248700  0.19589100  0.89905300  1
  Mn  Mn8  1  0.49832200  0.00152900  0.50034900  1
  Mn  Mn9  1  0.30038600  0.30038600  0.59892600  1
  Mn  Mn10  1  0.09655300  0.09655300  0.70083300  1
  Mn  Mn11  1  0.10029100  0.10029100  0.19861500  1
  Mn  Mn12  1  0.49962700  0.49962700  0.99966300  1
  Mn  Mn13  1  0.00152900  0.49832200  0.50034900  1
  Mn  Mn14  1  0.89983300  0.39979900  0.30016200  1
  Mn  Mn15  1  0.79945100  0.30074600  0.09963200  1
  Mn  Mn16  1  0.09643000  0.60633100  0.70093500  1
  Mn  Mn17  1  0.19589100  0.70248700  0.89905300  1
  Mn  Mn18  1  0.69905000  0.69905000  0.40176100  1
  Mn  Mn19  1  0.89983600  0.89983600  0.30013000  1
  Mn  Mn20  1  0.70189700  0.70189700  0.89914400  1
  Mn  Mn21  1  0.30074600  0.79945100  0.09963200  1
  Mn  Mn22  1  0.39979900  0.89983300  0.30016200  1
  O  O23  1  0.57177300  0.01139100  0.34598800  1
  O  O24  1  0.56341300  0.03832600  0.86016600  1
  O  O25  1  0.76170700  0.23744700  0.73950400  1
  O  O26  1  0.66559500  0.18713600  0.04726100  1
  O  O27  1  0.61243400  0.13696100  0.55242200  1
  O  O28  1  0.25318700  0.25318700  0.74227000  1
  O  O29  1  0.13640800  0.13640800  0.05966300  1
  O  O30  1  0.05305600  0.05305600  0.34218100  1
  O  O31  1  0.22763900  0.22763900  0.25315500  1
  O  O32  1  0.46486200  0.46486200  0.14020100  1
  O  O33  1  0.33701500  0.33701500  0.45999000  1
  O  O34  1  0.42993600  0.42993600  0.65190200  1
  O  O35  1  0.37245000  0.37245000  0.94737500  1
  O  O36  1  0.16860600  0.16860600  0.54674400  1
  O  O37  1  0.03701400  0.03701400  0.85995200  1
  O  O38  1  0.98748700  0.42896700  0.65262700  1
  O  O39  1  0.78861000  0.22783700  0.25406800  1
  O  O40  1  0.93602700  0.41091800  0.15279300  1
  O  O41  1  0.18713600  0.66559500  0.04726100  1
  O  O42  1  0.13696100  0.61243400  0.55242200  1
  O  O43  1  0.03832600  0.56341300  0.86016600  1
  O  O44  1  0.23744700  0.76170700  0.73950400  1
  O  O45  1  0.86375600  0.38880300  0.44721300  1
  O  O46  1  0.01139100  0.57177300  0.34598800  1
  O  O47  1  0.80881500  0.37330500  0.94654300  1
  O  O48  1  0.63468700  0.63468700  0.05321700  1
  O  O49  1  0.83326000  0.83326000  0.45266400  1
  O  O50  1  0.76267700  0.76267700  0.73985100  1
  O  O51  1  0.85291100  0.85291100  0.94217100  1
  O  O52  1  0.57195200  0.57195200  0.34691200  1
  O  O53  1  0.74650300  0.74650300  0.25812100  1
  O  O54  1  0.66841700  0.66841700  0.54262800  1
  O  O55  1  0.54686900  0.54686900  0.85718600  1
  O  O56  1  0.96565200  0.96565200  0.14699100  1
  O  O57  1  0.94642300  0.94642300  0.65850100  1
  O  O58  1  0.37330500  0.80881500  0.94654300  1
  O  O59  1  0.38880300  0.86375600  0.44721300  1
  O  O60  1  0.41091800  0.93602700  0.15279300  1
  O  O61  1  0.22783700  0.78861000  0.25406800  1
  O  O62  1  0.42896700  0.98748700  0.65262700  1
