# generated using pymatgen
data_VFe3Ni2(PO4)6
_symmetry_space_group_name_H-M   'P 1'
_cell_length_a   8.43970765
_cell_length_b   8.59655140
_cell_length_c   8.59655150
_cell_angle_alpha   60.00000044
_cell_angle_beta   59.38331501
_cell_angle_gamma   59.38331689
_symmetry_Int_Tables_number   1
_chemical_formula_structural   VFe3Ni2(PO4)6
_chemical_formula_sum   'V1 Fe3 Ni2 P6 O24'
_cell_volume   436.86704027
_cell_formula_units_Z   1
loop_
 _symmetry_equiv_pos_site_id
 _symmetry_equiv_pos_as_xyz
  1  'x, y, z'
loop_
 _atom_site_type_symbol
 _atom_site_label
 _atom_site_symmetry_multiplicity
 _atom_site_fract_x
 _atom_site_fract_y
 _atom_site_fract_z
 _atom_site_occupancy
  V  V0  1  0.56754700  0.14415100  0.14415100  1
  Fe  Fe1  1  0.06781300  0.64406200  0.64406200  1
  Fe  Fe2  1  0.43552000  0.85482700  0.85482700  1
  Fe  Fe3  1  0.92964000  0.35678600  0.35678600  1
  Ni  Ni4  1  0.00504600  0.99831800  0.99831800  1
  Ni  Ni5  1  0.50420100  0.49860000  0.49860000  1
  P  P6  1  0.24730900  0.25191400  0.54674900  1
  P  P7  1  0.24730900  0.95402800  0.25191400  1
  P  P8  1  0.24730900  0.54674900  0.95402800  1
  P  P9  1  0.74804000  0.45328000  0.04694000  1
  P  P10  1  0.74804000  0.04694000  0.75174000  1
  P  P11  1  0.74804000  0.75174000  0.45328000  1
  O  O12  1  0.06688100  0.10908800  0.32340700  1
  O  O13  1  0.06688100  0.50062400  0.10908800  1
  O  O14  1  0.06688100  0.32340700  0.50062400  1
  O  O15  1  0.22673300  0.09054500  0.74098100  1
  O  O16  1  0.43118300  0.17833300  0.37748600  1
  O  O17  1  0.28696500  0.40742100  0.54803000  1
  O  O18  1  0.22673300  0.94174100  0.09054500  1
  O  O19  1  0.28696500  0.75758500  0.40742100  1
  O  O20  1  0.56398600  0.60707700  0.00431000  1
  O  O21  1  0.28696500  0.54803000  0.75758500  1
  O  O22  1  0.76683300  0.25147200  0.06514300  1
  O  O23  1  0.56398600  0.00431000  0.82462500  1
  O  O24  1  0.43118300  0.01300000  0.17833300  1
  O  O25  1  0.22673300  0.74098100  0.94174100  1
  O  O26  1  0.72372300  0.43497700  0.24579400  1
  O  O27  1  0.43118300  0.37748600  0.01300000  1
  O  O28  1  0.72372300  0.24579400  0.59550500  1
  O  O29  1  0.76683300  0.06514300  0.91655200  1
  O  O30  1  0.72372300  0.59550500  0.43497700  1
  O  O31  1  0.56398600  0.82462500  0.60707700  1
  O  O32  1  0.76683300  0.91655200  0.25147200  1
  O  O33  1  0.93509300  0.69056900  0.48700500  1
  O  O34  1  0.93509300  0.48700500  0.88733400  1
  O  O35  1  0.93509300  0.88733400  0.69056900  1
