# generated using pymatgen
data_MgBP(H3O4)2
_symmetry_space_group_name_H-M   'P 1'
_cell_length_a   9.85388607
_cell_length_b   9.85388607
_cell_length_c   9.85388606
_cell_angle_alpha   99.14738960
_cell_angle_beta   99.14738960
_cell_angle_gamma   99.14739301
_symmetry_Int_Tables_number   1
_chemical_formula_structural   MgBP(H3O4)2
_chemical_formula_sum   'Mg6 B6 P6 H36 O48'
_cell_volume   915.80889180
_cell_formula_units_Z   6
loop_
 _symmetry_equiv_pos_site_id
 _symmetry_equiv_pos_as_xyz
  1  'x, y, z'
loop_
 _atom_site_type_symbol
 _atom_site_label
 _atom_site_symmetry_multiplicity
 _atom_site_fract_x
 _atom_site_fract_y
 _atom_site_fract_z
 _atom_site_occupancy
  Mg  Mg0  1  0.75000000  0.24974200  0.25025800  1
  Mg  Mg1  1  0.74974200  0.25000000  0.75025800  1
  Mg  Mg2  1  0.75025800  0.74974200  0.25000000  1
  Mg  Mg3  1  0.24974200  0.25025800  0.75000000  1
  Mg  Mg4  1  0.25025800  0.75000000  0.24974200  1
  Mg  Mg5  1  0.25000000  0.75025800  0.74974200  1
  B  B6  1  0.94070700  0.55929300  0.75000000  1
  B  B7  1  0.25000000  0.05929300  0.44070700  1
  B  B8  1  0.44070700  0.25000000  0.05929300  1
  B  B9  1  0.75000000  0.94070700  0.55929300  1
  B  B10  1  0.55929300  0.75000000  0.94070700  1
  B  B11  1  0.05929300  0.44070700  0.25000000  1
  P  P12  1  0.43986500  0.06013500  0.25000000  1
  P  P13  1  0.75000000  0.56013500  0.93986500  1
  P  P14  1  0.93986500  0.75000000  0.56013500  1
  P  P15  1  0.25000000  0.43986500  0.06013500  1
  P  P16  1  0.06013500  0.25000000  0.43986500  1
  P  P17  1  0.56013500  0.93986500  0.75000000  1
  H  H18  1  0.83229000  0.02164700  0.13012300  1
  H  H19  1  0.86987700  0.16771000  0.97835300  1
  H  H20  1  0.83420000  0.13092700  0.52697700  1
  H  H21  1  0.97966900  0.29499900  0.96144100  1
  H  H22  1  0.70500100  0.03855900  0.02033100  1
  H  H23  1  0.97302300  0.36907300  0.66580000  1
  H  H24  1  0.86907300  0.47302300  0.16580000  1
  H  H25  1  0.53855900  0.20500100  0.52033100  1
  H  H26  1  0.79499900  0.47966900  0.46144100  1
  H  H27  1  0.63092700  0.33420000  0.02697700  1
  H  H28  1  0.66771000  0.36987700  0.47835300  1
  H  H29  1  0.47302300  0.16580000  0.86907300  1
  H  H30  1  0.33420000  0.02697700  0.63092700  1
  H  H31  1  0.52164700  0.33229000  0.63012300  1
  H  H32  1  0.63012300  0.52164700  0.33229000  1
  H  H33  1  0.97835300  0.86987700  0.16771000  1
  H  H34  1  0.47966900  0.46144100  0.79499900  1
  H  H35  1  0.03855900  0.02033100  0.70500100  1
  H  H36  1  0.52033100  0.53855900  0.20500100  1
  H  H37  1  0.96144100  0.97966900  0.29499900  1
  H  H38  1  0.02164700  0.13012300  0.83229000  1
  H  H39  1  0.36987700  0.47835300  0.66771000  1
  H  H40  1  0.47835300  0.66771000  0.36987700  1
  H  H41  1  0.66580000  0.97302300  0.36907300  1
  H  H42  1  0.52697700  0.83420000  0.13092700  1
  H  H43  1  0.33229000  0.63012300  0.52164700  1
  H  H44  1  0.36907300  0.66580000  0.97302300  1
  H  H45  1  0.20500100  0.52033100  0.53855900  1
  H  H46  1  0.46144100  0.79499900  0.47966900  1
  H  H47  1  0.13092700  0.52697700  0.83420000  1
  H  H48  1  0.02697700  0.63092700  0.33420000  1
  H  H49  1  0.29499900  0.96144100  0.97966900  1
  H  H50  1  0.02033100  0.70500100  0.03855900  1
  H  H51  1  0.16580000  0.86907300  0.47302300  1
  H  H52  1  0.13012300  0.83229000  0.02164700  1
  H  H53  1  0.16771000  0.97835300  0.86987700  1
  O  O54  1  0.90156400  0.20135300  0.39406600  1
  O  O55  1  0.78955400  0.09349600  0.60064200  1
  O  O56  1  0.78689000  0.09423000  0.08856000  1
  O  O57  1  0.91144000  0.21311000  0.90577000  1
  O  O58  1  0.60593400  0.09843600  0.79864700  1
  O  O59  1  0.90650400  0.39935800  0.21044600  1
  O  O60  1  0.89935800  0.40650400  0.71044600  1
  O  O61  1  0.59843600  0.10593400  0.29864700  1
  O  O62  1  0.71311000  0.41144000  0.40577000  1
  O  O63  1  0.59423000  0.28689000  0.58856000  1
  O  O64  1  0.59349600  0.28955400  0.10064200  1
  O  O65  1  0.70135300  0.40156400  0.89406600  1
  O  O66  1  0.88613800  0.62234700  0.62771800  1
  O  O67  1  0.87765300  0.61386200  0.87228200  1
  O  O68  1  0.37228200  0.11386200  0.37765300  1
  O  O69  1  0.38613800  0.12771800  0.12234700  1
  O  O70  1  0.89406600  0.70135300  0.40156400  1
  O  O71  1  0.79864700  0.60593400  0.09843600  1
  O  O72  1  0.39935800  0.21044600  0.90650400  1
  O  O73  1  0.28955400  0.10064200  0.59349600  1
  O  O74  1  0.37765300  0.37228200  0.11386200  1
  O  O75  1  0.12771800  0.12234700  0.38613800  1
  O  O76  1  0.58856000  0.59423000  0.28689000  1
  O  O77  1  0.90577000  0.91144000  0.21311000  1
  O  O78  1  0.41144000  0.40577000  0.71311000  1
  O  O79  1  0.09423000  0.08856000  0.78689000  1
  O  O80  1  0.87228200  0.87765300  0.61386200  1
  O  O81  1  0.62234700  0.62771800  0.88613800  1
  O  O82  1  0.60064200  0.78955400  0.09349600  1
  O  O83  1  0.71044600  0.89935800  0.40650400  1
  O  O84  1  0.20135300  0.39406600  0.90156400  1
  O  O85  1  0.10593400  0.29864700  0.59843600  1
  O  O86  1  0.62771800  0.88613800  0.62234700  1
  O  O87  1  0.61386200  0.87228200  0.87765300  1
  O  O88  1  0.12234700  0.38613800  0.12771800  1
  O  O89  1  0.11386200  0.37765300  0.37228200  1
  O  O90  1  0.29864700  0.59843600  0.10593400  1
  O  O91  1  0.40650400  0.71044600  0.89935800  1
  O  O92  1  0.40577000  0.71311000  0.41144000  1
  O  O93  1  0.28689000  0.58856000  0.59423000  1
  O  O94  1  0.40156400  0.89406600  0.70135300  1
  O  O95  1  0.10064200  0.59349600  0.28955400  1
  O  O96  1  0.09349600  0.60064200  0.78955400  1
  O  O97  1  0.39406600  0.90156400  0.20135300  1
  O  O98  1  0.08856000  0.78689000  0.09423000  1
  O  O99  1  0.21311000  0.90577000  0.91144000  1
  O  O100  1  0.21044600  0.90650400  0.39935800  1
  O  O101  1  0.09843600  0.79864700  0.60593400  1
