# generated using pymatgen
data_Cr2O5F2
_symmetry_space_group_name_H-M   'P 1'
_cell_length_a   8.27050000
_cell_length_b   8.27050000
_cell_length_c   9.67630900
_cell_angle_alpha   90.00000000
_cell_angle_beta   90.00000000
_cell_angle_gamma   90.00000000
_symmetry_Int_Tables_number   1
_chemical_formula_structural   Cr2O5F2
_chemical_formula_sum   'Cr8 O20 F8'
_cell_volume   661.87085930
_cell_formula_units_Z   4
loop_
 _symmetry_equiv_pos_site_id
 _symmetry_equiv_pos_as_xyz
  1  'x, y, z'
loop_
 _atom_site_type_symbol
 _atom_site_label
 _atom_site_symmetry_multiplicity
 _atom_site_fract_x
 _atom_site_fract_y
 _atom_site_fract_z
 _atom_site_occupancy
  Cr  Cr0  1  0.09067200  0.33648700  0.85994200  1
  Cr  Cr1  1  0.16351300  0.40932800  0.35994200  1
  Cr  Cr2  1  0.33648700  0.90932800  0.14005800  1
  Cr  Cr3  1  0.40932800  0.83648700  0.64005800  1
  Cr  Cr4  1  0.59067200  0.16351300  0.64005800  1
  Cr  Cr5  1  0.66351300  0.09067200  0.14005800  1
  Cr  Cr6  1  0.83648700  0.59067200  0.35994200  1
  Cr  Cr7  1  0.90932800  0.66351300  0.85994200  1
  O  O8  1  0.00000000  0.50000000  0.26897100  1
  O  O9  1  0.00000000  0.50000000  0.76897100  1
  O  O10  1  0.02488500  0.71609400  0.98405200  1
  O  O11  1  0.10849000  0.19094400  0.75458800  1
  O  O12  1  0.21609400  0.52488500  0.48405200  1
  O  O13  1  0.19094400  0.89151000  0.24541200  1
  O  O14  1  0.30905600  0.39151000  0.25458800  1
  O  O15  1  0.28390600  0.02488500  0.01594800  1
  O  O16  1  0.39151000  0.69094400  0.74541200  1
  O  O17  1  0.47511500  0.21609400  0.51594800  1
  O  O18  1  0.50000000  0.00000000  0.23102900  1
  O  O19  1  0.50000000  0.00000000  0.73102900  1
  O  O20  1  0.52488500  0.78390600  0.51594800  1
  O  O21  1  0.60849000  0.30905600  0.74541200  1
  O  O22  1  0.71609400  0.97511500  0.01594800  1
  O  O23  1  0.69094400  0.60849000  0.25458800  1
  O  O24  1  0.80905600  0.10849000  0.24541200  1
  O  O25  1  0.78390600  0.47511500  0.48405200  1
  O  O26  1  0.89151000  0.80905600  0.75458800  1
  O  O27  1  0.97511500  0.28390600  0.98405200  1
  F  F28  1  0.09982800  0.22399400  0.42305600  1
  F  F29  1  0.22399400  0.90017200  0.57694400  1
  F  F30  1  0.27600600  0.40017200  0.92305600  1
  F  F31  1  0.40017200  0.72399400  0.07694400  1
  F  F32  1  0.59982800  0.27600600  0.07694400  1
  F  F33  1  0.72399400  0.59982800  0.92305600  1
  F  F34  1  0.77600600  0.09982800  0.57694400  1
  F  F35  1  0.90017200  0.77600600  0.42305600  1
