# generated using pymatgen
data_K2CoP4(HO2)8
_symmetry_space_group_name_H-M   'P 1'
_cell_length_a   9.83883800
_cell_length_b   11.12290800
_cell_length_c   13.45935400
_cell_angle_alpha   90.00000000
_cell_angle_beta   90.00000000
_cell_angle_gamma   90.00000000
_symmetry_Int_Tables_number   1
_chemical_formula_structural   K2CoP4(HO2)8
_chemical_formula_sum   'K8 Co4 P16 H32 O64'
_cell_volume   1472.94445809
_cell_formula_units_Z   4
loop_
 _symmetry_equiv_pos_site_id
 _symmetry_equiv_pos_as_xyz
  1  'x, y, z'
loop_
 _atom_site_type_symbol
 _atom_site_label
 _atom_site_symmetry_multiplicity
 _atom_site_fract_x
 _atom_site_fract_y
 _atom_site_fract_z
 _atom_site_occupancy
  K  K0  1  0.05262000  0.25000000  0.60348900  1
  K  K1  1  0.24782000  0.25000000  0.12434100  1
  K  K2  1  0.25218000  0.75000000  0.62434100  1
  K  K3  1  0.44738000  0.75000000  0.10348900  1
  K  K4  1  0.55262000  0.25000000  0.89651100  1
  K  K5  1  0.74782000  0.25000000  0.37565900  1
  K  K6  1  0.75218000  0.75000000  0.87565900  1
  K  K7  1  0.94738000  0.75000000  0.39651100  1
  Co  Co8  1  0.16548500  0.25000000  0.86029000  1
  Co  Co9  1  0.33451500  0.75000000  0.36029000  1
  Co  Co10  1  0.66548500  0.25000000  0.63971000  1
  Co  Co11  1  0.83451500  0.75000000  0.13971000  1
  P  P12  1  0.06044800  0.51774200  0.77574300  1
  P  P13  1  0.06044800  0.98225800  0.77574300  1
  P  P14  1  0.24859600  0.01571700  0.44275300  1
  P  P15  1  0.24859600  0.48428300  0.44275300  1
  P  P16  1  0.25140400  0.51571700  0.94275300  1
  P  P17  1  0.25140400  0.98428300  0.94275300  1
  P  P18  1  0.43955200  0.48225800  0.27574300  1
  P  P19  1  0.43955200  0.01774200  0.27574300  1
  P  P20  1  0.56044800  0.51774200  0.72425700  1
  P  P21  1  0.56044800  0.98225800  0.72425700  1
  P  P22  1  0.74859600  0.01571700  0.05724700  1
  P  P23  1  0.74859600  0.48428300  0.05724700  1
  P  P24  1  0.75140400  0.51571700  0.55724700  1
  P  P25  1  0.75140400  0.98428300  0.55724700  1
  P  P26  1  0.93955200  0.01774200  0.22425700  1
  P  P27  1  0.93955200  0.48225800  0.22425700  1
  H  H28  1  0.03914700  0.67823300  0.02086200  1
  H  H29  1  0.03914700  0.82176700  0.02086200  1
  H  H30  1  0.04075900  0.08079200  0.40116700  1
  H  H31  1  0.04075900  0.41920800  0.40116700  1
  H  H32  1  0.10000500  0.02307100  0.10919400  1
  H  H33  1  0.10000500  0.47692900  0.10919400  1
  H  H34  1  0.13559500  0.68105500  0.22347700  1
  H  H35  1  0.13559500  0.81894500  0.22347700  1
  H  H36  1  0.36440500  0.18105500  0.72347700  1
  H  H37  1  0.36440500  0.31894500  0.72347700  1
  H  H38  1  0.39999500  0.52307100  0.60919400  1
  H  H39  1  0.39999500  0.97692900  0.60919400  1
  H  H40  1  0.45924100  0.58079200  0.90116700  1
  H  H41  1  0.45924100  0.91920800  0.90116700  1
  H  H42  1  0.46085300  0.17823300  0.52086200  1
  H  H43  1  0.46085300  0.32176700  0.52086200  1
  H  H44  1  0.53914700  0.82176700  0.47913800  1
  H  H45  1  0.53914700  0.67823300  0.47913800  1
  H  H46  1  0.54075900  0.08079200  0.09883300  1
  H  H47  1  0.54075900  0.41920800  0.09883300  1
  H  H48  1  0.60000500  0.02307100  0.39080600  1
  H  H49  1  0.60000500  0.47692900  0.39080600  1
  H  H50  1  0.63559500  0.81894500  0.27652300  1
  H  H51  1  0.63559500  0.68105500  0.27652300  1
  H  H52  1  0.86440500  0.18105500  0.77652300  1
  H  H53  1  0.86440500  0.31894500  0.77652300  1
  H  H54  1  0.89999500  0.52307100  0.89080600  1
  H  H55  1  0.89999500  0.97692900  0.89080600  1
  H  H56  1  0.95924100  0.91920800  0.59883300  1
  H  H57  1  0.95924100  0.58079200  0.59883300  1
  H  H58  1  0.96085300  0.17823300  0.97913800  1
  H  H59  1  0.96085300  0.32176700  0.97913800  1
  O  O60  1  0.02101100  0.25000000  0.97474500  1
  O  O61  1  0.05161200  0.11895100  0.78167100  1
  O  O62  1  0.05161200  0.38104900  0.78167100  1
  O  O63  1  0.06525500  0.07392300  0.16841300  1
  O  O64  1  0.06525500  0.42607700  0.16841300  1
  O  O65  1  0.07374900  0.57250400  0.67360300  1
  O  O66  1  0.07374900  0.92749600  0.67360300  1
  O  O67  1  0.11588000  0.09300800  0.45431600  1
  O  O68  1  0.11588000  0.40699200  0.45431600  1
  O  O69  1  0.15179700  0.55275800  0.02297700  1
  O  O70  1  0.15179700  0.94724200  0.02297700  1
  O  O71  1  0.19418200  0.56267900  0.83570600  1
  O  O72  1  0.19418200  0.93732100  0.83570600  1
  O  O73  1  0.19740500  0.75000000  0.23307300  1
  O  O74  1  0.21753200  0.61802200  0.43390600  1
  O  O75  1  0.21753200  0.88197800  0.43390600  1
  O  O76  1  0.28246800  0.11802200  0.93390600  1
  O  O77  1  0.28246800  0.38197800  0.93390600  1
  O  O78  1  0.30259500  0.25000000  0.73307300  1
  O  O79  1  0.30581800  0.06267900  0.33570600  1
  O  O80  1  0.30581800  0.43732100  0.33570600  1
  O  O81  1  0.34820300  0.05275800  0.52297700  1
  O  O82  1  0.34820300  0.44724200  0.52297700  1
  O  O83  1  0.38412000  0.59300800  0.95431600  1
  O  O84  1  0.38412000  0.90699200  0.95431600  1
  O  O85  1  0.42625100  0.42749600  0.17360300  1
  O  O86  1  0.42625100  0.07250400  0.17360300  1
  O  O87  1  0.43474500  0.57392300  0.66841300  1
  O  O88  1  0.43474500  0.92607700  0.66841300  1
  O  O89  1  0.44838800  0.61895100  0.28167100  1
  O  O90  1  0.44838800  0.88104900  0.28167100  1
  O  O91  1  0.47898900  0.75000000  0.47474500  1
  O  O92  1  0.52101100  0.25000000  0.52525500  1
  O  O93  1  0.55161200  0.11895100  0.71832900  1
  O  O94  1  0.55161200  0.38104900  0.71832900  1
  O  O95  1  0.56525500  0.07392300  0.33158700  1
  O  O96  1  0.56525500  0.42607700  0.33158700  1
  O  O97  1  0.57374900  0.57250400  0.82639700  1
  O  O98  1  0.57374900  0.92749600  0.82639700  1
  O  O99  1  0.61588000  0.09300800  0.04568400  1
  O  O100  1  0.61588000  0.40699200  0.04568400  1
  O  O101  1  0.65179700  0.55275800  0.47702300  1
  O  O102  1  0.65179700  0.94724200  0.47702300  1
  O  O103  1  0.69418200  0.56267900  0.66429400  1
  O  O104  1  0.69418200  0.93732100  0.66429400  1
  O  O105  1  0.69740500  0.75000000  0.26692700  1
  O  O106  1  0.71753200  0.61802200  0.06609400  1
  O  O107  1  0.71753200  0.88197800  0.06609400  1
  O  O108  1  0.78246800  0.11802200  0.56609400  1
  O  O109  1  0.78246800  0.38197800  0.56609400  1
  O  O110  1  0.80259500  0.25000000  0.76692700  1
  O  O111  1  0.80581800  0.06267900  0.16429400  1
  O  O112  1  0.80581800  0.43732100  0.16429400  1
  O  O113  1  0.84820300  0.05275800  0.97702300  1
  O  O114  1  0.84820300  0.44724200  0.97702300  1
  O  O115  1  0.88412000  0.59300800  0.54568400  1
  O  O116  1  0.88412000  0.90699200  0.54568400  1
  O  O117  1  0.92625100  0.07250400  0.32639700  1
  O  O118  1  0.92625100  0.42749600  0.32639700  1
  O  O119  1  0.93474500  0.57392300  0.83158700  1
  O  O120  1  0.93474500  0.92607700  0.83158700  1
  O  O121  1  0.94838800  0.61895100  0.21832900  1
  O  O122  1  0.94838800  0.88104900  0.21832900  1
  O  O123  1  0.97898900  0.75000000  0.02525500  1
