# generated using pymatgen
data_Ti3Fe2P6WO24
_symmetry_space_group_name_H-M   'P 1'
_cell_length_a   8.62736186
_cell_length_b   8.62736186
_cell_length_c   8.62736168
_cell_angle_alpha   60.90799090
_cell_angle_beta   60.90799090
_cell_angle_gamma   60.90799013
_symmetry_Int_Tables_number   1
_chemical_formula_structural   Ti3Fe2P6WO24
_chemical_formula_sum   'Ti3 Fe2 P6 W1 O24'
_cell_volume   463.35855063
_cell_formula_units_Z   1
loop_
 _symmetry_equiv_pos_site_id
 _symmetry_equiv_pos_as_xyz
  1  'x, y, z'
loop_
 _atom_site_type_symbol
 _atom_site_label
 _atom_site_symmetry_multiplicity
 _atom_site_fract_x
 _atom_site_fract_y
 _atom_site_fract_z
 _atom_site_occupancy
  Ti  Ti0  1  0.64490500  0.64490500  0.64490500  1
  Ti  Ti1  1  0.85610400  0.85610400  0.85610400  1
  Ti  Ti2  1  0.35519000  0.35519000  0.35519000  1
  Fe  Fe3  1  0.99786800  0.99786800  0.99786800  1
  Fe  Fe4  1  0.50116000  0.50116000  0.50116000  1
  P  P5  1  0.95370800  0.25120700  0.54775000  1
  P  P6  1  0.54775000  0.95370800  0.25120700  1
  P  P7  1  0.25120700  0.54775000  0.95370800  1
  P  P8  1  0.74294500  0.46204800  0.04371400  1
  P  P9  1  0.46204800  0.04371400  0.74294500  1
  P  P10  1  0.04371400  0.74294500  0.46204800  1
  W  W11  1  0.13969900  0.13969900  0.13969900  1
  O  O12  1  0.49888600  0.11769800  0.31403900  1
  O  O13  1  0.31403900  0.49888600  0.11769800  1
  O  O14  1  0.11769800  0.31403900  0.49888600  1
  O  O15  1  0.94239300  0.09066500  0.74174500  1
  O  O16  1  0.98278100  0.18859400  0.39733500  1
  O  O17  1  0.75978800  0.41274000  0.56800000  1
  O  O18  1  0.74174500  0.94239300  0.09066500  1
  O  O19  1  0.56800000  0.75978800  0.41274000  1
  O  O20  1  0.81411300  0.61660200  0.99992000  1
  O  O21  1  0.41274000  0.56800000  0.75978800  1
  O  O22  1  0.89606300  0.26579400  0.05195800  1
  O  O23  1  0.61660200  0.99992000  0.81411300  1
  O  O24  1  0.39733500  0.98278100  0.18859400  1
  O  O25  1  0.09066500  0.74174500  0.94239300  1
  O  O26  1  0.58488400  0.44898900  0.23859900  1
  O  O27  1  0.18859400  0.39733500  0.98278100  1
  O  O28  1  0.44898900  0.23859900  0.58488400  1
  O  O29  1  0.26579400  0.05195800  0.89606300  1
  O  O30  1  0.23859900  0.58488400  0.44898900  1
  O  O31  1  0.99992000  0.81411300  0.61660200  1
  O  O32  1  0.05195800  0.89606300  0.26579400  1
  O  O33  1  0.88617600  0.67293000  0.51301200  1
  O  O34  1  0.67293000  0.51301200  0.88617600  1
  O  O35  1  0.51301200  0.88617600  0.67293000  1
