# generated using pymatgen
data_MnOF
_symmetry_space_group_name_H-M   'P 1'
_cell_length_a   3.72463500
_cell_length_b   8.93638600
_cell_length_c   5.45922200
_cell_angle_alpha   90.00328269
_cell_angle_beta   89.99975102
_cell_angle_gamma   89.99846789
_symmetry_Int_Tables_number   1
_chemical_formula_structural   MnOF
_chemical_formula_sum   'Mn4 O4 F4'
_cell_volume   181.70898160
_cell_formula_units_Z   4
loop_
 _symmetry_equiv_pos_site_id
 _symmetry_equiv_pos_as_xyz
  1  'x, y, z'
loop_
 _atom_site_type_symbol
 _atom_site_label
 _atom_site_symmetry_multiplicity
 _atom_site_fract_x
 _atom_site_fract_y
 _atom_site_fract_z
 _atom_site_occupancy
  Mn  Mn0  1  0.74998300  0.40469500  0.36701100  1
  Mn  Mn1  1  0.74996900  0.09531000  0.86692700  1
  Mn  Mn2  1  0.25000100  0.90465300  0.13296700  1
  Mn  Mn3  1  0.25002300  0.59532900  0.63292800  1
  O  O4  1  0.74998600  0.95894000  0.13898400  1
  O  O5  1  0.24999200  0.45893100  0.36104200  1
  O  O6  1  0.75001200  0.54107100  0.63896100  1
  O  O7  1  0.24997600  0.04106500  0.86108800  1
  F  F8  1  0.75000700  0.29647500  0.06659100  1
  F  F9  1  0.25000800  0.79647000  0.43346000  1
  F  F10  1  0.75000500  0.20353800  0.56660300  1
  F  F11  1  0.25004000  0.70352300  0.93343900  1
