# generated using pymatgen
data_VOF
_symmetry_space_group_name_H-M   'P 1'
_cell_length_a   4.71697200
_cell_length_b   4.73074500
_cell_length_c   9.39317700
_cell_angle_alpha   90.00000000
_cell_angle_beta   90.00000000
_cell_angle_gamma   90.00000000
_symmetry_Int_Tables_number   1
_chemical_formula_structural   VOF
_chemical_formula_sum   'V6 O6 F6'
_cell_volume   209.60678820
_cell_formula_units_Z   6
loop_
 _symmetry_equiv_pos_site_id
 _symmetry_equiv_pos_as_xyz
  1  'x, y, z'
loop_
 _atom_site_type_symbol
 _atom_site_label
 _atom_site_symmetry_multiplicity
 _atom_site_fract_x
 _atom_site_fract_y
 _atom_site_fract_z
 _atom_site_occupancy
  V  V0  1  0.97860100  0.97075400  0.99921800  1
  V  V1  1  0.97860100  0.97075400  0.33411500  1
  V  V2  1  0.04612600  0.02216900  0.66666700  1
  V  V3  1  0.54612600  0.47783100  0.16666700  1
  V  V4  1  0.47860100  0.52924600  0.83411500  1
  V  V5  1  0.47860100  0.52924600  0.49921800  1
  O  O6  1  0.19337500  0.81812000  0.49834500  1
  O  O7  1  0.19337500  0.81812000  0.83498900  1
  O  O8  1  0.31555600  0.32561400  0.66666700  1
  O  O9  1  0.69337500  0.68188000  0.99834500  1
  O  O10  1  0.69337500  0.68188000  0.33498900  1
  O  O11  1  0.81555600  0.17438600  0.16666700  1
  F  F12  1  0.20047700  0.77106100  0.16666700  1
  F  F13  1  0.29694500  0.29377500  0.00124400  1
  F  F14  1  0.29694500  0.29377500  0.33208900  1
  F  F15  1  0.70047700  0.72893900  0.66666700  1
  F  F16  1  0.79694500  0.20622500  0.83208900  1
  F  F17  1  0.79694500  0.20622500  0.50124400  1
