# generated using pymatgen
data_Na5CuHO4
_symmetry_space_group_name_H-M   'P 1'
_cell_length_a   9.94330100
_cell_length_b   9.99159900
_cell_length_c   12.13696200
_cell_angle_alpha   90.00000000
_cell_angle_beta   90.00000000
_cell_angle_gamma   90.00000000
_symmetry_Int_Tables_number   1
_chemical_formula_structural   Na5CuHO4
_chemical_formula_sum   'Na40 Cu8 H8 O32'
_cell_volume   1205.80081892
_cell_formula_units_Z   8
loop_
 _symmetry_equiv_pos_site_id
 _symmetry_equiv_pos_as_xyz
  1  'x, y, z'
loop_
 _atom_site_type_symbol
 _atom_site_label
 _atom_site_symmetry_multiplicity
 _atom_site_fract_x
 _atom_site_fract_y
 _atom_site_fract_z
 _atom_site_occupancy
  Na  Na0  1  0.59083100  0.97675300  0.20856600  1
  Na  Na1  1  0.90916900  0.97675300  0.20856600  1
  Na  Na2  1  0.07030200  0.07232700  0.41526300  1
  Na  Na3  1  0.42969800  0.07232700  0.41526300  1
  Na  Na4  1  0.75000000  0.08302400  0.44999500  1
  Na  Na5  1  0.25000000  0.11734700  0.98508300  1
  Na  Na6  1  0.56876200  0.12944100  0.99099900  1
  Na  Na7  1  0.93123800  0.12944100  0.99099900  1
  Na  Na8  1  0.57588200  0.21911700  0.67970700  1
  Na  Na9  1  0.92411800  0.21911700  0.67970700  1
  Na  Na10  1  0.07588200  0.28088300  0.17970700  1
  Na  Na11  1  0.42411800  0.28088300  0.17970700  1
  Na  Na12  1  0.06876200  0.37055900  0.49099900  1
  Na  Na13  1  0.43123800  0.37055900  0.49099900  1
  Na  Na14  1  0.75000000  0.38265300  0.48508300  1
  Na  Na15  1  0.25000000  0.41697600  0.94999500  1
  Na  Na16  1  0.57030200  0.42767300  0.91526300  1
  Na  Na17  1  0.92969800  0.42767300  0.91526300  1
  Na  Na18  1  0.09083100  0.52324700  0.70856600  1
  Na  Na19  1  0.40916900  0.52324700  0.70856600  1
  Na  Na20  1  0.59083100  0.47675300  0.29143400  1
  Na  Na21  1  0.90916900  0.47675300  0.29143400  1
  Na  Na22  1  0.07030200  0.57232700  0.08473700  1
  Na  Na23  1  0.42969800  0.57232700  0.08473700  1
  Na  Na24  1  0.75000000  0.58302400  0.05000500  1
  Na  Na25  1  0.25000000  0.61734700  0.51491700  1
  Na  Na26  1  0.56876200  0.62944100  0.50900100  1
  Na  Na27  1  0.93123800  0.62944100  0.50900100  1
  Na  Na28  1  0.57588200  0.71911700  0.82029300  1
  Na  Na29  1  0.92411800  0.71911700  0.82029300  1
  Na  Na30  1  0.07588200  0.78088300  0.32029300  1
  Na  Na31  1  0.42411800  0.78088300  0.32029300  1
  Na  Na32  1  0.06876200  0.87055900  0.00900100  1
  Na  Na33  1  0.43123800  0.87055900  0.00900100  1
  Na  Na34  1  0.75000000  0.88265300  0.01491700  1
  Na  Na35  1  0.25000000  0.91697600  0.55000500  1
  Na  Na36  1  0.92969800  0.92767300  0.58473700  1
  Na  Na37  1  0.57030200  0.92767300  0.58473700  1
  Na  Na38  1  0.09083100  0.02324700  0.79143400  1
  Na  Na39  1  0.40916900  0.02324700  0.79143400  1
  Cu  Cu40  1  0.25000000  0.01188800  0.21050300  1
  Cu  Cu41  1  0.25000000  0.20752800  0.61834500  1
  Cu  Cu42  1  0.75000000  0.29247200  0.11834500  1
  Cu  Cu43  1  0.75000000  0.48811200  0.71050300  1
  Cu  Cu44  1  0.25000000  0.51188800  0.28949700  1
  Cu  Cu45  1  0.25000000  0.70752800  0.88165500  1
  Cu  Cu46  1  0.75000000  0.79247200  0.38165500  1
  Cu  Cu47  1  0.75000000  0.98811200  0.78949700  1
  H  H48  1  0.61746700  0.21028900  0.31480500  1
  H  H49  1  0.88253300  0.21028900  0.31480500  1
  H  H50  1  0.11746700  0.28971100  0.81480500  1
  H  H51  1  0.38253300  0.28971100  0.81480500  1
  H  H52  1  0.61746700  0.71028900  0.18519500  1
  H  H53  1  0.88253300  0.71028900  0.18519500  1
  H  H54  1  0.11746700  0.78971100  0.68519500  1
  H  H55  1  0.38253300  0.78971100  0.68519500  1
  O  O56  1  0.75000000  0.06229000  0.64786000  1
  O  O57  1  0.40121100  0.06187200  0.12183300  1
  O  O58  1  0.09878900  0.06187200  0.12183300  1
  O  O59  1  0.39923200  0.08730000  0.60703900  1
  O  O60  1  0.10076800  0.08730000  0.60703900  1
  O  O61  1  0.75000000  0.10504500  0.11691800  1
  O  O62  1  0.07258800  0.24454200  0.87549100  1
  O  O63  1  0.42741200  0.24454200  0.87549100  1
  O  O64  1  0.57258800  0.25545800  0.37549100  1
  O  O65  1  0.92741200  0.25545800  0.37549100  1
  O  O66  1  0.25000000  0.39495500  0.61691800  1
  O  O67  1  0.60076800  0.41270000  0.10703900  1
  O  O68  1  0.89923200  0.41270000  0.10703900  1
  O  O69  1  0.59878900  0.43812800  0.62183300  1
  O  O70  1  0.90121100  0.43812800  0.62183300  1
  O  O71  1  0.25000000  0.43771000  0.14786000  1
  O  O72  1  0.75000000  0.56229000  0.85214000  1
  O  O73  1  0.09878900  0.56187200  0.37816700  1
  O  O74  1  0.40121100  0.56187200  0.37816700  1
  O  O75  1  0.10076800  0.58730000  0.89296100  1
  O  O76  1  0.39923200  0.58730000  0.89296100  1
  O  O77  1  0.75000000  0.60504500  0.38308200  1
  O  O78  1  0.07258800  0.74454200  0.62450900  1
  O  O79  1  0.42741200  0.74454200  0.62450900  1
  O  O80  1  0.57258800  0.75545800  0.12450900  1
  O  O81  1  0.92741200  0.75545800  0.12450900  1
  O  O82  1  0.25000000  0.89495500  0.88308200  1
  O  O83  1  0.89923200  0.91270000  0.39296100  1
  O  O84  1  0.60076800  0.91270000  0.39296100  1
  O  O85  1  0.90121100  0.93812800  0.87816700  1
  O  O86  1  0.59878900  0.93812800  0.87816700  1
  O  O87  1  0.25000000  0.93771000  0.35214000  1
