# generated using pymatgen
data_P2HNF4
_symmetry_space_group_name_H-M   'P 1'
_cell_length_a   4.81478900
_cell_length_b   8.89514900
_cell_length_c   14.02434316
_cell_angle_alpha   59.37771530
_cell_angle_beta   90.00000000
_cell_angle_gamma   90.00000000
_symmetry_Int_Tables_number   1
_chemical_formula_structural   P2HNF4
_chemical_formula_sum   'P8 H4 N4 F16'
_cell_volume   516.87566390
_cell_formula_units_Z   4
loop_
 _symmetry_equiv_pos_site_id
 _symmetry_equiv_pos_as_xyz
  1  'x, y, z'
loop_
 _atom_site_type_symbol
 _atom_site_label
 _atom_site_symmetry_multiplicity
 _atom_site_fract_x
 _atom_site_fract_y
 _atom_site_fract_z
 _atom_site_occupancy
  P  P0  1  0.08693600  0.30292300  0.84888700  1
  P  P1  1  0.14074800  0.71697400  0.33951700  1
  P  P2  1  0.58693600  0.69707700  0.65111300  1
  P  P3  1  0.35925200  0.71697400  0.83951700  1
  P  P4  1  0.64074800  0.28302600  0.16048300  1
  P  P5  1  0.41306400  0.30292300  0.34888700  1
  P  P6  1  0.85925200  0.28302600  0.66048300  1
  P  P7  1  0.91306400  0.69707700  0.15111300  1
  H  H8  1  0.19628000  0.91829700  0.14675900  1
  H  H9  1  0.69628000  0.08170300  0.35324100  1
  H  H10  1  0.30372000  0.91829700  0.64675900  1
  H  H11  1  0.80372000  0.08170300  0.85324100  1
  N  N12  1  0.10177400  0.80194700  0.20100400  1
  N  N13  1  0.39822600  0.80194700  0.70100400  1
  N  N14  1  0.60177400  0.19805300  0.29899600  1
  N  N15  1  0.89822600  0.19805300  0.79899600  1
  F  F16  1  0.25048200  0.13695500  0.94703200  1
  F  F17  1  0.47483500  0.73815800  0.34257000  1
  F  F18  1  0.86054900  0.31483600  0.93001900  1
  F  F19  1  0.36054900  0.68516400  0.56998100  1
  F  F20  1  0.06931600  0.88949800  0.34566700  1
  F  F21  1  0.56931600  0.11050200  0.15433300  1
  F  F22  1  0.75048200  0.86304500  0.55296800  1
  F  F23  1  0.97483500  0.26184200  0.15743000  1
  F  F24  1  0.02516500  0.73815800  0.84257000  1
  F  F25  1  0.24951800  0.13695500  0.44703200  1
  F  F26  1  0.43068400  0.88949800  0.84566700  1
  F  F27  1  0.93068400  0.11050200  0.65433300  1
  F  F28  1  0.63945100  0.31483600  0.43001900  1
  F  F29  1  0.13945100  0.68516400  0.06998100  1
  F  F30  1  0.52516500  0.26184200  0.65743000  1
  F  F31  1  0.74951800  0.86304500  0.05296800  1
