# generated using pymatgen
data_NaMg2In
_symmetry_space_group_name_H-M   'P 1'
_cell_length_a   12.42231463
_cell_length_b   12.42231463
_cell_length_c   12.42231463
_cell_angle_alpha   120.89451946
_cell_angle_beta   120.79739304
_cell_angle_gamma   88.54092248
_symmetry_Int_Tables_number   1
_chemical_formula_structural   NaMg2In
_chemical_formula_sum   'Na1 Mg2 In1'
_cell_volume   1337.67445262
_cell_formula_units_Z   1
loop_
 _symmetry_equiv_pos_site_id
 _symmetry_equiv_pos_as_xyz
  1  'x, y, z'
loop_
 _atom_site_type_symbol
 _atom_site_label
 _atom_site_symmetry_multiplicity
 _atom_site_fract_x
 _atom_site_fract_y
 _atom_site_fract_z
 _atom_site_occupancy
  Na  Na0  1  0.00000000  0.00000000  0.00000000  1
  Mg  Mg1  1  0.00000000  0.25897200  0.25897200  1
  Mg  Mg2  1  0.00000000  0.74102800  0.74102800  1
  In  In3  1  0.00000000  0.50000000  0.50000000  1
