# generated using pymatgen
data_Na5NiHO4
_symmetry_space_group_name_H-M   'P 1'
_cell_length_a   9.85845300
_cell_length_b   10.16765700
_cell_length_c   11.82671300
_cell_angle_alpha   90.00000000
_cell_angle_beta   90.00000000
_cell_angle_gamma   90.00000000
_symmetry_Int_Tables_number   1
_chemical_formula_structural   Na5NiHO4
_chemical_formula_sum   'Na40 Ni8 H8 O32'
_cell_volume   1185.47859095
_cell_formula_units_Z   8
loop_
 _symmetry_equiv_pos_site_id
 _symmetry_equiv_pos_as_xyz
  1  'x, y, z'
loop_
 _atom_site_type_symbol
 _atom_site_label
 _atom_site_symmetry_multiplicity
 _atom_site_fract_x
 _atom_site_fract_y
 _atom_site_fract_z
 _atom_site_occupancy
  Na  Na0  1  0.98421100  0.59227600  0.21299600  1
  Na  Na1  1  0.98421100  0.90772400  0.21299600  1
  Na  Na2  1  0.07163000  0.06744500  0.40890100  1
  Na  Na3  1  0.07163000  0.43255500  0.40890100  1
  Na  Na4  1  0.08008200  0.75000000  0.44544000  1
  Na  Na5  1  0.11491600  0.25000000  0.98256600  1
  Na  Na6  1  0.13551200  0.56563800  0.99148600  1
  Na  Na7  1  0.13551200  0.93436200  0.99148600  1
  Na  Na8  1  0.21937100  0.58281100  0.68042100  1
  Na  Na9  1  0.21937100  0.91718900  0.68042100  1
  Na  Na10  1  0.28062900  0.08281100  0.18042100  1
  Na  Na11  1  0.28062900  0.41718900  0.18042100  1
  Na  Na12  1  0.36448800  0.06563800  0.49148600  1
  Na  Na13  1  0.36448800  0.43436200  0.49148600  1
  Na  Na14  1  0.38508400  0.75000000  0.48256600  1
  Na  Na15  1  0.41991800  0.25000000  0.94544000  1
  Na  Na16  1  0.42837000  0.56744500  0.90890100  1
  Na  Na17  1  0.42837000  0.93255500  0.90890100  1
  Na  Na18  1  0.51578900  0.09227600  0.71299600  1
  Na  Na19  1  0.51578900  0.40772400  0.71299600  1
  Na  Na20  1  0.48421100  0.59227600  0.28700400  1
  Na  Na21  1  0.48421100  0.90772400  0.28700400  1
  Na  Na22  1  0.57163000  0.06744500  0.09109900  1
  Na  Na23  1  0.57163000  0.43255500  0.09109900  1
  Na  Na24  1  0.58008200  0.75000000  0.05456000  1
  Na  Na25  1  0.61491600  0.25000000  0.51743400  1
  Na  Na26  1  0.63551200  0.56563800  0.50851400  1
  Na  Na27  1  0.63551200  0.93436200  0.50851400  1
  Na  Na28  1  0.71937100  0.58281100  0.81957900  1
  Na  Na29  1  0.71937100  0.91718900  0.81957900  1
  Na  Na30  1  0.78062900  0.08281100  0.31957900  1
  Na  Na31  1  0.78062900  0.41718900  0.31957900  1
  Na  Na32  1  0.86448800  0.06563800  0.00851400  1
  Na  Na33  1  0.86448800  0.43436200  0.00851400  1
  Na  Na34  1  0.88508400  0.75000000  0.01743400  1
  Na  Na35  1  0.91991800  0.25000000  0.55456000  1
  Na  Na36  1  0.92837000  0.93255500  0.59109900  1
  Na  Na37  1  0.92837000  0.56744500  0.59109900  1
  Na  Na38  1  0.01578900  0.09227600  0.78700400  1
  Na  Na39  1  0.01578900  0.40772400  0.78700400  1
  Ni  Ni40  1  0.01008400  0.25000000  0.20616700  1
  Ni  Ni41  1  0.20502400  0.25000000  0.61846800  1
  Ni  Ni42  1  0.29497600  0.75000000  0.11846800  1
  Ni  Ni43  1  0.48991600  0.75000000  0.70616700  1
  Ni  Ni44  1  0.51008400  0.25000000  0.29383300  1
  Ni  Ni45  1  0.70502400  0.25000000  0.88153200  1
  Ni  Ni46  1  0.79497600  0.75000000  0.38153200  1
  Ni  Ni47  1  0.98991600  0.75000000  0.79383300  1
  H  H48  1  0.23499700  0.63039700  0.30338300  1
  H  H49  1  0.23499700  0.86960300  0.30338300  1
  H  H50  1  0.26500300  0.13039700  0.80338300  1
  H  H51  1  0.26500300  0.36960300  0.80338300  1
  H  H52  1  0.73499700  0.63039700  0.19661700  1
  H  H53  1  0.73499700  0.86960300  0.19661700  1
  H  H54  1  0.76500300  0.13039700  0.69661700  1
  H  H55  1  0.76500300  0.36960300  0.69661700  1
  O  O56  1  0.06194400  0.75000000  0.64767700  1
  O  O57  1  0.05571400  0.40284900  0.12818000  1
  O  O58  1  0.05571400  0.09715100  0.12818000  1
  O  O59  1  0.10349200  0.40393500  0.60310700  1
  O  O60  1  0.10349200  0.09606500  0.60310700  1
  O  O61  1  0.10567000  0.75000000  0.11831100  1
  O  O62  1  0.24960800  0.08346000  0.87422000  1
  O  O63  1  0.24960800  0.41654000  0.87422000  1
  O  O64  1  0.25039200  0.58346000  0.37422000  1
  O  O65  1  0.25039200  0.91654000  0.37422000  1
  O  O66  1  0.39433000  0.25000000  0.61831100  1
  O  O67  1  0.39650800  0.59606500  0.10310700  1
  O  O68  1  0.39650800  0.90393500  0.10310700  1
  O  O69  1  0.44428600  0.59715100  0.62818000  1
  O  O70  1  0.44428600  0.90284900  0.62818000  1
  O  O71  1  0.43805600  0.25000000  0.14767700  1
  O  O72  1  0.56194400  0.75000000  0.85232300  1
  O  O73  1  0.55571400  0.09715100  0.37182000  1
  O  O74  1  0.55571400  0.40284900  0.37182000  1
  O  O75  1  0.60349200  0.09606500  0.89689300  1
  O  O76  1  0.60349200  0.40393500  0.89689300  1
  O  O77  1  0.60567000  0.75000000  0.38168900  1
  O  O78  1  0.74960800  0.08346000  0.62578000  1
  O  O79  1  0.74960800  0.41654000  0.62578000  1
  O  O80  1  0.75039200  0.58346000  0.12578000  1
  O  O81  1  0.75039200  0.91654000  0.12578000  1
  O  O82  1  0.89433000  0.25000000  0.88168900  1
  O  O83  1  0.89650800  0.90393500  0.39689300  1
  O  O84  1  0.89650800  0.59606500  0.39689300  1
  O  O85  1  0.94428600  0.90284900  0.87182000  1
  O  O86  1  0.94428600  0.59715100  0.87182000  1
  O  O87  1  0.93805600  0.25000000  0.35232300  1
