# generated using pymatgen
data_FeOF
_symmetry_space_group_name_H-M   'P 1'
_cell_length_a   3.12403800
_cell_length_b   9.44302000
_cell_length_c   14.20107944
_cell_angle_alpha   89.98579011
_cell_angle_beta   90.00000000
_cell_angle_gamma   90.00000000
_symmetry_Int_Tables_number   1
_chemical_formula_structural   FeOF
_chemical_formula_sum   'Fe12 O12 F12'
_cell_volume   418.93684795
_cell_formula_units_Z   12
loop_
 _symmetry_equiv_pos_site_id
 _symmetry_equiv_pos_as_xyz
  1  'x, y, z'
loop_
 _atom_site_type_symbol
 _atom_site_label
 _atom_site_symmetry_multiplicity
 _atom_site_fract_x
 _atom_site_fract_y
 _atom_site_fract_z
 _atom_site_occupancy
  Fe  Fe0  1  0.00000000  0.99318700  0.00500800  1
  Fe  Fe1  1  0.00000000  0.98053100  0.67900900  1
  Fe  Fe2  1  0.00000000  0.99802000  0.32255100  1
  Fe  Fe3  1  0.50000000  0.76602600  0.84395800  1
  Fe  Fe4  1  0.50000000  0.75400200  0.47841900  1
  Fe  Fe5  1  0.50000000  0.77742700  0.16390200  1
  Fe  Fe6  1  0.00000000  0.48772400  0.66983700  1
  Fe  Fe7  1  0.00000000  0.47583200  0.01170100  1
  Fe  Fe8  1  0.00000000  0.50652400  0.33332400  1
  Fe  Fe9  1  0.50000000  0.27658200  0.83918500  1
  Fe  Fe10  1  0.50000000  0.25930100  0.51117300  1
  Fe  Fe11  1  0.50000000  0.22678000  0.15849600  1
  O  O12  1  0.50000000  0.89543800  0.73089900  1
  O  O13  1  0.50000000  0.91004500  0.39944900  1
  O  O14  1  0.50000000  0.90030200  0.05898800  1
  O  O15  1  0.00000000  0.85229500  0.89715300  1
  O  O16  1  0.00000000  0.83731000  0.23266500  1
  O  O17  1  0.00000000  0.64358700  0.42935400  1
  O  O18  1  0.50000000  0.40209400  0.72855400  1
  O  O19  1  0.50000000  0.40279000  0.07427000  1
  O  O20  1  0.00000000  0.35220600  0.89972800  1
  O  O21  1  0.00000000  0.35262100  0.56192900  1
  O  O22  1  0.00000000  0.15116000  0.09518900  1
  O  O23  1  0.50000000  0.10324100  0.26889400  1
  F  F24  1  0.00000000  0.84635300  0.56506300  1
  F  F25  1  0.00000000  0.65059700  0.76891700  1
  F  F26  1  0.00000000  0.65133700  0.10082400  1
  F  F27  1  0.50000000  0.59792300  0.93699800  1
  F  F28  1  0.50000000  0.60588300  0.60171500  1
  F  F29  1  0.50000000  0.58826900  0.26375400  1
  F  F30  1  0.50000000  0.39643000  0.39447100  1
  F  F31  1  0.00000000  0.35504100  0.23913300  1
  F  F32  1  0.00000000  0.15091100  0.76488400  1
  F  F33  1  0.00000000  0.15989300  0.44232100  1
  F  F34  1  0.50000000  0.10008000  0.92556200  1
  F  F35  1  0.50000000  0.09225400  0.60272500  1
