# generated using pymatgen
data_Na5V12O32
_symmetry_space_group_name_H-M   'P 1'
_cell_length_a   8.31898429
_cell_length_b   8.31898429
_cell_length_c   12.37662351
_cell_angle_alpha   74.07162205
_cell_angle_beta   74.07162205
_cell_angle_gamma   52.02285670
_symmetry_Int_Tables_number   1
_chemical_formula_structural   Na5V12O32
_chemical_formula_sum   'Na5 V12 O32'
_cell_volume   642.91598599
_cell_formula_units_Z   1
loop_
 _symmetry_equiv_pos_site_id
 _symmetry_equiv_pos_as_xyz
  1  'x, y, z'
loop_
 _atom_site_type_symbol
 _atom_site_label
 _atom_site_symmetry_multiplicity
 _atom_site_fract_x
 _atom_site_fract_y
 _atom_site_fract_z
 _atom_site_occupancy
  Na  Na0  1  0.12488400  0.12488400  0.68133800  1
  Na  Na1  1  0.62556000  0.62556000  0.68355100  1
  Na  Na2  1  0.37580500  0.87254000  0.31891100  1
  Na  Na3  1  0.87254000  0.37580500  0.31891100  1
  Na  Na4  1  0.09052700  0.09052700  0.05097200  1
  V  V5  1  0.34381300  0.34381300  0.80615500  1
  V  V6  1  0.84175900  0.84175900  0.80784000  1
  V  V7  1  0.55393500  0.05339700  0.46200100  1
  V  V8  1  0.05339700  0.55393500  0.46200100  1
  V  V9  1  0.28233400  0.28233400  0.08033800  1
  V  V10  1  0.77988800  0.77988800  0.07996100  1
  V  V11  1  0.71970700  0.22182700  0.91812700  1
  V  V12  1  0.22182700  0.71970700  0.91812700  1
  V  V13  1  0.94583400  0.94583400  0.53970700  1
  V  V14  1  0.44577300  0.44577300  0.53897100  1
  V  V15  1  0.65414800  0.15521700  0.19460400  1
  V  V16  1  0.15521700  0.65414800  0.19460400  1
  O  O17  1  0.62286600  0.12250600  0.82648600  1
  O  O18  1  0.12250600  0.62286600  0.82648600  1
  O  O19  1  0.24889400  0.24889400  0.95382800  1
  O  O20  1  0.74964800  0.74964800  0.95209000  1
  O  O21  1  0.84317600  0.84317600  0.46322400  1
  O  O22  1  0.34345600  0.34345600  0.46250000  1
  O  O23  1  0.77210000  0.77210000  0.72840100  1
  O  O24  1  0.27132500  0.27132500  0.73035700  1
  O  O25  1  0.03686100  0.53804000  0.32773300  1
  O  O26  1  0.53804000  0.03686100  0.32773300  1
  O  O27  1  0.94698800  0.44707200  0.55372300  1
  O  O28  1  0.44707200  0.94698800  0.55372300  1
  O  O29  1  0.56682700  0.06726300  0.07294100  1
  O  O30  1  0.06726300  0.56682700  0.07294100  1
  O  O31  1  0.32082800  0.82430900  0.81678000  1
  O  O32  1  0.82430900  0.32082800  0.81678000  1
  O  O33  1  0.17783800  0.17783800  0.18017800  1
  O  O34  1  0.67876000  0.67876000  0.18235500  1
  O  O35  1  0.43224400  0.43224400  0.92591400  1
  O  O36  1  0.93459800  0.93459800  0.92690900  1
  O  O37  1  0.05268400  0.05268400  0.44805500  1
  O  O38  1  0.55264600  0.55264600  0.44765800  1
  O  O39  1  0.96174000  0.96174000  0.67391500  1
  O  O40  1  0.46164100  0.46164100  0.67383600  1
  O  O41  1  0.73311900  0.22492100  0.26868900  1
  O  O42  1  0.22492100  0.73311900  0.26868900  1
  O  O43  1  0.65615900  0.15670000  0.53788300  1
  O  O44  1  0.15670000  0.65615900  0.53788300  1
  O  O45  1  0.25191000  0.75002700  0.04563100  1
  O  O46  1  0.75002700  0.25191000  0.04563100  1
  O  O47  1  0.37614200  0.37614200  0.17334500  1
  O  O48  1  0.87826700  0.87826700  0.17175100  1
