# generated using pymatgen
data_VF3
_symmetry_space_group_name_H-M   'P 1'
_cell_length_a   5.14574400
_cell_length_b   5.40239500
_cell_length_c   7.49533200
_cell_angle_alpha   90.00000000
_cell_angle_beta   90.00000000
_cell_angle_gamma   90.00000000
_symmetry_Int_Tables_number   1
_chemical_formula_structural   VF3
_chemical_formula_sum   'V4 F12'
_cell_volume   208.36529510
_cell_formula_units_Z   4
loop_
 _symmetry_equiv_pos_site_id
 _symmetry_equiv_pos_as_xyz
  1  'x, y, z'
loop_
 _atom_site_type_symbol
 _atom_site_label
 _atom_site_symmetry_multiplicity
 _atom_site_fract_x
 _atom_site_fract_y
 _atom_site_fract_z
 _atom_site_occupancy
  V  V0  1  0.00000000  0.50000000  0.00000000  1
  V  V1  1  0.00000000  0.50000000  0.50000000  1
  V  V2  1  0.50000000  0.00000000  0.00000000  1
  V  V3  1  0.50000000  0.00000000  0.50000000  1
  F  F4  1  0.12102700  0.52826700  0.75000000  1
  F  F5  1  0.68315200  0.68955800  0.55967900  1
  F  F6  1  0.68315200  0.68955800  0.94032100  1
  F  F7  1  0.18315200  0.81044200  0.05967900  1
  F  F8  1  0.18315200  0.81044200  0.44032100  1
  F  F9  1  0.62102700  0.97173300  0.25000000  1
  F  F10  1  0.37897300  0.02826700  0.75000000  1
  F  F11  1  0.81684800  0.18955800  0.94032100  1
  F  F12  1  0.81684800  0.18955800  0.55967900  1
  F  F13  1  0.31684800  0.31044200  0.05967900  1
  F  F14  1  0.31684800  0.31044200  0.44032100  1
  F  F15  1  0.87897300  0.47173300  0.25000000  1
