# generated using pymatgen
data_Mn2(CO3)3
_symmetry_space_group_name_H-M   'P 1'
_cell_length_a   7.47016788
_cell_length_b   7.43978351
_cell_length_c   7.41982481
_cell_angle_alpha   89.20154366
_cell_angle_beta   91.22127445
_cell_angle_gamma   60.32529045
_symmetry_Int_Tables_number   1
_chemical_formula_structural   Mn2(CO3)3
_chemical_formula_sum   'Mn4 C6 O18'
_cell_volume   358.06171427
_cell_formula_units_Z   2
loop_
 _symmetry_equiv_pos_site_id
 _symmetry_equiv_pos_as_xyz
  1  'x, y, z'
loop_
 _atom_site_type_symbol
 _atom_site_label
 _atom_site_symmetry_multiplicity
 _atom_site_fract_x
 _atom_site_fract_y
 _atom_site_fract_z
 _atom_site_occupancy
  Mn  Mn0  1  0.33034100  0.33351100  0.95535300  1
  Mn  Mn1  1  0.33479100  0.33202700  0.54405900  1
  Mn  Mn2  1  0.66547200  0.66797500  0.45570800  1
  Mn  Mn3  1  0.66949000  0.66650500  0.04466000  1
  C  C4  1  0.33721200  0.06803500  0.25310200  1
  C  C5  1  0.06863200  0.59410000  0.24840300  1
  C  C6  1  0.40716400  0.66191000  0.75228500  1
  C  C7  1  0.59296000  0.33795300  0.24809500  1
  C  C8  1  0.93119100  0.40599600  0.75212600  1
  C  C9  1  0.66272900  0.93192900  0.74745300  1
  O  O10  1  0.26019600  0.15756400  0.09779700  1
  O  O11  1  0.26050900  0.15599800  0.40093600  1
  O  O12  1  0.12300700  0.36881400  0.75312800  1
  O  O13  1  0.15858900  0.57857800  0.40331300  1
  O  O14  1  0.15734600  0.58234300  0.09979500  1
  O  O15  1  0.36946000  0.50655200  0.75370500  1
  O  O16  1  0.50557100  0.12206800  0.74471900  1
  O  O17  1  0.57733600  0.26256700  0.09615100  1
  O  O18  1  0.58100800  0.26135900  0.39950100  1
  O  O19  1  0.41927800  0.73865300  0.60017300  1
  O  O20  1  0.42264500  0.73715500  0.90361500  1
  O  O21  1  0.49431200  0.87789500  0.25524400  1
  O  O22  1  0.63063000  0.49329200  0.24605200  1
  O  O23  1  0.84268100  0.41778100  0.90013300  1
  O  O24  1  0.84137100  0.42141500  0.59678600  1
  O  O25  1  0.87694000  0.63127100  0.24692400  1
  O  O26  1  0.73990100  0.84379700  0.59913100  1
  O  O27  1  0.73930400  0.84259400  0.90225600  1
