# generated using pymatgen
data_Na6CoO4
_symmetry_space_group_name_H-M   'P 1'
_cell_length_a   5.89483700
_cell_length_b   7.65694200
_cell_length_c   13.26253000
_cell_angle_alpha   90.00236601
_cell_angle_beta   89.99954208
_cell_angle_gamma   90.00027077
_symmetry_Int_Tables_number   1
_chemical_formula_structural   Na6CoO4
_chemical_formula_sum   'Na24 Co4 O16'
_cell_volume   598.62319050
_cell_formula_units_Z   4
loop_
 _symmetry_equiv_pos_site_id
 _symmetry_equiv_pos_as_xyz
  1  'x, y, z'
loop_
 _atom_site_type_symbol
 _atom_site_label
 _atom_site_symmetry_multiplicity
 _atom_site_fract_x
 _atom_site_fract_y
 _atom_site_fract_z
 _atom_site_occupancy
  Na  Na0  1  0.53640500  0.71361200  0.42879900  1
  Na  Na1  1  0.53640500  0.21361200  0.92879900  1
  Na  Na2  1  0.53640600  0.99999300  0.14241200  1
  Na  Na3  1  0.53640600  0.49999300  0.64241200  1
  Na  Na4  1  0.03640300  0.21361800  0.07121300  1
  Na  Na5  1  0.03640300  0.71361800  0.57121300  1
  Na  Na6  1  0.53640300  0.28637100  0.42879800  1
  Na  Na7  1  0.53640300  0.78637100  0.92879800  1
  Na  Na8  1  0.03640500  0.49999500  0.35759400  1
  Na  Na9  1  0.03640500  0.99999500  0.85759400  1
  Na  Na10  1  0.03640600  0.78638600  0.07120900  1
  Na  Na11  1  0.03640600  0.28638600  0.57120900  1
  Na  Na12  1  0.86816800  0.80583200  0.26861800  1
  Na  Na13  1  0.86816800  0.30583200  0.76861800  1
  Na  Na14  1  0.86814700  0.99999600  0.46277700  1
  Na  Na15  1  0.86814700  0.49999600  0.96277700  1
  Na  Na16  1  0.86814600  0.19415200  0.26861800  1
  Na  Na17  1  0.86814600  0.69415200  0.76861800  1
  Na  Na18  1  0.36814700  0.30583600  0.23139100  1
  Na  Na19  1  0.36814700  0.80583600  0.73139100  1
  Na  Na20  1  0.36814600  0.49999800  0.03723300  1
  Na  Na21  1  0.36814600  0.99999800  0.53723300  1
  Na  Na22  1  0.36816800  0.69415700  0.23139300  1
  Na  Na23  1  0.36816800  0.19415700  0.73139300  1
  Co  Co24  1  0.25829000  0.49999800  0.83333800  1
  Co  Co25  1  0.75829000  0.49999400  0.16667000  1
  Co  Co26  1  0.25829000  0.99999800  0.33333800  1
  Co  Co27  1  0.75829000  0.99999400  0.66667000  1
  O  O28  1  0.59528300  0.99996900  0.33333500  1
  O  O29  1  0.59528300  0.49996900  0.83333500  1
  O  O30  1  0.09528300  0.50001200  0.16668300  1
  O  O31  1  0.09528300  0.00001200  0.66668300  1
  O  O32  1  0.14555400  0.78409600  0.40531400  1
  O  O33  1  0.14555400  0.28409600  0.90531400  1
  O  O34  1  0.14556900  0.00001000  0.18939700  1
  O  O35  1  0.14556900  0.50001000  0.68939700  1
  O  O36  1  0.14553900  0.21590200  0.40530500  1
  O  O37  1  0.14553900  0.71590200  0.90530500  1
  O  O38  1  0.64553900  0.28409200  0.09470100  1
  O  O39  1  0.64553900  0.78409200  0.59470100  1
  O  O40  1  0.64555400  0.49998100  0.31060900  1
  O  O41  1  0.64555400  0.99998100  0.81060900  1
  O  O42  1  0.64556900  0.71589900  0.09469400  1
  O  O43  1  0.64556900  0.21589900  0.59469400  1
