# generated using pymatgen
data_V3OF11
_symmetry_space_group_name_H-M   'P 1'
_cell_length_a   5.25948500
_cell_length_b   5.46178275
_cell_length_c   14.73845439
_cell_angle_alpha   100.27553012
_cell_angle_beta   89.99922250
_cell_angle_gamma   90.20437260
_symmetry_Int_Tables_number   1
_chemical_formula_structural   V3OF11
_chemical_formula_sum   'V6 O2 F22'
_cell_volume   416.58608223
_cell_formula_units_Z   2
loop_
 _symmetry_equiv_pos_site_id
 _symmetry_equiv_pos_as_xyz
  1  'x, y, z'
loop_
 _atom_site_type_symbol
 _atom_site_label
 _atom_site_symmetry_multiplicity
 _atom_site_fract_x
 _atom_site_fract_y
 _atom_site_fract_z
 _atom_site_occupancy
  V  V0  1  0.02481200  0.62569800  0.83007900  1
  V  V1  1  0.50000000  0.50000000  0.50000000  1
  V  V2  1  0.97518800  0.37430200  0.16992100  1
  V  V3  1  0.50843400  0.15538700  0.83416100  1
  V  V4  1  0.00000000  0.00000000  0.50000000  1
  V  V5  1  0.49156600  0.84461300  0.16583900  1
  O  O6  1  0.79649400  0.62553300  0.18956000  1
  O  O7  1  0.20350600  0.37446700  0.81044000  1
  F  F8  1  0.71248500  0.47127700  0.85758800  1
  F  F9  1  0.28751500  0.52872300  0.14241200  1
  F  F10  1  0.90597000  0.63664500  0.71835500  1
  F  F11  1  0.58817400  0.45794800  0.38253200  1
  F  F12  1  0.92671600  0.27387500  0.05023100  1
  F  F13  1  0.41182600  0.54205200  0.61746800  1
  F  F14  1  0.09403000  0.36335500  0.28164500  1
  F  F15  1  0.41227600  0.21703100  0.95111500  1
  F  F16  1  0.80299900  0.31120200  0.52524000  1
  F  F17  1  0.70883700  0.14412200  0.19140700  1
  F  F18  1  0.79391900  0.97375800  0.85742300  1
  F  F19  1  0.30329300  0.18859900  0.47515700  1
  F  F20  1  0.20608100  0.02624200  0.14257700  1
  F  F21  1  0.57713700  0.12993600  0.71529600  1
  F  F22  1  0.91268300  0.95924500  0.38242800  1
  F  F23  1  0.58772400  0.78296900  0.04888500  1
  F  F24  1  0.08731700  0.04075500  0.61757200  1
  F  F25  1  0.42286300  0.87006400  0.28470400  1
  F  F26  1  0.07328400  0.72612500  0.94976900  1
  F  F27  1  0.69670700  0.81140100  0.52484300  1
  F  F28  1  0.29116300  0.85587800  0.80859300  1
  F  F29  1  0.19700100  0.68879800  0.47476000  1
