# generated using pymatgen
data_Na5Fe2P2(CO7)2
_symmetry_space_group_name_H-M   'P 1'
_cell_length_a   6.64418300
_cell_length_b   10.39082100
_cell_length_c   10.45977701
_cell_angle_alpha   60.51012999
_cell_angle_beta   90.00000000
_cell_angle_gamma   90.00000000
_symmetry_Int_Tables_number   1
_chemical_formula_structural   Na5Fe2P2(CO7)2
_chemical_formula_sum   'Na10 Fe4 P4 C4 O28'
_cell_volume   628.57062942
_cell_formula_units_Z   2
loop_
 _symmetry_equiv_pos_site_id
 _symmetry_equiv_pos_as_xyz
  1  'x, y, z'
loop_
 _atom_site_type_symbol
 _atom_site_label
 _atom_site_symmetry_multiplicity
 _atom_site_fract_x
 _atom_site_fract_y
 _atom_site_fract_z
 _atom_site_occupancy
  Na  Na0  1  0.25842400  0.09326100  0.81904700  1
  Na  Na1  1  0.24962700  0.58991100  0.33493500  1
  Na  Na2  1  0.00030400  0.75169200  0.98798200  1
  Na  Na3  1  0.49722700  0.75403000  0.98572500  1
  Na  Na4  1  0.01883700  0.23500300  0.49705800  1
  Na  Na5  1  0.99722700  0.24597000  0.01427500  1
  Na  Na6  1  0.50030400  0.24830800  0.01201800  1
  Na  Na7  1  0.51883700  0.76499700  0.50294200  1
  Na  Na8  1  0.75842400  0.90673900  0.18095300  1
  Na  Na9  1  0.74962700  0.41008900  0.66506500  1
  Fe  Fe10  1  0.74466600  0.46131000  0.18648700  1
  Fe  Fe11  1  0.74204300  0.97235700  0.67620600  1
  Fe  Fe12  1  0.24466600  0.53869000  0.81351300  1
  Fe  Fe13  1  0.24204300  0.02764300  0.32379400  1
  P  P14  1  0.24759100  0.39769400  0.18255900  1
  P  P15  1  0.25012300  0.89082300  0.68984700  1
  P  P16  1  0.74759100  0.60230600  0.81744100  1
  P  P17  1  0.75012300  0.10917700  0.31015300  1
  C  C18  1  0.75629000  0.08396600  0.86024000  1
  C  C19  1  0.74587800  0.58168100  0.34660300  1
  C  C20  1  0.25629000  0.91603400  0.13976000  1
  C  C21  1  0.24587800  0.41831900  0.65339700  1
  O  O22  1  0.24831800  0.85176100  0.06042200  1
  O  O23  1  0.22991400  0.36285800  0.57002000  1
  O  O24  1  0.74489200  0.66370100  0.20259100  1
  O  O25  1  0.76662200  0.16205900  0.71806700  1
  O  O26  1  0.75251000  0.94061300  0.92154100  1
  O  O27  1  0.76242100  0.43879400  0.39712100  1
  O  O28  1  0.43547500  0.48447300  0.19077100  1
  O  O29  1  0.05993000  0.48514800  0.19043400  1
  O  O30  1  0.43463000  0.95880600  0.72513500  1
  O  O31  1  0.06394200  0.97172100  0.70525800  1
  O  O32  1  0.74886900  0.60209400  0.96750000  1
  O  O33  1  0.76325700  0.11127600  0.45458700  1
  O  O34  1  0.24010500  0.72243700  0.81989400  1
  O  O35  1  0.24056700  0.23784100  0.30665500  1
  O  O36  1  0.74010500  0.27756300  0.18010600  1
  O  O37  1  0.74056700  0.76215900  0.69334500  1
  O  O38  1  0.24886900  0.39790600  0.03250000  1
  O  O39  1  0.26325700  0.88872400  0.54541300  1
  O  O40  1  0.93547500  0.51552700  0.80922900  1
  O  O41  1  0.55993000  0.51485200  0.80956600  1
  O  O42  1  0.56394200  0.02827900  0.29474200  1
  O  O43  1  0.93463000  0.04119400  0.27486500  1
  O  O44  1  0.25251000  0.05938700  0.07845900  1
  O  O45  1  0.26242100  0.56120600  0.60287900  1
  O  O46  1  0.24489200  0.33629900  0.79740900  1
  O  O47  1  0.26662200  0.83794100  0.28193300  1
  O  O48  1  0.74831800  0.14823900  0.93957800  1
  O  O49  1  0.72991400  0.63714200  0.42998000  1
