# generated using pymatgen
data_Yb(Bi3O5)4
_symmetry_space_group_name_H-M   'P 1'
_cell_length_a   8.90630398
_cell_length_b   8.90630398
_cell_length_c   8.90630398
_cell_angle_alpha   109.47122063
_cell_angle_beta   109.47122063
_cell_angle_gamma   109.47122063
_symmetry_Int_Tables_number   1
_chemical_formula_structural   Yb(Bi3O5)4
_chemical_formula_sum   'Yb1 Bi12 O20'
_cell_volume   543.83937842
_cell_formula_units_Z   1
loop_
 _symmetry_equiv_pos_site_id
 _symmetry_equiv_pos_as_xyz
  1  'x, y, z'
loop_
 _atom_site_type_symbol
 _atom_site_label
 _atom_site_symmetry_multiplicity
 _atom_site_fract_x
 _atom_site_fract_y
 _atom_site_fract_z
 _atom_site_occupancy
  Yb  Yb0  1  0.00000000  0.00000000  0.00000000  1
  Bi  Bi1  1  0.85534300  0.17354700  0.68514700  1
  Bi  Bi2  1  0.31820400  0.14465700  0.82980400  1
  Bi  Bi3  1  0.68179600  0.51159900  0.82645300  1
  Bi  Bi4  1  0.82645300  0.68179600  0.51159900  1
  Bi  Bi5  1  0.82980400  0.31820400  0.14465700  1
  Bi  Bi6  1  0.48840100  0.17019600  0.31485300  1
  Bi  Bi7  1  0.51159900  0.82645300  0.68179600  1
  Bi  Bi8  1  0.17019600  0.31485300  0.48840100  1
  Bi  Bi9  1  0.17354700  0.68514700  0.85534300  1
  Bi  Bi10  1  0.68514700  0.85534300  0.17354700  1
  Bi  Bi11  1  0.31485300  0.48840100  0.17019600  1
  Bi  Bi12  1  0.14465700  0.82980400  0.31820400  1
  O  O13  1  0.00000000  0.32690400  0.00000000  1
  O  O14  1  0.62363700  0.24850100  0.88915900  1
  O  O15  1  0.00000000  0.74019500  0.00000000  1
  O  O16  1  0.75149900  0.37513700  0.64065900  1
  O  O17  1  0.73447800  0.11084100  0.35934100  1
  O  O18  1  0.74019500  0.00000000  0.00000000  1
  O  O19  1  0.00000000  0.00000000  0.74019500  1
  O  O20  1  0.37636300  0.26552200  0.62486300  1
  O  O21  1  0.67309600  0.67309600  0.67309600  1
  O  O22  1  0.37513700  0.64065900  0.75149900  1
  O  O23  1  0.11084100  0.35934100  0.73447800  1
  O  O24  1  0.88915900  0.62363700  0.24850100  1
  O  O25  1  0.62486300  0.37636300  0.26552200  1
  O  O26  1  0.32690400  0.00000000  0.00000000  1
  O  O27  1  0.00000000  0.00000000  0.32690400  1
  O  O28  1  0.64065900  0.75149900  0.37513700  1
  O  O29  1  0.25980500  0.25980500  0.25980500  1
  O  O30  1  0.26552200  0.62486300  0.37636300  1
  O  O31  1  0.24850100  0.88915900  0.62363700  1
  O  O32  1  0.35934100  0.73447800  0.11084100  1
