# generated using pymatgen
data_MnF4
_symmetry_space_group_name_H-M   'P 1'
_cell_length_a   2.96138500
_cell_length_b   4.80763000
_cell_length_c   9.30868900
_cell_angle_alpha   90.00000000
_cell_angle_beta   90.00000000
_cell_angle_gamma   90.00000000
_symmetry_Int_Tables_number   1
_chemical_formula_structural   MnF4
_chemical_formula_sum   'Mn2 F8'
_cell_volume   132.53007073
_cell_formula_units_Z   2
loop_
 _symmetry_equiv_pos_site_id
 _symmetry_equiv_pos_as_xyz
  1  'x, y, z'
loop_
 _atom_site_type_symbol
 _atom_site_label
 _atom_site_symmetry_multiplicity
 _atom_site_fract_x
 _atom_site_fract_y
 _atom_site_fract_z
 _atom_site_occupancy
  Mn  Mn0  1  0.00000000  0.00000000  0.00000000  1
  Mn  Mn1  1  0.00000000  0.50000000  0.50000000  1
  F  F2  1  0.00000000  0.21403600  0.15452000  1
  F  F3  1  0.00000000  0.71403600  0.34548000  1
  F  F4  1  0.50000000  0.20860400  0.92573100  1
  F  F5  1  0.50000000  0.29139600  0.42573100  1
  F  F6  1  0.50000000  0.70860400  0.57426900  1
  F  F7  1  0.50000000  0.79139600  0.07426900  1
  F  F8  1  0.00000000  0.28596400  0.65452000  1
  F  F9  1  0.00000000  0.78596400  0.84548000  1
