# generated using pymatgen
data_Ni3OF5
_symmetry_space_group_name_H-M   'P 1'
_cell_length_a   3.09385700
_cell_length_b   4.69570400
_cell_length_c   14.08702600
_cell_angle_alpha   90.00000000
_cell_angle_beta   90.00000000
_cell_angle_gamma   90.00000000
_symmetry_Int_Tables_number   1
_chemical_formula_structural   Ni3OF5
_chemical_formula_sum   'Ni6 O2 F10'
_cell_volume   204.65401318
_cell_formula_units_Z   2
loop_
 _symmetry_equiv_pos_site_id
 _symmetry_equiv_pos_as_xyz
  1  'x, y, z'
loop_
 _atom_site_type_symbol
 _atom_site_label
 _atom_site_symmetry_multiplicity
 _atom_site_fract_x
 _atom_site_fract_y
 _atom_site_fract_z
 _atom_site_occupancy
  Ni  Ni0  1  0.00000000  0.76324900  0.00270400  1
  Ni  Ni1  1  0.00000000  0.73864800  0.33388500  1
  Ni  Ni2  1  0.00000000  0.76520600  0.66276300  1
  Ni  Ni3  1  0.50000000  0.23479400  0.16276300  1
  Ni  Ni4  1  0.50000000  0.23675100  0.50270400  1
  Ni  Ni5  1  0.50000000  0.26135200  0.83388500  1
  O  O6  1  0.50000000  0.94849600  0.60069200  1
  O  O7  1  0.00000000  0.05150400  0.10069200  1
  F  F8  1  0.50000000  0.94259700  0.26938400  1
  F  F9  1  0.50000000  0.94891900  0.93321000  1
  F  F10  1  0.00000000  0.05740300  0.76938400  1
  F  F11  1  0.00000000  0.05108100  0.43321000  1
  F  F12  1  0.00000000  0.44176100  0.23027200  1
  F  F13  1  0.00000000  0.44664600  0.56515900  1
  F  F14  1  0.00000000  0.45377700  0.90193200  1
  F  F15  1  0.50000000  0.55335400  0.06515900  1
  F  F16  1  0.50000000  0.54622300  0.40193200  1
  F  F17  1  0.50000000  0.55823900  0.73027200  1
