# generated using pymatgen
data_LaYHg2
_symmetry_space_group_name_H-M   'P 1'
_cell_length_a   12.59944296
_cell_length_b   12.59944296
_cell_length_c   12.59944296
_cell_angle_alpha   121.66612859
_cell_angle_beta   119.45259973
_cell_angle_gamma   89.04472384
_symmetry_Int_Tables_number   1
_chemical_formula_structural   LaYHg2
_chemical_formula_sum   'La1 Y1 Hg2'
_cell_volume   1401.45526031
_cell_formula_units_Z   1
loop_
 _symmetry_equiv_pos_site_id
 _symmetry_equiv_pos_as_xyz
  1  'x, y, z'
loop_
 _atom_site_type_symbol
 _atom_site_label
 _atom_site_symmetry_multiplicity
 _atom_site_fract_x
 _atom_site_fract_y
 _atom_site_fract_z
 _atom_site_occupancy
  La  La0  1  0.00000000  0.50000000  0.50000000  1
  Y  Y1  1  0.00000000  0.00000000  0.00000000  1
  Hg  Hg2  1  0.00000000  0.24612900  0.24612900  1
  Hg  Hg3  1  0.00000000  0.75387100  0.75387100  1
