# generated using pymatgen
data_CuH16C4(N5O)2
_symmetry_space_group_name_H-M   'P 1'
_cell_length_a   7.14899400
_cell_length_b   7.24181400
_cell_length_c   22.53060300
_cell_angle_alpha   90.00000000
_cell_angle_beta   90.00000000
_cell_angle_gamma   90.00000000
_symmetry_Int_Tables_number   1
_chemical_formula_structural   CuH16C4(N5O)2
_chemical_formula_sum   'Cu4 H64 C16 N40 O8'
_cell_volume   1166.44727766
_cell_formula_units_Z   4
loop_
 _symmetry_equiv_pos_site_id
 _symmetry_equiv_pos_as_xyz
  1  'x, y, z'
loop_
 _atom_site_type_symbol
 _atom_site_label
 _atom_site_symmetry_multiplicity
 _atom_site_fract_x
 _atom_site_fract_y
 _atom_site_fract_z
 _atom_site_occupancy
  Cu  Cu0  1  0.50000000  0.00000000  0.00000000  1
  Cu  Cu1  1  0.00000000  0.00000000  0.50000000  1
  Cu  Cu2  1  0.00000000  0.50000000  0.00000000  1
  Cu  Cu3  1  0.50000000  0.50000000  0.50000000  1
  H  H4  1  0.63973300  0.04603600  0.78402700  1
  H  H5  1  0.13973300  0.04603600  0.71597300  1
  H  H6  1  0.58405900  0.03864500  0.63800100  1
  H  H7  1  0.08405900  0.03864500  0.86199900  1
  H  H8  1  0.64979900  0.07216600  0.56441900  1
  H  H9  1  0.14979900  0.07216600  0.93558100  1
  H  H10  1  0.28908400  0.14778900  0.17908700  1
  H  H11  1  0.78908400  0.14778900  0.32091300  1
  H  H12  1  0.33638900  0.17882600  0.08455600  1
  H  H13  1  0.83638900  0.17882600  0.41544400  1
  H  H14  1  0.86997600  0.16208900  0.00084300  1
  H  H15  1  0.36997600  0.16208900  0.49915700  1
  H  H16  1  0.80209900  0.21847500  0.69196500  1
  H  H17  1  0.30209900  0.21847500  0.80803500  1
  H  H18  1  0.59909900  0.20086000  0.20485500  1
  H  H19  1  0.09909900  0.20086000  0.29514500  1
  H  H20  1  0.59909900  0.29914000  0.70485500  1
  H  H21  1  0.09909900  0.29914000  0.79514500  1
  H  H22  1  0.80209900  0.28152500  0.19196500  1
  H  H23  1  0.30209900  0.28152500  0.30803500  1
  H  H24  1  0.86997600  0.33791100  0.50084300  1
  H  H25  1  0.36997600  0.33791100  0.99915700  1
  H  H26  1  0.33638900  0.32117400  0.58455600  1
  H  H27  1  0.83638900  0.32117400  0.91544400  1
  H  H28  1  0.28908400  0.35221100  0.67908700  1
  H  H29  1  0.78908400  0.35221100  0.82091300  1
  H  H30  1  0.64979900  0.42783400  0.06441900  1
  H  H31  1  0.14979900  0.42783400  0.43558100  1
  H  H32  1  0.58405900  0.46135500  0.13800100  1
  H  H33  1  0.08405900  0.46135500  0.36199900  1
  H  H34  1  0.63973300  0.45396400  0.28402700  1
  H  H35  1  0.13973300  0.45396400  0.21597300  1
  H  H36  1  0.86026700  0.54603600  0.78402700  1
  H  H37  1  0.36026700  0.54603600  0.71597300  1
  H  H38  1  0.91594100  0.53864500  0.63800100  1
  H  H39  1  0.41594100  0.53864500  0.86199900  1
  H  H40  1  0.35020100  0.57216600  0.93558100  1
  H  H41  1  0.85020100  0.57216600  0.56441900  1
  H  H42  1  0.71091600  0.64778900  0.32091300  1
  H  H43  1  0.21091600  0.64778900  0.17908700  1
  H  H44  1  0.16361100  0.67882600  0.08455600  1
  H  H45  1  0.66361100  0.67882600  0.41544400  1
  H  H46  1  0.63002400  0.66208900  0.00084300  1
  H  H47  1  0.13002400  0.66208900  0.49915700  1
  H  H48  1  0.69790100  0.71847500  0.69196500  1
  H  H49  1  0.19790100  0.71847500  0.80803500  1
  H  H50  1  0.40090100  0.70086000  0.29514500  1
  H  H51  1  0.90090100  0.70086000  0.20485500  1
  H  H52  1  0.90090100  0.79914000  0.70485500  1
  H  H53  1  0.40090100  0.79914000  0.79514500  1
  H  H54  1  0.19790100  0.78152500  0.30803500  1
  H  H55  1  0.69790100  0.78152500  0.19196500  1
  H  H56  1  0.63002400  0.83791100  0.50084300  1
  H  H57  1  0.13002400  0.83791100  0.99915700  1
  H  H58  1  0.16361100  0.82117400  0.58455600  1
  H  H59  1  0.66361100  0.82117400  0.91544400  1
  H  H60  1  0.21091600  0.85221100  0.67908700  1
  H  H61  1  0.71091600  0.85221100  0.82091300  1
  H  H62  1  0.85020100  0.92783400  0.06441900  1
  H  H63  1  0.35020100  0.92783400  0.43558100  1
  H  H64  1  0.91594100  0.96135500  0.13800100  1
  H  H65  1  0.41594100  0.96135500  0.36199900  1
  H  H66  1  0.86026700  0.95396400  0.28402700  1
  H  H67  1  0.36026700  0.95396400  0.21597300  1
  C  C68  1  0.07631600  0.04043500  0.62733100  1
  C  C69  1  0.57631600  0.04043500  0.87266900  1
  C  C70  1  0.95090800  0.18820700  0.08403000  1
  C  C71  1  0.45090800  0.18820700  0.41597000  1
  C  C72  1  0.95090800  0.31179300  0.58403000  1
  C  C73  1  0.45090800  0.31179300  0.91597000  1
  C  C74  1  0.07631600  0.45956500  0.12733100  1
  C  C75  1  0.57631600  0.45956500  0.37266900  1
  C  C76  1  0.92368400  0.54043500  0.87266900  1
  C  C77  1  0.42368400  0.54043500  0.62733100  1
  C  C78  1  0.54909200  0.68820700  0.08403000  1
  C  C79  1  0.04909200  0.68820700  0.41597000  1
  C  C80  1  0.54909200  0.81179300  0.58403000  1
  C  C81  1  0.04909200  0.81179300  0.91597000  1
  C  C82  1  0.42368400  0.95956500  0.12733100  1
  C  C83  1  0.92368400  0.95956500  0.37266900  1
  N  N84  1  0.92062600  0.00547300  0.09498800  1
  N  N85  1  0.42062600  0.00547300  0.40501200  1
  N  N86  1  0.38602400  0.04359000  0.18138200  1
  N  N87  1  0.88602400  0.04359000  0.31861800  1
  N  N88  1  0.39593100  0.05222600  0.07732700  1
  N  N89  1  0.89593100  0.05222600  0.42267300  1
  N  N90  1  0.01058400  0.21525800  0.63228900  1
  N  N91  1  0.51058400  0.21525800  0.86771100  1
  N  N92  1  0.92100700  0.24169500  0.53012700  1
  N  N93  1  0.42100700  0.24169500  0.96987300  1
  N  N94  1  0.92100700  0.25830500  0.03012700  1
  N  N95  1  0.42100700  0.25830500  0.46987300  1
  N  N96  1  0.01058400  0.28474200  0.13228900  1
  N  N97  1  0.51058400  0.28474200  0.36771100  1
  N  N98  1  0.39593100  0.44777400  0.57732700  1
  N  N99  1  0.89593100  0.44777400  0.92267300  1
  N  N100  1  0.38602400  0.45641000  0.68138200  1
  N  N101  1  0.88602400  0.45641000  0.81861800  1
  N  N102  1  0.92062600  0.49452700  0.59498800  1
  N  N103  1  0.42062600  0.49452700  0.90501200  1
  N  N104  1  0.57937400  0.50547300  0.09498800  1
  N  N105  1  0.07937400  0.50547300  0.40501200  1
  N  N106  1  0.61397600  0.54359000  0.31861800  1
  N  N107  1  0.11397600  0.54359000  0.18138200  1
  N  N108  1  0.60406900  0.55222600  0.42267300  1
  N  N109  1  0.10406900  0.55222600  0.07732700  1
  N  N110  1  0.48941600  0.71525800  0.63228900  1
  N  N111  1  0.98941600  0.71525800  0.86771100  1
  N  N112  1  0.57899300  0.74169500  0.53012700  1
  N  N113  1  0.07899300  0.74169500  0.96987300  1
  N  N114  1  0.57899300  0.75830500  0.03012700  1
  N  N115  1  0.07899300  0.75830500  0.46987300  1
  N  N116  1  0.48941600  0.78474200  0.13228900  1
  N  N117  1  0.98941600  0.78474200  0.36771100  1
  N  N118  1  0.10406900  0.94777400  0.57732700  1
  N  N119  1  0.60406900  0.94777400  0.92267300  1
  N  N120  1  0.11397600  0.95641000  0.68138200  1
  N  N121  1  0.61397600  0.95641000  0.81861800  1
  N  N122  1  0.07937400  0.99452700  0.90501200  1
  N  N123  1  0.57937400  0.99452700  0.59498800  1
  O  O124  1  0.68247500  0.19202200  0.71263800  1
  O  O125  1  0.18247500  0.19202200  0.78736200  1
  O  O126  1  0.68247500  0.30797800  0.21263800  1
  O  O127  1  0.18247500  0.30797800  0.28736200  1
  O  O128  1  0.81752500  0.69202200  0.71263800  1
  O  O129  1  0.31752500  0.69202200  0.78736200  1
  O  O130  1  0.31752500  0.80797800  0.28736200  1
  O  O131  1  0.81752500  0.80797800  0.21263800  1
