# generated using pymatgen
data_Sb5O7F
_symmetry_space_group_name_H-M   'P 1'
_cell_length_a   14.44174077
_cell_length_b   14.44174077
_cell_length_c   14.44174077
_cell_angle_alpha   158.91200154
_cell_angle_beta   114.31233536
_cell_angle_gamma   69.83410597
_symmetry_Int_Tables_number   1
_chemical_formula_structural   Sb5O7F
_chemical_formula_sum   'Sb20 O28 F4'
_cell_volume   980.46451893
_cell_formula_units_Z   4
loop_
 _symmetry_equiv_pos_site_id
 _symmetry_equiv_pos_as_xyz
  1  'x, y, z'
loop_
 _atom_site_type_symbol
 _atom_site_label
 _atom_site_symmetry_multiplicity
 _atom_site_fract_x
 _atom_site_fract_y
 _atom_site_fract_z
 _atom_site_occupancy
  Sb  Sb0  1  0.72554300  0.77298100  0.88438100  1
  Sb  Sb1  1  0.61139900  0.15883700  0.38438000  1
  Sb  Sb2  1  0.77445700  0.65883700  0.04743800  1
  Sb  Sb3  1  0.88860100  0.27298100  0.54743800  1
  Sb  Sb4  1  0.01073200  0.99619400  0.14426800  1
  Sb  Sb5  1  0.14807500  0.50380600  0.51453800  1
  Sb  Sb6  1  0.51073200  0.36646400  0.01453800  1
  Sb  Sb7  1  0.64807500  0.13353600  0.64426800  1
  Sb  Sb8  1  0.95176700  0.20176700  0.75000000  1
  Sb  Sb9  1  0.45176700  0.70176700  0.75000000  1
  Sb  Sb10  1  0.54823300  0.29823300  0.25000000  1
  Sb  Sb11  1  0.04823300  0.79823300  0.25000000  1
  Sb  Sb12  1  0.35192500  0.86646400  0.35573200  1
  Sb  Sb13  1  0.98926800  0.00380600  0.85573200  1
  Sb  Sb14  1  0.48926800  0.63353600  0.98546200  1
  Sb  Sb15  1  0.85192500  0.49619400  0.48546200  1
  Sb  Sb16  1  0.22554300  0.34116300  0.95256200  1
  Sb  Sb17  1  0.11139900  0.72701900  0.45256200  1
  Sb  Sb18  1  0.38860100  0.84116300  0.61561900  1
  Sb  Sb19  1  0.27445700  0.22701900  0.11562000  1
  O  O20  1  0.58429100  0.52868300  0.60460000  1
  O  O21  1  0.57591600  0.02030900  0.10460000  1
  O  O22  1  0.57875200  0.74885400  0.02228600  1
  O  O23  1  0.77343200  0.44353400  0.52228600  1
  O  O24  1  0.90435600  0.86262800  0.88140800  1
  O  O25  1  0.51878000  0.97705200  0.38140800  1
  O  O26  1  0.75000000  0.04339400  0.29339400  1
  O  O27  1  0.75000000  0.54339400  0.79339400  1
  O  O28  1  0.98122000  0.36262800  0.45827200  1
  O  O29  1  0.59564400  0.47705200  0.95827200  1
  O  O30  1  0.92124800  0.94353400  0.17010200  1
  O  O31  1  0.72656800  0.24885400  0.67010200  1
  O  O32  1  0.91570900  0.52030900  0.94439300  1
  O  O33  1  0.92408400  0.02868300  0.44439300  1
  O  O34  1  0.07591600  0.97131700  0.55560700  1
  O  O35  1  0.08429100  0.47969100  0.05560700  1
  O  O36  1  0.27343200  0.75114600  0.32989800  1
  O  O37  1  0.07875200  0.05646600  0.82989800  1
  O  O38  1  0.01878000  0.63737200  0.54172800  1
  O  O39  1  0.40435600  0.52294800  0.04172800  1
  O  O40  1  0.25000000  0.95660600  0.70660600  1
  O  O41  1  0.25000000  0.45660600  0.20660600  1
  O  O42  1  0.48122000  0.02294800  0.61859200  1
  O  O43  1  0.09564400  0.13737200  0.11859200  1
  O  O44  1  0.22656800  0.55646600  0.47771400  1
  O  O45  1  0.42124800  0.25114600  0.97771400  1
  O  O46  1  0.41570900  0.47131700  0.39540000  1
  O  O47  1  0.42408400  0.97969100  0.89540000  1
  F  F48  1  0.90361700  0.65361700  0.25000000  1
  F  F49  1  0.40361700  0.15361700  0.25000000  1
  F  F50  1  0.59638300  0.84638300  0.75000000  1
  F  F51  1  0.09638300  0.34638300  0.75000000  1
