# generated using pymatgen
data_FeOF
_symmetry_space_group_name_H-M   'P 1'
_cell_length_a   3.10558700
_cell_length_b   14.16129600
_cell_length_c   14.20891602
_cell_angle_alpha   89.76845999
_cell_angle_beta   90.00000000
_cell_angle_gamma   90.00000000
_symmetry_Int_Tables_number   1
_chemical_formula_structural   FeOF
_chemical_formula_sum   'Fe18 O18 F18'
_cell_volume   624.89075841
_cell_formula_units_Z   18
loop_
 _symmetry_equiv_pos_site_id
 _symmetry_equiv_pos_as_xyz
  1  'x, y, z'
loop_
 _atom_site_type_symbol
 _atom_site_label
 _atom_site_symmetry_multiplicity
 _atom_site_fract_x
 _atom_site_fract_y
 _atom_site_fract_z
 _atom_site_occupancy
  Fe  Fe0  1  0.00000000  0.98631600  0.99925400  1
  Fe  Fe1  1  0.00000000  0.99402500  0.33789400  1
  Fe  Fe2  1  0.00000000  0.99343300  0.65931400  1
  Fe  Fe3  1  0.50000000  0.82947600  0.14754600  1
  Fe  Fe4  1  0.50000000  0.84413300  0.49999100  1
  Fe  Fe5  1  0.50000000  0.85022500  0.82735600  1
  Fe  Fe6  1  0.00000000  0.66523400  0.99811100  1
  Fe  Fe7  1  0.00000000  0.65483300  0.32987800  1
  Fe  Fe8  1  0.00000000  0.65277200  0.66592200  1
  Fe  Fe9  1  0.50000000  0.51349700  0.49795200  1
  Fe  Fe10  1  0.50000000  0.49680400  0.18041500  1
  Fe  Fe11  1  0.50000000  0.51528200  0.83512100  1
  Fe  Fe12  1  0.00000000  0.32173000  0.99656800  1
  Fe  Fe13  1  0.00000000  0.32865900  0.32308000  1
  Fe  Fe14  1  0.00000000  0.32353700  0.66611100  1
  Fe  Fe15  1  0.50000000  0.17994000  0.16369700  1
  Fe  Fe16  1  0.50000000  0.16613900  0.51918600  1
  Fe  Fe17  1  0.50000000  0.17879000  0.83154300  1
  O  O18  1  0.50000000  0.93252000  0.59983400  1
  O  O19  1  0.50000000  0.93495900  0.93652300  1
  O  O20  1  0.00000000  0.90224000  0.10744800  1
  O  O21  1  0.00000000  0.89983500  0.43073000  1
  O  O22  1  0.00000000  0.90212900  0.76467000  1
  O  O23  1  0.50000000  0.72773400  0.06402500  1
  O  O24  1  0.50000000  0.60656700  0.26401100  1
  O  O25  1  0.50000000  0.60265100  0.60102700  1
  O  O26  1  0.50000000  0.60048400  0.93820800  1
  O  O27  1  0.00000000  0.56459900  0.43344100  1
  O  O28  1  0.00000000  0.56446400  0.76867400  1
  O  O29  1  0.00000000  0.43307300  0.23393000  1
  O  O30  1  0.50000000  0.26200200  0.27325900  1
  O  O31  1  0.50000000  0.27419700  0.59967900  1
  O  O32  1  0.50000000  0.26793600  0.93567400  1
  O  O33  1  0.00000000  0.23270200  0.10300200  1
  O  O34  1  0.00000000  0.23172600  0.76780500  1
  O  O35  1  0.00000000  0.09905100  0.56567000  1
  F  F36  1  0.50000000  0.93626800  0.26871300  1
  F  F37  1  0.00000000  0.77319800  0.23809100  1
  F  F38  1  0.00000000  0.76712300  0.56431800  1
  F  F39  1  0.00000000  0.76951500  0.89302700  1
  F  F40  1  0.50000000  0.73323600  0.73110000  1
  F  F41  1  0.50000000  0.73413200  0.40078500  1
  F  F42  1  0.00000000  0.55974800  0.10246700  1
  F  F43  1  0.00000000  0.43518800  0.56689900  1
  F  F44  1  0.00000000  0.43240100  0.90001900  1
  F  F45  1  0.50000000  0.40191300  0.06330500  1
  F  F46  1  0.50000000  0.39514000  0.40342700  1
  F  F47  1  0.50000000  0.40004800  0.73356200  1
  F  F48  1  0.00000000  0.23005400  0.43569000  1
  F  F49  1  0.00000000  0.09455400  0.23435500  1
  F  F50  1  0.00000000  0.10103900  0.90092500  1
  F  F51  1  0.50000000  0.06770900  0.06795400  1
  F  F52  1  0.50000000  0.06884100  0.39403400  1
  F  F53  1  0.50000000  0.06620000  0.73477800  1
