# generated using pymatgen
data_Yb2(WO4)3
_symmetry_space_group_name_H-M   'P 1'
_cell_length_a   10.29581800
_cell_length_b   10.37662900
_cell_length_c   14.15484600
_cell_angle_alpha   90.00000000
_cell_angle_beta   90.00000000
_cell_angle_gamma   90.00000000
_symmetry_Int_Tables_number   1
_chemical_formula_structural   Yb2(WO4)3
_chemical_formula_sum   'Yb8 W12 O48'
_cell_volume   1512.24548016
_cell_formula_units_Z   4
loop_
 _symmetry_equiv_pos_site_id
 _symmetry_equiv_pos_as_xyz
  1  'x, y, z'
loop_
 _atom_site_type_symbol
 _atom_site_label
 _atom_site_symmetry_multiplicity
 _atom_site_fract_x
 _atom_site_fract_y
 _atom_site_fract_z
 _atom_site_occupancy
  Yb  Yb0  1  0.24866200  0.03920600  0.62123900  1
  Yb  Yb1  1  0.74866200  0.03920600  0.87876100  1
  Yb  Yb2  1  0.74866200  0.46079400  0.12123900  1
  Yb  Yb3  1  0.24866200  0.46079400  0.37876100  1
  Yb  Yb4  1  0.25133800  0.53920600  0.87876100  1
  Yb  Yb5  1  0.75133800  0.53920600  0.62123900  1
  Yb  Yb6  1  0.25133800  0.96079400  0.12123900  1
  Yb  Yb7  1  0.75133800  0.96079400  0.37876100  1
  W  W8  1  0.39889700  0.11390600  0.35562100  1
  W  W9  1  0.89889700  0.11390600  0.14437900  1
  W  W10  1  0.46777100  0.25000000  0.00000000  1
  W  W11  1  0.96777100  0.25000000  0.50000000  1
  W  W12  1  0.39889700  0.38609400  0.64437900  1
  W  W13  1  0.89889700  0.38609400  0.85562100  1
  W  W14  1  0.10110300  0.61390600  0.14437900  1
  W  W15  1  0.60110300  0.61390600  0.35562100  1
  W  W16  1  0.53222900  0.75000000  0.00000000  1
  W  W17  1  0.03222900  0.75000000  0.50000000  1
  W  W18  1  0.10110300  0.88609400  0.85562100  1
  W  W19  1  0.60110300  0.88609400  0.64437900  1
  O  O20  1  0.17305400  0.99356200  0.76960500  1
  O  O21  1  0.67305400  0.99356200  0.73039500  1
  O  O22  1  0.83578000  0.07718000  0.02747500  1
  O  O23  1  0.33578000  0.07718000  0.47252500  1
  O  O24  1  0.07350000  0.09299900  0.14503200  1
  O  O25  1  0.57350000  0.09299900  0.35496800  1
  O  O26  1  0.36702200  0.13264500  0.06083000  1
  O  O27  1  0.86702200  0.13264500  0.43917000  1
  O  O28  1  0.57044700  0.16674100  0.91618100  1
  O  O29  1  0.07044700  0.16674100  0.58381900  1
  O  O30  1  0.85716800  0.22108500  0.82683800  1
  O  O31  1  0.35716800  0.22108500  0.67316200  1
  O  O32  1  0.85716800  0.27891500  0.17316200  1
  O  O33  1  0.35716800  0.27891500  0.32683800  1
  O  O34  1  0.57044700  0.33325900  0.08381900  1
  O  O35  1  0.07044700  0.33325900  0.41618100  1
  O  O36  1  0.86702200  0.36735500  0.56083000  1
  O  O37  1  0.36702200  0.36735500  0.93917000  1
  O  O38  1  0.57350000  0.40700100  0.64503200  1
  O  O39  1  0.07350000  0.40700100  0.85496800  1
  O  O40  1  0.33578000  0.42282000  0.52747500  1
  O  O41  1  0.83578000  0.42282000  0.97252500  1
  O  O42  1  0.67305400  0.50643800  0.26960500  1
  O  O43  1  0.17305400  0.50643800  0.23039500  1
  O  O44  1  0.32694600  0.49356200  0.73039500  1
  O  O45  1  0.82694600  0.49356200  0.76960500  1
  O  O46  1  0.16422000  0.57718000  0.02747500  1
  O  O47  1  0.66422000  0.57718000  0.47252500  1
  O  O48  1  0.42650000  0.59299900  0.35496800  1
  O  O49  1  0.92650000  0.59299900  0.14503200  1
  O  O50  1  0.63297800  0.63264500  0.06083000  1
  O  O51  1  0.13297800  0.63264500  0.43917000  1
  O  O52  1  0.42955300  0.66674100  0.91618100  1
  O  O53  1  0.92955300  0.66674100  0.58381900  1
  O  O54  1  0.64283200  0.72108500  0.67316200  1
  O  O55  1  0.14283200  0.72108500  0.82683800  1
  O  O56  1  0.14283200  0.77891500  0.17316200  1
  O  O57  1  0.64283200  0.77891500  0.32683800  1
  O  O58  1  0.92955300  0.83325900  0.41618100  1
  O  O59  1  0.42955300  0.83325900  0.08381900  1
  O  O60  1  0.63297800  0.86735500  0.93917000  1
  O  O61  1  0.13297800  0.86735500  0.56083000  1
  O  O62  1  0.92650000  0.90700100  0.85496800  1
  O  O63  1  0.42650000  0.90700100  0.64503200  1
  O  O64  1  0.16422000  0.92282000  0.97252500  1
  O  O65  1  0.66422000  0.92282000  0.52747500  1
  O  O66  1  0.82694600  0.00643800  0.23039500  1
  O  O67  1  0.32694600  0.00643800  0.26960500  1
