# generated using pymatgen
data_Mn6OF11
_symmetry_space_group_name_H-M   'P 1'
_cell_length_a   4.96707000
_cell_length_b   5.88326600
_cell_length_c   16.21804806
_cell_angle_alpha   89.60620175
_cell_angle_beta   90.00000000
_cell_angle_gamma   90.00000000
_symmetry_Int_Tables_number   1
_chemical_formula_structural   Mn6OF11
_chemical_formula_sum   'Mn12 O2 F22'
_cell_volume   473.92224074
_cell_formula_units_Z   2
loop_
 _symmetry_equiv_pos_site_id
 _symmetry_equiv_pos_as_xyz
  1  'x, y, z'
loop_
 _atom_site_type_symbol
 _atom_site_label
 _atom_site_symmetry_multiplicity
 _atom_site_fract_x
 _atom_site_fract_y
 _atom_site_fract_z
 _atom_site_occupancy
  Mn  Mn0  1  0.01511300  0.08503800  0.24319600  1
  Mn  Mn1  1  0.01639200  0.39677900  0.08208100  1
  Mn  Mn2  1  0.97870200  0.05967600  0.91275800  1
  Mn  Mn3  1  0.00326800  0.07845100  0.58542600  1
  Mn  Mn4  1  0.99942900  0.41700200  0.41634900  1
  Mn  Mn5  1  0.99713000  0.42058100  0.75220400  1
  Mn  Mn6  1  0.50326800  0.92154900  0.41457400  1
  Mn  Mn7  1  0.51511300  0.91496200  0.75680400  1
  Mn  Mn8  1  0.47870200  0.94032400  0.08724200  1
  Mn  Mn9  1  0.51639200  0.60322100  0.91791900  1
  Mn  Mn10  1  0.49713000  0.57941900  0.24779600  1
  Mn  Mn11  1  0.49942900  0.58299800  0.58365100  1
  O  O12  1  0.21232500  0.16493000  0.13303500  1
  O  O13  1  0.71232500  0.83507000  0.86696500  1
  F  F14  1  0.23145500  0.14297000  0.47443500  1
  F  F15  1  0.21276700  0.13381300  0.80832000  1
  F  F16  1  0.24781500  0.37783900  0.96980500  1
  F  F17  1  0.23544900  0.35477600  0.30806000  1
  F  F18  1  0.22570300  0.35887000  0.64168800  1
  F  F19  1  0.27911000  0.85653600  0.97449800  1
  F  F20  1  0.25672400  0.64308100  0.13606100  1
  F  F21  1  0.26810900  0.85411800  0.30485100  1
  F  F22  1  0.26868000  0.64714700  0.47397300  1
  F  F23  1  0.27891900  0.85939100  0.64617800  1
  F  F24  1  0.27291100  0.63134300  0.81253400  1
  F  F25  1  0.74781500  0.62216100  0.03019500  1
  F  F26  1  0.71276700  0.86618700  0.19168000  1
  F  F27  1  0.72570300  0.64113000  0.35831200  1
  F  F28  1  0.73544900  0.64522400  0.69194000  1
  F  F29  1  0.73145500  0.85703000  0.52556500  1
  F  F30  1  0.77911000  0.14346400  0.02550200  1
  F  F31  1  0.77891900  0.14060900  0.35382200  1
  F  F32  1  0.77291100  0.36865700  0.18746600  1
  F  F33  1  0.75672400  0.35691900  0.86393900  1
  F  F34  1  0.76810900  0.14588200  0.69514900  1
  F  F35  1  0.76868000  0.35285300  0.52602700  1
