# generated using pymatgen
data_NaCd2In
_symmetry_space_group_name_H-M   'P 1'
_cell_length_a   12.47777963
_cell_length_b   12.47777963
_cell_length_c   12.47777963
_cell_angle_alpha   122.75181090
_cell_angle_beta   119.41268389
_cell_angle_gamma   88.16062361
_symmetry_Int_Tables_number   1
_chemical_formula_structural   NaCd2In
_chemical_formula_sum   'Na1 Cd2 In1'
_cell_volume   1348.99657220
_cell_formula_units_Z   1
loop_
 _symmetry_equiv_pos_site_id
 _symmetry_equiv_pos_as_xyz
  1  'x, y, z'
loop_
 _atom_site_type_symbol
 _atom_site_label
 _atom_site_symmetry_multiplicity
 _atom_site_fract_x
 _atom_site_fract_y
 _atom_site_fract_z
 _atom_site_occupancy
  Na  Na0  1  0.00000000  0.00000000  0.00000000  1
  Cd  Cd1  1  0.00000000  0.25271500  0.25271500  1
  Cd  Cd2  1  0.00000000  0.74728500  0.74728500  1
  In  In3  1  0.00000000  0.50000000  0.50000000  1
