# generated using pymatgen
data_Nb2TcMo
_symmetry_space_group_name_H-M   'P 1'
_cell_length_a   10.91669616
_cell_length_b   10.91669616
_cell_length_c   10.91669616
_cell_angle_alpha   130.18299970
_cell_angle_beta   117.58878885
_cell_angle_gamma   83.77958037
_symmetry_Int_Tables_number   1
_chemical_formula_structural   Nb2TcMo
_chemical_formula_sum   'Nb2 Tc1 Mo1'
_cell_volume   845.35321628
_cell_formula_units_Z   1
loop_
 _symmetry_equiv_pos_site_id
 _symmetry_equiv_pos_as_xyz
  1  'x, y, z'
loop_
 _atom_site_type_symbol
 _atom_site_label
 _atom_site_symmetry_multiplicity
 _atom_site_fract_x
 _atom_site_fract_y
 _atom_site_fract_z
 _atom_site_occupancy
  Nb  Nb0  1  0.00000000  0.25123400  0.25123400  1
  Nb  Nb1  1  0.00000000  0.74876600  0.74876600  1
  Tc  Tc2  1  0.00000000  0.50000000  0.50000000  1
  Mo  Mo3  1  0.00000000  0.00000000  0.00000000  1
