# generated using pymatgen
data_Na2W3O10
_symmetry_space_group_name_H-M   'P 1'
_cell_length_a   7.98290754
_cell_length_b   7.98290754
_cell_length_c   8.59650871
_cell_angle_alpha   80.55298919
_cell_angle_beta   80.55298919
_cell_angle_gamma   59.79489113
_symmetry_Int_Tables_number   1
_chemical_formula_structural   Na2W3O10
_chemical_formula_sum   'Na4 W6 O20'
_cell_volume   464.88624403
_cell_formula_units_Z   2
loop_
 _symmetry_equiv_pos_site_id
 _symmetry_equiv_pos_as_xyz
  1  'x, y, z'
loop_
 _atom_site_type_symbol
 _atom_site_label
 _atom_site_symmetry_multiplicity
 _atom_site_fract_x
 _atom_site_fract_y
 _atom_site_fract_z
 _atom_site_occupancy
  Na  Na0  1  0.21430100  0.42652500  0.15025600  1
  Na  Na1  1  0.42652500  0.21430100  0.65025600  1
  Na  Na2  1  0.57347500  0.78569900  0.34974400  1
  Na  Na3  1  0.78569900  0.57347500  0.84974400  1
  W  W4  1  0.80362000  0.97098000  0.01393000  1
  W  W5  1  0.97098000  0.80362000  0.51393000  1
  W  W6  1  0.02902000  0.19638000  0.48607000  1
  W  W7  1  0.19638000  0.02902000  0.98607000  1
  W  W8  1  0.69134900  0.30865100  0.25000000  1
  W  W9  1  0.30865100  0.69134900  0.75000000  1
  O  O10  1  0.88184200  0.06922800  0.40940900  1
  O  O11  1  0.49642600  0.38312000  0.40147400  1
  O  O12  1  0.06922800  0.88184200  0.90940900  1
  O  O13  1  0.38312000  0.49642600  0.90147400  1
  O  O14  1  0.62070600  0.12583200  0.17833500  1
  O  O15  1  0.06189200  0.66633100  0.34861600  1
  O  O16  1  0.12583200  0.62070600  0.67833500  1
  O  O17  1  0.66633100  0.06189200  0.84861600  1
  O  O18  1  0.82837300  0.73690500  0.07772300  1
  O  O19  1  0.73690500  0.82837300  0.57772300  1
  O  O20  1  0.26309500  0.17162700  0.42227700  1
  O  O21  1  0.17162700  0.26309500  0.92227700  1
  O  O22  1  0.33366900  0.93810800  0.15138400  1
  O  O23  1  0.87416800  0.37929400  0.32166500  1
  O  O24  1  0.93810800  0.33366900  0.65138400  1
  O  O25  1  0.37929400  0.87416800  0.82166500  1
  O  O26  1  0.61688000  0.50357400  0.09852600  1
  O  O27  1  0.93077200  0.11815800  0.09059100  1
  O  O28  1  0.50357400  0.61688000  0.59852600  1
  O  O29  1  0.11815800  0.93077200  0.59059100  1
