# generated using pymatgen
data_V2PH10NO11
_symmetry_space_group_name_H-M   'P 1'
_cell_length_a   7.11699000
_cell_length_b   10.68255100
_cell_length_c   12.52141500
_cell_angle_alpha   90.00000000
_cell_angle_beta   90.00000000
_cell_angle_gamma   90.00000000
_symmetry_Int_Tables_number   1
_chemical_formula_structural   V2PH10NO11
_chemical_formula_sum   'V8 P4 H40 N4 O44'
_cell_volume   951.97323926
_cell_formula_units_Z   4
loop_
 _symmetry_equiv_pos_site_id
 _symmetry_equiv_pos_as_xyz
  1  'x, y, z'
loop_
 _atom_site_type_symbol
 _atom_site_label
 _atom_site_symmetry_multiplicity
 _atom_site_fract_x
 _atom_site_fract_y
 _atom_site_fract_z
 _atom_site_occupancy
  V  V0  1  0.01391600  0.22882600  0.00934500  1
  V  V1  1  0.20068300  0.52933100  0.91803100  1
  V  V2  1  0.29931700  0.47066900  0.41803100  1
  V  V3  1  0.48608400  0.77117400  0.50934500  1
  V  V4  1  0.51391600  0.27117400  0.99065500  1
  V  V5  1  0.70068300  0.97066900  0.08196900  1
  V  V6  1  0.79931700  0.02933100  0.58196900  1
  V  V7  1  0.98608400  0.72882600  0.49065500  1
  P  P8  1  0.24848000  0.41671400  0.15190000  1
  P  P9  1  0.25152000  0.58328600  0.65190000  1
  P  P10  1  0.74848000  0.08328600  0.84810000  1
  P  P11  1  0.75152000  0.91671400  0.34810000  1
  H  H12  1  0.06667300  0.27623600  0.46543200  1
  H  H13  1  0.06099700  0.89531200  0.03389500  1
  H  H14  1  0.12717500  0.79743000  0.26453400  1
  H  H15  1  0.14329100  0.08733500  0.50739200  1
  H  H16  1  0.16038000  0.91802500  0.68044800  1
  H  H17  1  0.13771800  0.19808900  0.78515800  1
  H  H18  1  0.24037400  0.33138400  0.73902700  1
  H  H19  1  0.25163300  0.97192100  0.46393000  1
  H  H20  1  0.25822000  0.08358200  0.29694200  1
  H  H21  1  0.27979100  0.79744000  0.16187200  1
  H  H22  1  0.22020900  0.20256000  0.66187200  1
  H  H23  1  0.24178000  0.91641800  0.79694200  1
  H  H24  1  0.24836700  0.02807900  0.96393000  1
  H  H25  1  0.25962600  0.66861600  0.23902700  1
  H  H26  1  0.36228200  0.80191100  0.28515800  1
  H  H27  1  0.33962000  0.08197500  0.18044800  1
  H  H28  1  0.35670900  0.91266500  0.00739200  1
  H  H29  1  0.37282500  0.20257000  0.76453400  1
  H  H30  1  0.43900300  0.10468800  0.53389500  1
  H  H31  1  0.43332700  0.72376400  0.96543200  1
  H  H32  1  0.56667300  0.22376400  0.53456800  1
  H  H33  1  0.56099700  0.60468800  0.96610500  1
  H  H34  1  0.62717500  0.70257000  0.73546600  1
  H  H35  1  0.64329100  0.41266500  0.49260800  1
  H  H36  1  0.66038000  0.58197500  0.31955200  1
  H  H37  1  0.63771800  0.30191100  0.21484200  1
  H  H38  1  0.74037400  0.16861600  0.26097300  1
  H  H39  1  0.75163300  0.52807900  0.53607000  1
  H  H40  1  0.75822000  0.41641800  0.70305800  1
  H  H41  1  0.77979100  0.70256000  0.83812800  1
  H  H42  1  0.72020900  0.29744000  0.33812800  1
  H  H43  1  0.74178000  0.58358200  0.20305800  1
  H  H44  1  0.74836700  0.47192100  0.03607000  1
  H  H45  1  0.75962600  0.83138400  0.76097300  1
  H  H46  1  0.86228200  0.69808900  0.71484200  1
  H  H47  1  0.83962000  0.41802500  0.81955200  1
  H  H48  1  0.85670900  0.58733500  0.99260800  1
  H  H49  1  0.87282500  0.29743000  0.23546600  1
  H  H50  1  0.93900300  0.39531200  0.46610500  1
  H  H51  1  0.93332700  0.77623600  0.03456800  1
  N  N52  1  0.25623000  0.76527300  0.23744300  1
  N  N53  1  0.24377000  0.23472700  0.73744300  1
  N  N54  1  0.75623000  0.73472700  0.76255700  1
  N  N55  1  0.74377000  0.26527300  0.26255700  1
  O  O56  1  0.06587300  0.60371400  0.42494300  1
  O  O57  1  0.05704200  0.40083600  0.92229000  1
  O  O58  1  0.05353700  0.65103900  0.92180900  1
  O  O59  1  0.04661600  0.35393300  0.42539700  1
  O  O60  1  0.07212000  0.33154200  0.13621500  1
  O  O61  1  0.07246800  0.66469600  0.63275300  1
  O  O62  1  0.25080500  0.52483300  0.76381100  1
  O  O63  1  0.25275800  0.80899600  0.48404200  1
  O  O64  1  0.25786300  0.47168500  0.57310200  1
  O  O65  1  0.26113400  0.03532100  0.23095400  1
  O  O66  1  0.25515700  0.06499200  0.46448900  1
  O  O67  1  0.24484300  0.93500800  0.96448900  1
  O  O68  1  0.23886600  0.96467900  0.73095400  1
  O  O69  1  0.24213700  0.52831500  0.07310200  1
  O  O70  1  0.24724200  0.19100400  0.98404200  1
  O  O71  1  0.24919500  0.47516700  0.26381100  1
  O  O72  1  0.42753200  0.33530400  0.13275300  1
  O  O73  1  0.42788000  0.66845800  0.63621500  1
  O  O74  1  0.45338400  0.64606700  0.92539700  1
  O  O75  1  0.44646300  0.34896100  0.42180900  1
  O  O76  1  0.44295800  0.59916400  0.42229000  1
  O  O77  1  0.43412700  0.39628600  0.92494300  1
  O  O78  1  0.56587300  0.89628600  0.57505700  1
  O  O79  1  0.55704200  0.09916400  0.07771000  1
  O  O80  1  0.55353700  0.84896100  0.07819100  1
  O  O81  1  0.54661600  0.14606700  0.57460300  1
  O  O82  1  0.57212000  0.16845800  0.86378500  1
  O  O83  1  0.57246800  0.83530400  0.36724700  1
  O  O84  1  0.75080500  0.97516700  0.23618900  1
  O  O85  1  0.75275800  0.69100400  0.51595800  1
  O  O86  1  0.75786300  0.02831500  0.42689800  1
  O  O87  1  0.76113400  0.46467900  0.76904600  1
  O  O88  1  0.75515700  0.43500800  0.53551100  1
  O  O89  1  0.74484300  0.56499200  0.03551100  1
  O  O90  1  0.73886600  0.53532100  0.26904600  1
  O  O91  1  0.74213700  0.97168500  0.92689800  1
  O  O92  1  0.74724200  0.30899600  0.01595800  1
  O  O93  1  0.74919500  0.02483300  0.73618900  1
  O  O94  1  0.92753200  0.16469600  0.86724700  1
  O  O95  1  0.92788000  0.83154200  0.36378500  1
  O  O96  1  0.95338400  0.85393300  0.07460300  1
  O  O97  1  0.94646300  0.15103900  0.57819100  1
  O  O98  1  0.94295800  0.90083600  0.57771000  1
  O  O99  1  0.93412700  0.10371400  0.07505700  1
