# generated using pymatgen
data_Na3Cu5O4
_symmetry_space_group_name_H-M   'P 1'
_cell_length_a   7.02690200
_cell_length_b   8.50109400
_cell_length_c   13.34021188
_cell_angle_alpha   73.18816173
_cell_angle_beta   90.00000000
_cell_angle_gamma   90.00000000
_symmetry_Int_Tables_number   1
_chemical_formula_structural   Na3Cu5O4
_chemical_formula_sum   'Na12 Cu20 O16'
_cell_volume   762.83611343
_cell_formula_units_Z   4
loop_
 _symmetry_equiv_pos_site_id
 _symmetry_equiv_pos_as_xyz
  1  'x, y, z'
loop_
 _atom_site_type_symbol
 _atom_site_label
 _atom_site_symmetry_multiplicity
 _atom_site_fract_x
 _atom_site_fract_y
 _atom_site_fract_z
 _atom_site_occupancy
  Na  Na0  1  0.64154800  0.91030500  0.58194000  1
  Na  Na1  1  0.92085000  0.66299100  0.90747300  1
  Na  Na2  1  0.24896600  0.73863000  0.57318500  1
  Na  Na3  1  0.85845200  0.91030500  0.08194000  1
  Na  Na4  1  0.57915000  0.66299100  0.40747300  1
  Na  Na5  1  0.25103400  0.73863000  0.07318500  1
  Na  Na6  1  0.74896600  0.26137000  0.92681500  1
  Na  Na7  1  0.42085000  0.33700900  0.59252700  1
  Na  Na8  1  0.14154800  0.08969500  0.91806000  1
  Na  Na9  1  0.75103400  0.26137000  0.42681500  1
  Na  Na10  1  0.07915000  0.33700900  0.09252700  1
  Na  Na11  1  0.35845200  0.08969500  0.41806000  1
  Cu  Cu12  1  0.58274200  0.95041000  0.89860600  1
  Cu  Cu13  1  0.33545700  0.94003900  0.74530100  1
  Cu  Cu14  1  0.91725800  0.95041000  0.39860600  1
  Cu  Cu15  1  0.45801100  0.68588200  0.88564800  1
  Cu  Cu16  1  0.16454300  0.94003900  0.24530100  1
  Cu  Cu17  1  0.55074500  0.55785400  0.73246200  1
  Cu  Cu18  1  0.04198900  0.68588200  0.38564800  1
  Cu  Cu19  1  0.31271900  0.41807600  0.89866900  1
  Cu  Cu20  1  0.81271900  0.58192400  0.60133100  1
  Cu  Cu21  1  0.05074500  0.44214600  0.76753800  1
  Cu  Cu22  1  0.94925500  0.55785400  0.23246200  1
  Cu  Cu23  1  0.18728100  0.41807600  0.39866900  1
  Cu  Cu24  1  0.68728100  0.58192400  0.10133100  1
  Cu  Cu25  1  0.95801100  0.31411800  0.61435200  1
  Cu  Cu26  1  0.44925500  0.44214600  0.26753800  1
  Cu  Cu27  1  0.83545700  0.05996100  0.75469900  1
  Cu  Cu28  1  0.54198900  0.31411800  0.11435200  1
  Cu  Cu29  1  0.08274200  0.04959000  0.60139400  1
  Cu  Cu30  1  0.66454300  0.05996100  0.25469900  1
  Cu  Cu31  1  0.41725800  0.04959000  0.10139400  1
  O  O32  1  0.83465100  0.00612300  0.89868200  1
  O  O33  1  0.33211200  0.87892300  0.89248200  1
  O  O34  1  0.66534900  0.00612300  0.39868200  1
  O  O35  1  0.16788800  0.87892300  0.39248200  1
  O  O36  1  0.56565900  0.48916700  0.87724100  1
  O  O37  1  0.55407600  0.62439200  0.58742500  1
  O  O38  1  0.05407600  0.37560800  0.91257500  1
  O  O39  1  0.06565900  0.51083300  0.62275900  1
  O  O40  1  0.93434100  0.48916700  0.37724100  1
  O  O41  1  0.94592400  0.62439200  0.08742500  1
  O  O42  1  0.44592400  0.37560800  0.41257500  1
  O  O43  1  0.43434100  0.51083300  0.12275900  1
  O  O44  1  0.83211200  0.12107700  0.60751800  1
  O  O45  1  0.33465100  0.99387700  0.60131800  1
  O  O46  1  0.66788800  0.12107700  0.10751800  1
  O  O47  1  0.16534900  0.99387700  0.10131800  1
