# generated using pymatgen
data_V6O5F19
_symmetry_space_group_name_H-M   'P 1'
_cell_length_a   5.30498800
_cell_length_b   5.54875874
_cell_length_c   14.78008062
_cell_angle_alpha   100.19635016
_cell_angle_beta   89.88489728
_cell_angle_gamma   90.85910354
_symmetry_Int_Tables_number   1
_chemical_formula_structural   V6O5F19
_chemical_formula_sum   'V6 O5 F19'
_cell_volume   428.14860653
_cell_formula_units_Z   1
loop_
 _symmetry_equiv_pos_site_id
 _symmetry_equiv_pos_as_xyz
  1  'x, y, z'
loop_
 _atom_site_type_symbol
 _atom_site_label
 _atom_site_symmetry_multiplicity
 _atom_site_fract_x
 _atom_site_fract_y
 _atom_site_fract_z
 _atom_site_occupancy
  V  V0  1  0.00965700  0.98466000  0.00099700  1
  V  V1  1  0.52494300  0.10790000  0.33052600  1
  V  V2  1  0.97887900  0.27731600  0.66435700  1
  V  V3  1  0.53012500  0.45253200  0.99693700  1
  V  V4  1  0.97879600  0.61117800  0.33123600  1
  V  V5  1  0.52505300  0.77426800  0.66376400  1
  O  O6  1  0.79106200  0.03305400  0.64289000  1
  O  O7  1  0.70533200  0.20858900  0.97721300  1
  O  O8  1  0.79065600  0.36706800  0.30969200  1
  O  O9  1  0.70826000  0.53348300  0.64270600  1
  O  O10  1  0.70811000  0.86726300  0.30918100  1
  F  F11  1  0.27094500  0.14503400  0.69195900  1
  F  F12  1  0.90505700  0.05304900  0.11628500  1
  F  F13  1  0.58473800  0.23335300  0.44740700  1
  F  F14  1  0.91307500  0.40047300  0.78068500  1
  F  F15  1  0.41860900  0.14706900  0.22052300  1
  F  F16  1  0.07827300  0.31405000  0.55301800  1
  F  F17  1  0.41040600  0.47345700  0.88694700  1
  F  F18  1  0.79486700  0.68589300  0.97611900  1
  F  F19  1  0.22154000  0.29695200  0.02431300  1
  F  F20  1  0.27040600  0.47876200  0.35919600  1
  F  F21  1  0.22652900  0.64086200  0.69152100  1
  F  F22  1  0.57348800  0.56306900  0.11565600  1
  F  F23  1  0.91326100  0.73521500  0.44752400  1
  F  F24  1  0.58375700  0.89976100  0.78066700  1
  F  F25  1  0.07875300  0.64680400  0.21987800  1
  F  F26  1  0.42053000  0.81253600  0.55339700  1
  F  F27  1  0.06886200  0.97079500  0.88248200  1
  F  F28  1  0.28941000  0.81102400  0.02437900  1
  F  F29  1  0.22661900  0.97453200  0.35854500  1
