# generated using pymatgen
data_V4(OF3)3
_symmetry_space_group_name_H-M   'P 1'
_cell_length_a   5.28776900
_cell_length_b   7.20503413
_cell_length_c   5.49268879
_cell_angle_alpha   92.78757792
_cell_angle_beta   90.00000000
_cell_angle_gamma   90.00000000
_symmetry_Int_Tables_number   1
_chemical_formula_structural   V4(OF3)3
_chemical_formula_sum   'V4 O3 F9'
_cell_volume   209.01589151
_cell_formula_units_Z   1
loop_
 _symmetry_equiv_pos_site_id
 _symmetry_equiv_pos_as_xyz
  1  'x, y, z'
loop_
 _atom_site_type_symbol
 _atom_site_label
 _atom_site_symmetry_multiplicity
 _atom_site_fract_x
 _atom_site_fract_y
 _atom_site_fract_z
 _atom_site_occupancy
  V  V0  1  0.50099400  0.49951600  0.50007300  1
  V  V1  1  0.50099400  0.00048400  0.49992700  1
  V  V2  1  0.00488100  0.50995400  0.99978300  1
  V  V3  1  0.00488100  0.99004600  0.00021700  1
  O  O4  1  0.57177500  0.25000000  0.50000000  1
  O  O5  1  0.42812400  0.75000000  0.50000000  1
  O  O6  1  0.08744500  0.75000000  0.00000000  1
  F  F7  1  0.90044800  0.25000000  0.00000000  1
  F  F8  1  0.80293200  0.54502900  0.30496400  1
  F  F9  1  0.80293200  0.95497100  0.69503600  1
  F  F10  1  0.69809800  0.95369600  0.19648600  1
  F  F11  1  0.69809800  0.54630400  0.80351400  1
  F  F12  1  0.30116000  0.44798200  0.19699400  1
  F  F13  1  0.30116000  0.05201800  0.80300600  1
  F  F14  1  0.19803900  0.05025600  0.30397500  1
  F  F15  1  0.19803900  0.44974400  0.69602500  1
