# generated using pymatgen
data_Mg2ZnCd
_symmetry_space_group_name_H-M   'P 1'
_cell_length_a   11.65874450
_cell_length_b   11.65874450
_cell_length_c   11.65874450
_cell_angle_alpha   122.76007641
_cell_angle_beta   119.08516029
_cell_angle_gamma   88.43956114
_symmetry_Int_Tables_number   1
_chemical_formula_structural   Mg2ZnCd
_chemical_formula_sum   'Mg2 Zn1 Cd1'
_cell_volume   1103.03279596
_cell_formula_units_Z   1
loop_
 _symmetry_equiv_pos_site_id
 _symmetry_equiv_pos_as_xyz
  1  'x, y, z'
loop_
 _atom_site_type_symbol
 _atom_site_label
 _atom_site_symmetry_multiplicity
 _atom_site_fract_x
 _atom_site_fract_y
 _atom_site_fract_z
 _atom_site_occupancy
  Mg  Mg0  1  0.00000000  0.24447300  0.24447300  1
  Mg  Mg1  1  0.00000000  0.75552700  0.75552700  1
  Zn  Zn2  1  0.00000000  0.00000000  0.00000000  1
  Cd  Cd3  1  0.00000000  0.50000000  0.50000000  1
