# generated using pymatgen
data_V3O2F5
_symmetry_space_group_name_H-M   'P 1'
_cell_length_a   4.92194400
_cell_length_b   5.11329700
_cell_length_c   16.81532300
_cell_angle_alpha   90.00000000
_cell_angle_beta   90.00000000
_cell_angle_gamma   90.00000000
_symmetry_Int_Tables_number   1
_chemical_formula_structural   V3O2F5
_chemical_formula_sum   'V12 O8 F20'
_cell_volume   423.19731250
_cell_formula_units_Z   4
loop_
 _symmetry_equiv_pos_site_id
 _symmetry_equiv_pos_as_xyz
  1  'x, y, z'
loop_
 _atom_site_type_symbol
 _atom_site_label
 _atom_site_symmetry_multiplicity
 _atom_site_fract_x
 _atom_site_fract_y
 _atom_site_fract_z
 _atom_site_occupancy
  V  V0  1  0.44852700  0.05934800  0.75000000  1
  V  V1  1  0.04872300  0.12275000  0.59753900  1
  V  V2  1  0.04872300  0.12275000  0.90246100  1
  V  V3  1  0.54872300  0.37725000  0.09753900  1
  V  V4  1  0.54872300  0.37725000  0.40246100  1
  V  V5  1  0.94852700  0.44065200  0.25000000  1
  V  V6  1  0.05147300  0.55934800  0.75000000  1
  V  V7  1  0.45127700  0.62275000  0.90246100  1
  V  V8  1  0.45127700  0.62275000  0.59753900  1
  V  V9  1  0.95127700  0.87725000  0.09753900  1
  V  V10  1  0.95127700  0.87725000  0.40246100  1
  V  V11  1  0.55147300  0.94065200  0.25000000  1
  O  O12  1  0.78614100  0.16038100  0.17296800  1
  O  O13  1  0.78614100  0.16038100  0.32703200  1
  O  O14  1  0.28614100  0.33961900  0.82703200  1
  O  O15  1  0.28614100  0.33961900  0.67296800  1
  O  O16  1  0.71385900  0.66038100  0.32703200  1
  O  O17  1  0.71385900  0.66038100  0.17296800  1
  O  O18  1  0.21385900  0.83961900  0.67296800  1
  O  O19  1  0.21385900  0.83961900  0.82703200  1
  F  F20  1  0.31671200  0.05013800  0.11352300  1
  F  F21  1  0.31671200  0.05013800  0.38647700  1
  F  F22  1  0.82485300  0.17059700  0.02573600  1
  F  F23  1  0.82485300  0.17059700  0.47426400  1
  F  F24  1  0.82043000  0.22287200  0.75000000  1
  F  F25  1  0.32043000  0.27712800  0.25000000  1
  F  F26  1  0.32485300  0.32940300  0.52573600  1
  F  F27  1  0.32485300  0.32940300  0.97426400  1
  F  F28  1  0.81671200  0.44986200  0.61352300  1
  F  F29  1  0.81671200  0.44986200  0.88647700  1
  F  F30  1  0.18328800  0.55013800  0.38647700  1
  F  F31  1  0.18328800  0.55013800  0.11352300  1
  F  F32  1  0.67514700  0.67059700  0.02573600  1
  F  F33  1  0.67514700  0.67059700  0.47426400  1
  F  F34  1  0.67957000  0.72287200  0.75000000  1
  F  F35  1  0.17957000  0.77712800  0.25000000  1
  F  F36  1  0.17514700  0.82940300  0.97426400  1
  F  F37  1  0.17514700  0.82940300  0.52573600  1
  F  F38  1  0.68328800  0.94986200  0.88647700  1
  F  F39  1  0.68328800  0.94986200  0.61352300  1
