# generated using pymatgen
data_Co6OF11
_symmetry_space_group_name_H-M   'P 1'
_cell_length_a   4.75071100
_cell_length_b   5.70569471
_cell_length_c   7.89689523
_cell_angle_alpha   86.74248628
_cell_angle_beta   89.60356457
_cell_angle_gamma   89.52909178
_symmetry_Int_Tables_number   1
_chemical_formula_structural   Co6OF11
_chemical_formula_sum   'Co6 O1 F11'
_cell_volume   213.69654068
_cell_formula_units_Z   1
loop_
 _symmetry_equiv_pos_site_id
 _symmetry_equiv_pos_as_xyz
  1  'x, y, z'
loop_
 _atom_site_type_symbol
 _atom_site_label
 _atom_site_symmetry_multiplicity
 _atom_site_fract_x
 _atom_site_fract_y
 _atom_site_fract_z
 _atom_site_occupancy
  Co  Co0  1  0.51923700  0.48809100  0.99378900  1
  Co  Co1  1  0.50449600  0.82893200  0.66436100  1
  Co  Co2  1  0.49709300  0.16836700  0.33495500  1
  Co  Co3  1  0.00451100  0.66508900  0.32972900  1
  Co  Co4  1  0.98799000  0.32703000  0.68511900  1
  Co  Co5  1  0.99009600  0.01893900  0.99085100  1
  O  O6  1  0.79199600  0.30387000  0.90316900  1
  F  F7  1  0.80542000  0.62795100  0.56649900  1
  F  F8  1  0.80342700  0.96814700  0.22968700  1
  F  F9  1  0.69151100  0.46892900  0.23567700  1
  F  F10  1  0.69978100  0.79925300  0.89704200  1
  F  F11  1  0.70226500  0.12797900  0.56513300  1
  F  F12  1  0.30369200  0.86709100  0.43294400  1
  F  F13  1  0.30164600  0.53442000  0.76692600  1
  F  F14  1  0.29840700  0.20408100  0.10290200  1
  F  F15  1  0.20610200  0.02979900  0.76460100  1
  F  F16  1  0.20102000  0.70572800  0.09393500  1
  F  F17  1  0.19131000  0.36630800  0.44268200  1
