# generated using pymatgen
data_Zn2CuPd
_symmetry_space_group_name_H-M   'P 1'
_cell_length_a   9.72368758
_cell_length_b   9.72368758
_cell_length_c   9.72368758
_cell_angle_alpha   121.32579782
_cell_angle_beta   119.46729322
_cell_angle_gamma   89.32215046
_symmetry_Int_Tables_number   1
_chemical_formula_structural   Zn2CuPd
_chemical_formula_sum   'Zn2 Cu1 Pd1'
_cell_volume   645.93557835
_cell_formula_units_Z   1
loop_
 _symmetry_equiv_pos_site_id
 _symmetry_equiv_pos_as_xyz
  1  'x, y, z'
loop_
 _atom_site_type_symbol
 _atom_site_label
 _atom_site_symmetry_multiplicity
 _atom_site_fract_x
 _atom_site_fract_y
 _atom_site_fract_z
 _atom_site_occupancy
  Zn  Zn0  1  0.00000000  0.24726300  0.24726300  1
  Zn  Zn1  1  0.00000000  0.75273700  0.75273700  1
  Cu  Cu2  1  0.00000000  0.00000000  0.00000000  1
  Pd  Pd3  1  0.00000000  0.50000000  0.50000000  1
