# generated using pymatgen
data_Y5Tm11O24
_symmetry_space_group_name_H-M   'P 1'
_cell_length_a   9.13673764
_cell_length_b   9.13673764
_cell_length_c   10.54682805
_cell_angle_alpha   54.71301105
_cell_angle_beta   54.71301105
_cell_angle_gamma   70.50514215
_symmetry_Int_Tables_number   1
_chemical_formula_structural   Y5Tm11O24
_chemical_formula_sum   'Y5 Tm11 O24'
_cell_volume   586.63849766
_cell_formula_units_Z   1
loop_
 _symmetry_equiv_pos_site_id
 _symmetry_equiv_pos_as_xyz
  1  'x, y, z'
loop_
 _atom_site_type_symbol
 _atom_site_label
 _atom_site_symmetry_multiplicity
 _atom_site_fract_x
 _atom_site_fract_y
 _atom_site_fract_z
 _atom_site_occupancy
  Y  Y0  1  0.50098700  0.00005000  0.74950200  1
  Y  Y1  1  0.03205500  0.96794500  0.00000000  1
  Y  Y2  1  0.49862200  0.00006000  0.25022800  1
  Y  Y3  1  0.99994000  0.50137800  0.74977200  1
  Y  Y4  1  0.99995000  0.49901300  0.25049800  1
  Tm  Tm5  1  0.28349100  0.78254800  0.71655100  1
  Tm  Tm6  1  0.21745200  0.71650900  0.28344900  1
  Tm  Tm7  1  0.25052100  0.25035000  0.46639600  1
  Tm  Tm8  1  0.25031200  0.25097200  0.96726500  1
  Tm  Tm9  1  0.46721400  0.53278600  0.50000000  1
  Tm  Tm10  1  0.53272600  0.46727400  0.00000000  1
  Tm  Tm11  1  0.74902800  0.74968800  0.03273500  1
  Tm  Tm12  1  0.74965000  0.74947900  0.53360400  1
  Tm  Tm13  1  0.71665000  0.21798800  0.78215000  1
  Tm  Tm14  1  0.78201200  0.28335000  0.21785000  1
  Tm  Tm15  1  0.96743200  0.03256800  0.50000000  1
  O  O16  1  0.24187700  0.45655800  0.51989000  1
  O  O17  1  0.26179100  0.04327400  0.71505600  1
  O  O18  1  0.73087300  0.03126500  0.47620300  1
  O  O19  1  0.03084800  0.72810600  0.97591700  1
  O  O20  1  0.53164600  0.23036200  0.26128400  1
  O  O21  1  0.23134600  0.53170800  0.76070800  1
  O  O22  1  0.95672600  0.73820900  0.28494400  1
  O  O23  1  0.54344200  0.75812300  0.48011000  1
  O  O24  1  0.27362400  0.51182800  0.20671800  1
  O  O25  1  0.22624800  0.98825800  0.49213100  1
  O  O26  1  0.98819300  0.23006300  0.99215800  1
  O  O27  1  0.51171700  0.27361600  0.70676400  1
  O  O28  1  0.76993700  0.01180700  0.00784200  1
  O  O29  1  0.01174200  0.77375200  0.50786900  1
  O  O30  1  0.72638400  0.48828300  0.29323600  1
  O  O31  1  0.48817200  0.72637600  0.79328200  1
  O  O32  1  0.45645900  0.24306200  0.01941200  1
  O  O33  1  0.04294100  0.25754000  0.21918400  1
  O  O34  1  0.76963800  0.46835400  0.73871600  1
  O  O35  1  0.46829200  0.76865400  0.23929200  1
  O  O36  1  0.96873500  0.26912700  0.52379700  1
  O  O37  1  0.27189400  0.96915200  0.02408300  1
  O  O38  1  0.75693800  0.54354100  0.98058800  1
  O  O39  1  0.74246000  0.95705900  0.78081600  1
