# generated using pymatgen
data_MnFeCo(PO4)3
_symmetry_space_group_name_H-M   'P 1'
_cell_length_a   5.98355800
_cell_length_b   9.87213800
_cell_length_c   14.64297268
_cell_angle_alpha   89.82197279
_cell_angle_beta   90.00000000
_cell_angle_gamma   90.00000000
_symmetry_Int_Tables_number   1
_chemical_formula_structural   MnFeCo(PO4)3
_chemical_formula_sum   'Mn4 Fe4 Co4 P12 O48'
_cell_volume   864.96369352
_cell_formula_units_Z   4
loop_
 _symmetry_equiv_pos_site_id
 _symmetry_equiv_pos_as_xyz
  1  'x, y, z'
loop_
 _atom_site_type_symbol
 _atom_site_label
 _atom_site_symmetry_multiplicity
 _atom_site_fract_x
 _atom_site_fract_y
 _atom_site_fract_z
 _atom_site_occupancy
  Mn  Mn0  1  0.00000000  0.21714000  0.47876000  1
  Mn  Mn1  1  0.00000000  0.21186900  0.14531900  1
  Mn  Mn2  1  0.50000000  0.28279000  0.97764000  1
  Mn  Mn3  1  0.50000000  0.28735400  0.64395800  1
  Fe  Fe4  1  0.00000000  0.22158400  0.81860300  1
  Fe  Fe5  1  0.50000000  0.27857800  0.31926400  1
  Fe  Fe6  1  0.00000000  0.72761900  0.34506700  1
  Fe  Fe7  1  0.00000000  0.72673800  0.01229200  1
  Co  Co8  1  0.00000000  0.72616000  0.67806600  1
  Co  Co9  1  0.50000000  0.77712400  0.51673600  1
  Co  Co10  1  0.50000000  0.77124200  0.84229200  1
  Co  Co11  1  0.50000000  0.77392800  0.17790500  1
  P  P12  1  0.50000000  0.09899800  0.80524600  1
  P  P13  1  0.50000000  0.09776700  0.47162000  1
  P  P14  1  0.50000000  0.09706100  0.13863200  1
  P  P15  1  0.00000000  0.40005200  0.97198500  1
  P  P16  1  0.00000000  0.40447600  0.63824100  1
  P  P17  1  0.00000000  0.39920900  0.30475800  1
  P  P18  1  0.50000000  0.60317900  0.36354600  1
  P  P19  1  0.50000000  0.59846600  0.69705800  1
  P  P20  1  0.50000000  0.60044600  0.02801300  1
  P  P21  1  0.00000000  0.89705300  0.86286300  1
  P  P22  1  0.00000000  0.90317000  0.52805200  1
  P  P23  1  0.00000000  0.90134500  0.19622200  1
  O  O24  1  0.00000000  0.05503600  0.55214900  1
  O  O25  1  0.00000000  0.04899200  0.88052900  1
  O  O26  1  0.00000000  0.05385400  0.21906400  1
  O  O27  1  0.50000000  0.11991500  0.90988800  1
  O  O28  1  0.50000000  0.12229100  0.57515600  1
  O  O29  1  0.50000000  0.12022000  0.24140100  1
  O  O30  1  0.29621400  0.16835500  0.75798500  1
  O  O31  1  0.70378600  0.16835500  0.75798500  1
  O  O32  1  0.30119500  0.17249200  0.42204900  1
  O  O33  1  0.69880500  0.17249200  0.42204900  1
  O  O34  1  0.70127600  0.16655800  0.08886100  1
  O  O35  1  0.29872400  0.16655800  0.08886100  1
  O  O36  1  0.80182000  0.32573900  0.92189800  1
  O  O37  1  0.19818000  0.32573900  0.92189800  1
  O  O38  1  0.79856700  0.33467400  0.58898600  1
  O  O39  1  0.20143300  0.33467400  0.58898600  1
  O  O40  1  0.20399000  0.32799500  0.25867100  1
  O  O41  1  0.79601000  0.32799500  0.25867100  1
  O  O42  1  0.00000000  0.38022600  0.74107900  1
  O  O43  1  0.00000000  0.37898800  0.40981400  1
  O  O44  1  0.00000000  0.37608800  0.07543500  1
  O  O45  1  0.50000000  0.45155200  0.38362500  1
  O  O46  1  0.50000000  0.44531500  0.71866100  1
  O  O47  1  0.50000000  0.44707900  0.04726500  1
  O  O48  1  0.00000000  0.55100000  0.95178400  1
  O  O49  1  0.00000000  0.55196800  0.28665200  1
  O  O50  1  0.00000000  0.55896700  0.61887100  1
  O  O51  1  0.50000000  0.62424600  0.92418500  1
  O  O52  1  0.50000000  0.61951200  0.59307900  1
  O  O53  1  0.50000000  0.62664500  0.25878400  1
  O  O54  1  0.29846600  0.67651800  0.41103200  1
  O  O55  1  0.70153400  0.67651800  0.41103200  1
  O  O56  1  0.29859400  0.66944800  0.74611300  1
  O  O57  1  0.70140600  0.66944800  0.74611300  1
  O  O58  1  0.29747600  0.67097100  0.07672700  1
  O  O59  1  0.70252400  0.67097100  0.07672700  1
  O  O60  1  0.79713600  0.82912700  0.57631500  1
  O  O61  1  0.20286400  0.82912700  0.57631500  1
  O  O62  1  0.79980100  0.82594900  0.91230400  1
  O  O63  1  0.20019900  0.82594900  0.91230400  1
  O  O64  1  0.80010400  0.82900500  0.24566300  1
  O  O65  1  0.19989600  0.82900500  0.24566300  1
  O  O66  1  0.00000000  0.87136500  0.75853900  1
  O  O67  1  0.00000000  0.88454400  0.42506200  1
  O  O68  1  0.00000000  0.88197200  0.09287600  1
  O  O69  1  0.50000000  0.94696300  0.44981400  1
  O  O70  1  0.50000000  0.94410100  0.78877500  1
  O  O71  1  0.50000000  0.94217700  0.12010500  1
