# generated using pymatgen
data_Co3(OF2)2
_symmetry_space_group_name_H-M   'P 1'
_cell_length_a   4.63595500
_cell_length_b   9.34223050
_cell_length_c   4.62489282
_cell_angle_alpha   90.34912577
_cell_angle_beta   90.00095268
_cell_angle_gamma   90.00073542
_symmetry_Int_Tables_number   1
_chemical_formula_structural   Co3(OF2)2
_chemical_formula_sum   'Co6 O4 F8'
_cell_volume   200.30113027
_cell_formula_units_Z   2
loop_
 _symmetry_equiv_pos_site_id
 _symmetry_equiv_pos_as_xyz
  1  'x, y, z'
loop_
 _atom_site_type_symbol
 _atom_site_label
 _atom_site_symmetry_multiplicity
 _atom_site_fract_x
 _atom_site_fract_y
 _atom_site_fract_z
 _atom_site_occupancy
  Co  Co0  1  0.49999500  0.83334300  0.49999800  1
  Co  Co1  1  0.46348200  0.15940200  0.54083000  1
  Co  Co2  1  0.53655300  0.50725600  0.45915500  1
  Co  Co3  1  0.00000700  0.33334200  0.99999700  1
  Co  Co4  1  0.96346300  0.00727000  0.95909200  1
  Co  Co5  1  0.03650200  0.65939100  0.04089800  1
  O  O6  1  0.81361900  0.50043000  0.19862400  1
  O  O7  1  0.31369200  0.66622500  0.30141200  1
  O  O8  1  0.68629800  0.00044000  0.69859500  1
  O  O9  1  0.18638600  0.16623700  0.80138700  1
  F  F10  1  0.77664800  0.16472800  0.21118200  1
  F  F11  1  0.27662800  0.00197200  0.28862900  1
  F  F12  1  0.72335900  0.66469600  0.71136300  1
  F  F13  1  0.22335900  0.50194700  0.78879300  1
  F  F14  1  0.80894500  0.83351200  0.19341100  1
  F  F15  1  0.30901400  0.33315600  0.30656500  1
  F  F16  1  0.69100100  0.33350800  0.69344800  1
  F  F17  1  0.19104900  0.83314200  0.80662100  1
