# generated using pymatgen
data_V2O3F
_symmetry_space_group_name_H-M   'P 1'
_cell_length_a   5.58839459
_cell_length_b   5.58839459
_cell_length_c   7.09110306
_cell_angle_alpha   73.21961948
_cell_angle_beta   73.21961948
_cell_angle_gamma   75.85897205
_symmetry_Int_Tables_number   1
_chemical_formula_structural   V2O3F
_chemical_formula_sum   'V6 O9 F3'
_cell_volume   199.84377443
_cell_formula_units_Z   3
loop_
 _symmetry_equiv_pos_site_id
 _symmetry_equiv_pos_as_xyz
  1  'x, y, z'
loop_
 _atom_site_type_symbol
 _atom_site_label
 _atom_site_symmetry_multiplicity
 _atom_site_fract_x
 _atom_site_fract_y
 _atom_site_fract_z
 _atom_site_occupancy
  V  V0  1  0.67057600  0.66300600  0.83317900  1
  V  V1  1  0.29305700  0.37266000  0.66738900  1
  V  V2  1  0.62734000  0.70694300  0.33261100  1
  V  V3  1  0.33699400  0.32942400  0.16682100  1
  V  V4  1  0.00516200  0.99483800  0.50000000  1
  V  V5  1  0.04706100  0.95293900  0.00000000  1
  O  O6  1  0.23364400  0.22698600  0.96186400  1
  O  O7  1  0.56482000  0.56354900  0.62854000  1
  O  O8  1  0.89829600  0.89854800  0.29429300  1
  O  O9  1  0.10145200  0.10170400  0.70570700  1
  O  O10  1  0.77301400  0.76635600  0.03813600  1
  O  O11  1  0.43645100  0.43518000  0.37146000  1
  O  O12  1  0.03244000  0.63479600  0.66740400  1
  O  O13  1  0.36520400  0.96756000  0.33259600  1
  O  O14  1  0.30790600  0.69209400  0.00000000  1
  F  F15  1  0.63438100  0.03217100  0.66507600  1
  F  F16  1  0.96782900  0.36561900  0.33492400  1
  F  F17  1  0.70437300  0.29562700  0.00000000  1
