# generated using pymatgen
data_CoP4O11
_symmetry_space_group_name_H-M   'P 1'
_cell_length_a   12.47192300
_cell_length_b   8.28816200
_cell_length_c   11.27092806
_cell_angle_alpha   49.06387824
_cell_angle_beta   90.00000000
_cell_angle_gamma   90.00000000
_symmetry_Int_Tables_number   1
_chemical_formula_structural   CoP4O11
_chemical_formula_sum   'Co4 P16 O44'
_cell_volume   880.13971437
_cell_formula_units_Z   4
loop_
 _symmetry_equiv_pos_site_id
 _symmetry_equiv_pos_as_xyz
  1  'x, y, z'
loop_
 _atom_site_type_symbol
 _atom_site_label
 _atom_site_symmetry_multiplicity
 _atom_site_fract_x
 _atom_site_fract_y
 _atom_site_fract_z
 _atom_site_occupancy
  Co  Co0  1  0.46761200  0.49320800  0.73434400  1
  Co  Co1  1  0.96761200  0.50679200  0.76565600  1
  Co  Co2  1  0.03238800  0.49320800  0.23434400  1
  Co  Co3  1  0.53238800  0.50679200  0.26565600  1
  P  P4  1  0.21153500  0.50167400  0.60280400  1
  P  P5  1  0.16513300  0.84987100  0.26548000  1
  P  P6  1  0.49618900  0.83926500  0.34063600  1
  P  P7  1  0.84755200  0.84877300  0.40143800  1
  P  P8  1  0.34755200  0.15122700  0.09856200  1
  P  P9  1  0.99618900  0.16073500  0.15936400  1
  P  P10  1  0.71153500  0.49832600  0.89719600  1
  P  P11  1  0.66513300  0.15012900  0.23452000  1
  P  P12  1  0.33486700  0.84987100  0.76548000  1
  P  P13  1  0.28846500  0.50167400  0.10280400  1
  P  P14  1  0.00381100  0.83926500  0.84063600  1
  P  P15  1  0.65244800  0.84877300  0.90143800  1
  P  P16  1  0.15244800  0.15122700  0.59856200  1
  P  P17  1  0.50381100  0.16073500  0.65936400  1
  P  P18  1  0.83486700  0.15012900  0.73452000  1
  P  P19  1  0.78846500  0.49832600  0.39719600  1
  O  O20  1  0.89886300  0.27792300  0.75530800  1
  O  O21  1  0.46949900  0.71017900  0.29619100  1
  O  O22  1  0.78090500  0.66801300  0.42675800  1
  O  O23  1  0.10196500  0.50083200  0.65382700  1
  O  O24  1  0.31014400  0.46901600  0.68885700  1
  O  O25  1  0.41750500  0.21691300  0.96884400  1
  O  O26  1  0.23293600  0.72311400  0.42125600  1
  O  O27  1  0.25505800  0.98977100  0.13206000  1
  O  O28  1  0.90546300  0.96975600  0.23761100  1
  O  O29  1  0.60077800  0.98588200  0.23437000  1
  O  O30  1  0.51266400  0.75055200  0.50438000  1
  O  O31  1  0.01266400  0.24944800  0.99562000  1
  O  O32  1  0.10077800  0.01411800  0.26563000  1
  O  O33  1  0.91750500  0.78308700  0.53115600  1
  O  O34  1  0.81014400  0.53098400  0.81114300  1
  O  O35  1  0.40546300  0.03024400  0.26238900  1
  O  O36  1  0.60196500  0.49916800  0.84617300  1
  O  O37  1  0.75505800  0.01022900  0.36794000  1
  O  O38  1  0.73293600  0.27688600  0.07874400  1
  O  O39  1  0.28090500  0.33198700  0.07324200  1
  O  O40  1  0.39886300  0.72207700  0.74469200  1
  O  O41  1  0.03050100  0.71017900  0.79619100  1
  O  O42  1  0.96949900  0.28982100  0.20380900  1
  O  O43  1  0.60113700  0.27792300  0.25530800  1
  O  O44  1  0.71909500  0.66801300  0.92675800  1
  O  O45  1  0.26706400  0.72311400  0.92125600  1
  O  O46  1  0.24494200  0.98977100  0.63206000  1
  O  O47  1  0.39803500  0.50083200  0.15382700  1
  O  O48  1  0.59453700  0.96975600  0.73761100  1
  O  O49  1  0.18985600  0.46901600  0.18885700  1
  O  O50  1  0.08249500  0.21691300  0.46884400  1
  O  O51  1  0.89922200  0.98588200  0.73437000  1
  O  O52  1  0.98733600  0.75055200  0.00438000  1
  O  O53  1  0.48733600  0.24944800  0.49562000  1
  O  O54  1  0.39922200  0.01411800  0.76563000  1
  O  O55  1  0.09453700  0.03024400  0.76238900  1
  O  O56  1  0.74494200  0.01022900  0.86794000  1
  O  O57  1  0.76706400  0.27688600  0.57874400  1
  O  O58  1  0.58249500  0.78308700  0.03115600  1
  O  O59  1  0.68985600  0.53098400  0.31114300  1
  O  O60  1  0.89803500  0.49916800  0.34617300  1
  O  O61  1  0.21909500  0.33198700  0.57324200  1
  O  O62  1  0.53050100  0.28982100  0.70380900  1
  O  O63  1  0.10113700  0.72207700  0.24469200  1
