# generated using pymatgen
data_FeP4O11
_symmetry_space_group_name_H-M   'P 1'
_cell_length_a   12.51945800
_cell_length_b   8.34361500
_cell_length_c   11.41899367
_cell_angle_alpha   48.82384790
_cell_angle_beta   90.00000000
_cell_angle_gamma   90.00000000
_symmetry_Int_Tables_number   1
_chemical_formula_structural   FeP4O11
_chemical_formula_sum   'Fe4 P16 O44'
_cell_volume   897.80741691
_cell_formula_units_Z   4
loop_
 _symmetry_equiv_pos_site_id
 _symmetry_equiv_pos_as_xyz
  1  'x, y, z'
loop_
 _atom_site_type_symbol
 _atom_site_label
 _atom_site_symmetry_multiplicity
 _atom_site_fract_x
 _atom_site_fract_y
 _atom_site_fract_z
 _atom_site_occupancy
  Fe  Fe0  1  0.46936300  0.49275900  0.73698800  1
  Fe  Fe1  1  0.96936300  0.50724100  0.76301200  1
  Fe  Fe2  1  0.03063700  0.49275900  0.23698800  1
  Fe  Fe3  1  0.53063700  0.50724100  0.26301200  1
  P  P4  1  0.21217100  0.50161600  0.60072600  1
  P  P5  1  0.16530700  0.85028100  0.26662000  1
  P  P6  1  0.49616900  0.84220400  0.33942800  1
  P  P7  1  0.84724100  0.84973100  0.39963900  1
  P  P8  1  0.34724100  0.15026900  0.10036100  1
  P  P9  1  0.99616900  0.15779600  0.16057200  1
  P  P10  1  0.71217100  0.49838400  0.89927400  1
  P  P11  1  0.66530700  0.14971900  0.23338000  1
  P  P12  1  0.33469300  0.85028100  0.76662000  1
  P  P13  1  0.28782900  0.50161600  0.10072600  1
  P  P14  1  0.00383100  0.84220400  0.83942800  1
  P  P15  1  0.65275900  0.84973100  0.89963900  1
  P  P16  1  0.15275900  0.15026900  0.60036100  1
  P  P17  1  0.50383100  0.15779600  0.66057200  1
  P  P18  1  0.83469300  0.14971900  0.73338000  1
  P  P19  1  0.78782900  0.49838400  0.39927400  1
  O  O20  1  0.89766900  0.27627200  0.75469800  1
  O  O21  1  0.46846200  0.71308100  0.29689600  1
  O  O22  1  0.78085700  0.66783700  0.42700700  1
  O  O23  1  0.10243000  0.50138100  0.65065900  1
  O  O24  1  0.30973800  0.46913200  0.68706200  1
  O  O25  1  0.41615500  0.21353400  0.97197200  1
  O  O26  1  0.23320400  0.72262700  0.42115800  1
  O  O27  1  0.25484100  0.98981400  0.13456300  1
  O  O28  1  0.90536300  0.96708300  0.23824500  1
  O  O29  1  0.60075200  0.98763200  0.23245500  1
  O  O30  1  0.51362200  0.75539700  0.50064400  1
  O  O31  1  0.01362200  0.24460300  0.99935600  1
  O  O32  1  0.10075200  0.01236800  0.26754500  1
  O  O33  1  0.91615500  0.78646600  0.52802800  1
  O  O34  1  0.80973800  0.53086800  0.81293800  1
  O  O35  1  0.40536300  0.03291700  0.26175500  1
  O  O36  1  0.60243000  0.49861900  0.84934100  1
  O  O37  1  0.75484100  0.01018600  0.36543700  1
  O  O38  1  0.73320400  0.27737300  0.07884200  1
  O  O39  1  0.28085700  0.33216300  0.07299300  1
  O  O40  1  0.39766900  0.72372800  0.74530200  1
  O  O41  1  0.03153800  0.71308100  0.79689600  1
  O  O42  1  0.96846200  0.28691900  0.20310400  1
  O  O43  1  0.60233100  0.27627200  0.25469800  1
  O  O44  1  0.71914300  0.66783700  0.92700700  1
  O  O45  1  0.26679600  0.72262700  0.92115800  1
  O  O46  1  0.24515900  0.98981400  0.63456300  1
  O  O47  1  0.39757000  0.50138100  0.15065900  1
  O  O48  1  0.59463700  0.96708300  0.73824500  1
  O  O49  1  0.19026200  0.46913200  0.18706200  1
  O  O50  1  0.08384500  0.21353400  0.47197200  1
  O  O51  1  0.89924800  0.98763200  0.73245500  1
  O  O52  1  0.98637800  0.75539700  0.00064400  1
  O  O53  1  0.48637800  0.24460300  0.49935600  1
  O  O54  1  0.39924800  0.01236800  0.76754500  1
  O  O55  1  0.09463700  0.03291700  0.76175500  1
  O  O56  1  0.74515900  0.01018600  0.86543700  1
  O  O57  1  0.76679600  0.27737300  0.57884200  1
  O  O58  1  0.58384500  0.78646600  0.02802800  1
  O  O59  1  0.69026200  0.53086800  0.31293800  1
  O  O60  1  0.89757000  0.49861900  0.34934100  1
  O  O61  1  0.21914300  0.33216300  0.57299300  1
  O  O62  1  0.53153800  0.28691900  0.70310400  1
  O  O63  1  0.10233100  0.72372800  0.24530200  1
