# generated using pymatgen
data_Mn2OF2
_symmetry_space_group_name_H-M   'P 1'
_cell_length_a   5.49607574
_cell_length_b   5.83164199
_cell_length_c   5.49607841
_cell_angle_alpha   94.52456975
_cell_angle_beta   115.66267440
_cell_angle_gamma   117.09918740
_symmetry_Int_Tables_number   1
_chemical_formula_structural   Mn2OF2
_chemical_formula_sum   'Mn4 O2 F4'
_cell_volume   132.71319770
_cell_formula_units_Z   2
loop_
 _symmetry_equiv_pos_site_id
 _symmetry_equiv_pos_as_xyz
  1  'x, y, z'
loop_
 _atom_site_type_symbol
 _atom_site_label
 _atom_site_symmetry_multiplicity
 _atom_site_fract_x
 _atom_site_fract_y
 _atom_site_fract_z
 _atom_site_occupancy
  Mn  Mn0  1  0.22382400  0.91653200  0.56843700  1
  Mn  Mn1  1  0.69850300  0.05862700  0.33625100  1
  Mn  Mn2  1  0.34810400  0.41653200  0.19272600  1
  Mn  Mn3  1  0.72232700  0.55860700  0.86010800  1
  O  O4  1  0.51852200  0.24288100  0.48118000  1
  O  O5  1  0.76170200  0.74288800  0.22435400  1
  F  F6  1  0.19829100  0.79472500  0.92458200  1
  F  F7  1  0.87018400  0.29477900  0.09652800  1
  F  F8  1  0.17182200  0.23720600  0.75046600  1
  F  F9  1  0.48671800  0.73722000  0.56536600  1
