# generated using pymatgen
data_V2OF5
_symmetry_space_group_name_H-M   'P 1'
_cell_length_a   4.70661100
_cell_length_b   5.06402215
_cell_length_c   17.36712546
_cell_angle_alpha   90.77285011
_cell_angle_beta   90.28529363
_cell_angle_gamma   90.10890004
_symmetry_Int_Tables_number   1
_chemical_formula_structural   V2OF5
_chemical_formula_sum   'V8 O4 F20'
_cell_volume   413.89111943
_cell_formula_units_Z   4
loop_
 _symmetry_equiv_pos_site_id
 _symmetry_equiv_pos_as_xyz
  1  'x, y, z'
loop_
 _atom_site_type_symbol
 _atom_site_label
 _atom_site_symmetry_multiplicity
 _atom_site_fract_x
 _atom_site_fract_y
 _atom_site_fract_z
 _atom_site_occupancy
  V  V0  1  0.00283700  0.25581100  0.95177500  1
  V  V1  1  0.02080400  0.75872600  0.71651000  1
  V  V2  1  0.02718900  0.76730200  0.05623600  1
  V  V3  1  0.47766500  0.76799200  0.55737400  1
  V  V4  1  0.49501400  0.23787700  0.78780200  1
  V  V5  1  0.50027700  0.25335900  0.45115800  1
  V  V6  1  0.49975700  0.75100900  0.21254900  1
  V  V7  1  0.97647400  0.28170200  0.28866300  1
  O  O8  1  0.24579800  0.86579700  0.62630000  1
  O  O9  1  0.23600800  0.93025100  0.77810900  1
  O  O10  1  0.25486900  0.86480400  0.12635900  1
  O  O11  1  0.75935200  0.54778100  0.28185700  1
  F  F12  1  0.22086700  0.92810900  0.96671100  1
  F  F13  1  0.24538600  0.95080500  0.28297800  1
  F  F14  1  0.25182700  0.43278500  0.71462000  1
  F  F15  1  0.24028300  0.39281600  0.37029100  1
  F  F16  1  0.22266100  0.42720100  0.03672900  1
  F  F17  1  0.25701800  0.39513000  0.87236100  1
  F  F18  1  0.28147600  0.42828000  0.53575500  1
  F  F19  1  0.25203200  0.42467300  0.21464900  1
  F  F20  1  0.28253000  0.92769900  0.46706500  1
  F  F21  1  0.70843400  0.57835200  0.47151800  1
  F  F22  1  0.71790800  0.06779600  0.53582700  1
  F  F23  1  0.75223800  0.56076900  0.78163000  1
  F  F24  1  0.74172100  0.11271800  0.87052600  1
  F  F25  1  0.75947800  0.06629700  0.21362900  1
  F  F26  1  0.74547700  0.61472900  0.12615800  1
  F  F27  1  0.75991200  0.62204400  0.62943600  1
  F  F28  1  0.75197000  0.06016600  0.71187000  1
  F  F29  1  0.75847400  0.10978900  0.37126900  1
  F  F30  1  0.79514600  0.58050500  0.96973500  1
  F  F31  1  0.78594000  0.06776800  0.03576900  1
