# generated using pymatgen
data_Na9Mn15O32
_symmetry_space_group_name_H-M   'P 1'
_cell_length_a   5.96075100
_cell_length_b   6.11613104
_cell_length_c   20.07737642
_cell_angle_alpha   88.70923135
_cell_angle_beta   97.99594322
_cell_angle_gamma   119.02224720
_symmetry_Int_Tables_number   1
_chemical_formula_structural   Na9Mn15O32
_chemical_formula_sum   'Na9 Mn15 O32'
_cell_volume   632.96748472
_cell_formula_units_Z   1
loop_
 _symmetry_equiv_pos_site_id
 _symmetry_equiv_pos_as_xyz
  1  'x, y, z'
loop_
 _atom_site_type_symbol
 _atom_site_label
 _atom_site_symmetry_multiplicity
 _atom_site_fract_x
 _atom_site_fract_y
 _atom_site_fract_z
 _atom_site_occupancy
  Na  Na0  1  0.56570300  0.03821300  0.09187100  1
  Na  Na1  1  0.00000000  0.00000000  0.00000000  1
  Na  Na2  1  0.43429700  0.96178700  0.90812900  1
  Na  Na3  1  0.05568500  0.26512600  0.84666500  1
  Na  Na4  1  0.55569700  0.52661100  0.59263500  1
  Na  Na5  1  0.44430300  0.47338900  0.40736500  1
  Na  Na6  1  0.95001500  0.23854600  0.65803800  1
  Na  Na7  1  0.04998500  0.76145400  0.34196200  1
  Na  Na8  1  0.94431500  0.73487400  0.15333500  1
  Mn  Mn9  1  0.00000000  0.50000000  0.00000000  1
  Mn  Mn10  1  0.74140300  0.60597100  0.87560300  1
  Mn  Mn11  1  0.50250400  0.25014100  0.75120100  1
  Mn  Mn12  1  0.25859700  0.39402900  0.12439700  1
  Mn  Mn13  1  0.50239500  0.75117800  0.75152200  1
  Mn  Mn14  1  0.00097900  0.75075400  0.75096400  1
  Mn  Mn15  1  0.50000000  0.50000000  0.00000000  1
  Mn  Mn16  1  0.25136400  0.87843200  0.62538200  1
  Mn  Mn17  1  0.99902100  0.24924600  0.24903600  1
  Mn  Mn18  1  0.00000000  0.00000000  0.50000000  1
  Mn  Mn19  1  0.50000000  0.00000000  0.50000000  1
  Mn  Mn20  1  0.49749600  0.74985900  0.24879900  1
  Mn  Mn21  1  0.74863600  0.12156800  0.37461800  1
  Mn  Mn22  1  0.00000000  0.50000000  0.50000000  1
  Mn  Mn23  1  0.49760500  0.24882200  0.24847800  1
  O  O24  1  0.94713300  0.26287000  0.06819200  1
  O  O25  1  0.35188000  0.65034500  0.05454900  1
  O  O26  1  0.64812000  0.34965500  0.94545100  1
  O  O27  1  0.84270100  0.64093200  0.04565000  1
  O  O28  1  0.05286700  0.73713000  0.93180800  1
  O  O29  1  0.61639200  0.73908200  0.93126200  1
  O  O30  1  0.84137900  0.45230100  0.80443100  1
  O  O31  1  0.38360800  0.26091800  0.06873800  1
  O  O32  1  0.64094100  0.57524800  0.70292500  1
  O  O33  1  0.83858400  0.86731000  0.80866300  1
  O  O34  1  0.33795000  0.12897700  0.55820100  1
  O  O35  1  0.15729900  0.35906800  0.95435000  1
  O  O36  1  0.36070100  0.92929900  0.79844900  1
  O  O37  1  0.08727800  0.29743300  0.44893800  1
  O  O38  1  0.16028700  0.04482300  0.69601100  1
  O  O39  1  0.59608000  0.04789100  0.70002500  1
  O  O40  1  0.41638600  0.45225700  0.80472100  1
  O  O41  1  0.91272200  0.70256700  0.55106200  1
  O  O42  1  0.33945300  0.71270400  0.55325700  1
  O  O43  1  0.16474300  0.87727500  0.44787700  1
  O  O44  1  0.35905900  0.42475200  0.29707500  1
  O  O45  1  0.66205000  0.87102300  0.44179900  1
  O  O46  1  0.83525700  0.12272500  0.55212300  1
  O  O47  1  0.16526700  0.63091200  0.69318700  1
  O  O48  1  0.15862100  0.54769900  0.19556900  1
  O  O49  1  0.66054700  0.28729600  0.44674300  1
  O  O50  1  0.40392000  0.95210900  0.29997500  1
  O  O51  1  0.83971300  0.95517700  0.30398900  1
  O  O52  1  0.83473300  0.36908800  0.30681300  1
  O  O53  1  0.63929900  0.07070100  0.20155100  1
  O  O54  1  0.16141600  0.13269000  0.19133700  1
  O  O55  1  0.58361400  0.54774300  0.19527900  1
