# generated using pymatgen
data_Na2VO3
_symmetry_space_group_name_H-M   'P 1'
_cell_length_a   5.40643848
_cell_length_b   5.40643157
_cell_length_c   5.69011126
_cell_angle_alpha   81.39473125
_cell_angle_beta   98.60536480
_cell_angle_gamma   58.75010621
_symmetry_Int_Tables_number   1
_chemical_formula_structural   Na2VO3
_chemical_formula_sum   'Na4 V2 O6'
_cell_volume   135.41198963
_cell_formula_units_Z   2
loop_
 _symmetry_equiv_pos_site_id
 _symmetry_equiv_pos_as_xyz
  1  'x, y, z'
loop_
 _atom_site_type_symbol
 _atom_site_label
 _atom_site_symmetry_multiplicity
 _atom_site_fract_x
 _atom_site_fract_y
 _atom_site_fract_z
 _atom_site_occupancy
  Na  Na0  1  0.15927200  0.15927100  0.50000300  1
  Na  Na1  1  0.84073100  0.84072300  0.50000200  1
  Na  Na2  1  0.50000000  0.49999700  0.50000300  1
  Na  Na3  1  0.00000000  0.00000100  0.99999900  1
  V  V4  1  0.66132700  0.66132700  0.00000000  1
  V  V5  1  0.33867400  0.33867300  0.00000100  1
  O  O6  1  0.30365600  0.69634200  0.79640800  1
  O  O7  1  0.08870200  0.54111400  0.20066600  1
  O  O8  1  0.45888800  0.91129900  0.20066000  1
  O  O9  1  0.91129300  0.45889500  0.79933300  1
  O  O10  1  0.54111200  0.08870700  0.79933300  1
  O  O11  1  0.69634400  0.30365100  0.20359400  1
