# generated using pymatgen
data_V6O5F8
_symmetry_space_group_name_H-M   'P 1'
_cell_length_a   5.10341400
_cell_length_b   4.97214200
_cell_length_c   31.02273788
_cell_angle_alpha   88.11773693
_cell_angle_beta   90.00000000
_cell_angle_gamma   90.00000000
_symmetry_Int_Tables_number   1
_chemical_formula_structural   V6O5F8
_chemical_formula_sum   'V24 O20 F32'
_cell_volume   786.77409590
_cell_formula_units_Z   4
loop_
 _symmetry_equiv_pos_site_id
 _symmetry_equiv_pos_as_xyz
  1  'x, y, z'
loop_
 _atom_site_type_symbol
 _atom_site_label
 _atom_site_symmetry_multiplicity
 _atom_site_fract_x
 _atom_site_fract_y
 _atom_site_fract_z
 _atom_site_occupancy
  V  V0  1  0.25491300  0.70586100  0.99935300  1
  V  V1  1  0.24508700  0.70586100  0.49935300  1
  V  V2  1  0.71352700  0.70931700  0.74343800  1
  V  V3  1  0.78647300  0.70931700  0.24343800  1
  V  V4  1  0.20544500  0.72893100  0.33831000  1
  V  V5  1  0.26828400  0.69253100  0.66083600  1
  V  V6  1  0.23171600  0.69253100  0.16083600  1
  V  V7  1  0.29455500  0.72893100  0.83831000  1
  V  V8  1  0.70879400  0.70858600  0.91860200  1
  V  V9  1  0.79120600  0.70858600  0.41860200  1
  V  V10  1  0.70655400  0.69660300  0.58156100  1
  V  V11  1  0.79344600  0.69660300  0.08156100  1
  V  V12  1  0.20655400  0.30339700  0.91843900  1
  V  V13  1  0.29120600  0.29141400  0.08139800  1
  V  V14  1  0.20879400  0.29141400  0.58139800  1
  V  V15  1  0.29344600  0.30339700  0.41843900  1
  V  V16  1  0.76828400  0.30746900  0.83916400  1
  V  V17  1  0.70544500  0.27106900  0.16169000  1
  V  V18  1  0.73171600  0.30746900  0.33916400  1
  V  V19  1  0.79455500  0.27106900  0.66169000  1
  V  V20  1  0.28647300  0.29068300  0.25656200  1
  V  V21  1  0.21352700  0.29068300  0.75656200  1
  V  V22  1  0.75491300  0.29413900  0.50064700  1
  V  V23  1  0.74508700  0.29413900  0.00064700  1
  O  O24  1  0.00025300  0.51459500  0.70885800  1
  O  O25  1  0.49974700  0.51459500  0.20885800  1
  O  O26  1  0.50357200  0.52717500  0.12294900  1
  O  O27  1  0.50161600  0.55012400  0.37376400  1
  O  O28  1  0.99642800  0.52717500  0.62294900  1
  O  O29  1  0.99838400  0.55012400  0.87376400  1
  O  O30  1  0.52824900  0.51987800  0.45839300  1
  O  O31  1  0.52965200  0.52048800  0.04103300  1
  O  O32  1  0.97175100  0.51987800  0.95839300  1
  O  O33  1  0.97034800  0.52048800  0.54103300  1
  O  O34  1  0.02965200  0.47951200  0.45896700  1
  O  O35  1  0.47034800  0.47951200  0.95896700  1
  O  O36  1  0.47175100  0.48012200  0.54160700  1
  O  O37  1  0.02824900  0.48012200  0.04160700  1
  O  O38  1  0.00161600  0.44987600  0.12623600  1
  O  O39  1  0.49838400  0.44987600  0.62623600  1
  O  O40  1  0.00357200  0.47282500  0.37705100  1
  O  O41  1  0.49642800  0.47282500  0.87705100  1
  O  O42  1  0.50025300  0.48540500  0.79114200  1
  O  O43  1  0.99974700  0.48540500  0.29114200  1
  F  F44  1  0.61430200  0.96662300  0.96512200  1
  F  F45  1  0.61333700  0.97203600  0.53540500  1
  F  F46  1  0.88569800  0.96662300  0.46512200  1
  F  F47  1  0.88666300  0.97203600  0.03540500  1
  F  F48  1  0.37027500  0.94571700  0.89309700  1
  F  F49  1  0.37719700  0.92959300  0.60758300  1
  F  F50  1  0.12972500  0.94571700  0.39309700  1
  F  F51  1  0.12280300  0.92959300  0.10758300  1
  F  F52  1  0.61825300  0.95164500  0.82389300  1
  F  F53  1  0.62094900  0.88972000  0.68242900  1
  F  F54  1  0.87905100  0.88972000  0.18242900  1
  F  F55  1  0.88174700  0.95164500  0.32389300  1
  F  F56  1  0.37326100  0.93230200  0.75027500  1
  F  F57  1  0.12673900  0.93230200  0.25027500  1
  F  F58  1  0.50605500  0.58146400  0.29086500  1
  F  F59  1  0.99394500  0.58146400  0.79086500  1
  F  F60  1  0.49394500  0.41853600  0.70913500  1
  F  F61  1  0.00605500  0.41853600  0.20913500  1
  F  F62  1  0.62673900  0.06769800  0.24972500  1
  F  F63  1  0.87326100  0.06769800  0.74972500  1
  F  F64  1  0.12094900  0.11028000  0.81757100  1
  F  F65  1  0.38174700  0.04835500  0.17610700  1
  F  F66  1  0.11825300  0.04835500  0.67610700  1
  F  F67  1  0.37905100  0.11028000  0.31757100  1
  F  F68  1  0.62280300  0.07040700  0.39241700  1
  F  F69  1  0.87719700  0.07040700  0.89241700  1
  F  F70  1  0.62972500  0.05428300  0.10690300  1
  F  F71  1  0.87027500  0.05428300  0.60690300  1
  F  F72  1  0.11430200  0.03337700  0.53487800  1
  F  F73  1  0.11333700  0.02796400  0.96459500  1
  F  F74  1  0.38666300  0.02796400  0.46459500  1
  F  F75  1  0.38569800  0.03337700  0.03487800  1
