# generated using pymatgen
data_Ti5O8
_symmetry_space_group_name_H-M   'P 1'
_cell_length_a   5.52365900
_cell_length_b   9.07462880
_cell_length_c   9.08277303
_cell_angle_alpha   68.12044372
_cell_angle_beta   84.78750338
_cell_angle_gamma   84.73311659
_symmetry_Int_Tables_number   1
_chemical_formula_structural   Ti5O8
_chemical_formula_sum   'Ti15 O24'
_cell_volume   419.90674352
_cell_formula_units_Z   3
loop_
 _symmetry_equiv_pos_site_id
 _symmetry_equiv_pos_as_xyz
  1  'x, y, z'
loop_
 _atom_site_type_symbol
 _atom_site_label
 _atom_site_symmetry_multiplicity
 _atom_site_fract_x
 _atom_site_fract_y
 _atom_site_fract_z
 _atom_site_occupancy
  Ti  Ti0  1  0.32335500  0.07116700  0.06882500  1
  Ti  Ti1  1  0.80017200  0.59301700  0.06973800  1
  Ti  Ti2  1  0.69618900  0.17429100  0.17410700  1
  Ti  Ti3  1  0.19015100  0.67281900  0.17330700  1
  Ti  Ti4  1  0.69475300  0.42132500  0.42230600  1
  Ti  Ti5  1  0.80442500  0.06728500  0.59219400  1
  Ti  Ti6  1  0.80954900  0.82638100  0.31997700  1
  Ti  Ti7  1  0.30669600  0.32488400  0.32658100  1
  Ti  Ti8  1  0.19211200  0.17394100  0.67283000  1
  Ti  Ti9  1  0.80245900  0.32181000  0.83185600  1
  Ti  Ti10  1  0.69437500  0.67342100  0.67432800  1
  Ti  Ti11  1  0.19297900  0.92489400  0.42330800  1
  Ti  Ti12  1  0.30819300  0.57742900  0.57749000  1
  Ti  Ti13  1  0.31673600  0.83670200  0.83017100  1
  Ti  Ti14  1  0.19217600  0.42392400  0.92580000  1
  O  O15  1  0.84300000  0.37772300  0.03251100  1
  O  O16  1  0.00259300  0.03209500  0.21687200  1
  O  O17  1  0.34257900  0.27950300  0.12704700  1
  O  O18  1  0.83928600  0.76639900  0.14123700  1
  O  O19  1  0.00109600  0.46622400  0.28023900  1
  O  O20  1  0.32541500  0.87284400  0.03354200  1
  O  O21  1  0.65677900  0.21527500  0.37886900  1
  O  O22  1  0.50096100  0.52884500  0.21945200  1
  O  O23  1  0.84127100  0.28095100  0.62757200  1
  O  O24  1  0.50105000  0.96765700  0.28078700  1
  O  O25  1  0.65758400  0.62424400  0.46959100  1
  O  O26  1  0.14921200  0.12758100  0.46687600  1
  O  O27  1  0.84633900  0.87422400  0.53037900  1
  O  O28  1  0.34472900  0.37627800  0.52946400  1
  O  O29  1  0.00084700  0.53214800  0.72020000  1
  O  O30  1  0.49129600  0.03533900  0.70831400  1
  O  O31  1  0.15759500  0.72002200  0.37486000  1
  O  O32  1  0.34997900  0.78254500  0.62562300  1
  O  O33  1  0.49856700  0.46836600  0.78006900  1
  O  O34  1  0.02615500  0.96681400  0.76710600  1
  O  O35  1  0.64316000  0.14065300  0.96936500  1
  O  O36  1  0.65063300  0.70805000  0.87210600  1
  O  O37  1  0.15416600  0.22093900  0.87474400  1
  O  O38  1  0.15947700  0.62901300  0.96738000  1
