# generated using pymatgen
data_Al2CrIr
_symmetry_space_group_name_H-M   'P 1'
_cell_length_a   10.19328039
_cell_length_b   10.19328039
_cell_length_c   10.19328039
_cell_angle_alpha   120.59657197
_cell_angle_beta   119.74615235
_cell_angle_gamma   89.70503339
_symmetry_Int_Tables_number   1
_chemical_formula_structural   Al2CrIr
_chemical_formula_sum   'Al2 Cr1 Ir1'
_cell_volume   746.90306899
_cell_formula_units_Z   1
loop_
 _symmetry_equiv_pos_site_id
 _symmetry_equiv_pos_as_xyz
  1  'x, y, z'
loop_
 _atom_site_type_symbol
 _atom_site_label
 _atom_site_symmetry_multiplicity
 _atom_site_fract_x
 _atom_site_fract_y
 _atom_site_fract_z
 _atom_site_occupancy
  Al  Al0  1  0.00000000  0.26789300  0.26789300  1
  Al  Al1  1  0.00000000  0.73210700  0.73210700  1
  Cr  Cr2  1  0.00000000  0.00000000  0.00000000  1
  Ir  Ir3  1  0.00000000  0.50000000  0.50000000  1
