# generated using pymatgen
data_Ta2MnO6
_symmetry_space_group_name_H-M   'P 1'
_cell_length_a   7.57045160
_cell_length_b   7.57045160
_cell_length_c   15.55375318
_cell_angle_alpha   89.36287667
_cell_angle_beta   89.36287667
_cell_angle_gamma   100.84728638
_symmetry_Int_Tables_number   1
_chemical_formula_structural   Ta2MnO6
_chemical_formula_sum   'Ta16 Mn8 O48'
_cell_volume   875.35174213
_cell_formula_units_Z   8
loop_
 _symmetry_equiv_pos_site_id
 _symmetry_equiv_pos_as_xyz
  1  'x, y, z'
loop_
 _atom_site_type_symbol
 _atom_site_label
 _atom_site_symmetry_multiplicity
 _atom_site_fract_x
 _atom_site_fract_y
 _atom_site_fract_z
 _atom_site_occupancy
  Ta  Ta0  1  0.65903600  0.83807500  0.91692000  1
  Ta  Ta1  1  0.83076100  0.66412800  0.74836700  1
  Ta  Ta2  1  0.66230300  0.83500300  0.58696700  1
  Ta  Ta3  1  0.83807500  0.65903600  0.41692000  1
  Ta  Ta4  1  0.66412800  0.83076100  0.24836700  1
  Ta  Ta5  1  0.83500300  0.66230300  0.08696700  1
  Ta  Ta6  1  0.16620500  0.83336200  0.91590800  1
  Ta  Ta7  1  0.16663800  0.83379500  0.58409200  1
  Ta  Ta8  1  0.83336200  0.16620500  0.41590800  1
  Ta  Ta9  1  0.83379500  0.16663800  0.08409200  1
  Ta  Ta10  1  0.16499700  0.33769700  0.91303300  1
  Ta  Ta11  1  0.33587200  0.16923900  0.75163300  1
  Ta  Ta12  1  0.16192500  0.34096400  0.58308000  1
  Ta  Ta13  1  0.33769700  0.16499700  0.41303300  1
  Ta  Ta14  1  0.16923900  0.33587200  0.25163300  1
  Ta  Ta15  1  0.34096400  0.16192500  0.08308000  1
  Mn  Mn16  1  0.66651500  0.34305000  0.91497500  1
  Mn  Mn17  1  0.83060100  0.16939900  0.75000000  1
  Mn  Mn18  1  0.34171700  0.65828300  0.75000000  1
  Mn  Mn19  1  0.65695000  0.33348500  0.58502500  1
  Mn  Mn20  1  0.34305000  0.66651500  0.41497500  1
  Mn  Mn21  1  0.16939900  0.83060100  0.25000000  1
  Mn  Mn22  1  0.65828300  0.34171700  0.25000000  1
  Mn  Mn23  1  0.33348500  0.65695000  0.08502500  1
  O  O24  1  0.93198400  0.80866700  0.86131600  1
  O  O25  1  0.80155300  0.91353700  0.68839500  1
  O  O26  1  0.93262500  0.80436000  0.52856400  1
  O  O27  1  0.80866700  0.93198400  0.36131600  1
  O  O28  1  0.91353700  0.80155300  0.18839500  1
  O  O29  1  0.80436000  0.93262500  0.02856400  1
  O  O30  1  0.69854200  0.60261100  0.98095300  1
  O  O31  1  0.59930800  0.70118800  0.81227500  1
  O  O32  1  0.69326700  0.59176600  0.64494300  1
  O  O33  1  0.60261100  0.69854200  0.48095300  1
  O  O34  1  0.70118800  0.59930800  0.31227500  1
  O  O35  1  0.41923300  0.81079800  0.96225600  1
  O  O36  1  0.59176600  0.69326700  0.14494300  1
  O  O37  1  0.93492500  0.29660800  0.97700400  1
  O  O38  1  0.81593700  0.44049700  0.80021000  1
  O  O39  1  0.29576900  0.92832000  0.80794300  1
  O  O40  1  0.42183500  0.81431100  0.63062600  1
  O  O41  1  0.93216000  0.30709300  0.63029000  1
  O  O42  1  0.81079800  0.41923300  0.46225600  1
  O  O43  1  0.29660800  0.93492500  0.47700400  1
  O  O44  1  0.44049700  0.81593700  0.30021000  1
  O  O45  1  0.92832000  0.29576900  0.30794300  1
  O  O46  1  0.81431100  0.42183500  0.13062600  1
  O  O47  1  0.30709300  0.93216000  0.13029000  1
  O  O48  1  0.69290700  0.06784000  0.86971000  1
  O  O49  1  0.18568900  0.57816500  0.86937400  1
  O  O50  1  0.07168000  0.70423100  0.69205700  1
  O  O51  1  0.55950300  0.18406300  0.69979000  1
  O  O52  1  0.70339200  0.06507500  0.52299600  1
  O  O53  1  0.18920200  0.58076700  0.53774400  1
  O  O54  1  0.06784000  0.69290700  0.36971000  1
  O  O55  1  0.57816500  0.18568900  0.36937400  1
  O  O56  1  0.70423100  0.07168000  0.19205700  1
  O  O57  1  0.18406300  0.55950300  0.19979000  1
  O  O58  1  0.06507500  0.70339200  0.02299600  1
  O  O59  1  0.40823400  0.30673300  0.85505700  1
  O  O60  1  0.58076700  0.18920200  0.03774400  1
  O  O61  1  0.29881200  0.40069200  0.68772500  1
  O  O62  1  0.39738900  0.30145800  0.51904700  1
  O  O63  1  0.30673300  0.40823400  0.35505700  1
  O  O64  1  0.40069200  0.29881200  0.18772500  1
  O  O65  1  0.30145800  0.39738900  0.01904700  1
  O  O66  1  0.19564000  0.06737500  0.97143600  1
  O  O67  1  0.08646300  0.19844700  0.81160500  1
  O  O68  1  0.19133300  0.06801600  0.63868400  1
  O  O69  1  0.06737500  0.19564000  0.47143600  1
  O  O70  1  0.19844700  0.08646300  0.31160500  1
  O  O71  1  0.06801600  0.19133300  0.13868400  1
