# generated using pymatgen
data_V2OF4
_symmetry_space_group_name_H-M   'P 1'
_cell_length_a   4.92698817
_cell_length_b   6.86738258
_cell_length_c   5.71055409
_cell_angle_alpha   102.07371464
_cell_angle_beta   90.01372942
_cell_angle_gamma   68.99986529
_symmetry_Int_Tables_number   1
_chemical_formula_structural   V2OF4
_chemical_formula_sum   'V4 O2 F8'
_cell_volume   175.80371705
_cell_formula_units_Z   2
loop_
 _symmetry_equiv_pos_site_id
 _symmetry_equiv_pos_as_xyz
  1  'x, y, z'
loop_
 _atom_site_type_symbol
 _atom_site_label
 _atom_site_symmetry_multiplicity
 _atom_site_fract_x
 _atom_site_fract_y
 _atom_site_fract_z
 _atom_site_occupancy
  V  V0  1  0.88955500  0.72567800  0.71217900  1
  V  V1  1  0.38270400  0.72471700  0.21235500  1
  V  V2  1  0.61541500  0.27348600  0.78513200  1
  V  V3  1  0.10857300  0.27252000  0.28499500  1
  O  O4  1  0.86930800  0.99985300  0.74902400  1
  O  O5  1  0.12995800  0.99835900  0.24804300  1
  F  F6  1  0.69499200  0.76578700  0.03576600  1
  F  F7  1  0.53551800  0.76915600  0.53660100  1
  F  F8  1  0.27803000  0.59578400  0.86731100  1
  F  F9  1  0.12280400  0.59616800  0.36729400  1
  F  F10  1  0.87399100  0.40285100  0.62955600  1
  F  F11  1  0.71977900  0.40168500  0.13071200  1
  F  F12  1  0.46165400  0.23114400  0.46126600  1
  F  F13  1  0.30449500  0.23030400  0.96100500  1
