# generated using pymatgen
data_InFe29O40
_symmetry_space_group_name_H-M   'P 1'
_cell_length_a   10.55692637
_cell_length_b   10.55692637
_cell_length_c   10.55692637
_cell_angle_alpha   99.62629264
_cell_angle_beta   99.62629264
_cell_angle_gamma   131.72511778
_symmetry_Int_Tables_number   1
_chemical_formula_structural   InFe29O40
_chemical_formula_sum   'In1 Fe29 O40'
_cell_volume   801.34180333
_cell_formula_units_Z   1
loop_
 _symmetry_equiv_pos_site_id
 _symmetry_equiv_pos_as_xyz
  1  'x, y, z'
loop_
 _atom_site_type_symbol
 _atom_site_label
 _atom_site_symmetry_multiplicity
 _atom_site_fract_x
 _atom_site_fract_y
 _atom_site_fract_z
 _atom_site_occupancy
  In  In0  1  0.75000000  0.25000000  0.50000000  1
  Fe  Fe1  1  0.07884800  0.72939200  0.54833700  1
  Fe  Fe2  1  0.67942000  0.53106300  0.45127600  1
  Fe  Fe3  1  0.46948900  0.92115200  0.65054400  1
  Fe  Fe4  1  0.20121600  0.60107400  0.80177400  1
  Fe  Fe5  1  0.39892600  0.20070000  0.60014200  1
  Fe  Fe6  1  0.18105500  0.53051100  0.45166300  1
  Fe  Fe7  1  0.87553800  0.62559700  0.75219900  1
  Fe  Fe8  1  0.77185600  0.32058000  0.85164300  1
  Fe  Fe9  1  0.97358600  0.92392400  0.64754900  1
  Fe  Fe10  1  0.07978700  0.22814400  0.54872400  1
  Fe  Fe11  1  0.55453500  0.65395900  0.70171400  1
  Fe  Fe12  1  0.34604100  0.04775500  0.90057600  1
  Fe  Fe13  1  0.46893700  0.92021300  0.14835700  1
  Fe  Fe14  1  0.07607600  0.72362500  0.04966200  1
  Fe  Fe15  1  0.67397800  0.52425300  0.94964500  1
  Fe  Fe16  1  0.87666100  0.12446200  0.75005900  1
  Fe  Fe17  1  0.27566700  0.32602200  0.85027600  1
  Fe  Fe18  1  0.79930000  0.39944200  0.19822600  1
  Fe  Fe19  1  0.00000000  0.00000000  0.00000000  1
  Fe  Fe20  1  0.37440300  0.12660200  0.24994100  1
  Fe  Fe21  1  0.67396300  0.02641400  0.95033800  1
  Fe  Fe22  1  0.57460900  0.72433300  0.05035500  1
  Fe  Fe23  1  0.27060800  0.81894500  0.34945600  1
  Fe  Fe24  1  0.47574700  0.42539100  0.14972400  1
  Fe  Fe25  1  0.95224500  0.85282100  0.29828600  1
  Fe  Fe26  1  0.14717900  0.44546500  0.09942400  1
  Fe  Fe27  1  0.27637500  0.32603700  0.35245100  1
  Fe  Fe28  1  0.87339800  0.12333900  0.24780100  1
  Fe  Fe29  1  0.60055800  0.79878400  0.39985800  1
  O  O30  1  0.42477000  0.77880500  0.44530100  1
  O  O31  1  0.22119500  0.66649500  0.64596500  1
  O  O32  1  0.33350500  0.97947000  0.55469900  1
  O  O33  1  0.82645300  0.49596900  0.56200800  1
  O  O34  1  0.73555600  0.17354700  0.66951600  1
  O  O35  1  0.92657200  0.78812000  0.45756600  1
  O  O36  1  0.53099400  0.07342800  0.86154700  1
  O  O37  1  0.33055300  0.46900600  0.54243400  1
  O  O38  1  0.10765500  0.86809800  0.74594600  1
  O  O39  1  0.91352800  0.25416100  0.94453400  1
  O  O40  1  0.74583900  0.69037400  0.65936800  1
  O  O41  1  0.63432800  0.39142500  0.75654600  1
  O  O42  1  0.83113900  0.97796500  0.56191100  1
  O  O43  1  0.02203500  0.58394600  0.85317400  1
  O  O44  1  0.21701900  0.17390100  0.65745000  1
  O  O45  1  0.91447800  0.74930500  0.94564200  1
  O  O46  1  0.73077200  0.16886100  0.14682600  1
  O  O47  1  0.82609900  0.48354900  0.04311800  1
  O  O48  1  0.03116500  0.08552200  0.83482700  1
  O  O49  1  0.12221900  0.36567200  0.75709800  1
  O  O50  1  0.21188000  0.66944700  0.13845300  1
  O  O51  1  0.43010100  0.28898300  0.95273400  1
  O  O52  1  0.52263200  0.56989900  0.85888100  1
  O  O53  1  0.30962600  0.96899400  0.05546600  1
  O  O54  1  0.63829100  0.89234500  0.76044300  1
  O  O55  1  0.50403100  0.06603900  0.33048400  1
  O  O56  1  0.13190200  0.87784800  0.23955700  1
  O  O57  1  0.33624900  0.47736800  0.04726600  1
  O  O58  1  0.71101700  0.66375100  0.14111900  1
  O  O59  1  0.60857500  0.36512100  0.24290200  1
  O  O60  1  0.25069500  0.19633700  0.16517300  1
  O  O61  1  0.02053000  0.57523000  0.35403500  1
  O  O62  1  0.80366300  0.96883500  0.05435800  1
  O  O63  1  0.44043100  0.78298100  0.95688200  1
  O  O64  1  0.41605400  0.26922800  0.43808900  1
  O  O65  1  0.51645100  0.55956900  0.34255000  1
  O  O66  1  0.63487900  0.87778100  0.24345400  1
  O  O67  1  0.03100600  0.08647200  0.34063200  1
  O  O68  1  0.12215200  0.36170900  0.25405400  1
  O  O69  1  0.93396100  0.26444400  0.43799200  1
