# generated using pymatgen
data_W2OF8
_symmetry_space_group_name_H-M   'P 1'
_cell_length_a   5.50792100
_cell_length_b   9.23492000
_cell_length_c   15.97726820
_cell_angle_alpha   74.34052050
_cell_angle_beta   90.00000000
_cell_angle_gamma   90.00000000
_symmetry_Int_Tables_number   1
_chemical_formula_structural   W2OF8
_chemical_formula_sum   'W8 O4 F32'
_cell_volume   782.52249350
_cell_formula_units_Z   4
loop_
 _symmetry_equiv_pos_site_id
 _symmetry_equiv_pos_as_xyz
  1  'x, y, z'
loop_
 _atom_site_type_symbol
 _atom_site_label
 _atom_site_symmetry_multiplicity
 _atom_site_fract_x
 _atom_site_fract_y
 _atom_site_fract_z
 _atom_site_occupancy
  W  W0  1  0.80855800  0.88803200  0.87612500  1
  W  W1  1  0.19144200  0.88803200  0.37612500  1
  W  W2  1  0.07791100  0.52053600  0.84310600  1
  W  W3  1  0.07791100  0.47946400  0.65689400  1
  W  W4  1  0.92208900  0.52053600  0.34310600  1
  W  W5  1  0.92208900  0.47946400  0.15689400  1
  W  W6  1  0.80855800  0.11196800  0.62387500  1
  W  W7  1  0.19144200  0.11196800  0.12387500  1
  O  O8  1  0.93283900  0.71088200  0.86759000  1
  O  O9  1  0.06716100  0.71088200  0.36759000  1
  O  O10  1  0.93283900  0.28911800  0.63241000  1
  O  O11  1  0.06716100  0.28911800  0.13241000  1
  F  F12  1  0.93002200  0.00000000  0.75000000  1
  F  F13  1  0.10990100  0.94965500  0.91128300  1
  F  F14  1  0.67143700  0.81291600  0.98567500  1
  F  F15  1  0.52517300  0.86757400  0.81375500  1
  F  F16  1  0.69810700  0.91623700  0.62338800  1
  F  F17  1  0.06997800  0.00000000  0.25000000  1
  F  F18  1  0.89009900  0.94965500  0.41128300  1
  F  F19  1  0.32856300  0.81291600  0.48567500  1
  F  F20  1  0.47482700  0.86757400  0.31375500  1
  F  F21  1  0.30189300  0.91623700  0.12338800  1
  F  F22  1  0.19996800  0.64622800  0.71970300  1
  F  F23  1  0.38022900  0.54105000  0.89759500  1
  F  F24  1  0.90228100  0.61233900  0.56357700  1
  F  F25  1  0.81314300  0.50000000  0.75000000  1
  F  F26  1  0.80003200  0.64622800  0.21970300  1
  F  F27  1  0.90228100  0.38766100  0.93642300  1
  F  F28  1  0.61977100  0.54105000  0.39759500  1
  F  F29  1  0.38022900  0.45895000  0.60240500  1
  F  F30  1  0.09771900  0.61233900  0.06357700  1
  F  F31  1  0.19996800  0.35377200  0.78029700  1
  F  F32  1  0.18685700  0.50000000  0.25000000  1
  F  F33  1  0.09771900  0.38766100  0.43642300  1
  F  F34  1  0.61977100  0.45895000  0.10240500  1
  F  F35  1  0.80003200  0.35377200  0.28029700  1
  F  F36  1  0.69810700  0.08376300  0.87661200  1
  F  F37  1  0.52517300  0.13242600  0.68624500  1
  F  F38  1  0.67143700  0.18708400  0.51432500  1
  F  F39  1  0.10990100  0.05034500  0.58871700  1
  F  F40  1  0.30189300  0.08376300  0.37661200  1
  F  F41  1  0.47482700  0.13242600  0.18624500  1
  F  F42  1  0.32856300  0.18708400  0.01432500  1
  F  F43  1  0.89009900  0.05034500  0.08871700  1
