# generated using pymatgen
data_Na2V2(PO4)3
_symmetry_space_group_name_H-M   'P 1'
_cell_length_a   9.05514500
_cell_length_b   8.61364300
_cell_length_c   15.05210361
_cell_angle_alpha   55.22801614
_cell_angle_beta   90.00000000
_cell_angle_gamma   90.00000000
_symmetry_Int_Tables_number   1
_chemical_formula_structural   Na2V2(PO4)3
_chemical_formula_sum   'Na8 V8 P12 O48'
_cell_volume   964.38194586
_cell_formula_units_Z   4
loop_
 _symmetry_equiv_pos_site_id
 _symmetry_equiv_pos_as_xyz
  1  'x, y, z'
loop_
 _atom_site_type_symbol
 _atom_site_label
 _atom_site_symmetry_multiplicity
 _atom_site_fract_x
 _atom_site_fract_y
 _atom_site_fract_z
 _atom_site_occupancy
  Na  Na0  1  0.80008400  0.96880900  0.83622900  1
  Na  Na1  1  0.70894000  0.59975600  0.17634100  1
  Na  Na2  1  0.20894000  0.40024400  0.32365900  1
  Na  Na3  1  0.30008400  0.03119100  0.66377100  1
  Na  Na4  1  0.69991600  0.96880900  0.33622900  1
  Na  Na5  1  0.79106000  0.59975600  0.67634100  1
  Na  Na6  1  0.29106000  0.40024400  0.82365900  1
  Na  Na7  1  0.19991600  0.03119100  0.16377100  1
  V  V8  1  0.53398500  0.35538700  0.39403500  1
  V  V9  1  0.96458800  0.14566300  0.60818200  1
  V  V10  1  0.03398500  0.64461300  0.10596500  1
  V  V11  1  0.46458800  0.85433700  0.89181800  1
  V  V12  1  0.53541200  0.14566300  0.10818200  1
  V  V13  1  0.96601500  0.35538700  0.89403500  1
  V  V14  1  0.03541200  0.85433700  0.39181800  1
  V  V15  1  0.46601500  0.64461300  0.60596500  1
  P  P16  1  0.24856200  0.46888500  0.50303900  1
  P  P17  1  0.38871400  0.74809900  0.14546600  1
  P  P18  1  0.11500000  0.03637100  0.85212900  1
  P  P19  1  0.88871400  0.25190100  0.35453400  1
  P  P20  1  0.61500000  0.96362900  0.64787100  1
  P  P21  1  0.74856200  0.53111500  0.99696100  1
  P  P22  1  0.25143800  0.46888500  0.00303900  1
  P  P23  1  0.38500000  0.03637100  0.35212900  1
  P  P24  1  0.11128600  0.74809900  0.64546600  1
  P  P25  1  0.88500000  0.96362900  0.14787100  1
  P  P26  1  0.61128600  0.25190100  0.85453400  1
  P  P27  1  0.75143800  0.53111500  0.49696100  1
  O  O28  1  0.67276900  0.51666500  0.41173500  1
  O  O29  1  0.85722800  0.35828500  0.57130200  1
  O  O30  1  0.89363500  0.80123700  0.13232400  1
  O  O31  1  0.57548400  0.07894600  0.84919300  1
  O  O32  1  0.35294600  0.45954700  0.42670500  1
  O  O33  1  0.44025400  0.80141100  0.03400300  1
  O  O34  1  0.22067600  0.71394700  0.16313800  1
  O  O35  1  0.01612400  0.08518200  0.75475800  1
  O  O36  1  0.15190900  0.28858900  0.56130500  1
  O  O37  1  0.04855800  0.85427800  0.95145700  1
  O  O38  1  0.27808700  0.01206800  0.82980800  1
  O  O39  1  0.47836700  0.57515400  0.23316400  1
  O  O40  1  0.97836700  0.42484600  0.26683600  1
  O  O41  1  0.77808700  0.98793200  0.67019200  1
  O  O42  1  0.54855800  0.14572200  0.54854300  1
  O  O43  1  0.65190900  0.71141100  0.93869500  1
  O  O44  1  0.51612400  0.91481800  0.74524200  1
  O  O45  1  0.72067600  0.28605300  0.33686200  1
  O  O46  1  0.94025400  0.19858900  0.46599700  1
  O  O47  1  0.85294600  0.54045300  0.07329500  1
  O  O48  1  0.07548400  0.92105400  0.65080700  1
  O  O49  1  0.39363500  0.19876300  0.36767600  1
  O  O50  1  0.35722800  0.64171500  0.92869800  1
  O  O51  1  0.17276900  0.48333500  0.08826500  1
  O  O52  1  0.82723100  0.51666500  0.91173500  1
  O  O53  1  0.64277200  0.35828500  0.07130200  1
  O  O54  1  0.60636500  0.80123700  0.63232400  1
  O  O55  1  0.92451600  0.07894600  0.34919300  1
  O  O56  1  0.14705400  0.45954700  0.92670500  1
  O  O57  1  0.05974600  0.80141100  0.53400300  1
  O  O58  1  0.27932400  0.71394700  0.66313800  1
  O  O59  1  0.48387600  0.08518200  0.25475800  1
  O  O60  1  0.34809100  0.28858900  0.06130500  1
  O  O61  1  0.45144200  0.85427800  0.45145700  1
  O  O62  1  0.22191300  0.01206800  0.32980800  1
  O  O63  1  0.02163300  0.57515400  0.73316400  1
  O  O64  1  0.52163300  0.42484600  0.76683600  1
  O  O65  1  0.72191300  0.98793200  0.17019200  1
  O  O66  1  0.95144200  0.14572200  0.04854300  1
  O  O67  1  0.84809100  0.71141100  0.43869500  1
  O  O68  1  0.98387600  0.91481800  0.24524200  1
  O  O69  1  0.77932400  0.28605300  0.83686200  1
  O  O70  1  0.55974600  0.19858900  0.96599700  1
  O  O71  1  0.64705400  0.54045300  0.57329500  1
  O  O72  1  0.42451600  0.92105400  0.15080700  1
  O  O73  1  0.10636500  0.19876300  0.86767600  1
  O  O74  1  0.14277200  0.64171500  0.42869800  1
  O  O75  1  0.32723100  0.48333500  0.58826500  1
