# generated using pymatgen
data_V3(OF)4
_symmetry_space_group_name_H-M   'P 1'
_cell_length_a   2.99993200
_cell_length_b   4.79117800
_cell_length_c   9.67409776
_cell_angle_alpha   89.33033451
_cell_angle_beta   90.00000000
_cell_angle_gamma   90.00000000
_symmetry_Int_Tables_number   1
_chemical_formula_structural   V3(OF)4
_chemical_formula_sum   'V3 O4 F4'
_cell_volume   139.03832401
_cell_formula_units_Z   1
loop_
 _symmetry_equiv_pos_site_id
 _symmetry_equiv_pos_as_xyz
  1  'x, y, z'
loop_
 _atom_site_type_symbol
 _atom_site_label
 _atom_site_symmetry_multiplicity
 _atom_site_fract_x
 _atom_site_fract_y
 _atom_site_fract_z
 _atom_site_occupancy
  V  V0  1  0.50000000  0.98192000  0.13757200  1
  V  V1  1  0.50000000  0.55487100  0.62904300  1
  V  V2  1  0.00000000  0.46848100  0.36180900  1
  O  O3  1  0.00000000  0.71193400  0.52605800  1
  O  O4  1  0.50000000  0.67560100  0.27294200  1
  O  O5  1  0.50000000  0.30511100  0.46550100  1
  O  O6  1  0.00000000  0.16300600  0.23006200  1
  F  F7  1  0.50000000  0.79538200  0.76527600  1
  F  F8  1  0.00000000  0.77269200  0.05341500  1
  F  F9  1  0.00000000  0.33012200  0.70538300  1
  F  F10  1  0.50000000  0.21175800  0.99345700  1
