# generated using pymatgen
data_Fe31Si5O48
_symmetry_space_group_name_H-M   'P 1'
_cell_length_a   10.43219700
_cell_length_b   10.44473446
_cell_length_c   10.51526846
_cell_angle_alpha   119.62360160
_cell_angle_beta   80.37527011
_cell_angle_gamma   109.96598422
_symmetry_Int_Tables_number   1
_chemical_formula_structural   Fe31Si5O48
_chemical_formula_sum   'Fe31 Si5 O48'
_cell_volume   936.13326124
_cell_formula_units_Z   1
loop_
 _symmetry_equiv_pos_site_id
 _symmetry_equiv_pos_as_xyz
  1  'x, y, z'
loop_
 _atom_site_type_symbol
 _atom_site_label
 _atom_site_symmetry_multiplicity
 _atom_site_fract_x
 _atom_site_fract_y
 _atom_site_fract_z
 _atom_site_occupancy
  Fe  Fe0  1  0.00370700  0.34093000  0.17379400  1
  Fe  Fe1  1  0.00137300  0.50311400  0.99946100  1
  Fe  Fe2  1  0.31107700  0.27095700  0.15750100  1
  Fe  Fe3  1  0.24892900  0.58727400  0.16958500  1
  Fe  Fe4  1  0.24889700  0.74939900  0.50224300  1
  Fe  Fe5  1  0.24837900  0.91450600  0.83340200  1
  Fe  Fe6  1  0.01381000  0.15265200  0.33313000  1
  Fe  Fe7  1  0.00245300  0.00109600  0.00452200  1
  Fe  Fe8  1  0.50003100  0.49742100  0.99840900  1
  Fe  Fe9  1  0.01394500  0.31777300  0.66521300  1
  Fe  Fe10  1  0.51537200  0.81783000  0.66580400  1
  Fe  Fe11  1  0.51455800  0.65292200  0.33754300  1
  Fe  Fe12  1  0.18654400  0.22839300  0.83783800  1
  Fe  Fe13  1  0.69082200  0.38905500  0.15753000  1
  Fe  Fe14  1  0.00367300  0.66789100  0.83210700  1
  Fe  Fe15  1  0.99762100  0.49964600  0.50103000  1
  Fe  Fe16  1  0.50407600  0.00169000  0.49971800  1
  Fe  Fe17  1  0.49610800  0.15594300  0.82320400  1
  Fe  Fe18  1  0.49392900  0.83347900  0.17609100  1
  Fe  Fe19  1  0.31137800  0.60977200  0.83913000  1
  Fe  Fe20  1  0.81003500  0.11047900  0.84192000  1
  Fe  Fe21  1  0.49691500  0.99911700  0.00018800  1
  Fe  Fe22  1  0.80866700  0.76853600  0.15850800  1
  Fe  Fe23  1  0.98510800  0.68322600  0.33564300  1
  Fe  Fe24  1  0.48440900  0.18368800  0.33441600  1
  Fe  Fe25  1  0.48569600  0.34790800  0.66398800  1
  Fe  Fe26  1  0.98531600  0.84669500  0.66625400  1
  Fe  Fe27  1  0.75026700  0.08691200  0.17198900  1
  Fe  Fe28  1  0.74968600  0.24979400  0.49968200  1
  Fe  Fe29  1  0.75572600  0.41520900  0.82429100  1
  Fe  Fe30  1  0.69157500  0.73257000  0.84356200  1
  Si  Si31  1  0.19896700  0.05087600  0.49417900  1
  Si  Si32  1  0.69487200  0.55464800  0.50028700  1
  Si  Si33  1  0.19287600  0.88864400  0.16599600  1
  Si  Si34  1  0.80629200  0.94519100  0.50010500  1
  Si  Si35  1  0.30278900  0.44305300  0.49881200  1
  O  O36  1  0.11811400  0.21449800  0.16971000  1
  O  O37  1  0.11961300  0.37526600  0.00867300  1
  O  O38  1  0.11527000  0.55786000  0.33606500  1
  O  O39  1  0.12074800  0.72099300  0.65446900  1
  O  O40  1  0.36306700  0.61301600  0.49830400  1
  O  O41  1  0.12296100  0.03572200  0.83463100  1
  O  O42  1  0.13255600  0.72151200  0.16769500  1
  O  O43  1  0.62283900  0.20039900  0.16720500  1
  O  O44  1  0.38286300  0.46709400  0.16155500  1
  O  O45  1  0.13576300  0.88269000  0.49570500  1
  O  O46  1  0.63910000  0.68469000  0.64949400  1
  O  O47  1  0.13958900  0.17947700  0.63884200  1
  O  O48  1  0.38538100  0.94454200  0.66027200  1
  O  O49  1  0.38591300  0.62777700  0.00643500  1
  O  O50  1  0.14703300  0.02034000  0.33310500  1
  O  O51  1  0.38495200  0.78293100  0.33932200  1
  O  O52  1  0.63961800  0.53474800  0.34982600  1
  O  O53  1  0.38167000  0.12691800  0.99100600  1
  O  O54  1  0.87317100  0.13484500  0.01715100  1
  O  O55  1  0.36676900  0.11803000  0.49669200  1
  O  O56  1  0.86405200  0.61805700  0.50046600  1
  O  O57  1  0.11972900  0.53929300  0.83263600  1
  O  O58  1  0.61691000  0.04398800  0.83147600  1
  O  O59  1  0.61166800  0.70307600  0.16282200  1
  O  O60  1  0.38392900  0.29584800  0.83696100  1
  O  O61  1  0.36278200  0.94628900  0.16788200  1
  O  O62  1  0.88500000  0.46152500  0.16834100  1
  O  O63  1  0.63678700  0.88166800  0.49821600  1
  O  O64  1  0.13359900  0.37846900  0.49788200  1
  O  O65  1  0.13215900  0.88494100  0.02972900  1
  O  O66  1  0.62319700  0.88269900  0.01586300  1
  O  O67  1  0.60962100  0.04593000  0.32076600  1
  O  O68  1  0.86172500  0.81551200  0.35094000  1
  O  O69  1  0.36099400  0.46245900  0.64677700  1
  O  O70  1  0.35997300  0.31463400  0.35072400  1
  O  O71  1  0.61241400  0.22414100  0.67709100  1
  O  O72  1  0.62051100  0.37211200  0.98674500  1
  O  O73  1  0.86125000  0.96402300  0.64947600  1
  O  O74  1  0.86876000  0.11362300  0.49799400  1
  O  O75  1  0.62262700  0.53414300  0.83897400  1
  O  O76  1  0.37779700  0.79797500  0.83291600  1
  O  O77  1  0.87128100  0.96646000  0.16893600  1
  O  O78  1  0.87215500  0.29776700  0.83274400  1
  O  O79  1  0.63213400  0.38573400  0.50083600  1
  O  O80  1  0.88055400  0.44277900  0.66854600  1
  O  O81  1  0.86821600  0.61441100  0.99208600  1
  O  O82  1  0.88410800  0.27657500  0.32286300  1
  O  O83  1  0.88320000  0.79423100  0.83608400  1
