# generated using pymatgen
data_Na2(NiO2)5
_symmetry_space_group_name_H-M   'P 1'
_cell_length_a   4.90126200
_cell_length_b   6.52850009
_cell_length_c   7.09681681
_cell_angle_alpha   113.14486989
_cell_angle_beta   96.52383749
_cell_angle_gamma   103.84405380
_symmetry_Int_Tables_number   1
_chemical_formula_structural   Na2(NiO2)5
_chemical_formula_sum   'Na2 Ni5 O10'
_cell_volume   197.17969466
_cell_formula_units_Z   1
loop_
 _symmetry_equiv_pos_site_id
 _symmetry_equiv_pos_as_xyz
  1  'x, y, z'
loop_
 _atom_site_type_symbol
 _atom_site_label
 _atom_site_symmetry_multiplicity
 _atom_site_fract_x
 _atom_site_fract_y
 _atom_site_fract_z
 _atom_site_occupancy
  Na  Na0  1  0.61859700  0.22725300  0.72817000  1
  Na  Na1  1  0.38140300  0.77274700  0.27183000  1
  Ni  Ni2  1  0.60116100  0.70052600  0.69724200  1
  Ni  Ni3  1  0.00000000  0.50000000  0.50000000  1
  Ni  Ni4  1  0.39883900  0.29947400  0.30275800  1
  Ni  Ni5  1  0.79913700  0.09870700  0.10373200  1
  Ni  Ni6  1  0.20086300  0.90129300  0.89626800  1
  O  O7  1  0.67291000  0.60020600  0.42603200  1
  O  O8  1  0.32709000  0.39979400  0.57396800  1
  O  O9  1  0.68606000  0.18225900  0.37132000  1
  O  O10  1  0.09292400  0.40723500  0.23730900  1
  O  O11  1  0.31394000  0.81774100  0.62868000  1
  O  O12  1  0.90707600  0.59276500  0.76269100  1
  O  O13  1  0.11188900  0.00114900  0.17617300  1
  O  O14  1  0.49588500  0.20877000  0.03774300  1
  O  O15  1  0.88811100  0.99885100  0.82382700  1
  O  O16  1  0.50411500  0.79123000  0.96225700  1
