# generated using pymatgen
data_Sn13(O5F3)2
_symmetry_space_group_name_H-M   'P 1'
_cell_length_a   8.35513878
_cell_length_b   8.35513878
_cell_length_c   23.03688606
_cell_angle_alpha   86.83078917
_cell_angle_beta   86.83078917
_cell_angle_gamma   50.65629917
_symmetry_Int_Tables_number   1
_chemical_formula_structural   Sn13(O5F3)2
_chemical_formula_sum   'Sn26 O20 F12'
_cell_volume   1241.35836852
_cell_formula_units_Z   2
loop_
 _symmetry_equiv_pos_site_id
 _symmetry_equiv_pos_as_xyz
  1  'x, y, z'
loop_
 _atom_site_type_symbol
 _atom_site_label
 _atom_site_symmetry_multiplicity
 _atom_site_fract_x
 _atom_site_fract_y
 _atom_site_fract_z
 _atom_site_occupancy
  Sn  Sn0  1  0.13068600  0.66508900  0.29371000  1
  Sn  Sn1  1  0.72655800  0.19166900  0.01403100  1
  Sn  Sn2  1  0.77140500  0.92941700  0.41703800  1
  Sn  Sn3  1  0.99355100  0.83614100  0.13469300  1
  Sn  Sn4  1  0.16038600  0.37625100  0.43730800  1
  Sn  Sn5  1  0.40738600  0.26437200  0.15462600  1
  Sn  Sn6  1  0.66508900  0.13068600  0.79371000  1
  Sn  Sn7  1  0.19166900  0.72655800  0.51403100  1
  Sn  Sn8  1  0.92941700  0.77140500  0.91703800  1
  Sn  Sn9  1  0.83614100  0.99355100  0.63469300  1
  Sn  Sn10  1  0.37625100  0.16038600  0.93730800  1
  Sn  Sn11  1  0.73562800  0.59261400  0.34537400  1
  Sn  Sn12  1  0.26437200  0.40738600  0.65462600  1
  Sn  Sn13  1  0.62374900  0.83961400  0.06269200  1
  Sn  Sn14  1  0.16385900  0.00644900  0.36530700  1
  Sn  Sn15  1  0.07058300  0.22859500  0.08296200  1
  Sn  Sn16  1  0.80833100  0.27344200  0.48596900  1
  Sn  Sn17  1  0.33491100  0.86931400  0.20629000  1
  Sn  Sn18  1  0.59261400  0.73562800  0.84537400  1
  Sn  Sn19  1  0.83961400  0.62374900  0.56269200  1
  Sn  Sn20  1  0.00644900  0.16385900  0.86530700  1
  Sn  Sn21  1  0.77835800  0.22164200  0.25000000  1
  Sn  Sn22  1  0.22859500  0.07058300  0.58296200  1
  Sn  Sn23  1  0.27344200  0.80833100  0.98596900  1
  Sn  Sn24  1  0.86931400  0.33491100  0.70629000  1
  Sn  Sn25  1  0.22164200  0.77835800  0.75000000  1
  O  O26  1  0.02197900  0.97086600  0.44150100  1
  O  O27  1  0.96251500  0.98407800  0.31613400  1
  O  O28  1  0.97086600  0.02197900  0.94150100  1
  O  O29  1  0.98407800  0.96251500  0.81613400  1
  O  O30  1  0.97117300  0.68137200  0.48248200  1
  O  O31  1  0.95131900  0.65485700  0.36123400  1
  O  O32  1  0.66712000  0.05612900  0.09803400  1
  O  O33  1  0.68137200  0.97117300  0.98248200  1
  O  O34  1  0.65485700  0.95131900  0.86123400  1
  O  O35  1  0.05612900  0.66712000  0.59803400  1
  O  O36  1  0.94387100  0.33288000  0.40196600  1
  O  O37  1  0.34514300  0.04868100  0.13876600  1
  O  O38  1  0.31862800  0.02882700  0.01751800  1
  O  O39  1  0.33288000  0.94387100  0.90196600  1
  O  O40  1  0.04868100  0.34514300  0.63876600  1
  O  O41  1  0.02882700  0.31862800  0.51751800  1
  O  O42  1  0.01592200  0.03748500  0.18386600  1
  O  O43  1  0.02913400  0.97802100  0.05849900  1
  O  O44  1  0.03748500  0.01592200  0.68386600  1
  O  O45  1  0.97802100  0.02913400  0.55849900  1
  F  F46  1  0.33607400  0.59026800  0.35857200  1
  F  F47  1  0.59026800  0.33607400  0.85857200  1
  F  F48  1  0.69756900  0.01515400  0.22395200  1
  F  F49  1  0.23200600  0.38528400  0.07098500  1
  F  F50  1  0.01515400  0.69756900  0.72395200  1
  F  F51  1  0.61471600  0.76799400  0.42901500  1
  F  F52  1  0.38528400  0.23200600  0.57098500  1
  F  F53  1  0.98484600  0.30243100  0.27604800  1
  F  F54  1  0.76799400  0.61471600  0.92901500  1
  F  F55  1  0.30243100  0.98484600  0.77604800  1
  F  F56  1  0.40973200  0.66392600  0.14142800  1
  F  F57  1  0.66392600  0.40973200  0.64142800  1
