# generated using pymatgen
data_Ta22W4O67
_symmetry_space_group_name_H-M   'P 1'
_cell_length_a   24.43251933
_cell_length_b   6.19633343
_cell_length_c   7.75348100
_cell_angle_alpha   90.00121611
_cell_angle_beta   90.00043795
_cell_angle_gamma   82.85759494
_symmetry_Int_Tables_number   1
_chemical_formula_structural   Ta22W4O67
_chemical_formula_sum   'Ta22 W4 O67'
_cell_volume   1164.70669112
_cell_formula_units_Z   1
loop_
 _symmetry_equiv_pos_site_id
 _symmetry_equiv_pos_as_xyz
  1  'x, y, z'
loop_
 _atom_site_type_symbol
 _atom_site_label
 _atom_site_symmetry_multiplicity
 _atom_site_fract_x
 _atom_site_fract_y
 _atom_site_fract_z
 _atom_site_occupancy
  Ta  Ta0  1  0.31060200  0.92520500  0.00001800  1
  Ta  Ta1  1  0.30802000  0.92366100  0.49997500  1
  Ta  Ta2  1  0.15885300  0.93780100  0.49998500  1
  Ta  Ta3  1  0.15740200  0.94150600  0.99998300  1
  Ta  Ta4  1  0.45590500  0.76001500  0.99859100  1
  Ta  Ta5  1  0.45717400  0.76148700  0.50082800  1
  Ta  Ta6  1  0.61461500  0.66688800  0.01507200  1
  Ta  Ta7  1  0.61471100  0.66748900  0.48571300  1
  Ta  Ta8  1  0.77372600  0.58038800  0.50095100  1
  Ta  Ta9  1  0.77351600  0.58053800  0.99902300  1
  Ta  Ta10  1  0.92515800  0.48912500  0.49995300  1
  Ta  Ta11  1  0.92482700  0.49107600  0.00000800  1
  Ta  Ta12  1  0.07425600  0.51220800  0.49997600  1
  Ta  Ta13  1  0.07376900  0.51431900  0.99997100  1
  Ta  Ta14  1  0.22634600  0.41983800  0.49998800  1
  Ta  Ta15  1  0.38747300  0.33583500  0.00013200  1
  Ta  Ta16  1  0.54305300  0.24353300  0.50259400  1
  Ta  Ta17  1  0.54241100  0.24257300  0.99773800  1
  Ta  Ta18  1  0.84058600  0.06269100  0.49978100  1
  Ta  Ta19  1  0.84003700  0.06405000  0.00015300  1
  Ta  Ta20  1  0.69228700  0.07785400  0.50231700  1
  Ta  Ta21  1  0.69199100  0.07748400  0.99758400  1
  W  W22  1  0.22866400  0.41844100  0.99998800  1
  W  W23  1  0.38557200  0.33450000  0.49973300  1
  W  W24  1  0.99958200  0.00216500  0.00002100  1
  W  W25  1  0.00006100  0.00058300  0.50003200  1
  O  O26  1  0.77102300  0.91556600  0.49750900  1
  O  O27  1  0.77099300  0.91564900  0.00251400  1
  O  O28  1  0.60599100  0.98514700  0.52351400  1
  O  O29  1  0.60605900  0.98488400  0.97699100  1
  O  O30  1  0.87807300  0.76940200  0.00005800  1
  O  O31  1  0.87815000  0.76872100  0.49989300  1
  O  O32  1  0.98769000  0.69656800  0.49999600  1
  O  O33  1  0.98784700  0.69655600  0.99996900  1
  O  O34  1  0.30971600  0.92568300  0.74999200  1
  O  O35  1  0.30966300  0.92573800  0.25003200  1
  O  O36  1  0.69105400  0.72331700  0.51946100  1
  O  O37  1  0.69117400  0.72419400  0.98034900  1
  O  O38  1  0.77571400  0.60338400  0.24997400  1
  O  O39  1  0.77969000  0.60146700  0.74998100  1
  O  O40  1  0.61057300  0.68426600  0.25048200  1
  O  O41  1  0.16448600  0.90698600  0.75047600  1
  O  O42  1  0.16448500  0.90699800  0.24949700  1
  O  O43  1  0.45060300  0.74171100  0.74941400  1
  O  O44  1  0.45488600  0.73640800  0.25050000  1
  O  O45  1  0.93156900  0.46775800  0.24983300  1
  O  O46  1  0.93150000  0.46769500  0.75012800  1
  O  O47  1  0.07626800  0.86392800  0.99997900  1
  O  O48  1  0.07619500  0.86814500  0.49997600  1
  O  O49  1  0.54021500  0.60782700  0.97208800  1
  O  O50  1  0.53989700  0.60240500  0.52593400  1
  O  O51  1  0.36706500  0.64655100  0.00042400  1
  O  O52  1  0.36590400  0.64044100  0.49959200  1
  O  O53  1  0.84693500  0.39702000  0.00098600  1
  O  O54  1  0.84696600  0.39694900  0.49895700  1
  O  O55  1  0.25652400  0.68841100  0.49999700  1
  O  O56  1  0.25811000  0.68049400  0.99998300  1
  O  O57  1  0.74370300  0.30656900  0.00145700  1
  O  O58  1  0.74339500  0.30740300  0.49846300  1
  O  O59  1  0.15377700  0.59858100  0.49999200  1
  O  O60  1  0.15517300  0.59299100  0.99999700  1
  O  O61  1  0.63292400  0.35737300  0.51485700  1
  O  O62  1  0.63337700  0.35753600  0.98545200  1
  O  O63  1  0.46175900  0.40516300  0.49775000  1
  O  O64  1  0.46303400  0.41213400  0.00311600  1
  O  O65  1  0.92411900  0.12611100  0.99994100  1
  O  O66  1  0.92425700  0.12715600  0.50002500  1
  O  O67  1  0.06968500  0.53034300  0.74986100  1
  O  O68  1  0.06968300  0.53034000  0.25010700  1
  O  O69  1  0.54607900  0.26216100  0.75020700  1
  O  O70  1  0.55111100  0.26784500  0.25015000  1
  O  O71  1  0.83590200  0.08897300  0.74990600  1
  O  O72  1  0.83627200  0.08912000  0.25005700  1
  O  O73  1  0.38774500  0.32010500  0.25480400  1
  O  O74  1  0.38833800  0.32001900  0.74516600  1
  O  O75  1  0.22326400  0.39853200  0.24464900  1
  O  O76  1  0.22326200  0.39854000  0.75534900  1
  O  O77  1  0.30838400  0.27410100  0.50018800  1
  O  O78  1  0.30733300  0.27297100  0.99996700  1
  O  O79  1  0.68995300  0.07248700  0.74989700  1
  O  O80  1  0.68386900  0.06667300  0.25010400  1
  O  O81  1  0.01327800  0.30290400  0.99997500  1
  O  O82  1  0.01318400  0.30250500  0.49998600  1
  O  O83  1  0.12041300  0.22853200  0.99998300  1
  O  O84  1  0.12170900  0.22930100  0.49998400  1
  O  O85  1  0.49950000  0.00345300  0.49726000  1
  O  O86  1  0.49831800  0.00716100  0.00283800  1
  O  O87  1  0.39126700  0.00713600  0.00068400  1
  O  O88  1  0.39182300  0.00714300  0.49928700  1
  O  O89  1  0.22790500  0.08633800  0.99998400  1
  O  O90  1  0.22840600  0.08638600  0.49999700  1
  O  O91  1  0.00060700  0.00030500  0.75029300  1
  O  O92  1  0.00060400  0.00029900  0.24967800  1
