# generated using pymatgen
data_CrOF4
_symmetry_space_group_name_H-M   'P 1'
_cell_length_a   9.98284413
_cell_length_b   9.98284413
_cell_length_c   15.11727769
_cell_angle_alpha   67.51858316
_cell_angle_beta   67.51858316
_cell_angle_gamma   33.56464878
_symmetry_Int_Tables_number   1
_chemical_formula_structural   CrOF4
_chemical_formula_sum   'Cr8 O8 F32'
_cell_volume   763.61744852
_cell_formula_units_Z   8
loop_
 _symmetry_equiv_pos_site_id
 _symmetry_equiv_pos_as_xyz
  1  'x, y, z'
loop_
 _atom_site_type_symbol
 _atom_site_label
 _atom_site_symmetry_multiplicity
 _atom_site_fract_x
 _atom_site_fract_y
 _atom_site_fract_z
 _atom_site_occupancy
  Cr  Cr0  1  0.46779500  0.31145200  0.17738100  1
  Cr  Cr1  1  0.05317400  0.21795000  0.60744500  1
  Cr  Cr2  1  0.68854800  0.53220500  0.32261900  1
  Cr  Cr3  1  0.21795000  0.05317400  0.10744500  1
  Cr  Cr4  1  0.78205000  0.94682600  0.89255500  1
  Cr  Cr5  1  0.31145200  0.46779500  0.67738100  1
  Cr  Cr6  1  0.94682600  0.78205000  0.39255500  1
  Cr  Cr7  1  0.53220500  0.68854800  0.82261900  1
  O  O8  1  0.25591400  0.48484600  0.11765300  1
  O  O9  1  0.27530900  0.06818300  0.52668500  1
  O  O10  1  0.51515400  0.74408600  0.38234700  1
  O  O11  1  0.06818300  0.27530900  0.02668500  1
  O  O12  1  0.93181700  0.72469100  0.97331500  1
  O  O13  1  0.48484600  0.25591400  0.61765300  1
  O  O14  1  0.72469100  0.93181700  0.47331500  1
  O  O15  1  0.74408600  0.51515400  0.88234700  1
  F  F16  1  0.70850100  0.03273800  0.13048500  1
  F  F17  1  0.91394000  0.67513800  0.34554900  1
  F  F18  1  0.42207000  0.18354500  0.27718500  1
  F  F19  1  0.81859500  0.51374700  0.54664800  1
  F  F20  1  0.66240900  0.49934600  0.74271900  1
  F  F21  1  0.16866800  0.00048600  0.71260500  1
  F  F22  1  0.37912000  0.64683300  0.88904800  1
  F  F23  1  0.81645500  0.57793000  0.22281500  1
  F  F24  1  0.32486200  0.08606000  0.15445100  1
  F  F25  1  0.96726200  0.29149900  0.36951500  1
  F  F26  1  0.81495400  0.09227900  0.89536900  1
  F  F27  1  0.90772100  0.18504600  0.60463100  1
  F  F28  1  0.35316700  0.62088000  0.61095200  1
  F  F29  1  0.51374700  0.81859500  0.04664800  1
  F  F30  1  0.99951400  0.83133200  0.78739500  1
  F  F31  1  0.50065400  0.33759100  0.75728100  1
  F  F32  1  0.49934600  0.66240900  0.24271900  1
  F  F33  1  0.00048600  0.16866800  0.21260500  1
  F  F34  1  0.48625300  0.18140500  0.95335200  1
  F  F35  1  0.64683300  0.37912000  0.38904800  1
  F  F36  1  0.09227900  0.81495400  0.39536900  1
  F  F37  1  0.18504600  0.90772100  0.10463100  1
  F  F38  1  0.03273800  0.70850100  0.63048500  1
  F  F39  1  0.67513800  0.91394000  0.84554900  1
  F  F40  1  0.18354500  0.42207000  0.77718500  1
  F  F41  1  0.62088000  0.35316700  0.11095200  1
  F  F42  1  0.83133200  0.99951400  0.28739500  1
  F  F43  1  0.33759100  0.50065400  0.25728100  1
  F  F44  1  0.18140500  0.48625300  0.45335200  1
  F  F45  1  0.57793000  0.81645500  0.72281500  1
  F  F46  1  0.08606000  0.32486200  0.65445100  1
  F  F47  1  0.29149900  0.96726200  0.86951500  1
