# generated using pymatgen
data_TiV15O24
_symmetry_space_group_name_H-M   'P 1'
_cell_length_a   5.55924700
_cell_length_b   9.14900894
_cell_length_c   9.16047785
_cell_angle_alpha   68.36808047
_cell_angle_beta   84.89902188
_cell_angle_gamma   84.84801814
_symmetry_Int_Tables_number   1
_chemical_formula_structural   TiV15O24
_chemical_formula_sum   'Ti1 V15 O24'
_cell_volume   430.56850934
_cell_formula_units_Z   1
loop_
 _symmetry_equiv_pos_site_id
 _symmetry_equiv_pos_as_xyz
  1  'x, y, z'
loop_
 _atom_site_type_symbol
 _atom_site_label
 _atom_site_symmetry_multiplicity
 _atom_site_fract_x
 _atom_site_fract_y
 _atom_site_fract_z
 _atom_site_occupancy
  Ti  Ti0  1  0.29366500  0.07221300  0.07100300  1
  V  V1  1  0.79889800  0.57789100  0.07292100  1
  V  V2  1  0.69852500  0.17861900  0.17325000  1
  V  V3  1  0.70076800  0.42499000  0.42664200  1
  V  V4  1  0.19660600  0.67226500  0.17813400  1
  V  V5  1  0.79938800  0.82393700  0.32387000  1
  V  V6  1  0.80092500  0.07409700  0.57411100  1
  V  V7  1  0.29850100  0.32478000  0.32489000  1
  V  V8  1  0.79685000  0.32430900  0.82504200  1
  V  V9  1  0.20315500  0.17216200  0.67342100  1
  V  V10  1  0.29783100  0.57345800  0.57629400  1
  V  V11  1  0.70127900  0.67530000  0.67556700  1
  V  V12  1  0.20388100  0.92533200  0.42451600  1
  V  V13  1  0.20261400  0.42707400  0.92676900  1
  V  V14  1  0.30332400  0.82733700  0.82325100  1
  V  V15  1  0.69869900  0.92459600  0.92500500  1
  O  O16  1  0.84783100  0.37667300  0.02633900  1
  O  O17  1  0.01016200  0.03129200  0.21446700  1
  O  O18  1  0.34494900  0.27419100  0.12734500  1
  O  O19  1  0.99715500  0.47135000  0.27796700  1
  O  O20  1  0.85062600  0.77645000  0.12870000  1
  O  O21  1  0.33887100  0.88172900  0.03205800  1
  O  O22  1  0.49626300  0.52707500  0.22467300  1
  O  O23  1  0.65393200  0.22234700  0.37429700  1
  O  O24  1  0.85003600  0.27711800  0.62694800  1
  O  O25  1  0.50167500  0.97404200  0.27321000  1
  O  O26  1  0.15343200  0.12392000  0.47003800  1
  O  O27  1  0.65098700  0.62404700  0.47480400  1
  O  O28  1  0.84945300  0.87524800  0.52308500  1
  O  O29  1  0.34670600  0.37324700  0.52855200  1
  O  O30  1  0.50061500  0.02956800  0.71973100  1
  O  O31  1  0.99810300  0.52497000  0.72447500  1
  O  O32  1  0.15262700  0.72340500  0.37644400  1
  O  O33  1  0.34917500  0.77631100  0.62467100  1
  O  O34  1  0.49618500  0.47144600  0.77858300  1
  O  O35  1  0.00473800  0.97492400  0.77352600  1
  O  O36  1  0.64710000  0.12918800  0.97406200  1
  O  O37  1  0.15792400  0.21626000  0.88367100  1
  O  O38  1  0.65043100  0.72006600  0.87471800  1
  O  O39  1  0.15611100  0.62677000  0.97294800  1
