# generated using pymatgen
data_Mn12O5F19
_symmetry_space_group_name_H-M   'P 1'
_cell_length_a   5.27247400
_cell_length_b   5.43067335
_cell_length_c   15.59969008
_cell_angle_alpha   83.80510405
_cell_angle_beta   86.64128534
_cell_angle_gamma   81.44648376
_symmetry_Int_Tables_number   1
_chemical_formula_structural   Mn12O5F19
_chemical_formula_sum   'Mn12 O5 F19'
_cell_volume   438.70861801
_cell_formula_units_Z   1
loop_
 _symmetry_equiv_pos_site_id
 _symmetry_equiv_pos_as_xyz
  1  'x, y, z'
loop_
 _atom_site_type_symbol
 _atom_site_label
 _atom_site_symmetry_multiplicity
 _atom_site_fract_x
 _atom_site_fract_y
 _atom_site_fract_z
 _atom_site_occupancy
  Mn  Mn0  1  0.07001500  0.01288800  0.00609700  1
  Mn  Mn1  1  0.53409000  0.00237800  0.85059300  1
  Mn  Mn2  1  0.03712600  0.03091600  0.67259500  1
  Mn  Mn3  1  0.47527500  0.01681500  0.51677300  1
  Mn  Mn4  1  0.01059400  0.93578100  0.33163700  1
  Mn  Mn5  1  0.55959900  0.05049400  0.17678600  1
  Mn  Mn6  1  0.96446600  0.51182500  0.83474300  1
  Mn  Mn7  1  0.44293500  0.47123500  0.98647300  1
  Mn  Mn8  1  0.49848700  0.43035500  0.33339000  1
  Mn  Mn9  1  0.00671000  0.51969000  0.49622600  1
  Mn  Mn10  1  0.45828700  0.44448700  0.65640700  1
  Mn  Mn11  1  0.95369200  0.47701200  0.17231300  1
  O  O12  1  0.77254900  0.20934200  0.27300800  1
  O  O13  1  0.32884700  0.20298900  0.92662400  1
  O  O14  1  0.23125900  0.25690200  0.58012100  1
  O  O15  1  0.21310400  0.64031200  0.38436100  1
  O  O16  1  0.63187200  0.66682600  0.90569900  1
  F  F17  1  0.29427700  0.17733400  0.75731300  1
  F  F18  1  0.82291600  0.17813100  0.90856800  1
  F  F19  1  0.26018500  0.13563500  0.40534000  1
  F  F20  1  0.72270300  0.13034200  0.59546800  1
  F  F21  1  0.24811600  0.26836200  0.08536100  1
  F  F22  1  0.78161900  0.35847100  0.73898000  1
  F  F23  1  0.68949700  0.38270800  0.43678600  1
  F  F24  1  0.73960000  0.31835400  0.08347100  1
  F  F25  1  0.30344400  0.39481300  0.23556400  1
  F  F26  1  0.35798000  0.73944800  0.06458700  1
  F  F27  1  0.24079800  0.68578300  0.73908200  1
  F  F28  1  0.69831800  0.65415200  0.57842500  1
  F  F29  1  0.72512100  0.70982700  0.26332800  1
  F  F30  1  0.20038000  0.77638400  0.56721500  1
  F  F31  1  0.12868200  0.71130100  0.92134400  1
  F  F32  1  0.21809800  0.91794800  0.22708400  1
  F  F33  1  0.76793000  0.88154000  0.42971100  1
  F  F34  1  0.83948400  0.82704500  0.09934300  1
  F  F35  1  0.77194400  0.87217400  0.75917800  1
