# generated using pymatgen
data_Nb2ReMo
_symmetry_space_group_name_H-M   'P 1'
_cell_length_a   9.90532852
_cell_length_b   9.90532852
_cell_length_c   9.90532852
_cell_angle_alpha   124.61918250
_cell_angle_beta   115.66406094
_cell_angle_gamma   89.93049495
_symmetry_Int_Tables_number   1
_chemical_formula_structural   Nb2ReMo
_chemical_formula_sum   'Nb2 Re1 Mo1'
_cell_volume   680.49104483
_cell_formula_units_Z   1
loop_
 _symmetry_equiv_pos_site_id
 _symmetry_equiv_pos_as_xyz
  1  'x, y, z'
loop_
 _atom_site_type_symbol
 _atom_site_label
 _atom_site_symmetry_multiplicity
 _atom_site_fract_x
 _atom_site_fract_y
 _atom_site_fract_z
 _atom_site_occupancy
  Nb  Nb0  1  0.00000000  0.24920900  0.24920900  1
  Nb  Nb1  1  0.00000000  0.75079100  0.75079100  1
  Re  Re2  1  0.00000000  0.50000000  0.50000000  1
  Mo  Mo3  1  0.00000000  0.00000000  0.00000000  1
