# generated using pymatgen
data_Li3CrFe3O8
_symmetry_space_group_name_H-M   'P 1'
_cell_length_a   5.71142737
_cell_length_b   5.71142737
_cell_length_c   9.50319100
_cell_angle_alpha   90.00000000
_cell_angle_beta   90.00000000
_cell_angle_gamma   119.89550338
_symmetry_Int_Tables_number   1
_chemical_formula_structural   Li3CrFe3O8
_chemical_formula_sum   'Li6 Cr2 Fe6 O16'
_cell_volume   268.74831291
_cell_formula_units_Z   2
loop_
 _symmetry_equiv_pos_site_id
 _symmetry_equiv_pos_as_xyz
  1  'x, y, z'
loop_
 _atom_site_type_symbol
 _atom_site_label
 _atom_site_symmetry_multiplicity
 _atom_site_fract_x
 _atom_site_fract_y
 _atom_site_fract_z
 _atom_site_occupancy
  Li  Li0  1  0.16687900  0.33511900  0.94559200  1
  Li  Li1  1  0.66488100  0.83312100  0.94559200  1
  Li  Li2  1  0.16761100  0.83238900  0.94484100  1
  Li  Li3  1  0.83238900  0.16761100  0.44484100  1
  Li  Li4  1  0.33511900  0.16687900  0.44559200  1
  Li  Li5  1  0.83312100  0.66488100  0.44559200  1
  Cr  Cr6  1  0.33468000  0.66532000  0.49601400  1
  Cr  Cr7  1  0.66532000  0.33468000  0.99601400  1
  Fe  Fe8  1  0.17707300  0.35630400  0.21360300  1
  Fe  Fe9  1  0.64369600  0.82292700  0.21360300  1
  Fe  Fe10  1  0.17830600  0.82169400  0.21422500  1
  Fe  Fe11  1  0.82169400  0.17830600  0.71422500  1
  Fe  Fe12  1  0.35630400  0.17707300  0.71360300  1
  Fe  Fe13  1  0.82292700  0.64369600  0.71360300  1
  O  O14  1  0.17448500  0.33254800  0.59468200  1
  O  O15  1  0.48394300  0.51605700  0.34753100  1
  O  O16  1  0.33300400  0.66699600  0.08645800  1
  O  O17  1  0.02955000  0.50830200  0.34713400  1
  O  O18  1  0.66745200  0.82551500  0.59468200  1
  O  O19  1  0.49169800  0.97045000  0.34713400  1
  O  O20  1  0.16670100  0.83329900  0.59392100  1
  O  O21  1  0.83329900  0.16670100  0.09392100  1
  O  O22  1  0.50830200  0.02955000  0.84713400  1
  O  O23  1  0.66699600  0.33300400  0.58645800  1
  O  O24  1  0.97045000  0.49169800  0.84713400  1
  O  O25  1  0.33254800  0.17448500  0.09468200  1
  O  O26  1  0.99928900  0.00071100  0.31119200  1
  O  O27  1  0.00071100  0.99928900  0.81119200  1
  O  O28  1  0.51605700  0.48394300  0.84753100  1
  O  O29  1  0.82551500  0.66745200  0.09468200  1
