# generated using pymatgen
data_V3O5F
_symmetry_space_group_name_H-M   'P 1'
_cell_length_a   5.51122979
_cell_length_b   5.51122979
_cell_length_c   7.26460533
_cell_angle_alpha   72.03566179
_cell_angle_beta   72.03566179
_cell_angle_gamma   70.80985531
_symmetry_Int_Tables_number   1
_chemical_formula_structural   V3O5F
_chemical_formula_sum   'V6 O10 F2'
_cell_volume   192.89609680
_cell_formula_units_Z   2
loop_
 _symmetry_equiv_pos_site_id
 _symmetry_equiv_pos_as_xyz
  1  'x, y, z'
loop_
 _atom_site_type_symbol
 _atom_site_label
 _atom_site_symmetry_multiplicity
 _atom_site_fract_x
 _atom_site_fract_y
 _atom_site_fract_z
 _atom_site_occupancy
  V  V0  1  0.66920300  0.66920300  0.84402000  1
  V  V1  1  0.35023800  0.35023800  0.66771800  1
  V  V2  1  0.64976200  0.64976200  0.33228200  1
  V  V3  1  0.33079700  0.33079700  0.15598000  1
  V  V4  1  0.00000000  0.00000000  0.50000000  1
  V  V5  1  0.00000000  0.00000000  0.00000000  1
  O  O6  1  0.63103900  0.03740200  0.67060600  1
  O  O7  1  0.96259800  0.36896100  0.32939400  1
  O  O8  1  0.23460800  0.23460800  0.96776200  1
  O  O9  1  0.57003500  0.57003500  0.62821900  1
  O  O10  1  0.76539200  0.76539200  0.03223800  1
  O  O11  1  0.42996500  0.42996500  0.37178100  1
  O  O12  1  0.69319600  0.30680400  0.00000000  1
  O  O13  1  0.03740200  0.63103900  0.67060600  1
  O  O14  1  0.36896100  0.96259800  0.32939400  1
  O  O15  1  0.30680400  0.69319600  0.00000000  1
  F  F16  1  0.89063900  0.89063900  0.30233700  1
  F  F17  1  0.10936100  0.10936100  0.69766300  1
