# generated using pymatgen
data_VOF
_symmetry_space_group_name_H-M   'P 1'
_cell_length_a   6.28003775
_cell_length_b   5.92020130
_cell_length_c   5.22744727
_cell_angle_alpha   68.24956948
_cell_angle_beta   61.11459171
_cell_angle_gamma   50.63583881
_symmetry_Int_Tables_number   1
_chemical_formula_structural   VOF
_chemical_formula_sum   'V4 O4 F4'
_cell_volume   130.97238596
_cell_formula_units_Z   4
loop_
 _symmetry_equiv_pos_site_id
 _symmetry_equiv_pos_as_xyz
  1  'x, y, z'
loop_
 _atom_site_type_symbol
 _atom_site_label
 _atom_site_symmetry_multiplicity
 _atom_site_fract_x
 _atom_site_fract_y
 _atom_site_fract_z
 _atom_site_occupancy
  V  V0  1  0.69880200  0.30119800  0.69880200  1
  V  V1  1  0.94880200  0.55119800  0.94880200  1
  V  V2  1  0.30119800  0.69880200  0.30119800  1
  V  V3  1  0.55119800  0.94880200  0.55119800  1
  O  O4  1  0.36604600  0.36604600  0.63395400  1
  O  O5  1  0.63395400  0.63395400  0.36604600  1
  O  O6  1  0.61604600  0.61604600  0.88395400  1
  O  O7  1  0.88395400  0.88395400  0.61604600  1
  F  F8  1  0.62500000  0.12500000  0.12500000  1
  F  F9  1  0.12500000  0.62500000  0.12500000  1
  F  F10  1  0.12500000  0.12500000  0.12500000  1
  F  F11  1  0.12500000  0.12500000  0.62500000  1
