# generated using pymatgen
data_V4OF11
_symmetry_space_group_name_H-M   'P 1'
_cell_length_a   5.25772700
_cell_length_b   5.44569575
_cell_length_c   17.49665766
_cell_angle_alpha   88.65092329
_cell_angle_beta   98.46212469
_cell_angle_gamma   118.60655258
_symmetry_Int_Tables_number   1
_chemical_formula_structural   V4OF11
_chemical_formula_sum   'V8 O2 F22'
_cell_volume   434.38705530
_cell_formula_units_Z   2
loop_
 _symmetry_equiv_pos_site_id
 _symmetry_equiv_pos_as_xyz
  1  'x, y, z'
loop_
 _atom_site_type_symbol
 _atom_site_label
 _atom_site_symmetry_multiplicity
 _atom_site_fract_x
 _atom_site_fract_y
 _atom_site_fract_z
 _atom_site_occupancy
  V  V0  1  0.74933800  0.40270400  0.12050700  1
  V  V1  1  0.75285300  0.87022600  0.62438100  1
  V  V2  1  0.49895800  0.76145500  0.24971800  1
  V  V3  1  0.49830500  0.24481100  0.74991600  1
  V  V4  1  0.24454900  0.14205300  0.38171500  1
  V  V5  1  0.24853800  0.61951600  0.87543300  1
  V  V6  1  0.99505200  0.99037400  0.00253500  1
  V  V7  1  0.00508800  0.49481000  0.49818700  1
  O  O8  1  0.79256800  0.67639900  0.06593400  1
  O  O9  1  0.17002300  0.28584200  0.45392700  1
  F  F10  1  0.32937900  0.17091200  0.09000100  1
  F  F11  1  0.77191000  0.18300600  0.56228300  1
  F  F12  1  0.71668100  0.07735000  0.18541700  1
  F  F13  1  0.32711000  0.97117500  0.29231200  1
  F  F14  1  0.32333300  0.65370700  0.58632000  1
  F  F15  1  0.32294000  0.45938900  0.78646600  1
  F  F16  1  0.81650200  0.20269800  0.03858000  1
  F  F17  1  0.17304000  0.58211900  0.16380400  1
  F  F18  1  0.17953600  0.08799600  0.66115600  1
  F  F19  1  0.27512500  0.43606300  0.31030300  1
  F  F20  1  0.73147600  0.56018900  0.68706500  1
  F  F21  1  0.82932700  0.91359800  0.33618900  1
  F  F22  1  0.82852400  0.70852700  0.53654100  1
  F  F23  1  0.82355600  0.40962400  0.83904000  1
  F  F24  1  0.18041600  0.79071800  0.96443700  1
  F  F25  1  0.67388500  0.34141900  0.41162100  1
  F  F26  1  0.67593100  0.54329400  0.21207300  1
  F  F27  1  0.67558100  0.03142800  0.71308200  1
  F  F28  1  0.27008700  0.93357400  0.81250700  1
  F  F29  1  0.21757100  0.30471700  0.93924800  1
  F  F30  1  0.23384800  0.81992100  0.43735600  1
  F  F31  1  0.66896900  0.83038700  0.91194600  1
