# generated using pymatgen
data_V3OF11
_symmetry_space_group_name_H-M   'P 1'
_cell_length_a   5.27322200
_cell_length_b   5.45595621
_cell_length_c   14.76270475
_cell_angle_alpha   79.68173723
_cell_angle_beta   89.94826471
_cell_angle_gamma   89.92085009
_symmetry_Int_Tables_number   1
_chemical_formula_structural   V3OF11
_chemical_formula_sum   'V6 O2 F22'
_cell_volume   417.86070323
_cell_formula_units_Z   2
loop_
 _symmetry_equiv_pos_site_id
 _symmetry_equiv_pos_as_xyz
  1  'x, y, z'
loop_
 _atom_site_type_symbol
 _atom_site_label
 _atom_site_symmetry_multiplicity
 _atom_site_fract_x
 _atom_site_fract_y
 _atom_site_fract_z
 _atom_site_occupancy
  V  V0  1  0.00503700  0.99808700  0.00131800  1
  V  V1  1  0.50821500  0.84469500  0.33373600  1
  V  V2  1  0.00007400  0.66675900  0.66627600  1
  V  V3  1  0.51006300  0.49991200  0.99395500  1
  V  V4  1  0.02553300  0.37469500  0.32977200  1
  V  V5  1  0.50019700  0.16667500  0.66637700  1
  O  O6  1  0.58089600  0.54500000  0.88565100  1
  O  O7  1  0.20468800  0.62528700  0.31047100  1
  F  F8  1  0.19828500  0.97651800  0.64193500  1
  F  F9  1  0.29820800  0.80323000  0.97553600  1
  F  F10  1  0.69852700  0.85664200  0.69115000  1
  F  F11  1  0.08134000  0.95632100  0.11869900  1
  F  F12  1  0.41261700  0.78392000  0.45058100  1
  F  F13  1  0.08554000  0.62467000  0.78409700  1
  F  F14  1  0.57750600  0.87213700  0.21523700  1
  F  F15  1  0.91342100  0.70602600  0.54929800  1
  F  F16  1  0.30183200  0.47676500  0.64211800  1
  F  F17  1  0.20759500  0.30361800  0.97570800  1
  F  F18  1  0.79237800  0.69365000  0.02644100  1
  F  F19  1  0.71364100  0.53025000  0.35729600  1
  F  F20  1  0.80150600  0.35600100  0.69158800  1
  F  F21  1  0.40802500  0.45851800  0.11551900  1
  F  F22  1  0.07235800  0.27347700  0.44953700  1
  F  F23  1  0.41318400  0.12395400  0.78413400  1
  F  F24  1  0.90712600  0.36489500  0.21805400  1
  F  F25  1  0.58496000  0.20882300  0.54916100  1
  F  F26  1  0.91167300  0.04161400  0.88451200  1
  F  F27  1  0.28983600  0.14254700  0.30878300  1
  F  F28  1  0.70334000  0.19745400  0.02605600  1
  F  F29  1  0.79239800  0.02786000  0.35700200  1
