# generated using pymatgen
data_Ba2AsBr
_symmetry_space_group_name_H-M   'P 1'
_cell_length_a   12.62434152
_cell_length_b   12.62434152
_cell_length_c   12.62434152
_cell_angle_alpha   121.63947859
_cell_angle_beta   119.36266446
_cell_angle_gamma   89.14576906
_symmetry_Int_Tables_number   1
_chemical_formula_structural   Ba2AsBr
_chemical_formula_sum   'Ba2 As1 Br1'
_cell_volume   1411.03813801
_cell_formula_units_Z   1
loop_
 _symmetry_equiv_pos_site_id
 _symmetry_equiv_pos_as_xyz
  1  'x, y, z'
loop_
 _atom_site_type_symbol
 _atom_site_label
 _atom_site_symmetry_multiplicity
 _atom_site_fract_x
 _atom_site_fract_y
 _atom_site_fract_z
 _atom_site_occupancy
  Ba  Ba0  1  0.00000000  0.23395100  0.23395100  1
  Ba  Ba1  1  0.00000000  0.76604900  0.76604900  1
  As  As2  1  0.00000000  0.00000000  0.00000000  1
  Br  Br3  1  0.00000000  0.50000000  0.50000000  1
