# generated using pymatgen
data_SmBO3
_symmetry_space_group_name_H-M   'P 1'
_cell_length_a   4.05241451
_cell_length_b   4.05241451
_cell_length_c   8.81102400
_cell_angle_alpha   90.00000000
_cell_angle_beta   90.00000000
_cell_angle_gamma   117.36994138
_symmetry_Int_Tables_number   1
_chemical_formula_structural   SmBO3
_chemical_formula_sum   'Sm2 B2 O6'
_cell_volume   128.49753616
_cell_formula_units_Z   2
loop_
 _symmetry_equiv_pos_site_id
 _symmetry_equiv_pos_as_xyz
  1  'x, y, z'
loop_
 _atom_site_type_symbol
 _atom_site_label
 _atom_site_symmetry_multiplicity
 _atom_site_fract_x
 _atom_site_fract_y
 _atom_site_fract_z
 _atom_site_occupancy
  Sm  Sm0  1  0.05605300  0.05605300  0.50000000  1
  Sm  Sm1  1  0.05605300  0.05605300  0.00000000  1
  B  B2  1  0.49920800  0.75668300  0.75000000  1
  B  B3  1  0.75668300  0.49920800  0.25000000  1
  O  O4  1  0.33234600  0.67519700  0.60691500  1
  O  O5  1  0.33234600  0.67519700  0.89308500  1
  O  O6  1  0.88022400  0.94775800  0.75000000  1
  O  O7  1  0.67519700  0.33234600  0.10691500  1
  O  O8  1  0.67519700  0.33234600  0.39308500  1
  O  O9  1  0.94775800  0.88022400  0.25000000  1
