# generated using pymatgen
data_TmBO3
_symmetry_space_group_name_H-M   'P 1'
_cell_length_a   3.88382294
_cell_length_b   3.88382294
_cell_length_c   8.47066400
_cell_angle_alpha   90.00000000
_cell_angle_beta   90.00000000
_cell_angle_gamma   114.40480089
_symmetry_Int_Tables_number   1
_chemical_formula_structural   TmBO3
_chemical_formula_sum   'Tm2 B2 O6'
_cell_volume   116.35561242
_cell_formula_units_Z   2
loop_
 _symmetry_equiv_pos_site_id
 _symmetry_equiv_pos_as_xyz
  1  'x, y, z'
loop_
 _atom_site_type_symbol
 _atom_site_label
 _atom_site_symmetry_multiplicity
 _atom_site_fract_x
 _atom_site_fract_y
 _atom_site_fract_z
 _atom_site_occupancy
  Tm  Tm0  1  0.06417200  0.06417200  0.00000000  1
  Tm  Tm1  1  0.06417200  0.06417200  0.50000000  1
  B  B2  1  0.49584200  0.76404000  0.25000000  1
  B  B3  1  0.76404000  0.49584200  0.75000000  1
  O  O4  1  0.32619700  0.67092000  0.10157200  1
  O  O5  1  0.32619700  0.67092000  0.39842800  1
  O  O6  1  0.87835400  0.98467400  0.25000000  1
  O  O7  1  0.67092000  0.32619700  0.60157200  1
  O  O8  1  0.67092000  0.32619700  0.89842800  1
  O  O9  1  0.98467400  0.87835400  0.75000000  1
