# generated using pymatgen
data_LuBO3
_symmetry_space_group_name_H-M   'P 1'
_cell_length_a   4.60040527
_cell_length_b   4.60040527
_cell_length_c   7.96624800
_cell_angle_alpha   90.00000000
_cell_angle_beta   90.00000000
_cell_angle_gamma   135.72866937
_symmetry_Int_Tables_number   1
_chemical_formula_structural   LuBO3
_chemical_formula_sum   'Lu2 B2 O6'
_cell_volume   117.68929087
_cell_formula_units_Z   2
loop_
 _symmetry_equiv_pos_site_id
 _symmetry_equiv_pos_as_xyz
  1  'x, y, z'
loop_
 _atom_site_type_symbol
 _atom_site_label
 _atom_site_symmetry_multiplicity
 _atom_site_fract_x
 _atom_site_fract_y
 _atom_site_fract_z
 _atom_site_occupancy
  Lu  Lu0  1  0.00000000  0.00000000  0.00000000  1
  Lu  Lu1  1  0.00000000  0.00000000  0.50000000  1
  B  B2  1  0.28186300  0.71813700  0.25000000  1
  B  B3  1  0.71813700  0.28186300  0.75000000  1
  O  O4  1  0.12089700  0.87910300  0.25000000  1
  O  O5  1  0.36494500  0.63505500  0.09999300  1
  O  O6  1  0.36494500  0.63505500  0.40000700  1
  O  O7  1  0.63505500  0.36494500  0.59999300  1
  O  O8  1  0.63505500  0.36494500  0.90000700  1
  O  O9  1  0.87910300  0.12089700  0.75000000  1
