# generated using pymatgen
data_Yb(BO2)3
_symmetry_space_group_name_H-M   'P 1'
_cell_length_a   6.38008418
_cell_length_b   6.38008418
_cell_length_c   6.29807452
_cell_angle_alpha   62.63537757
_cell_angle_beta   62.63537757
_cell_angle_gamma   79.79958690
_symmetry_Int_Tables_number   1
_chemical_formula_structural   Yb(BO2)3
_chemical_formula_sum   'Yb2 B6 O12'
_cell_volume   202.01116041
_cell_formula_units_Z   2
loop_
 _symmetry_equiv_pos_site_id
 _symmetry_equiv_pos_as_xyz
  1  'x, y, z'
loop_
 _atom_site_type_symbol
 _atom_site_label
 _atom_site_symmetry_multiplicity
 _atom_site_fract_x
 _atom_site_fract_y
 _atom_site_fract_z
 _atom_site_occupancy
  Yb  Yb0  1  0.79586000  0.20414000  0.25000000  1
  Yb  Yb1  1  0.20414000  0.79586000  0.75000000  1
  B  B2  1  0.21951900  0.78048100  0.25000000  1
  B  B3  1  0.79188000  0.65929100  0.41369600  1
  B  B4  1  0.34070900  0.20812000  0.08630400  1
  B  B5  1  0.65929100  0.79188000  0.91369600  1
  B  B6  1  0.20812000  0.34070900  0.58630400  1
  B  B7  1  0.78048100  0.21951900  0.75000000  1
  O  O8  1  0.21332000  0.58424300  0.49296100  1
  O  O9  1  0.21726600  0.99276600  0.28983200  1
  O  O10  1  0.39111900  0.21660100  0.49984900  1
  O  O11  1  0.00723400  0.78273400  0.21016800  1
  O  O12  1  0.41575700  0.78668000  0.00703900  1
  O  O13  1  0.21660100  0.39111900  0.99984900  1
  O  O14  1  0.78339900  0.60888100  0.00015100  1
  O  O15  1  0.58424300  0.21332000  0.99296100  1
  O  O16  1  0.99276600  0.21726600  0.78983200  1
  O  O17  1  0.60888100  0.78339900  0.50015100  1
  O  O18  1  0.78273400  0.00723400  0.71016800  1
  O  O19  1  0.78668000  0.41575700  0.50703900  1
