# generated using pymatgen
data_ScBiRu2
_symmetry_space_group_name_H-M   'P 1'
_cell_length_a   10.90019035
_cell_length_b   10.90019035
_cell_length_c   10.90019035
_cell_angle_alpha   127.86191584
_cell_angle_beta   118.74637862
_cell_angle_gamma   84.56629673
_symmetry_Int_Tables_number   1
_chemical_formula_structural   ScBiRu2
_chemical_formula_sum   'Sc1 Bi1 Ru2'
_cell_volume   858.03195907
_cell_formula_units_Z   1
loop_
 _symmetry_equiv_pos_site_id
 _symmetry_equiv_pos_as_xyz
  1  'x, y, z'
loop_
 _atom_site_type_symbol
 _atom_site_label
 _atom_site_symmetry_multiplicity
 _atom_site_fract_x
 _atom_site_fract_y
 _atom_site_fract_z
 _atom_site_occupancy
  Sc  Sc0  1  0.00000000  0.00000000  0.00000000  1
  Bi  Bi1  1  0.00000000  0.50000000  0.50000000  1
  Ru  Ru2  1  0.00000000  0.23059000  0.23059000  1
  Ru  Ru3  1  0.00000000  0.76941000  0.76941000  1
