# generated using pymatgen
data_KAl11O17
_symmetry_space_group_name_H-M   'P 1'
_cell_length_a   11.92219666
_cell_length_b   11.92219666
_cell_length_c   11.92219606
_cell_angle_alpha   27.42031444
_cell_angle_beta   27.42031444
_cell_angle_gamma   27.42031139
_symmetry_Int_Tables_number   1
_chemical_formula_structural   KAl11O17
_chemical_formula_sum   'K1 Al11 O17'
_cell_volume   317.16759628
_cell_formula_units_Z   1
loop_
 _symmetry_equiv_pos_site_id
 _symmetry_equiv_pos_as_xyz
  1  'x, y, z'
loop_
 _atom_site_type_symbol
 _atom_site_label
 _atom_site_symmetry_multiplicity
 _atom_site_fract_x
 _atom_site_fract_y
 _atom_site_fract_z
 _atom_site_occupancy
  K  K0  1  0.17064400  0.17064400  0.17064400  1
  Al  Al1  1  0.90252900  0.40806600  0.90252900  1
  Al  Al2  1  0.00018300  0.00018300  0.00018300  1
  Al  Al3  1  0.90252900  0.90252900  0.40806600  1
  Al  Al4  1  0.40806600  0.90252900  0.90252900  1
  Al  Al5  1  0.54972600  0.54972600  0.54972600  1
  Al  Al6  1  0.65010500  0.65010500  0.65010500  1
  Al  Al7  1  0.45002600  0.45002600  0.45002600  1
  Al  Al8  1  0.35021600  0.35021600  0.35021600  1
  Al  Al9  1  0.59510600  0.09638400  0.09638400  1
  Al  Al10  1  0.09638400  0.09638400  0.59510600  1
  Al  Al11  1  0.09638400  0.59510600  0.09638400  1
  O  O12  1  0.70331600  0.70331600  0.70331600  1
  O  O13  1  0.90572200  0.90572200  0.90572200  1
  O  O14  1  0.71981800  0.18970200  0.18970200  1
  O  O15  1  0.80987200  0.28064500  0.80987200  1
  O  O16  1  0.90830900  0.40081600  0.40081600  1
  O  O17  1  0.59800100  0.09325300  0.59800100  1
  O  O18  1  0.40081600  0.40081600  0.90830900  1
  O  O19  1  0.80987200  0.80987200  0.28064500  1
  O  O20  1  0.18970200  0.18970200  0.71981800  1
  O  O21  1  0.50007200  0.50007200  0.50007200  1
  O  O22  1  0.59800100  0.59800100  0.09325300  1
  O  O23  1  0.09325300  0.59800100  0.59800100  1
  O  O24  1  0.40081600  0.90830900  0.40081600  1
  O  O25  1  0.18970200  0.71981800  0.18970200  1
  O  O26  1  0.28064500  0.80987200  0.80987200  1
  O  O27  1  0.29662700  0.29662700  0.29662700  1
  O  O28  1  0.09423700  0.09423700  0.09423700  1
