# generated using pymatgen
data_NaMn10O20
_symmetry_space_group_name_H-M   'P 1'
_cell_length_a   10.22204912
_cell_length_b   10.22204912
_cell_length_c   10.22204912
_cell_angle_alpha   99.59279615
_cell_angle_beta   99.59279615
_cell_angle_gamma   131.81368060
_symmetry_Int_Tables_number   1
_chemical_formula_structural   NaMn10O20
_chemical_formula_sum   'Na2 Mn20 O40'
_cell_volume   726.72466346
_cell_formula_units_Z   2
loop_
 _symmetry_equiv_pos_site_id
 _symmetry_equiv_pos_as_xyz
  1  'x, y, z'
loop_
 _atom_site_type_symbol
 _atom_site_label
 _atom_site_symmetry_multiplicity
 _atom_site_fract_x
 _atom_site_fract_y
 _atom_site_fract_z
 _atom_site_occupancy
  Na  Na0  1  0.25000000  0.75000000  0.50000000  1
  Na  Na1  1  0.00000000  0.00000000  0.00000000  1
  Mn  Mn2  1  0.73012400  0.17973500  0.65172800  1
  Mn  Mn3  1  0.52814300  0.07861800  0.85378100  1
  Mn  Mn4  1  0.92160400  0.26987600  0.44961100  1
  Mn  Mn5  1  0.62500000  0.87500000  0.75000000  1
  Mn  Mn6  1  0.92436200  0.27814300  0.94952500  1
  Mn  Mn7  1  0.32563800  0.47185700  0.55047500  1
  Mn  Mn8  1  0.52800700  0.07839600  0.34827200  1
  Mn  Mn9  1  0.22483700  0.67436200  0.14621900  1
  Mn  Mn10  1  0.12500000  0.37500000  0.25000000  1
  Mn  Mn11  1  0.92138200  0.77516300  0.44952500  1
  Mn  Mn12  1  0.72185700  0.67138200  0.64621900  1
  Mn  Mn13  1  0.51987600  0.57026500  0.84827200  1
  Mn  Mn14  1  0.32839600  0.48012400  0.05038900  1
  Mn  Mn15  1  0.02516300  0.07563800  0.35378100  1
  Mn  Mn16  1  0.82026500  0.47199300  0.55038900  1
  Mn  Mn17  1  0.42973500  0.27800700  0.94961100  1
  Mn  Mn18  1  0.12500000  0.87500000  0.75000000  1
  Mn  Mn19  1  0.72199300  0.67160400  0.15172800  1
  Mn  Mn20  1  0.32861800  0.97483700  0.05047500  1
  Mn  Mn21  1  0.12500000  0.87500000  0.25000000  1
  O  O22  1  0.77336700  0.31680100  0.36970200  1
  O  O23  1  0.94709900  0.40366500  0.63029800  1
  O  O24  1  0.68319900  0.05290100  0.45656600  1
  O  O25  1  0.16258500  0.48838600  0.44280400  1
  O  O26  1  0.51161400  0.95441800  0.67419900  1
  O  O27  1  0.76771500  0.29968800  0.84505100  1
  O  O28  1  0.07733600  0.23228500  0.53197300  1
  O  O29  1  0.85527300  0.12389800  0.75848500  1
  O  O30  1  0.68117500  0.03665200  0.93244000  1
  O  O31  1  0.45463700  0.92266400  0.15494900  1
  O  O32  1  0.25126500  0.31882500  0.35547600  1
  O  O33  1  0.56882500  0.71334800  0.56756000  1
  O  O34  1  0.17266400  0.51771500  0.96802700  1
  O  O35  1  0.39472700  0.62610200  0.74151500  1
  O  O36  1  0.99873500  0.43117500  0.14452400  1
  O  O37  1  0.48228500  0.45031200  0.65494900  1
  O  O38  1  0.73838600  0.79558200  0.82580100  1
  O  O39  1  0.08741500  0.26161400  0.05719600  1
  O  O40  1  0.34678800  0.60527300  0.23137500  1
  O  O41  1  0.14578900  0.00126500  0.43244000  1
  O  O42  1  0.96334800  0.89578900  0.64452400  1
  O  O43  1  0.30290100  0.34633500  0.86970200  1
  O  O44  1  0.70031200  0.54536300  0.46802700  1
  O  O45  1  0.56680100  0.69709900  0.04343400  1
  O  O46  1  0.90321200  0.14472700  0.26862500  1
  O  O47  1  0.87610200  0.63458600  0.73137500  1
  O  O48  1  0.04558200  0.71978100  0.55719600  1
  O  O49  1  0.47663300  0.43319900  0.13029800  1
  O  O50  1  0.65366500  0.52336700  0.95656600  1
  O  O51  1  0.96978100  0.91258500  0.17419900  1
  O  O52  1  0.37389800  0.11541400  0.76862500  1
  O  O53  1  0.59633500  0.22663300  0.54343400  1
  O  O54  1  0.20441800  0.03021900  0.94280400  1
  O  O55  1  0.79536300  0.82733600  0.34505100  1
  O  O56  1  0.88458600  0.65321200  0.25848500  1
  O  O57  1  0.54968800  0.20463700  0.03197300  1
  O  O58  1  0.28665200  0.85421100  0.85547600  1
  O  O59  1  0.10421100  0.74873500  0.06756000  1
  O  O60  1  0.36541400  0.09678800  0.24151500  1
  O  O61  1  0.28021900  0.83741500  0.32580100  1
