# generated using pymatgen
data_Na(CuO)2
_symmetry_space_group_name_H-M   'P 1'
_cell_length_a   6.08409300
_cell_length_b   6.08409300
_cell_length_c   13.10415800
_cell_angle_alpha   90.00000000
_cell_angle_beta   90.00000000
_cell_angle_gamma   90.00000000
_symmetry_Int_Tables_number   1
_chemical_formula_structural   Na(CuO)2
_chemical_formula_sum   'Na8 Cu16 O16'
_cell_volume   485.06597130
_cell_formula_units_Z   8
loop_
 _symmetry_equiv_pos_site_id
 _symmetry_equiv_pos_as_xyz
  1  'x, y, z'
loop_
 _atom_site_type_symbol
 _atom_site_label
 _atom_site_symmetry_multiplicity
 _atom_site_fract_x
 _atom_site_fract_y
 _atom_site_fract_z
 _atom_site_occupancy
  Na  Na0  1  0.26021200  0.00000000  0.07884300  1
  Na  Na1  1  0.50000000  0.76021200  0.57884300  1
  Na  Na2  1  0.50000000  0.23978800  0.57884300  1
  Na  Na3  1  0.73978800  0.00000000  0.07884300  1
  Na  Na4  1  0.76021200  0.50000000  0.42115700  1
  Na  Na5  1  0.00000000  0.73978800  0.92115700  1
  Na  Na6  1  0.00000000  0.26021200  0.92115700  1
  Na  Na7  1  0.23978800  0.50000000  0.42115700  1
  Cu  Cu8  1  0.25204400  0.50000000  0.10873500  1
  Cu  Cu9  1  0.25192000  0.50000000  0.74495500  1
  Cu  Cu10  1  0.50000000  0.25204400  0.89126500  1
  Cu  Cu11  1  0.50000000  0.25192000  0.25504500  1
  Cu  Cu12  1  0.50000000  0.74808000  0.25504500  1
  Cu  Cu13  1  0.50000000  0.74795600  0.89126500  1
  Cu  Cu14  1  0.74808000  0.50000000  0.74495500  1
  Cu  Cu15  1  0.74795600  0.50000000  0.10873500  1
  Cu  Cu16  1  0.75204400  0.00000000  0.39126500  1
  Cu  Cu17  1  0.75192000  0.00000000  0.75504500  1
  Cu  Cu18  1  0.00000000  0.75192000  0.24495500  1
  Cu  Cu19  1  0.00000000  0.24808000  0.24495500  1
  Cu  Cu20  1  0.00000000  0.75204400  0.60873500  1
  Cu  Cu21  1  0.00000000  0.24795600  0.60873500  1
  Cu  Cu22  1  0.24808000  0.00000000  0.75504500  1
  Cu  Cu23  1  0.24795600  0.00000000  0.39126500  1
  O  O24  1  0.28165900  0.00000000  0.89616400  1
  O  O25  1  0.28400400  0.50000000  0.88539400  1
  O  O26  1  0.50000000  0.28400400  0.11460600  1
  O  O27  1  0.50000000  0.78165900  0.39616400  1
  O  O28  1  0.50000000  0.21834100  0.39616400  1
  O  O29  1  0.50000000  0.71599600  0.11460600  1
  O  O30  1  0.71599600  0.50000000  0.88539400  1
  O  O31  1  0.71834100  0.00000000  0.89616400  1
  O  O32  1  0.78165900  0.50000000  0.60383600  1
  O  O33  1  0.78400400  0.00000000  0.61460600  1
  O  O34  1  0.00000000  0.71834100  0.10383600  1
  O  O35  1  0.00000000  0.28165900  0.10383600  1
  O  O36  1  0.00000000  0.78400400  0.38539400  1
  O  O37  1  0.00000000  0.21599600  0.38539400  1
  O  O38  1  0.21599600  0.00000000  0.61460600  1
  O  O39  1  0.21834100  0.50000000  0.60383600  1
