# generated using pymatgen
data_V6O5F19
_symmetry_space_group_name_H-M   'P 1'
_cell_length_a   5.30504300
_cell_length_b   5.52583361
_cell_length_c   14.81711018
_cell_angle_alpha   100.18288611
_cell_angle_beta   89.99923823
_cell_angle_gamma   90.68126119
_symmetry_Int_Tables_number   1
_chemical_formula_structural   V6O5F19
_chemical_formula_sum   'V6 O5 F19'
_cell_volume   427.48736864
_cell_formula_units_Z   1
loop_
 _symmetry_equiv_pos_site_id
 _symmetry_equiv_pos_as_xyz
  1  'x, y, z'
loop_
 _atom_site_type_symbol
 _atom_site_label
 _atom_site_symmetry_multiplicity
 _atom_site_fract_x
 _atom_site_fract_y
 _atom_site_fract_z
 _atom_site_occupancy
  V  V0  1  0.04369000  0.03269500  0.00503600  1
  V  V1  1  0.52910900  0.11920700  0.32996000  1
  V  V2  1  0.98004800  0.27653300  0.66434200  1
  V  V3  1  0.54481100  0.46404300  0.99471800  1
  V  V4  1  0.00974500  0.65192100  0.33444300  1
  V  V5  1  0.52224300  0.77492100  0.66400100  1
  O  O6  1  0.79459800  0.03000700  0.64245500  1
  O  O7  1  0.72130300  0.21470400  0.97811600  1
  O  O8  1  0.70482300  0.53102400  0.64294100  1
  O  O9  1  0.22234400  0.28549700  0.02152000  1
  O  O10  1  0.70394100  0.87136800  0.30989700  1
  F  F11  1  0.27624300  0.14806600  0.69216900  1
  F  F12  1  0.89959200  0.03778700  0.11336600  1
  F  F13  1  0.57664000  0.22737800  0.44803200  1
  F  F14  1  0.91388800  0.39754400  0.78045700  1
  F  F15  1  0.40648300  0.14169500  0.22092500  1
  F  F16  1  0.08078200  0.31434200  0.55364000  1
  F  F17  1  0.40253100  0.46539500  0.88660700  1
  F  F18  1  0.79877500  0.35007700  0.30874400  1
  F  F19  1  0.77660700  0.69504300  0.97641700  1
  F  F20  1  0.29286800  0.48246600  0.35853100  1
  F  F21  1  0.22192100  0.64538400  0.69200100  1
  F  F22  1  0.55661800  0.55933900  0.11520100  1
  F  F23  1  0.90324600  0.71690100  0.44924100  1
  F  F24  1  0.58341900  0.90075800  0.78029900  1
  F  F25  1  0.07069900  0.63342800  0.21615900  1
  F  F26  1  0.41704700  0.81424800  0.55407300  1
  F  F27  1  0.05491500  0.94238800  0.88457200  1
  F  F28  1  0.27377200  0.80797100  0.02427500  1
  F  F29  1  0.21729600  0.96786700  0.35786300  1
