# generated using pymatgen
data_Na9Ni11O20
_symmetry_space_group_name_H-M   'P 1'
_cell_length_a   7.04900600
_cell_length_b   7.76933509
_cell_length_c   8.04933095
_cell_angle_alpha   114.74507734
_cell_angle_beta   91.47090632
_cell_angle_gamma   91.55307556
_symmetry_Int_Tables_number   1
_chemical_formula_structural   Na9Ni11O20
_chemical_formula_sum   'Na9 Ni11 O20'
_cell_volume   399.87311378
_cell_formula_units_Z   1
loop_
 _symmetry_equiv_pos_site_id
 _symmetry_equiv_pos_as_xyz
  1  'x, y, z'
loop_
 _atom_site_type_symbol
 _atom_site_label
 _atom_site_symmetry_multiplicity
 _atom_site_fract_x
 _atom_site_fract_y
 _atom_site_fract_z
 _atom_site_occupancy
  Na  Na0  1  0.40446400  0.60209400  0.89845800  1
  Na  Na1  1  0.90107700  0.59859200  0.39928300  1
  Na  Na2  1  0.59553600  0.39790600  0.10154200  1
  Na  Na3  1  0.79743800  0.19864300  0.29698500  1
  Na  Na4  1  0.09892300  0.40140800  0.60071700  1
  Na  Na5  1  0.50000000  0.00000000  0.00000000  1
  Na  Na6  1  0.30028100  0.20101900  0.80272800  1
  Na  Na7  1  0.69971900  0.79898100  0.19727200  1
  Na  Na8  1  0.20256200  0.80135700  0.70301500  1
  Ni  Ni9  1  0.00000000  0.50000000  0.00000000  1
  Ni  Ni10  1  0.50000000  0.50000000  0.50000000  1
  Ni  Ni11  1  0.70739300  0.29486500  0.69793900  1
  Ni  Ni12  1  0.19527700  0.29962700  0.20208700  1
  Ni  Ni13  1  0.90637500  0.09576700  0.89153300  1
  Ni  Ni14  1  0.39307000  0.10088800  0.40052900  1
  Ni  Ni15  1  0.09362500  0.90423300  0.10846700  1
  Ni  Ni16  1  0.60693000  0.89911200  0.59947100  1
  Ni  Ni17  1  0.00000000  0.00000000  0.50000000  1
  Ni  Ni18  1  0.80472300  0.70037300  0.79791300  1
  Ni  Ni19  1  0.29260700  0.70513500  0.30206100  1
  O  O20  1  0.57781800  0.66016000  0.38347400  1
  O  O21  1  0.07571100  0.66457400  0.88801500  1
  O  O22  1  0.73635500  0.52310800  0.92544100  1
  O  O23  1  0.26364500  0.47689200  0.07455900  1
  O  O24  1  0.22323200  0.54795600  0.42322900  1
  O  O25  1  0.77676800  0.45204400  0.57677100  1
  O  O26  1  0.62163500  0.13793300  0.81400600  1
  O  O27  1  0.46963000  0.25879500  0.27929000  1
  O  O28  1  0.42218200  0.33984000  0.61652600  1
  O  O29  1  0.92428900  0.33542600  0.11198500  1
  O  O30  1  0.10723600  0.12919300  0.33498700  1
  O  O31  1  0.98623400  0.23256500  0.75470300  1
  O  O32  1  0.69463700  0.05481500  0.47960700  1
  O  O33  1  0.18005300  0.05243900  0.98325800  1
  O  O34  1  0.37836500  0.86206700  0.18599400  1
  O  O35  1  0.30536300  0.94518500  0.52039300  1
  O  O36  1  0.81994700  0.94756100  0.01674200  1
  O  O37  1  0.89276400  0.87080700  0.66501300  1
  O  O38  1  0.01376600  0.76743500  0.24529700  1
  O  O39  1  0.53037000  0.74120500  0.72071000  1
