# generated using pymatgen
data_VO2F
_symmetry_space_group_name_H-M   'P 1'
_cell_length_a   5.10327300
_cell_length_b   5.14759257
_cell_length_c   13.03346029
_cell_angle_alpha   91.21395233
_cell_angle_beta   89.96895947
_cell_angle_gamma   119.47479868
_symmetry_Int_Tables_number   1
_chemical_formula_structural   VO2F
_chemical_formula_sum   'V6 O12 F6'
_cell_volume   297.98335982
_cell_formula_units_Z   6
loop_
 _symmetry_equiv_pos_site_id
 _symmetry_equiv_pos_as_xyz
  1  'x, y, z'
loop_
 _atom_site_type_symbol
 _atom_site_label
 _atom_site_symmetry_multiplicity
 _atom_site_fract_x
 _atom_site_fract_y
 _atom_site_fract_z
 _atom_site_occupancy
  V  V0  1  0.94298600  0.95992500  0.50353400  1
  V  V1  1  0.95472400  0.99148400  0.99825900  1
  V  V2  1  0.63177400  0.35205700  0.16769500  1
  V  V3  1  0.27986700  0.63542600  0.33473800  1
  V  V4  1  0.71442200  0.35585200  0.66702700  1
  V  V5  1  0.36350900  0.73172600  0.83066800  1
  O  O6  1  0.01147900  0.41368800  0.25007500  1
  O  O7  1  0.34703400  0.25343900  0.08450400  1
  O  O8  1  0.58384900  0.00178800  0.74746600  1
  O  O9  1  0.99439600  0.58011500  0.75173000  1
  O  O10  1  0.75935200  0.07349800  0.08212800  1
  O  O11  1  0.09482600  0.74946300  0.41645900  1
  O  O12  1  0.59597800  0.58701000  0.25072400  1
  O  O13  1  0.92077500  0.25460600  0.58600700  1
  O  O14  1  0.26393700  0.91649700  0.91555000  1
  O  O15  1  0.73749600  0.66122400  0.58153300  1
  O  O16  1  0.67880500  0.74411200  0.91402500  1
  O  O17  1  0.68459300  0.92159300  0.41680700  1
  F  F18  1  0.41589600  0.99948700  0.24964900  1
  F  F19  1  0.33420400  0.08113300  0.58358400  1
  F  F20  1  0.07437700  0.32566700  0.91839100  1
  F  F21  1  0.27146200  0.33606500  0.41645700  1
  F  F22  1  0.40791000  0.40951400  0.74942000  1
  F  F23  1  0.93635100  0.66463300  0.08357000  1
