# generated using pymatgen
data_Cu6OF11
_symmetry_space_group_name_H-M   'P 1'
_cell_length_a   9.95448048
_cell_length_b   4.57206977
_cell_length_c   4.67418095
_cell_angle_alpha   91.63930635
_cell_angle_beta   82.15912691
_cell_angle_gamma   90.84178089
_symmetry_Int_Tables_number   1
_chemical_formula_structural   Cu6OF11
_chemical_formula_sum   'Cu6 O1 F11'
_cell_volume   210.64637680
_cell_formula_units_Z   1
loop_
 _symmetry_equiv_pos_site_id
 _symmetry_equiv_pos_as_xyz
  1  'x, y, z'
loop_
 _atom_site_type_symbol
 _atom_site_label
 _atom_site_symmetry_multiplicity
 _atom_site_fract_x
 _atom_site_fract_y
 _atom_site_fract_z
 _atom_site_occupancy
  Cu  Cu0  1  0.99937500  0.98159300  0.97707300  1
  Cu  Cu1  1  0.15878300  0.51409100  0.51269700  1
  Cu  Cu2  1  0.33106000  0.00718100  0.00407800  1
  Cu  Cu3  1  0.50051600  0.49963700  0.49983300  1
  Cu  Cu4  1  0.66753500  0.00090600  0.00272000  1
  Cu  Cu5  1  0.85109700  0.51917800  0.51673000  1
  O  O6  1  0.00510100  0.68857700  0.69897200  1
  F  F7  1  0.18243200  0.79673400  0.21091600  1
  F  F8  1  0.15011400  0.19822900  0.78975100  1
  F  F9  1  0.31403900  0.30553400  0.30172400  1
  F  F10  1  0.34753900  0.70627900  0.70837700  1
  F  F11  1  0.51573500  0.79504000  0.20854400  1
  F  F12  1  0.48386900  0.20807700  0.79364900  1
  F  F13  1  0.65668400  0.29924200  0.29868200  1
  F  F14  1  0.68354200  0.70571300  0.70532800  1
  F  F15  1  0.85016500  0.79080100  0.19997800  1
  F  F16  1  0.81579800  0.20605600  0.79248000  1
  F  F17  1  0.98661100  0.27713300  0.27846900  1
