# generated using pymatgen
data_Co2OF3
_symmetry_space_group_name_H-M   'P 1'
_cell_length_a   5.64385228
_cell_length_b   5.64396618
_cell_length_c   5.64394432
_cell_angle_alpha   105.54587056
_cell_angle_beta   67.81521169
_cell_angle_gamma   69.24222393
_symmetry_Int_Tables_number   1
_chemical_formula_structural   Co2OF3
_chemical_formula_sum   'Co4 O2 F6'
_cell_volume   137.88679496
_cell_formula_units_Z   2
loop_
 _symmetry_equiv_pos_site_id
 _symmetry_equiv_pos_as_xyz
  1  'x, y, z'
loop_
 _atom_site_type_symbol
 _atom_site_label
 _atom_site_symmetry_multiplicity
 _atom_site_fract_x
 _atom_site_fract_y
 _atom_site_fract_z
 _atom_site_occupancy
  Co  Co0  1  0.53578500  0.96420800  0.50000900  1
  Co  Co1  1  0.24752700  0.50030200  0.25218800  1
  Co  Co2  1  0.75187800  0.50032900  0.74781700  1
  Co  Co3  1  0.96611200  0.03385600  0.00001300  1
  O  O4  1  0.80821600  0.69179800  0.49996500  1
  O  O5  1  0.69022400  0.30981400  0.99997900  1
  F  F6  1  0.28011100  0.71988400  0.00000000  1
  F  F7  1  0.22013800  0.27986600  0.49999700  1
  F  F8  1  0.74965100  0.80644500  0.05678300  1
  F  F9  1  0.25036500  0.80640100  0.55610700  1
  F  F10  1  0.25033600  0.19354100  0.94323300  1
  F  F11  1  0.74965700  0.19355700  0.44390900  1
