# generated using pymatgen
data_Na2V13O22
_symmetry_space_group_name_H-M   'P 1'
_cell_length_a   7.75725544
_cell_length_b   7.75725544
_cell_length_c   14.07305400
_cell_angle_alpha   90.00000000
_cell_angle_beta   90.00000000
_cell_angle_gamma   96.69904060
_symmetry_Int_Tables_number   1
_chemical_formula_structural   Na2V13O22
_chemical_formula_sum   'Na4 V26 O44'
_cell_volume   841.06443819
_cell_formula_units_Z   2
loop_
 _symmetry_equiv_pos_site_id
 _symmetry_equiv_pos_as_xyz
  1  'x, y, z'
loop_
 _atom_site_type_symbol
 _atom_site_label
 _atom_site_symmetry_multiplicity
 _atom_site_fract_x
 _atom_site_fract_y
 _atom_site_fract_z
 _atom_site_occupancy
  Na  Na0  1  0.66168600  0.66168600  0.90654300  1
  Na  Na1  1  0.16168600  0.16168600  0.59345700  1
  Na  Na2  1  0.83831400  0.83831400  0.40654300  1
  Na  Na3  1  0.33831400  0.33831400  0.09345700  1
  V  V4  1  0.06737100  0.81144200  0.18219100  1
  V  V5  1  0.18855800  0.93262900  0.81780900  1
  V  V6  1  0.22889700  0.77110300  0.50000000  1
  V  V7  1  0.06214000  0.55264600  0.65185400  1
  V  V8  1  0.44735400  0.93786000  0.34814600  1
  V  V9  1  0.05264600  0.56214000  0.84814600  1
  V  V10  1  0.43786000  0.94735400  0.15185400  1
  V  V11  1  0.27110300  0.72889700  0.00000000  1
  V  V12  1  0.31144200  0.56737100  0.31780900  1
  V  V13  1  0.43262900  0.68855800  0.68219100  1
  V  V14  1  0.00000000  0.00000000  0.00000000  1
  V  V15  1  0.33092900  0.33092900  0.84031100  1
  V  V16  1  0.83092900  0.83092900  0.65968900  1
  V  V17  1  0.50000000  0.50000000  0.50000000  1
  V  V18  1  0.66907100  0.66907100  0.15968900  1
  V  V19  1  0.16907100  0.16907100  0.34031100  1
  V  V20  1  0.68855800  0.43262900  0.68219100  1
  V  V21  1  0.56737100  0.31144200  0.31780900  1
  V  V22  1  0.72889700  0.27110300  0.00000000  1
  V  V23  1  0.94735400  0.43786000  0.15185400  1
  V  V24  1  0.56214000  0.05264600  0.84814600  1
  V  V25  1  0.93786000  0.44735400  0.34814600  1
  V  V26  1  0.55264600  0.06214000  0.65185400  1
  V  V27  1  0.77110300  0.22889700  0.50000000  1
  V  V28  1  0.93262900  0.18855800  0.81780900  1
  V  V29  1  0.81144200  0.06737100  0.18219100  1
  O  O30  1  0.02081200  0.76801300  0.57494900  1
  O  O31  1  0.23198700  0.97918800  0.42505100  1
  O  O32  1  0.05281800  0.78493100  0.92180900  1
  O  O33  1  0.21506900  0.94718200  0.07819100  1
  O  O34  1  0.12012100  0.61037100  0.09348000  1
  O  O35  1  0.38962900  0.87987900  0.90652000  1
  O  O36  1  0.20956500  0.70956500  0.75000000  1
  O  O37  1  0.29043500  0.79043500  0.25000000  1
  O  O38  1  0.11037100  0.62012100  0.40652000  1
  O  O39  1  0.37987900  0.88962900  0.59348000  1
  O  O40  1  0.11427200  0.36991000  0.75843200  1
  O  O41  1  0.63009000  0.88572800  0.24156800  1
  O  O42  1  0.61427200  0.86991000  0.74156800  1
  O  O43  1  0.13009000  0.38572800  0.25843200  1
  O  O44  1  0.28493100  0.55281800  0.57819100  1
  O  O45  1  0.44718200  0.71506900  0.42180900  1
  O  O46  1  0.26801300  0.52081200  0.92505100  1
  O  O47  1  0.47918800  0.73198700  0.07494900  1
  O  O48  1  0.14020400  0.14020400  0.90045900  1
  O  O49  1  0.49577700  0.49577700  0.75868100  1
  O  O50  1  0.99577700  0.99577700  0.74131900  1
  O  O51  1  0.64020400  0.64020400  0.59954100  1
  O  O52  1  0.35979600  0.35979600  0.40045900  1
  O  O53  1  0.50422300  0.50422300  0.24131900  1
  O  O54  1  0.85979600  0.85979600  0.09954100  1
  O  O55  1  0.00422300  0.00422300  0.25868100  1
  O  O56  1  0.52081200  0.26801300  0.92505100  1
  O  O57  1  0.73198700  0.47918800  0.07494900  1
  O  O58  1  0.55281800  0.28493100  0.57819100  1
  O  O59  1  0.71506900  0.44718200  0.42180900  1
  O  O60  1  0.86991000  0.61427200  0.74156800  1
  O  O61  1  0.88572800  0.63009000  0.24156800  1
  O  O62  1  0.36991000  0.11427200  0.75843200  1
  O  O63  1  0.38572800  0.13009000  0.25843200  1
  O  O64  1  0.88962900  0.37987900  0.59348000  1
  O  O65  1  0.62012100  0.11037100  0.40652000  1
  O  O66  1  0.70956500  0.20956500  0.75000000  1
  O  O67  1  0.79043500  0.29043500  0.25000000  1
  O  O68  1  0.87987900  0.38962900  0.90652000  1
  O  O69  1  0.61037100  0.12012100  0.09348000  1
  O  O70  1  0.78493100  0.05281800  0.92180900  1
  O  O71  1  0.94718200  0.21506900  0.07819100  1
  O  O72  1  0.76801300  0.02081200  0.57494900  1
  O  O73  1  0.97918800  0.23198700  0.42505100  1
