# generated using pymatgen
data_NaMn2O4
_symmetry_space_group_name_H-M   'P 1'
_cell_length_a   4.95063500
_cell_length_b   5.70473700
_cell_length_c   11.41463700
_cell_angle_alpha   90.00000000
_cell_angle_beta   90.00000000
_cell_angle_gamma   90.00000000
_symmetry_Int_Tables_number   1
_chemical_formula_structural   NaMn2O4
_chemical_formula_sum   'Na4 Mn8 O16'
_cell_volume   322.37298469
_cell_formula_units_Z   4
loop_
 _symmetry_equiv_pos_site_id
 _symmetry_equiv_pos_as_xyz
  1  'x, y, z'
loop_
 _atom_site_type_symbol
 _atom_site_label
 _atom_site_symmetry_multiplicity
 _atom_site_fract_x
 _atom_site_fract_y
 _atom_site_fract_z
 _atom_site_occupancy
  Na  Na0  1  0.02003100  0.75000000  0.25000000  1
  Na  Na1  1  0.35778000  0.75000000  0.75000000  1
  Na  Na2  1  0.64222000  0.25000000  0.25000000  1
  Na  Na3  1  0.97996900  0.25000000  0.75000000  1
  Mn  Mn4  1  0.00415000  0.25000000  0.00488400  1
  Mn  Mn5  1  0.99585000  0.75000000  0.99511600  1
  Mn  Mn6  1  0.00415000  0.25000000  0.49511600  1
  Mn  Mn7  1  0.99585000  0.75000000  0.50488400  1
  Mn  Mn8  1  0.50000000  0.50000000  0.00000000  1
  Mn  Mn9  1  0.50000000  0.00000000  0.00000000  1
  Mn  Mn10  1  0.50000000  0.00000000  0.50000000  1
  Mn  Mn11  1  0.50000000  0.50000000  0.50000000  1
  O  O12  1  0.16716400  0.00286200  0.59185200  1
  O  O13  1  0.16716400  0.00286200  0.90814800  1
  O  O14  1  0.16716400  0.49713800  0.59185200  1
  O  O15  1  0.16716400  0.49713800  0.90814800  1
  O  O16  1  0.33790900  0.25000000  0.09107500  1
  O  O17  1  0.33790900  0.25000000  0.40892500  1
  O  O18  1  0.32627600  0.75000000  0.08622200  1
  O  O19  1  0.32627600  0.75000000  0.41377800  1
  O  O20  1  0.67372400  0.25000000  0.58622200  1
  O  O21  1  0.67372400  0.25000000  0.91377800  1
  O  O22  1  0.66209100  0.75000000  0.59107500  1
  O  O23  1  0.66209100  0.75000000  0.90892500  1
  O  O24  1  0.83283600  0.99713800  0.40814800  1
  O  O25  1  0.83283600  0.50286200  0.40814800  1
  O  O26  1  0.83283600  0.99713800  0.09185200  1
  O  O27  1  0.83283600  0.50286200  0.09185200  1
