# generated using pymatgen
data_Sr2TlHg
_symmetry_space_group_name_H-M   'P 1'
_cell_length_a   13.63461806
_cell_length_b   13.63461806
_cell_length_c   13.63461806
_cell_angle_alpha   120.76537078
_cell_angle_beta   119.53486418
_cell_angle_gamma   89.74350329
_symmetry_Int_Tables_number   1
_chemical_formula_structural   Sr2TlHg
_chemical_formula_sum   'Sr2 Tl1 Hg1'
_cell_volume   1787.96791352
_cell_formula_units_Z   1
loop_
 _symmetry_equiv_pos_site_id
 _symmetry_equiv_pos_as_xyz
  1  'x, y, z'
loop_
 _atom_site_type_symbol
 _atom_site_label
 _atom_site_symmetry_multiplicity
 _atom_site_fract_x
 _atom_site_fract_y
 _atom_site_fract_z
 _atom_site_occupancy
  Sr  Sr0  1  0.00000000  0.26069700  0.26069700  1
  Sr  Sr1  1  0.00000000  0.73930300  0.73930300  1
  Tl  Tl2  1  0.00000000  0.50000000  0.50000000  1
  Hg  Hg3  1  0.00000000  0.00000000  0.00000000  1
