# generated using pymatgen
data_Li5V3CrO8
_symmetry_space_group_name_H-M   'P 1'
_cell_length_a   5.91448006
_cell_length_b   5.91448006
_cell_length_c   9.94517900
_cell_angle_alpha   90.00000000
_cell_angle_beta   90.00000000
_cell_angle_gamma   120.00000068
_symmetry_Int_Tables_number   1
_chemical_formula_structural   Li5V3CrO8
_chemical_formula_sum   'Li10 V6 Cr2 O16'
_cell_volume   301.28421391
_cell_formula_units_Z   2
loop_
 _symmetry_equiv_pos_site_id
 _symmetry_equiv_pos_as_xyz
  1  'x, y, z'
loop_
 _atom_site_type_symbol
 _atom_site_label
 _atom_site_symmetry_multiplicity
 _atom_site_fract_x
 _atom_site_fract_y
 _atom_site_fract_z
 _atom_site_occupancy
  Li  Li0  1  0.00000000  0.00000000  0.51432100  1
  Li  Li1  1  0.33333300  0.66666700  0.72469900  1
  Li  Li2  1  0.19638900  0.80361100  0.94516900  1
  Li  Li3  1  0.19638900  0.39277800  0.94516900  1
  Li  Li4  1  0.60722200  0.80361100  0.94516900  1
  Li  Li5  1  0.39277800  0.19638900  0.44516900  1
  Li  Li6  1  0.66666700  0.33333300  0.22469900  1
  Li  Li7  1  0.80361100  0.60722200  0.44516900  1
  Li  Li8  1  0.80361100  0.19638900  0.44516900  1
  Li  Li9  1  0.00000000  0.00000000  0.01432100  1
  V  V10  1  0.16993400  0.83006600  0.21249300  1
  V  V11  1  0.83006600  0.66013300  0.71249300  1
  V  V12  1  0.16993400  0.33986700  0.21249300  1
  V  V13  1  0.66013300  0.83006600  0.21249300  1
  V  V14  1  0.33986700  0.16993400  0.71249300  1
  V  V15  1  0.83006600  0.16993400  0.71249300  1
  Cr  Cr16  1  0.33333300  0.66666700  0.47359600  1
  Cr  Cr17  1  0.66666700  0.33333300  0.97359600  1
  O  O18  1  0.16540200  0.83459800  0.58990400  1
  O  O19  1  0.02150000  0.51075000  0.34012700  1
  O  O20  1  0.00000000  0.00000000  0.82429300  1
  O  O21  1  0.16540200  0.33080400  0.58990400  1
  O  O22  1  0.48925000  0.97850000  0.34012700  1
  O  O23  1  0.33333300  0.66666700  0.09097800  1
  O  O24  1  0.48925000  0.51075000  0.34012700  1
  O  O25  1  0.33080400  0.16540200  0.08990400  1
  O  O26  1  0.66919600  0.83459800  0.58990400  1
  O  O27  1  0.51075000  0.48925000  0.84012700  1
  O  O28  1  0.83459800  0.66919600  0.08990400  1
  O  O29  1  0.51075000  0.02150000  0.84012700  1
  O  O30  1  0.66666700  0.33333300  0.59097800  1
  O  O31  1  0.97850000  0.48925000  0.84012700  1
  O  O32  1  0.83459800  0.16540200  0.08990400  1
  O  O33  1  0.00000000  0.00000000  0.32429300  1
