# generated using pymatgen
data_Ni3OF5
_symmetry_space_group_name_H-M   'P 1'
_cell_length_a   4.68898674
_cell_length_b   4.68906755
_cell_length_c   9.28347500
_cell_angle_alpha   90.00154264
_cell_angle_beta   89.99872225
_cell_angle_gamma   89.21634516
_symmetry_Int_Tables_number   1
_chemical_formula_structural   Ni3OF5
_chemical_formula_sum   'Ni6 O2 F10'
_cell_volume   204.09644641
_cell_formula_units_Z   2
loop_
 _symmetry_equiv_pos_site_id
 _symmetry_equiv_pos_as_xyz
  1  'x, y, z'
loop_
 _atom_site_type_symbol
 _atom_site_label
 _atom_site_symmetry_multiplicity
 _atom_site_fract_x
 _atom_site_fract_y
 _atom_site_fract_z
 _atom_site_occupancy
  Ni  Ni0  1  0.00794300  0.99206000  0.66313200  1
  Ni  Ni1  1  0.00090600  0.99908900  0.33333900  1
  Ni  Ni2  1  0.00786700  0.99214200  0.00356400  1
  Ni  Ni3  1  0.48848100  0.51152000  0.16643300  1
  Ni  Ni4  1  0.50714900  0.49285900  0.83331400  1
  Ni  Ni5  1  0.48858800  0.51140500  0.50023000  1
  O  O6  1  0.19536600  0.80463800  0.16548300  1
  O  O7  1  0.19545800  0.80455800  0.50119400  1
  F  F8  1  0.20243500  0.79758200  0.83337000  1
  F  F9  1  0.30494100  0.30148800  0.00005700  1
  F  F10  1  0.30054300  0.30530100  0.33331400  1
  F  F11  1  0.30500600  0.30136200  0.66661500  1
  F  F12  1  0.69853000  0.69505900  0.00005500  1
  F  F13  1  0.69469400  0.69944200  0.33331400  1
  F  F14  1  0.69866300  0.69496900  0.66661300  1
  F  F15  1  0.81230300  0.18768000  0.83332000  1
  F  F16  1  0.79553100  0.20446400  0.16695900  1
  F  F17  1  0.79559400  0.20438100  0.49969300  1
