# generated using pymatgen
data_Mn12O7F17
_symmetry_space_group_name_H-M   'P 1'
_cell_length_a   4.80704400
_cell_length_b   5.82572794
_cell_length_c   15.85170910
_cell_angle_alpha   89.62594407
_cell_angle_beta   89.77093134
_cell_angle_gamma   87.46904596
_symmetry_Int_Tables_number   1
_chemical_formula_structural   Mn12O7F17
_chemical_formula_sum   'Mn12 O7 F17'
_cell_volume   443.47412373
_cell_formula_units_Z   1
loop_
 _symmetry_equiv_pos_site_id
 _symmetry_equiv_pos_as_xyz
  1  'x, y, z'
loop_
 _atom_site_type_symbol
 _atom_site_label
 _atom_site_symmetry_multiplicity
 _atom_site_fract_x
 _atom_site_fract_y
 _atom_site_fract_z
 _atom_site_occupancy
  Mn  Mn0  1  0.96557300  0.85023900  0.41851000  1
  Mn  Mn1  1  0.95775200  0.16095700  0.24510300  1
  Mn  Mn2  1  0.01709000  0.84870200  0.08228100  1
  Mn  Mn3  1  0.95413800  0.82523500  0.75779800  1
  Mn  Mn4  1  0.00744100  0.16190300  0.57954800  1
  Mn  Mn5  1  0.99087500  0.15230900  0.91018000  1
  Mn  Mn6  1  0.52080700  0.66285100  0.57739100  1
  Mn  Mn7  1  0.49655300  0.64662000  0.92123200  1
  Mn  Mn8  1  0.49383200  0.64455000  0.25341300  1
  Mn  Mn9  1  0.50906100  0.34926100  0.08480200  1
  Mn  Mn10  1  0.55454700  0.34686900  0.41688000  1
  Mn  Mn11  1  0.52173700  0.34396800  0.75682800  1
  O  O12  1  0.77806900  0.12285700  0.13596500  1
  O  O13  1  0.77731900  0.11035500  0.47166100  1
  O  O14  1  0.76708600  0.11457000  0.80617800  1
  O  O15  1  0.70436900  0.37550900  0.30546500  1
  O  O16  1  0.73176500  0.62395100  0.47158100  1
  O  O17  1  0.69956900  0.59986900  0.81454200  1
  O  O18  1  0.30126900  0.61807100  0.02928700  1
  F  F19  1  0.74890200  0.87911200  0.30249900  1
  F  F20  1  0.77726200  0.89155000  0.63994200  1
  F  F21  1  0.77712700  0.87837500  0.97128200  1
  F  F22  1  0.74702200  0.61466700  0.14163900  1
  F  F23  1  0.74404600  0.39981100  0.64049800  1
  F  F24  1  0.73756600  0.38222500  0.97552000  1
  F  F25  1  0.26394300  0.39010500  0.19104600  1
  F  F26  1  0.24178900  0.61369500  0.36697900  1
  F  F27  1  0.30168800  0.37592300  0.52172200  1
  F  F28  1  0.25464000  0.39252300  0.86470100  1
  F  F29  1  0.27187500  0.61637400  0.69323300  1
  F  F30  1  0.22967200  0.89280500  0.19752700  1
  F  F31  1  0.24057500  0.88450700  0.52839000  1
  F  F32  1  0.18798400  0.09776900  0.35302600  1
  F  F33  1  0.23699800  0.12058000  0.01765200  1
  F  F34  1  0.23614100  0.87593700  0.86145400  1
  F  F35  1  0.25391600  0.13539300  0.69424200  1
