# generated using pymatgen
data_Na5VO5
_symmetry_space_group_name_H-M   'P 1'
_cell_length_a   5.92629922
_cell_length_b   5.92629922
_cell_length_c   9.97080510
_cell_angle_alpha   81.08416866
_cell_angle_beta   81.08416866
_cell_angle_gamma   116.55106833
_symmetry_Int_Tables_number   1
_chemical_formula_structural   Na5VO5
_chemical_formula_sum   'Na10 V2 O10'
_cell_volume   299.33781380
_cell_formula_units_Z   2
loop_
 _symmetry_equiv_pos_site_id
 _symmetry_equiv_pos_as_xyz
  1  'x, y, z'
loop_
 _atom_site_type_symbol
 _atom_site_label
 _atom_site_symmetry_multiplicity
 _atom_site_fract_x
 _atom_site_fract_y
 _atom_site_fract_z
 _atom_site_occupancy
  Na  Na0  1  0.67384700  0.98265800  0.58024700  1
  Na  Na1  1  0.55862600  0.78493400  0.94764800  1
  Na  Na2  1  0.66587700  0.33412300  0.75000000  1
  Na  Na3  1  0.98265800  0.67384700  0.08024700  1
  Na  Na4  1  0.78493400  0.55862600  0.44764800  1
  Na  Na5  1  0.21506600  0.44137400  0.55235200  1
  Na  Na6  1  0.01734200  0.32615300  0.91975300  1
  Na  Na7  1  0.33412300  0.66587700  0.25000000  1
  Na  Na8  1  0.44137400  0.21506600  0.05235200  1
  Na  Na9  1  0.32615300  0.01734200  0.41975300  1
  V  V10  1  0.09310000  0.90690000  0.75000000  1
  V  V11  1  0.90690000  0.09310000  0.25000000  1
  O  O12  1  0.29426100  0.95526100  0.87579200  1
  O  O13  1  0.39817300  0.18512900  0.60854400  1
  O  O14  1  0.95526100  0.29426100  0.37579200  1
  O  O15  1  0.18512900  0.39817300  0.10854400  1
  O  O16  1  0.91512300  0.08487700  0.75000000  1
  O  O17  1  0.08487700  0.91512300  0.25000000  1
  O  O18  1  0.81487100  0.60182700  0.89145600  1
  O  O19  1  0.04473900  0.70573900  0.62420800  1
  O  O20  1  0.60182700  0.81487100  0.39145600  1
  O  O21  1  0.70573900  0.04473900  0.12420800  1
