# generated using pymatgen
data_Mn6OF11
_symmetry_space_group_name_H-M   'P 1'
_cell_length_a   4.93253300
_cell_length_b   5.90670000
_cell_length_c   16.23680214
_cell_angle_alpha   89.60793405
_cell_angle_beta   90.00000000
_cell_angle_gamma   90.00000000
_symmetry_Int_Tables_number   1
_chemical_formula_structural   Mn6OF11
_chemical_formula_sum   'Mn12 O2 F22'
_cell_volume   473.04803597
_cell_formula_units_Z   2
loop_
 _symmetry_equiv_pos_site_id
 _symmetry_equiv_pos_as_xyz
  1  'x, y, z'
loop_
 _atom_site_type_symbol
 _atom_site_label
 _atom_site_symmetry_multiplicity
 _atom_site_fract_x
 _atom_site_fract_y
 _atom_site_fract_z
 _atom_site_occupancy
  Mn  Mn0  1  0.49887000  0.91802300  0.41590100  1
  Mn  Mn1  1  0.49111500  0.58657400  0.24438300  1
  Mn  Mn2  1  0.50414900  0.92585700  0.07158600  1
  Mn  Mn3  1  0.49581100  0.92101600  0.75286200  1
  Mn  Mn4  1  0.49930000  0.57967600  0.58535600  1
  Mn  Mn5  1  0.49262400  0.60331000  0.91982400  1
  Mn  Mn6  1  0.99887000  0.08197700  0.58409900  1
  Mn  Mn7  1  0.00414900  0.07414300  0.92841400  1
  Mn  Mn8  1  0.99581100  0.07898400  0.24713800  1
  Mn  Mn9  1  0.99262400  0.39669000  0.08017600  1
  Mn  Mn10  1  0.99930000  0.42032400  0.41464400  1
  Mn  Mn11  1  0.99111500  0.41342600  0.75561700  1
  O  O12  1  0.29046900  0.87753800  0.97227700  1
  O  O13  1  0.79046900  0.12246200  0.02772300  1
  F  F14  1  0.26459500  0.85328900  0.30547800  1
  F  F15  1  0.27147300  0.85691000  0.64226000  1
  F  F16  1  0.26723800  0.64917500  0.13190200  1
  F  F17  1  0.26903300  0.64443000  0.47429700  1
  F  F18  1  0.27756900  0.63576900  0.80696600  1
  F  F19  1  0.24448000  0.14565700  0.14074900  1
  F  F20  1  0.23188900  0.35493000  0.30511800  1
  F  F21  1  0.23065300  0.14590300  0.47388700  1
  F  F22  1  0.22782300  0.35287200  0.64478100  1
  F  F23  1  0.20979700  0.12971300  0.81697200  1
  F  F24  1  0.23311100  0.36960100  0.97368400  1
  F  F25  1  0.77756900  0.36423100  0.19303400  1
  F  F26  1  0.77147300  0.14309000  0.35774000  1
  F  F27  1  0.76903300  0.35557000  0.52570300  1
  F  F28  1  0.76723800  0.35082500  0.86809800  1
  F  F29  1  0.76459500  0.14671100  0.69452200  1
  F  F30  1  0.70979700  0.87028700  0.18302800  1
  F  F31  1  0.73065300  0.85409700  0.52611300  1
  F  F32  1  0.72782300  0.64712800  0.35521900  1
  F  F33  1  0.73311100  0.63039900  0.02631600  1
  F  F34  1  0.74448000  0.85434300  0.85925100  1
  F  F35  1  0.73188900  0.64507000  0.69488200  1
