# generated using pymatgen
data_NaNiPO4
_symmetry_space_group_name_H-M   'P 1'
_cell_length_a   4.99089833
_cell_length_b   4.99089695
_cell_length_c   6.76212407
_cell_angle_alpha   90.01392541
_cell_angle_beta   90.01390483
_cell_angle_gamma   64.90553596
_symmetry_Int_Tables_number   1
_chemical_formula_structural   NaNiPO4
_chemical_formula_sum   'Na2 Ni2 P2 O8'
_cell_volume   152.53922928
_cell_formula_units_Z   2
loop_
 _symmetry_equiv_pos_site_id
 _symmetry_equiv_pos_as_xyz
  1  'x, y, z'
loop_
 _atom_site_type_symbol
 _atom_site_label
 _atom_site_symmetry_multiplicity
 _atom_site_fract_x
 _atom_site_fract_y
 _atom_site_fract_z
 _atom_site_occupancy
  Na  Na0  1  0.31336200  0.31336600  0.74998400  1
  Na  Na1  1  0.68664500  0.68664900  0.25001800  1
  Ni  Ni2  1  0.99986700  0.00000700  0.49998200  1
  Ni  Ni3  1  0.00010000  0.99991300  0.99999900  1
  P  P4  1  0.33688000  0.33688300  0.25000500  1
  P  P5  1  0.66312300  0.66312600  0.75000200  1
  O  O6  1  0.20970100  0.68621200  0.25001600  1
  O  O7  1  0.31380000  0.79030900  0.74998600  1
  O  O8  1  0.79030500  0.31380400  0.74998300  1
  O  O9  1  0.68620800  0.20970500  0.25001900  1
  O  O10  1  0.23202600  0.23203100  0.43506700  1
  O  O11  1  0.76797200  0.76797700  0.56493500  1
  O  O12  1  0.23204400  0.23204800  0.06497300  1
  O  O13  1  0.76796700  0.76797100  0.93503000  1
