# generated using pymatgen
data_Na3Fe2(PO4)3
_symmetry_space_group_name_H-M   'P 1'
_cell_length_a   9.08727991
_cell_length_b   9.08727991
_cell_length_c   9.08728006
_cell_angle_alpha   58.24421691
_cell_angle_beta   58.24421691
_cell_angle_gamma   58.24421322
_symmetry_Int_Tables_number   1
_chemical_formula_structural   Na3Fe2(PO4)3
_chemical_formula_sum   'Na6 Fe4 P6 O24'
_cell_volume   509.28095318
_cell_formula_units_Z   2
loop_
 _symmetry_equiv_pos_site_id
 _symmetry_equiv_pos_as_xyz
  1  'x, y, z'
loop_
 _atom_site_type_symbol
 _atom_site_label
 _atom_site_symmetry_multiplicity
 _atom_site_fract_x
 _atom_site_fract_y
 _atom_site_fract_z
 _atom_site_occupancy
  Na  Na0  1  0.09041800  0.34101900  0.75012900  1
  Na  Na1  1  0.24987100  0.90958200  0.65898100  1
  Na  Na2  1  0.65898100  0.24987100  0.90958200  1
  Na  Na3  1  0.34101900  0.75012900  0.09041800  1
  Na  Na4  1  0.75012900  0.09041800  0.34101900  1
  Na  Na5  1  0.90958200  0.65898100  0.24987100  1
  Fe  Fe6  1  0.85146700  0.85146700  0.85146700  1
  Fe  Fe7  1  0.64966400  0.64966400  0.64966400  1
  Fe  Fe8  1  0.35033600  0.35033600  0.35033600  1
  Fe  Fe9  1  0.14853300  0.14853300  0.14853300  1
  P  P10  1  0.24887800  0.53506400  0.96307000  1
  P  P11  1  0.03693000  0.75112200  0.46493600  1
  P  P12  1  0.46493600  0.03693000  0.75112200  1
  P  P13  1  0.53506400  0.96307000  0.24887800  1
  P  P14  1  0.96307000  0.24887800  0.53506400  1
  P  P15  1  0.75112200  0.46493600  0.03693000  1
  O  O16  1  0.48367300  0.85029200  0.76100200  1
  O  O17  1  0.76100200  0.48367300  0.85029200  1
  O  O18  1  0.21726300  0.37211800  0.98769800  1
  O  O19  1  0.09314900  0.72130000  0.91394600  1
  O  O20  1  0.85029200  0.76100200  0.48367300  1
  O  O21  1  0.27870000  0.08605400  0.90685100  1
  O  O22  1  0.01230200  0.78273700  0.62788200  1
  O  O23  1  0.43925600  0.54258100  0.81295500  1
  O  O24  1  0.18704500  0.56074400  0.45741900  1
  O  O25  1  0.62788200  0.01230200  0.78273700  1
  O  O26  1  0.08605400  0.90685100  0.27870000  1
  O  O27  1  0.45741900  0.18704500  0.56074400  1
  O  O28  1  0.54258100  0.81295500  0.43925600  1
  O  O29  1  0.91394600  0.09314900  0.72130000  1
  O  O30  1  0.37211800  0.98769800  0.21726300  1
  O  O31  1  0.81295500  0.43925600  0.54258100  1
  O  O32  1  0.56074400  0.45741900  0.18704500  1
  O  O33  1  0.98769800  0.21726300  0.37211800  1
  O  O34  1  0.72130000  0.91394600  0.09314900  1
  O  O35  1  0.14970800  0.23899800  0.51632700  1
  O  O36  1  0.90685100  0.27870000  0.08605400  1
  O  O37  1  0.78273700  0.62788200  0.01230200  1
  O  O38  1  0.23899800  0.51632700  0.14970800  1
  O  O39  1  0.51632700  0.14970800  0.23899800  1
