# generated using pymatgen
data_Sr2PdAu
_symmetry_space_group_name_H-M   'P 1'
_cell_length_a   12.38160943
_cell_length_b   12.38160943
_cell_length_c   12.38160943
_cell_angle_alpha   124.46019557
_cell_angle_beta   118.53876782
_cell_angle_gamma   87.50186625
_symmetry_Int_Tables_number   1
_chemical_formula_structural   Sr2PdAu
_chemical_formula_sum   'Sr2 Pd1 Au1'
_cell_volume   1305.79974578
_cell_formula_units_Z   1
loop_
 _symmetry_equiv_pos_site_id
 _symmetry_equiv_pos_as_xyz
  1  'x, y, z'
loop_
 _atom_site_type_symbol
 _atom_site_label
 _atom_site_symmetry_multiplicity
 _atom_site_fract_x
 _atom_site_fract_y
 _atom_site_fract_z
 _atom_site_occupancy
  Sr  Sr0  1  0.00000000  0.23611500  0.23611500  1
  Sr  Sr1  1  0.00000000  0.76388500  0.76388500  1
  Pd  Pd2  1  0.00000000  0.00000000  0.00000000  1
  Au  Au3  1  0.00000000  0.50000000  0.50000000  1
