# generated using pymatgen
data_MnFeCo(PO4)3
_symmetry_space_group_name_H-M   'P 1'
_cell_length_a   5.95246700
_cell_length_b   9.88512800
_cell_length_c   14.60889468
_cell_angle_alpha   89.93072999
_cell_angle_beta   90.00000000
_cell_angle_gamma   90.00000000
_symmetry_Int_Tables_number   1
_chemical_formula_structural   MnFeCo(PO4)3
_chemical_formula_sum   'Mn4 Fe4 Co4 P12 O48'
_cell_volume   859.59985642
_cell_formula_units_Z   4
loop_
 _symmetry_equiv_pos_site_id
 _symmetry_equiv_pos_as_xyz
  1  'x, y, z'
loop_
 _atom_site_type_symbol
 _atom_site_label
 _atom_site_symmetry_multiplicity
 _atom_site_fract_x
 _atom_site_fract_y
 _atom_site_fract_z
 _atom_site_occupancy
  Mn  Mn0  1  0.00000000  0.21612500  0.81293500  1
  Mn  Mn1  1  0.00000000  0.21679300  0.48172900  1
  Mn  Mn2  1  0.50000000  0.28432100  0.64788500  1
  Mn  Mn3  1  0.00000000  0.71523200  0.02109600  1
  Fe  Fe4  1  0.00000000  0.22546100  0.15473100  1
  Fe  Fe5  1  0.50000000  0.27547700  0.98727100  1
  Fe  Fe6  1  0.50000000  0.27554000  0.32173500  1
  Fe  Fe7  1  0.00000000  0.72893500  0.34447600  1
  Co  Co8  1  0.00000000  0.72114800  0.68362300  1
  Co  Co9  1  0.50000000  0.77814100  0.51740100  1
  Co  Co10  1  0.50000000  0.78256800  0.84967500  1
  Co  Co11  1  0.50000000  0.77200000  0.17671500  1
  P  P12  1  0.50000000  0.09825800  0.80423600  1
  P  P13  1  0.50000000  0.09732800  0.47343900  1
  P  P14  1  0.50000000  0.09678700  0.13946900  1
  P  P15  1  0.00000000  0.40146100  0.97251900  1
  P  P16  1  0.00000000  0.40068500  0.30732800  1
  P  P17  1  0.00000000  0.40073000  0.63912500  1
  P  P18  1  0.50000000  0.60239200  0.36233000  1
  P  P19  1  0.50000000  0.59711400  0.02705600  1
  P  P20  1  0.50000000  0.59851600  0.69389500  1
  P  P21  1  0.00000000  0.90244000  0.85815700  1
  P  P22  1  0.00000000  0.90180300  0.52826000  1
  P  P23  1  0.00000000  0.89987000  0.19407300  1
  O  O24  1  0.00000000  0.05350600  0.88266900  1
  O  O25  1  0.00000000  0.05370500  0.55124400  1
  O  O26  1  0.00000000  0.05148200  0.21323600  1
  O  O27  1  0.50000000  0.12168300  0.57662600  1
  O  O28  1  0.50000000  0.11890100  0.90800700  1
  O  O29  1  0.50000000  0.12026700  0.24259600  1
  O  O30  1  0.29861400  0.17271300  0.75662200  1
  O  O31  1  0.70138600  0.17271300  0.75662200  1
  O  O32  1  0.30012800  0.17214500  0.42382600  1
  O  O33  1  0.69987200  0.17214500  0.42382600  1
  O  O34  1  0.29859500  0.16985400  0.09051400  1
  O  O35  1  0.70140500  0.16985400  0.09051400  1
  O  O36  1  0.79604500  0.32990700  0.92598400  1
  O  O37  1  0.20395500  0.32990700  0.92598400  1
  O  O38  1  0.79884100  0.32645500  0.25885000  1
  O  O39  1  0.20115900  0.32645500  0.25885000  1
  O  O40  1  0.79849300  0.32787300  0.59101400  1
  O  O41  1  0.20150700  0.32787300  0.59101400  1
  O  O42  1  0.00000000  0.37914600  0.74315700  1
  O  O43  1  0.00000000  0.38155000  0.07691800  1
  O  O44  1  0.00000000  0.37802200  0.41135200  1
  O  O45  1  0.50000000  0.44741800  0.05189300  1
  O  O46  1  0.50000000  0.45014100  0.38081800  1
  O  O47  1  0.50000000  0.44694600  0.71790900  1
  O  O48  1  0.00000000  0.55463600  0.95098300  1
  O  O49  1  0.00000000  0.55122900  0.28654300  1
  O  O50  1  0.00000000  0.55270500  0.61684200  1
  O  O51  1  0.50000000  0.61884300  0.92407100  1
  O  O52  1  0.50000000  0.61471700  0.58952800  1
  O  O53  1  0.50000000  0.62523200  0.25754900  1
  O  O54  1  0.29927100  0.67152200  0.07691900  1
  O  O55  1  0.70072900  0.67152200  0.07691900  1
  O  O56  1  0.29678900  0.67384700  0.40974100  1
  O  O57  1  0.70321100  0.67384700  0.40974100  1
  O  O58  1  0.29681700  0.67184900  0.74174200  1
  O  O59  1  0.70318300  0.67184900  0.74174200  1
  O  O60  1  0.79610300  0.82857500  0.57600700  1
  O  O61  1  0.20389700  0.82857500  0.57600700  1
  O  O62  1  0.79573100  0.82917000  0.90519400  1
  O  O63  1  0.20426900  0.82917000  0.90519400  1
  O  O64  1  0.79945400  0.82831200  0.24388400  1
  O  O65  1  0.20054600  0.82831200  0.24388400  1
  O  O66  1  0.00000000  0.88559200  0.75358100  1
  O  O67  1  0.00000000  0.88369100  0.42492200  1
  O  O68  1  0.00000000  0.87778000  0.08999900  1
  O  O69  1  0.50000000  0.94736200  0.77883200  1
  O  O70  1  0.50000000  0.94745900  0.45000300  1
  O  O71  1  0.50000000  0.94370900  0.11937100  1
