# generated using pymatgen
data_LiFe4(BO3)4
_symmetry_space_group_name_H-M   'P 1'
_cell_length_a   5.34274119
_cell_length_b   9.01830651
_cell_length_c   11.35004809
_cell_angle_alpha   113.50131876
_cell_angle_beta   76.92799665
_cell_angle_gamma   90.40520514
_symmetry_Int_Tables_number   1
_chemical_formula_structural   LiFe4(BO3)4
_chemical_formula_sum   'Li2 Fe8 B8 O24'
_cell_volume   486.39549880
_cell_formula_units_Z   2
loop_
 _symmetry_equiv_pos_site_id
 _symmetry_equiv_pos_as_xyz
  1  'x, y, z'
loop_
 _atom_site_type_symbol
 _atom_site_label
 _atom_site_symmetry_multiplicity
 _atom_site_fract_x
 _atom_site_fract_y
 _atom_site_fract_z
 _atom_site_occupancy
  Li  Li0  1  0.16488200  0.16672500  0.35507700  1
  Li  Li1  1  0.59562300  0.05670500  0.09519700  1
  Fe  Fe2  1  0.40531900  0.26676800  0.86421500  1
  Fe  Fe3  1  0.08895300  0.22813600  0.11596200  1
  Fe  Fe4  1  0.85012500  0.14154000  0.61595200  1
  Fe  Fe5  1  0.65436600  0.36192300  0.37449900  1
  Fe  Fe6  1  0.34826100  0.64857900  0.62717100  1
  Fe  Fe7  1  0.14570500  0.83415100  0.37018200  1
  Fe  Fe8  1  0.90963500  0.77005500  0.87518100  1
  Fe  Fe9  1  0.59795800  0.72756900  0.13099000  1
  B  B10  1  0.65225600  0.02346200  0.36686300  1
  B  B11  1  0.89288100  0.10265200  0.86932400  1
  B  B12  1  0.13528300  0.50662500  0.37804100  1
  B  B13  1  0.40433700  0.61010500  0.87558800  1
  B  B14  1  0.85835800  0.48102600  0.62251100  1
  B  B15  1  0.59690000  0.39116900  0.12087000  1
  B  B16  1  0.34790900  0.98280700  0.62123200  1
  B  B17  1  0.11338300  0.89230200  0.12530400  1
  O  O18  1  0.11704700  0.15087900  0.90818600  1
  O  O19  1  0.47219200  0.12621400  0.65974800  1
  O  O20  1  0.21984400  0.03483000  0.13890000  1
  O  O21  1  0.53375000  0.15622100  0.36178800  1
  O  O22  1  0.87830300  0.03823800  0.41220400  1
  O  O23  1  0.77911000  0.18920400  0.81408100  1
  O  O24  1  0.31898700  0.46479300  0.86044200  1
  O  O25  1  0.03358200  0.35354200  0.33546500  1
  O  O26  1  0.68915800  0.29179800  0.17561800  1
  O  O27  1  0.64271600  0.48677400  0.57332700  1
  O  O28  1  0.96240600  0.33895600  0.61241200  1
  O  O29  1  0.40381600  0.33373400  0.05616400  1
  O  O30  1  0.61730900  0.66371000  0.92988600  1
  O  O31  1  0.35184300  0.51589700  0.43212500  1
  O  O32  1  0.28697800  0.71273400  0.83266300  1
  O  O33  1  0.96820800  0.62744700  0.67877700  1
  O  O34  1  0.70252700  0.53126000  0.13110200  1
  O  O35  1  0.22392200  0.77844300  0.15623600  1
  O  O36  1  0.13113600  0.98334500  0.57353800  1
  O  O37  1  0.43783300  0.84842000  0.63064800  1
  O  O38  1  0.02643700  0.63230400  0.36945200  1
  O  O39  1  0.77948100  0.97703700  0.89486700  1
  O  O40  1  0.54730500  0.87608500  0.32304300  1
  O  O41  1  0.88082300  0.86134500  0.08123800  1
