# generated using pymatgen
data_V4O5F7
_symmetry_space_group_name_H-M   'P 1'
_cell_length_a   5.26916700
_cell_length_b   5.35433602
_cell_length_c   17.32967853
_cell_angle_alpha   83.57841712
_cell_angle_beta   81.67176754
_cell_angle_gamma   60.73340849
_symmetry_Int_Tables_number   1
_chemical_formula_structural   V4O5F7
_chemical_formula_sum   'V8 O10 F14'
_cell_volume   421.53694788
_cell_formula_units_Z   2
loop_
 _symmetry_equiv_pos_site_id
 _symmetry_equiv_pos_as_xyz
  1  'x, y, z'
loop_
 _atom_site_type_symbol
 _atom_site_label
 _atom_site_symmetry_multiplicity
 _atom_site_fract_x
 _atom_site_fract_y
 _atom_site_fract_z
 _atom_site_occupancy
  V  V0  1  0.35869800  0.39635700  0.87970500  1
  V  V1  1  0.86061900  0.90927600  0.38017600  1
  V  V2  1  0.70345600  0.78971900  0.74819100  1
  V  V3  1  0.20601200  0.29444000  0.24770600  1
  V  V4  1  0.12602600  0.14778100  0.63124100  1
  V  V5  1  0.63055200  0.65442400  0.13103600  1
  V  V6  1  0.98268600  0.98093700  0.00303300  1
  V  V7  1  0.47813400  0.52833100  0.50535800  1
  O  O8  1  0.26695900  0.67858600  0.93301600  1
  O  O9  1  0.76444000  0.18525400  0.43534800  1
  O  O10  1  0.49594400  0.05303900  0.80999400  1
  O  O11  1  0.01664200  0.42582400  0.68665500  1
  O  O12  1  0.99971500  0.55565400  0.30938900  1
  O  O13  1  0.50777100  0.90728100  0.67000800  1
  O  O14  1  0.01398700  0.40511400  0.16903400  1
  O  O15  1  0.80460400  0.79960300  0.04227200  1
  O  O16  1  0.52190500  0.92496100  0.18929600  1
  O  O17  1  0.24614000  0.80360400  0.56121300  1
  F  F18  1  0.75661600  0.16390600  0.91283400  1
  F  F19  1  0.97047400  0.93556200  0.71030400  1
  F  F20  1  0.26202400  0.66755900  0.41239500  1
  F  F21  1  0.47420200  0.43567000  0.20881100  1
  F  F22  1  0.21399000  0.19209700  0.95774000  1
  F  F23  1  0.99395500  0.56471600  0.83111500  1
  F  F24  1  0.49883400  0.06907300  0.33207800  1
  F  F25  1  0.29076800  0.28603500  0.53806600  1
  F  F26  1  0.73278500  0.69155400  0.46006500  1
  F  F27  1  0.75283800  0.30971800  0.58385300  1
  F  F28  1  0.54143700  0.53821700  0.78773300  1
  F  F29  1  0.04331500  0.04210300  0.28829200  1
  F  F30  1  0.73064000  0.32919900  0.06058200  1
  F  F31  1  0.25383000  0.83440200  0.08346100  1
