# generated using pymatgen
data_YZrTc2
_symmetry_space_group_name_H-M   'P 1'
_cell_length_a   11.35698684
_cell_length_b   11.35698684
_cell_length_c   11.35698684
_cell_angle_alpha   130.34287090
_cell_angle_beta   116.88902912
_cell_angle_gamma   84.28246948
_symmetry_Int_Tables_number   1
_chemical_formula_structural   YZrTc2
_chemical_formula_sum   'Y1 Zr1 Tc2'
_cell_volume   954.72392093
_cell_formula_units_Z   1
loop_
 _symmetry_equiv_pos_site_id
 _symmetry_equiv_pos_as_xyz
  1  'x, y, z'
loop_
 _atom_site_type_symbol
 _atom_site_label
 _atom_site_symmetry_multiplicity
 _atom_site_fract_x
 _atom_site_fract_y
 _atom_site_fract_z
 _atom_site_occupancy
  Y  Y0  1  0.00000000  0.00000000  0.00000000  1
  Zr  Zr1  1  0.00000000  0.50000000  0.50000000  1
  Tc  Tc2  1  0.00000000  0.26074000  0.26074000  1
  Tc  Tc3  1  0.00000000  0.73926000  0.73926000  1
