# generated using pymatgen
data_VOF2
_symmetry_space_group_name_H-M   'P 1'
_cell_length_a   5.20700200
_cell_length_b   5.20695151
_cell_length_c   13.38601195
_cell_angle_alpha   89.70889723
_cell_angle_beta   91.05645681
_cell_angle_gamma   119.10399539
_symmetry_Int_Tables_number   1
_chemical_formula_structural   VOF2
_chemical_formula_sum   'V6 O6 F12'
_cell_volume   317.04852194
_cell_formula_units_Z   6
loop_
 _symmetry_equiv_pos_site_id
 _symmetry_equiv_pos_as_xyz
  1  'x, y, z'
loop_
 _atom_site_type_symbol
 _atom_site_label
 _atom_site_symmetry_multiplicity
 _atom_site_fract_x
 _atom_site_fract_y
 _atom_site_fract_z
 _atom_site_occupancy
  V  V0  1  0.68039500  0.31328300  0.83691900  1
  V  V1  1  0.67948400  0.39772500  0.33274800  1
  V  V2  1  0.31960500  0.68671700  0.16308100  1
  V  V3  1  0.00000000  0.00000000  0.00000000  1
  V  V4  1  0.32051600  0.60227500  0.66725200  1
  V  V5  1  0.00000000  0.00000000  0.50000000  1
  O  O6  1  0.09635000  0.33461600  0.58615200  1
  O  O7  1  0.57952600  0.58474000  0.25244100  1
  O  O8  1  0.90153100  0.24036900  0.91233800  1
  O  O9  1  0.09846900  0.75963100  0.08766200  1
  O  O10  1  0.42047400  0.41526000  0.74755900  1
  O  O11  1  0.90365000  0.66538400  0.41384800  1
  F  F12  1  0.27044700  0.34997600  0.08220500  1
  F  F13  1  0.67800400  0.94327900  0.08968300  1
  F  F14  1  0.58395600  0.99036000  0.74326600  1
  F  F15  1  0.34024100  0.26962000  0.41295500  1
  F  F16  1  0.41604400  0.00964000  0.25673400  1
  F  F17  1  0.32199600  0.05672100  0.91031700  1
  F  F18  1  0.65975900  0.73038000  0.58704500  1
  F  F19  1  0.25444000  0.90388800  0.58376300  1
  F  F20  1  0.74556000  0.09611200  0.41623700  1
  F  F21  1  0.00826600  0.58601300  0.74801300  1
  F  F22  1  0.99173400  0.41398700  0.25198700  1
  F  F23  1  0.72955300  0.65002400  0.91779500  1
