# generated using pymatgen
data_V2CrMo
_symmetry_space_group_name_H-M   'P 1'
_cell_length_a   9.99545845
_cell_length_b   9.99545845
_cell_length_c   9.99545845
_cell_angle_alpha   126.20431085
_cell_angle_beta   120.32932759
_cell_angle_gamma   84.51208040
_symmetry_Int_Tables_number   1
_chemical_formula_structural   V2CrMo
_chemical_formula_sum   'V2 Cr1 Mo1'
_cell_volume   665.44315610
_cell_formula_units_Z   1
loop_
 _symmetry_equiv_pos_site_id
 _symmetry_equiv_pos_as_xyz
  1  'x, y, z'
loop_
 _atom_site_type_symbol
 _atom_site_label
 _atom_site_symmetry_multiplicity
 _atom_site_fract_x
 _atom_site_fract_y
 _atom_site_fract_z
 _atom_site_occupancy
  V  V0  1  0.28463100  0.00000000  0.28463100  1
  V  V1  1  0.71536900  0.00000000  0.71536900  1
  Cr  Cr2  1  0.00000000  0.00000000  0.00000000  1
  Mo  Mo3  1  0.50000000  0.00000000  0.50000000  1
