# generated using pymatgen
data_CoCu(PO4)2
_symmetry_space_group_name_H-M   'P 1'
_cell_length_a   5.91469400
_cell_length_b   4.99523400
_cell_length_c   10.00485768
_cell_angle_alpha   85.76407436
_cell_angle_beta   90.00000000
_cell_angle_gamma   90.00000000
_symmetry_Int_Tables_number   1
_chemical_formula_structural   CoCu(PO4)2
_chemical_formula_sum   'Co2 Cu2 P4 O16'
_cell_volume   294.78886414
_cell_formula_units_Z   2
loop_
 _symmetry_equiv_pos_site_id
 _symmetry_equiv_pos_as_xyz
  1  'x, y, z'
loop_
 _atom_site_type_symbol
 _atom_site_label
 _atom_site_symmetry_multiplicity
 _atom_site_fract_x
 _atom_site_fract_y
 _atom_site_fract_z
 _atom_site_occupancy
  Co  Co0  1  0.75000000  0.44090900  0.78929600  1
  Co  Co1  1  0.25000000  0.55909100  0.21070400  1
  Cu  Cu2  1  0.25000000  0.86719200  0.69645500  1
  Cu  Cu3  1  0.75000000  0.13280800  0.30354500  1
  P  P4  1  0.25000000  0.40447700  0.89877000  1
  P  P5  1  0.75000000  0.93900100  0.60351600  1
  P  P6  1  0.25000000  0.06099900  0.39648400  1
  P  P7  1  0.75000000  0.59552300  0.10123000  1
  O  O8  1  0.75000000  0.65379700  0.94913700  1
  O  O9  1  0.25000000  0.71592000  0.86984600  1
  O  O10  1  0.03829300  0.28233800  0.83329400  1
  O  O11  1  0.46170700  0.28233800  0.83329400  1
  O  O12  1  0.55526800  0.76714500  0.67578300  1
  O  O13  1  0.94473200  0.76714500  0.67578300  1
  O  O14  1  0.75000000  0.23550000  0.62392500  1
  O  O15  1  0.25000000  0.11101500  0.54750400  1
  O  O16  1  0.75000000  0.88898500  0.45249600  1
  O  O17  1  0.25000000  0.76450000  0.37607500  1
  O  O18  1  0.05526800  0.23285500  0.32421700  1
  O  O19  1  0.44473200  0.23285500  0.32421700  1
  O  O20  1  0.53829300  0.71766200  0.16670600  1
  O  O21  1  0.96170700  0.71766200  0.16670600  1
  O  O22  1  0.75000000  0.28408000  0.13015400  1
  O  O23  1  0.25000000  0.34620300  0.05086300  1
