# generated using pymatgen
data_Na4TiO4
_symmetry_space_group_name_H-M   'P 1'
_cell_length_a   6.18900531
_cell_length_b   6.18900531
_cell_length_c   6.79332900
_cell_angle_alpha   90.00000000
_cell_angle_beta   90.00000000
_cell_angle_gamma   90.86480864
_symmetry_Int_Tables_number   1
_chemical_formula_structural   Na4TiO4
_chemical_formula_sum   'Na8 Ti2 O8'
_cell_volume   260.18058529
_cell_formula_units_Z   2
loop_
 _symmetry_equiv_pos_site_id
 _symmetry_equiv_pos_as_xyz
  1  'x, y, z'
loop_
 _atom_site_type_symbol
 _atom_site_label
 _atom_site_symmetry_multiplicity
 _atom_site_fract_x
 _atom_site_fract_y
 _atom_site_fract_z
 _atom_site_occupancy
  Na  Na0  1  0.83640000  0.16360000  0.50000000  1
  Na  Na1  1  0.83640000  0.16360000  0.00000000  1
  Na  Na2  1  0.86552000  0.55998300  0.25000000  1
  Na  Na3  1  0.44001700  0.13448000  0.75000000  1
  Na  Na4  1  0.13448000  0.44001700  0.75000000  1
  Na  Na5  1  0.55998300  0.86552000  0.25000000  1
  Na  Na6  1  0.16360000  0.83640000  0.00000000  1
  Na  Na7  1  0.16360000  0.83640000  0.50000000  1
  Ti  Ti8  1  0.66917300  0.66917300  0.75000000  1
  Ti  Ti9  1  0.33082700  0.33082700  0.25000000  1
  O  O10  1  0.62015100  0.26474100  0.25000000  1
  O  O11  1  0.73525900  0.37984900  0.75000000  1
  O  O12  1  0.79196000  0.79196000  0.97418200  1
  O  O13  1  0.20804000  0.20804000  0.47418200  1
  O  O14  1  0.20804000  0.20804000  0.02581800  1
  O  O15  1  0.79196000  0.79196000  0.52581800  1
  O  O16  1  0.37984900  0.73525900  0.75000000  1
  O  O17  1  0.26474100  0.62015100  0.25000000  1
