# generated using pymatgen
data_Zr5Ti7O24
_symmetry_space_group_name_H-M   'P 1'
_cell_length_a   14.54742300
_cell_length_b   5.41221000
_cell_length_c   11.49749962
_cell_angle_alpha   61.83893677
_cell_angle_beta   90.00000000
_cell_angle_gamma   90.00000000
_symmetry_Int_Tables_number   1
_chemical_formula_structural   Zr5Ti7O24
_chemical_formula_sum   'Zr10 Ti14 O48'
_cell_volume   798.08234391
_cell_formula_units_Z   2
loop_
 _symmetry_equiv_pos_site_id
 _symmetry_equiv_pos_as_xyz
  1  'x, y, z'
loop_
 _atom_site_type_symbol
 _atom_site_label
 _atom_site_symmetry_multiplicity
 _atom_site_fract_x
 _atom_site_fract_y
 _atom_site_fract_z
 _atom_site_occupancy
  Zr  Zr0  1  0.25162200  0.86247400  0.87463200  1
  Zr  Zr1  1  0.25427000  0.35579300  0.37803300  1
  Zr  Zr2  1  0.25550900  0.63970700  0.62827700  1
  Zr  Zr3  1  0.25268200  0.14055100  0.12423800  1
  Zr  Zr4  1  0.08038800  0.79051300  0.40761200  1
  Zr  Zr5  1  0.91961200  0.79051300  0.90761200  1
  Zr  Zr6  1  0.74731800  0.14055100  0.62423800  1
  Zr  Zr7  1  0.74573000  0.35579300  0.87803300  1
  Zr  Zr8  1  0.74837800  0.86247400  0.37463200  1
  Zr  Zr9  1  0.74449100  0.63970700  0.12827700  1
  Ti  Ti10  1  0.08434900  0.15186200  0.65555400  1
  Ti  Ti11  1  0.08402900  0.65039800  0.15790900  1
  Ti  Ti12  1  0.08425300  0.28066800  0.90551500  1
  Ti  Ti13  1  0.91574700  0.28066800  0.40551500  1
  Ti  Ti14  1  0.91597100  0.65039800  0.65790900  1
  Ti  Ti15  1  0.91565100  0.15186200  0.15555400  1
  Ti  Ti16  1  0.58041000  0.84413100  0.84074400  1
  Ti  Ti17  1  0.57970600  0.34230700  0.34143900  1
  Ti  Ti18  1  0.57854500  0.22716700  0.09136100  1
  Ti  Ti19  1  0.58077200  0.72507000  0.59077200  1
  Ti  Ti20  1  0.42145500  0.22716700  0.59136100  1
  Ti  Ti21  1  0.41922800  0.72507000  0.09077200  1
  Ti  Ti22  1  0.42029400  0.34230700  0.84143900  1
  Ti  Ti23  1  0.41959000  0.84413100  0.34074400  1
  O  O24  1  0.17101200  0.44339900  0.96807000  1
  O  O25  1  0.17965000  0.95476800  0.47273300  1
  O  O26  1  0.17198200  0.86678500  0.71939800  1
  O  O27  1  0.16840400  0.35701100  0.22154400  1
  O  O28  1  0.16648800  0.41298600  0.51694000  1
  O  O29  1  0.16854900  0.31027700  0.76442800  1
  O  O30  1  0.16752800  0.80118900  0.26006200  1
  O  O31  1  0.16277100  0.91296600  0.01312600  1
  O  O32  1  0.02248500  0.06380300  0.81799100  1
  O  O33  1  0.00933000  0.54969400  0.32033900  1
  O  O34  1  0.00739200  0.53462400  0.58059600  1
  O  O35  1  0.00739200  0.04988700  0.06845300  1
  O  O36  1  0.99067000  0.54969400  0.82033900  1
  O  O37  1  0.97751500  0.06380300  0.31799100  1
  O  O38  1  0.99260800  0.53462400  0.08059600  1
  O  O39  1  0.99260800  0.04988700  0.56845300  1
  O  O40  1  0.83247200  0.80118900  0.76006200  1
  O  O41  1  0.83722900  0.91296600  0.51312600  1
  O  O42  1  0.83145100  0.31027700  0.26442800  1
  O  O43  1  0.83351200  0.41298600  0.01694000  1
  O  O44  1  0.82035000  0.95476800  0.97273300  1
  O  O45  1  0.82898800  0.44339900  0.46807000  1
  O  O46  1  0.83159600  0.35701100  0.72154400  1
  O  O47  1  0.82801800  0.86678500  0.21939800  1
  O  O48  1  0.66764100  0.12934400  0.78318700  1
  O  O49  1  0.66625100  0.62968600  0.28620500  1
  O  O50  1  0.66869700  0.55467300  0.53478700  1
  O  O51  1  0.66310400  0.05339900  0.03475400  1
  O  O52  1  0.66124100  0.58531200  0.98459400  1
  O  O53  1  0.66222000  0.08570000  0.48520700  1
  O  O54  1  0.66014300  0.69208700  0.73570900  1
  O  O55  1  0.66045700  0.19539000  0.23539700  1
  O  O56  1  0.51190900  0.95501900  0.67483500  1
  O  O57  1  0.51056200  0.45543000  0.17551900  1
  O  O58  1  0.51004400  0.44846200  0.92530500  1
  O  O59  1  0.51119400  0.94746600  0.42473500  1
  O  O60  1  0.48880600  0.94746600  0.92473500  1
  O  O61  1  0.48995600  0.44846200  0.42530500  1
  O  O62  1  0.48943800  0.45543000  0.67551900  1
  O  O63  1  0.48809100  0.95501900  0.17483500  1
  O  O64  1  0.33954300  0.19539000  0.73539700  1
  O  O65  1  0.33985700  0.69208700  0.23570900  1
  O  O66  1  0.33778000  0.08570000  0.98520700  1
  O  O67  1  0.33875900  0.58531200  0.48459400  1
  O  O68  1  0.33130300  0.55467300  0.03478700  1
  O  O69  1  0.33689600  0.05339900  0.53475400  1
  O  O70  1  0.33374900  0.62968600  0.78620500  1
  O  O71  1  0.33235900  0.12934400  0.28318700  1
