# generated using pymatgen
data_Na2Ti2O5
_symmetry_space_group_name_H-M   'P 1'
_cell_length_a   23.98809800
_cell_length_b   5.46780700
_cell_length_c   8.86842057
_cell_angle_alpha   89.60423023
_cell_angle_beta   90.00000000
_cell_angle_gamma   90.00000000
_symmetry_Int_Tables_number   1
_chemical_formula_structural   Na2Ti2O5
_chemical_formula_sum   'Na16 Ti16 O40'
_cell_volume   1163.17460207
_cell_formula_units_Z   8
loop_
 _symmetry_equiv_pos_site_id
 _symmetry_equiv_pos_as_xyz
  1  'x, y, z'
loop_
 _atom_site_type_symbol
 _atom_site_label
 _atom_site_symmetry_multiplicity
 _atom_site_fract_x
 _atom_site_fract_y
 _atom_site_fract_z
 _atom_site_occupancy
  Na  Na0  1  0.73961700  0.80368600  0.52375100  1
  Na  Na1  1  0.76038300  0.80368600  0.02375100  1
  Na  Na2  1  0.27880400  0.78324800  0.72173800  1
  Na  Na3  1  0.22119600  0.78324800  0.22173800  1
  Na  Na4  1  0.52757200  0.72123500  0.90160000  1
  Na  Na5  1  0.97242800  0.72123500  0.40160000  1
  Na  Na6  1  0.01504500  0.69025200  0.84149100  1
  Na  Na7  1  0.48495500  0.69025200  0.34149100  1
  Na  Na8  1  0.51504500  0.30974800  0.65850900  1
  Na  Na9  1  0.98495500  0.30974800  0.15850900  1
  Na  Na10  1  0.02757200  0.27876500  0.59840000  1
  Na  Na11  1  0.47242800  0.27876500  0.09840000  1
  Na  Na12  1  0.77880400  0.21675200  0.77826200  1
  Na  Na13  1  0.72119600  0.21675200  0.27826200  1
  Na  Na14  1  0.23961700  0.19631400  0.97624900  1
  Na  Na15  1  0.26038300  0.19631400  0.47624900  1
  Ti  Ti16  1  0.59027500  0.82938700  0.54227100  1
  Ti  Ti17  1  0.90972500  0.82938700  0.04227100  1
  Ti  Ti18  1  0.11453000  0.80552900  0.51652200  1
  Ti  Ti19  1  0.38547000  0.80552900  0.01652200  1
  Ti  Ti20  1  0.86671700  0.69226900  0.69554900  1
  Ti  Ti21  1  0.63328300  0.69226900  0.19554900  1
  Ti  Ti22  1  0.16066400  0.67199000  0.86214600  1
  Ti  Ti23  1  0.33933600  0.67199000  0.36214600  1
  Ti  Ti24  1  0.66066400  0.32801000  0.63785400  1
  Ti  Ti25  1  0.83933600  0.32801000  0.13785400  1
  Ti  Ti26  1  0.36671700  0.30773100  0.80445100  1
  Ti  Ti27  1  0.13328300  0.30773100  0.30445100  1
  Ti  Ti28  1  0.61453000  0.19447100  0.98347800  1
  Ti  Ti29  1  0.88547000  0.19447100  0.48347800  1
  Ti  Ti30  1  0.09027500  0.17061300  0.95772900  1
  Ti  Ti31  1  0.40972500  0.17061300  0.45772900  1
  O  O32  1  0.88944800  0.85772700  0.52163500  1
  O  O33  1  0.61055200  0.85772700  0.02163500  1
  O  O34  1  0.09851000  0.83504900  0.93248600  1
  O  O35  1  0.40149000  0.83504900  0.43248600  1
  O  O36  1  0.80017600  0.78901400  0.75096200  1
  O  O37  1  0.69982400  0.78901400  0.25096200  1
  O  O38  1  0.92047700  0.75356500  0.84030200  1
  O  O39  1  0.53125500  0.73288500  0.63913400  1
  O  O40  1  0.57952300  0.75356500  0.34030200  1
  O  O41  1  0.96874500  0.73288500  0.13913400  1
  O  O42  1  0.22109900  0.77136300  0.95282600  1
  O  O43  1  0.27890100  0.77136300  0.45282600  1
  O  O44  1  0.16921000  0.74700400  0.66005800  1
  O  O45  1  0.33079000  0.74700400  0.16005800  1
  O  O46  1  0.04807000  0.71005500  0.57628800  1
  O  O47  1  0.45193000  0.71005500  0.07628800  1
  O  O48  1  0.65349600  0.66451200  0.60877500  1
  O  O49  1  0.84650400  0.66451200  0.10877500  1
  O  O50  1  0.36366400  0.64273200  0.84282000  1
  O  O51  1  0.13633600  0.64273200  0.34282000  1
  O  O52  1  0.86366400  0.35726800  0.65718000  1
  O  O53  1  0.63633600  0.35726800  0.15718000  1
  O  O54  1  0.15349600  0.33548800  0.89122500  1
  O  O55  1  0.34650400  0.33548800  0.39122500  1
  O  O56  1  0.54807000  0.28994500  0.92371200  1
  O  O57  1  0.95193000  0.28994500  0.42371200  1
  O  O58  1  0.66921000  0.25299600  0.83994200  1
  O  O59  1  0.83079000  0.25299600  0.33994200  1
  O  O60  1  0.72109900  0.22863700  0.54717400  1
  O  O61  1  0.77890100  0.22863700  0.04717400  1
  O  O62  1  0.03125500  0.26711500  0.86086600  1
  O  O63  1  0.42047700  0.24643500  0.65969800  1
  O  O64  1  0.46874500  0.26711500  0.36086600  1
  O  O65  1  0.07952300  0.24643500  0.15969800  1
  O  O66  1  0.30017600  0.21098600  0.74903800  1
  O  O67  1  0.19982400  0.21098600  0.24903800  1
  O  O68  1  0.59851000  0.16495100  0.56751400  1
  O  O69  1  0.90149000  0.16495100  0.06751400  1
  O  O70  1  0.38944800  0.14227300  0.97836500  1
  O  O71  1  0.11055200  0.14227300  0.47836500  1
