# generated using pymatgen
data_BiOF
_symmetry_space_group_name_H-M   'P 1'
_cell_length_a   5.87230600
_cell_length_b   5.83032800
_cell_length_c   6.07976209
_cell_angle_alpha   83.67196789
_cell_angle_beta   90.00000000
_cell_angle_gamma   90.00000000
_symmetry_Int_Tables_number   1
_chemical_formula_structural   BiOF
_chemical_formula_sum   'Bi4 O4 F4'
_cell_volume   206.88741106
_cell_formula_units_Z   4
loop_
 _symmetry_equiv_pos_site_id
 _symmetry_equiv_pos_as_xyz
  1  'x, y, z'
loop_
 _atom_site_type_symbol
 _atom_site_label
 _atom_site_symmetry_multiplicity
 _atom_site_fract_x
 _atom_site_fract_y
 _atom_site_fract_z
 _atom_site_occupancy
  Bi  Bi0  1  0.54544400  0.75761100  0.69182400  1
  Bi  Bi1  1  0.95455600  0.75761100  0.19182400  1
  Bi  Bi2  1  0.04544400  0.24238900  0.80817600  1
  Bi  Bi3  1  0.45455600  0.24238900  0.30817600  1
  O  O4  1  0.83005000  0.92443100  0.86875500  1
  O  O5  1  0.66995000  0.92443100  0.36875500  1
  O  O6  1  0.33005000  0.07556900  0.63124500  1
  O  O7  1  0.16995000  0.07556900  0.13124500  1
  F  F8  1  0.24640900  0.55819800  0.98078700  1
  F  F9  1  0.25359100  0.55819800  0.48078700  1
  F  F10  1  0.74640900  0.44180200  0.51921300  1
  F  F11  1  0.75359100  0.44180200  0.01921300  1
