# generated using pymatgen
data_P(H3C)3
_symmetry_space_group_name_H-M   'P 1'
_cell_length_a   5.32588300
_cell_length_b   9.28288700
_cell_length_c   21.97809100
_cell_angle_alpha   90.00000000
_cell_angle_beta   90.00000000
_cell_angle_gamma   90.00000000
_symmetry_Int_Tables_number   1
_chemical_formula_structural   P(H3C)3
_chemical_formula_sum   'P8 H72 C24'
_cell_volume   1086.58736987
_cell_formula_units_Z   8
loop_
 _symmetry_equiv_pos_site_id
 _symmetry_equiv_pos_as_xyz
  1  'x, y, z'
loop_
 _atom_site_type_symbol
 _atom_site_label
 _atom_site_symmetry_multiplicity
 _atom_site_fract_x
 _atom_site_fract_y
 _atom_site_fract_z
 _atom_site_occupancy
  P  P0  1  0.59419400  0.25000000  0.02309100  1
  P  P1  1  0.42672600  0.25000000  0.22904000  1
  P  P2  1  0.92672600  0.75000000  0.27096000  1
  P  P3  1  0.09419400  0.75000000  0.47690900  1
  P  P4  1  0.90580600  0.25000000  0.52309100  1
  P  P5  1  0.07327400  0.25000000  0.72904000  1
  P  P6  1  0.57327400  0.75000000  0.77096000  1
  P  P7  1  0.40580600  0.75000000  0.97690900  1
  H  H8  1  0.70767500  0.99590300  0.03913200  1
  H  H9  1  0.70767500  0.50409700  0.03913200  1
  H  H10  1  0.97115300  0.11225500  0.05172100  1
  H  H11  1  0.97115300  0.38774500  0.05172100  1
  H  H12  1  0.05168300  0.75000000  0.05111000  1
  H  H13  1  0.31896400  0.65418200  0.07884700  1
  H  H14  1  0.31896400  0.84581800  0.07884700  1
  H  H15  1  0.73072100  0.09706300  0.10791900  1
  H  H16  1  0.73072100  0.40293700  0.10791900  1
  H  H17  1  0.29282400  0.08818000  0.14690100  1
  H  H18  1  0.29282400  0.41182000  0.14690100  1
  H  H19  1  0.84770400  0.65439700  0.16895900  1
  H  H20  1  0.84770400  0.84560300  0.16895900  1
  H  H21  1  0.57842800  0.75000000  0.19687100  1
  H  H22  1  0.04828200  0.10769900  0.20220900  1
  H  H23  1  0.04828200  0.39230100  0.20220900  1
  H  H24  1  0.31469500  0.50371100  0.21769700  1
  H  H25  1  0.31469500  0.99628900  0.21769700  1
  H  H26  1  0.81469500  0.00371100  0.28230300  1
  H  H27  1  0.81469500  0.49628900  0.28230300  1
  H  H28  1  0.54828200  0.60769900  0.29779100  1
  H  H29  1  0.54828200  0.89230100  0.29779100  1
  H  H30  1  0.07842800  0.25000000  0.30312900  1
  H  H31  1  0.34770400  0.15439700  0.33104100  1
  H  H32  1  0.34770400  0.34560300  0.33104100  1
  H  H33  1  0.79282400  0.58818000  0.35309900  1
  H  H34  1  0.79282400  0.91182000  0.35309900  1
  H  H35  1  0.23072100  0.59706300  0.39208100  1
  H  H36  1  0.23072100  0.90293700  0.39208100  1
  H  H37  1  0.81896400  0.15418200  0.42115300  1
  H  H38  1  0.81896400  0.34581800  0.42115300  1
  H  H39  1  0.55168300  0.25000000  0.44889000  1
  H  H40  1  0.47115300  0.61225500  0.44827900  1
  H  H41  1  0.47115300  0.88774500  0.44827900  1
  H  H42  1  0.20767500  0.49590300  0.46086800  1
  H  H43  1  0.20767500  0.00409700  0.46086800  1
  H  H44  1  0.79232500  0.99590300  0.53913200  1
  H  H45  1  0.79232500  0.50409700  0.53913200  1
  H  H46  1  0.52884700  0.11225500  0.55172100  1
  H  H47  1  0.52884700  0.38774500  0.55172100  1
  H  H48  1  0.44831700  0.75000000  0.55111000  1
  H  H49  1  0.18103600  0.65418200  0.57884700  1
  H  H50  1  0.18103600  0.84581800  0.57884700  1
  H  H51  1  0.76927900  0.09706300  0.60791900  1
  H  H52  1  0.76927900  0.40293700  0.60791900  1
  H  H53  1  0.20717600  0.08818000  0.64690100  1
  H  H54  1  0.20717600  0.41182000  0.64690100  1
  H  H55  1  0.65229600  0.65439700  0.66895900  1
  H  H56  1  0.65229600  0.84560300  0.66895900  1
  H  H57  1  0.92157200  0.75000000  0.69687100  1
  H  H58  1  0.45171800  0.10769900  0.70220900  1
  H  H59  1  0.45171800  0.39230100  0.70220900  1
  H  H60  1  0.18530500  0.50371100  0.71769700  1
  H  H61  1  0.18530500  0.99628900  0.71769700  1
  H  H62  1  0.68530500  0.00371100  0.78230300  1
  H  H63  1  0.68530500  0.49628900  0.78230300  1
  H  H64  1  0.95171800  0.60769900  0.79779100  1
  H  H65  1  0.95171800  0.89230100  0.79779100  1
  H  H66  1  0.42157200  0.25000000  0.80312900  1
  H  H67  1  0.15229600  0.15439700  0.83104100  1
  H  H68  1  0.15229600  0.34560300  0.83104100  1
  H  H69  1  0.70717600  0.58818000  0.85309900  1
  H  H70  1  0.70717600  0.91182000  0.85309900  1
  H  H71  1  0.26927900  0.59706300  0.89208100  1
  H  H72  1  0.26927900  0.90293700  0.89208100  1
  H  H73  1  0.68103600  0.15418200  0.92115300  1
  H  H74  1  0.68103600  0.34581800  0.92115300  1
  H  H75  1  0.94831700  0.25000000  0.94889000  1
  H  H76  1  0.02884700  0.61225500  0.94827900  1
  H  H77  1  0.02884700  0.88774500  0.94827900  1
  H  H78  1  0.29232500  0.49590300  0.96086800  1
  H  H79  1  0.29232500  0.00409700  0.96086800  1
  C  C80  1  0.25798300  0.75000000  0.05336200  1
  C  C81  1  0.76796600  0.09928600  0.05863400  1
  C  C82  1  0.76796600  0.40071400  0.05863400  1
  C  C83  1  0.25207800  0.09669900  0.19580100  1
  C  C84  1  0.25207800  0.40330100  0.19580100  1
  C  C85  1  0.78469900  0.75000000  0.19422000  1
  C  C86  1  0.28469900  0.25000000  0.30578000  1
  C  C87  1  0.75207800  0.59669900  0.30419900  1
  C  C88  1  0.75207800  0.90330100  0.30419900  1
  C  C89  1  0.26796600  0.59928600  0.44136600  1
  C  C90  1  0.26796600  0.90071400  0.44136600  1
  C  C91  1  0.75798300  0.25000000  0.44663800  1
  C  C92  1  0.24201700  0.75000000  0.55336200  1
  C  C93  1  0.73203400  0.09928600  0.55863400  1
  C  C94  1  0.73203400  0.40071400  0.55863400  1
  C  C95  1  0.24792200  0.09669900  0.69580100  1
  C  C96  1  0.24792200  0.40330100  0.69580100  1
  C  C97  1  0.71530100  0.75000000  0.69422000  1
  C  C98  1  0.21530100  0.25000000  0.80578000  1
  C  C99  1  0.74792200  0.59669900  0.80419900  1
  C  C100  1  0.74792200  0.90330100  0.80419900  1
  C  C101  1  0.23203400  0.59928600  0.94136600  1
  C  C102  1  0.23203400  0.90071400  0.94136600  1
  C  C103  1  0.74201700  0.25000000  0.94663800  1
