# generated using pymatgen
data_Sc2InGa
_symmetry_space_group_name_H-M   'P 1'
_cell_length_a   11.80039828
_cell_length_b   11.80039828
_cell_length_c   11.80039828
_cell_angle_alpha   124.39721280
_cell_angle_beta   118.69458068
_cell_angle_gamma   87.41695358
_symmetry_Int_Tables_number   1
_chemical_formula_structural   Sc2InGa
_chemical_formula_sum   'Sc2 In1 Ga1'
_cell_volume   1129.79918620
_cell_formula_units_Z   1
loop_
 _symmetry_equiv_pos_site_id
 _symmetry_equiv_pos_as_xyz
  1  'x, y, z'
loop_
 _atom_site_type_symbol
 _atom_site_label
 _atom_site_symmetry_multiplicity
 _atom_site_fract_x
 _atom_site_fract_y
 _atom_site_fract_z
 _atom_site_occupancy
  Sc  Sc0  1  0.00000000  0.23798600  0.23798600  1
  Sc  Sc1  1  0.00000000  0.76201400  0.76201400  1
  In  In2  1  0.00000000  0.50000000  0.50000000  1
  Ga  Ga3  1  0.00000000  0.00000000  0.00000000  1
