# generated using pymatgen
data_Na2P2H12O11F2
_symmetry_space_group_name_H-M   'P 1'
_cell_length_a   5.38995472
_cell_length_b   10.00799095
_cell_length_c   12.78599309
_cell_angle_alpha   71.07823552
_cell_angle_beta   90.01049759
_cell_angle_gamma   74.17789718
_symmetry_Int_Tables_number   1
_chemical_formula_structural   Na2P2H12O11F2
_chemical_formula_sum   'Na4 P4 H24 O22 F4'
_cell_volume   624.73915228
_cell_formula_units_Z   2
loop_
 _symmetry_equiv_pos_site_id
 _symmetry_equiv_pos_as_xyz
  1  'x, y, z'
loop_
 _atom_site_type_symbol
 _atom_site_label
 _atom_site_symmetry_multiplicity
 _atom_site_fract_x
 _atom_site_fract_y
 _atom_site_fract_z
 _atom_site_occupancy
  Na  Na0  1  0.10032800  0.95842100  0.87874300  1
  Na  Na1  1  0.94210900  0.95700400  0.37978700  1
  Na  Na2  1  0.05899700  0.04331700  0.62156500  1
  Na  Na3  1  0.89111700  0.04433600  0.11848900  1
  P  P4  1  0.00161500  0.67496200  0.78094400  1
  P  P5  1  0.32217800  0.67379500  0.28097600  1
  P  P6  1  0.67593600  0.32562400  0.72100100  1
  P  P7  1  0.99883500  0.32396000  0.22186200  1
  H  H8  1  0.57426800  0.92298200  0.75307400  1
  H  H9  1  0.55673700  0.69908700  0.93851000  1
  H  H10  1  0.44172800  0.84008600  0.51534800  1
  H  H11  1  0.23659700  0.77521400  0.58630000  1
  H  H12  1  0.50412800  0.91821900  0.25892200  1
  H  H13  1  0.87389000  0.69885100  0.55234100  1
  H  H14  1  0.73277000  0.53516400  0.81343800  1
  H  H15  1  0.75208800  0.70341900  0.43816300  1
  H  H16  1  0.71929700  0.84043000  0.01277900  1
  H  H17  1  0.98518200  0.77908100  0.08580600  1
  H  H18  1  0.26573800  0.46471200  0.68929500  1
  H  H19  1  0.56159600  0.30831600  0.95036700  1
  H  H20  1  0.43190500  0.69849900  0.05026800  1
  H  H21  1  0.73171100  0.53630900  0.31348600  1
  H  H22  1  0.00926600  0.22523000  0.91176100  1
  H  H23  1  0.27599800  0.16472800  0.98456600  1
  H  H24  1  0.25185300  0.29652000  0.56573600  1
  H  H25  1  0.27200000  0.46020100  0.18920800  1
  H  H26  1  0.13035100  0.30393600  0.45097400  1
  H  H27  1  0.48886800  0.08428200  0.74386900  1
  H  H28  1  0.76714100  0.22660100  0.41514000  1
  H  H29  1  0.56289000  0.16057400  0.48605400  1
  H  H30  1  0.44190200  0.29843300  0.06457600  1
  H  H31  1  0.42935300  0.08113000  0.24687200  1
  O  O32  1  0.47876400  0.76236400  0.98190600  1
  O  O33  1  0.96615300  0.83320300  0.76843000  1
  O  O34  1  0.26070600  0.86710100  0.53452700  1
  O  O35  1  0.74293500  0.63438400  0.81728800  1
  O  O36  1  0.76160800  0.76410500  0.48375100  1
  O  O37  1  0.19746300  0.83274500  0.26675100  1
  O  O38  1  0.10479200  0.62292400  0.68569500  1
  O  O39  1  0.86996100  0.86991100  0.03230100  1
  O  O40  1  0.62211700  0.63502800  0.31752500  1
  O  O41  1  0.72686300  0.37848400  0.81567300  1
  O  O42  1  0.27380300  0.62239500  0.18528700  1
  O  O43  1  0.37614800  0.36630000  0.68404800  1
  O  O44  1  0.12698700  0.13466500  0.96427900  1
  O  O45  1  0.89759600  0.37574600  0.31734500  1
  O  O46  1  0.79925900  0.16676100  0.73505900  1
  O  O47  1  0.23969300  0.23687900  0.51916000  1
  O  O48  1  0.26024000  0.36196100  0.18515600  1
  O  O49  1  0.74298900  0.13414000  0.46612900  1
  O  O50  1  0.41646900  0.00297900  0.74781700  1
  O  O51  1  0.03209700  0.16618200  0.23319500  1
  O  O52  1  0.51629200  0.24031600  0.01740100  1
  O  O53  1  0.58176100  0.99892000  0.25151600  1
  F  F54  1  0.20215000  0.57351900  0.88706100  1
  F  F55  1  0.22133900  0.57382400  0.38756300  1
  F  F56  1  0.77899100  0.42391900  0.61498000  1
  F  F57  1  0.79843200  0.42508800  0.11580100  1
