# generated using pymatgen
data_Fe2OF3
_symmetry_space_group_name_H-M   'P 1'
_cell_length_a   4.83951627
_cell_length_b   4.83951627
_cell_length_c   12.44821500
_cell_angle_alpha   90.00000000
_cell_angle_beta   90.00000000
_cell_angle_gamma   91.94272711
_symmetry_Int_Tables_number   1
_chemical_formula_structural   Fe2OF3
_chemical_formula_sum   'Fe8 O4 F12'
_cell_volume   291.38104128
_cell_formula_units_Z   4
loop_
 _symmetry_equiv_pos_site_id
 _symmetry_equiv_pos_as_xyz
  1  'x, y, z'
loop_
 _atom_site_type_symbol
 _atom_site_label
 _atom_site_symmetry_multiplicity
 _atom_site_fract_x
 _atom_site_fract_y
 _atom_site_fract_z
 _atom_site_occupancy
  Fe  Fe0  1  0.97838500  0.97838500  0.62497400  1
  Fe  Fe1  1  0.97838500  0.97838500  0.87502600  1
  Fe  Fe2  1  0.02161500  0.02161500  0.12497400  1
  Fe  Fe3  1  0.02161500  0.02161500  0.37502600  1
  Fe  Fe4  1  0.47542000  0.47542000  0.25000000  1
  Fe  Fe5  1  0.52458000  0.52458000  0.75000000  1
  Fe  Fe6  1  0.50000000  0.50000000  0.50000000  1
  Fe  Fe7  1  0.50000000  0.50000000  0.00000000  1
  O  O8  1  0.31994900  0.31994900  0.12171100  1
  O  O9  1  0.31994900  0.31994900  0.37828900  1
  O  O10  1  0.68005100  0.68005100  0.62171100  1
  O  O11  1  0.68005100  0.68005100  0.87828900  1
  F  F12  1  0.78545200  0.20366600  0.75000000  1
  F  F13  1  0.79202600  0.20797400  0.00000000  1
  F  F14  1  0.79633400  0.21454800  0.25000000  1
  F  F15  1  0.79202600  0.20797400  0.50000000  1
  F  F16  1  0.29485300  0.29485300  0.62749600  1
  F  F17  1  0.29485300  0.29485300  0.87250400  1
  F  F18  1  0.70514700  0.70514700  0.12749600  1
  F  F19  1  0.70514700  0.70514700  0.37250400  1
  F  F20  1  0.20797400  0.79202600  0.00000000  1
  F  F21  1  0.21454800  0.79633400  0.25000000  1
  F  F22  1  0.20366600  0.78545200  0.75000000  1
  F  F23  1  0.20797400  0.79202600  0.50000000  1
