# generated using pymatgen
data_Fe4O5F3
_symmetry_space_group_name_H-M   'P 1'
_cell_length_a   4.74052100
_cell_length_b   6.07188170
_cell_length_c   9.46250484
_cell_angle_alpha   89.79405214
_cell_angle_beta   87.70356493
_cell_angle_gamma   89.79542172
_symmetry_Int_Tables_number   1
_chemical_formula_structural   Fe4O5F3
_chemical_formula_sum   'Fe8 O10 F6'
_cell_volume   272.14553007
_cell_formula_units_Z   2
loop_
 _symmetry_equiv_pos_site_id
 _symmetry_equiv_pos_as_xyz
  1  'x, y, z'
loop_
 _atom_site_type_symbol
 _atom_site_label
 _atom_site_symmetry_multiplicity
 _atom_site_fract_x
 _atom_site_fract_y
 _atom_site_fract_z
 _atom_site_occupancy
  Fe  Fe0  1  0.03920200  0.00165500  0.99135600  1
  Fe  Fe1  1  0.00709100  0.49771900  0.00707500  1
  Fe  Fe2  1  0.97498900  0.00161600  0.48335800  1
  Fe  Fe3  1  0.94122500  0.49818000  0.49796900  1
  Fe  Fe4  1  0.49431200  0.25019600  0.24619400  1
  Fe  Fe5  1  0.51787400  0.75105100  0.26206900  1
  Fe  Fe6  1  0.49051200  0.24941300  0.74517800  1
  Fe  Fe7  1  0.54451300  0.74955600  0.76766700  1
  O  O8  1  0.78257200  0.25257800  0.39981900  1
  O  O9  1  0.78843100  0.74909000  0.40428500  1
  O  O10  1  0.84190000  0.75001000  0.91140000  1
  O  O11  1  0.69881000  0.50188500  0.15473100  1
  O  O12  1  0.68830600  0.00489300  0.65255500  1
  O  O13  1  0.67442500  0.49595700  0.65743600  1
  O  O14  1  0.30214600  0.00177800  0.34227500  1
  O  O15  1  0.32577100  0.00088500  0.84389000  1
  O  O16  1  0.31712700  0.49688600  0.85149800  1
  O  O17  1  0.20014000  0.24939600  0.09270700  1
  F  F18  1  0.81264100  0.24696800  0.90124600  1
  F  F19  1  0.71364600  0.99824400  0.14653400  1
  F  F20  1  0.28228100  0.50050800  0.34952800  1
  F  F21  1  0.16861800  0.74475300  0.59044500  1
  F  F22  1  0.21644100  0.75234700  0.10562300  1
  F  F23  1  0.17702900  0.25443700  0.59516100  1
