# generated using pymatgen
data_Ca2HgAu
_symmetry_space_group_name_H-M   'P 1'
_cell_length_a   12.34935723
_cell_length_b   12.34935723
_cell_length_c   12.34935723
_cell_angle_alpha   120.01496368
_cell_angle_beta   119.93661938
_cell_angle_gamma   90.04194879
_symmetry_Int_Tables_number   1
_chemical_formula_structural   Ca2HgAu
_chemical_formula_sum   'Ca2 Hg1 Au1'
_cell_volume   1332.22189774
_cell_formula_units_Z   1
loop_
 _symmetry_equiv_pos_site_id
 _symmetry_equiv_pos_as_xyz
  1  'x, y, z'
loop_
 _atom_site_type_symbol
 _atom_site_label
 _atom_site_symmetry_multiplicity
 _atom_site_fract_x
 _atom_site_fract_y
 _atom_site_fract_z
 _atom_site_occupancy
  Ca  Ca0  1  0.00000000  0.23274800  0.23274800  1
  Ca  Ca1  1  0.00000000  0.76725200  0.76725200  1
  Hg  Hg2  1  0.00000000  0.50000000  0.50000000  1
  Au  Au3  1  0.00000000  0.00000000  0.00000000  1
