# generated using pymatgen
data_KRb2Na
_symmetry_space_group_name_H-M   'P 1'
_cell_length_a   16.10046345
_cell_length_b   16.10046345
_cell_length_c   16.10046345
_cell_angle_alpha   121.65698119
_cell_angle_beta   115.45016466
_cell_angle_gamma   92.60449898
_symmetry_Int_Tables_number   1
_chemical_formula_structural   KRb2Na
_chemical_formula_sum   'K1 Rb2 Na1'
_cell_volume   3001.90212972
_cell_formula_units_Z   1
loop_
 _symmetry_equiv_pos_site_id
 _symmetry_equiv_pos_as_xyz
  1  'x, y, z'
loop_
 _atom_site_type_symbol
 _atom_site_label
 _atom_site_symmetry_multiplicity
 _atom_site_fract_x
 _atom_site_fract_y
 _atom_site_fract_z
 _atom_site_occupancy
  K  K0  1  0.50000000  0.00000000  0.50000000  1
  Rb  Rb1  1  0.22898200  0.00000000  0.22898200  1
  Rb  Rb2  1  0.77101800  0.00000000  0.77101800  1
  Na  Na3  1  0.00000000  0.00000000  0.00000000  1
