# generated using pymatgen
data_V3OF11
_symmetry_space_group_name_H-M   'P 1'
_cell_length_a   5.27472300
_cell_length_b   5.42271300
_cell_length_c   14.93741363
_cell_angle_alpha   79.76538220
_cell_angle_beta   90.00000000
_cell_angle_gamma   90.00000000
_symmetry_Int_Tables_number   1
_chemical_formula_structural   V3OF11
_chemical_formula_sum   'V6 O2 F22'
_cell_volume   420.46109078
_cell_formula_units_Z   2
loop_
 _symmetry_equiv_pos_site_id
 _symmetry_equiv_pos_as_xyz
  1  'x, y, z'
loop_
 _atom_site_type_symbol
 _atom_site_label
 _atom_site_symmetry_multiplicity
 _atom_site_fract_x
 _atom_site_fract_y
 _atom_site_fract_z
 _atom_site_occupancy
  V  V0  1  0.03780700  0.22023200  0.00405500  1
  V  V1  1  0.50077200  0.08402000  0.33355600  1
  V  V2  1  0.00077200  0.91598000  0.66644400  1
  V  V3  1  0.53780700  0.77976800  0.99594500  1
  V  V4  1  0.00049100  0.58409900  0.33373500  1
  V  V5  1  0.50049100  0.41590100  0.66626500  1
  O  O6  1  0.72601300  0.03014200  0.98078200  1
  O  O7  1  0.22601300  0.96985800  0.01921800  1
  F  F8  1  0.80795800  0.23274700  0.64124500  1
  F  F9  1  0.30805300  0.09898300  0.69126200  1
  F  F10  1  0.91189100  0.21388800  0.11479600  1
  F  F11  1  0.58919800  0.04618100  0.44909400  1
  F  F12  1  0.91251600  0.88046600  0.78235400  1
  F  F13  1  0.41251600  0.11953400  0.21764600  1
  F  F14  1  0.08919800  0.95381900  0.55090600  1
  F  F15  1  0.41189100  0.78611200  0.88520400  1
  F  F16  1  0.80805300  0.90101700  0.30873800  1
  F  F17  1  0.69283100  0.73200300  0.64202600  1
  F  F18  1  0.76671800  0.54038600  0.97785300  1
  F  F19  1  0.30795800  0.76725300  0.35875500  1
  F  F20  1  0.19279500  0.59958400  0.69132700  1
  F  F21  1  0.55595200  0.68290800  0.11557200  1
  F  F22  1  0.91053800  0.54685100  0.44911200  1
  F  F23  1  0.58646800  0.37441200  0.78243400  1
  F  F24  1  0.08646800  0.62558800  0.21756600  1
  F  F25  1  0.41053800  0.45314900  0.55088800  1
  F  F26  1  0.05595200  0.31709200  0.88442800  1
  F  F27  1  0.69279500  0.40041600  0.30867300  1
  F  F28  1  0.26671800  0.45961400  0.02214700  1
  F  F29  1  0.19283100  0.26799700  0.35797400  1
