# generated using pymatgen
data_V3(O2F)2
_symmetry_space_group_name_H-M   'P 1'
_cell_length_a   4.71532200
_cell_length_b   8.96750727
_cell_length_c   4.73741294
_cell_angle_alpha   91.76346417
_cell_angle_beta   90.00124675
_cell_angle_gamma   89.99689873
_symmetry_Int_Tables_number   1
_chemical_formula_structural   V3(O2F)2
_chemical_formula_sum   'V6 O8 F4'
_cell_volume   200.22513618
_cell_formula_units_Z   2
loop_
 _symmetry_equiv_pos_site_id
 _symmetry_equiv_pos_as_xyz
  1  'x, y, z'
loop_
 _atom_site_type_symbol
 _atom_site_label
 _atom_site_symmetry_multiplicity
 _atom_site_fract_x
 _atom_site_fract_y
 _atom_site_fract_z
 _atom_site_occupancy
  V  V0  1  0.50001800  0.50001100  0.49995700  1
  V  V1  1  0.97706500  0.34602700  0.96585100  1
  V  V2  1  0.02296300  0.65398700  0.03411600  1
  V  V3  1  0.99995800  0.99998500  0.00001100  1
  V  V4  1  0.47704300  0.15395400  0.53416900  1
  V  V5  1  0.52294600  0.84606000  0.46582400  1
  O  O6  1  0.80091900  0.49558900  0.20408300  1
  O  O7  1  0.30087300  0.00436800  0.29593200  1
  O  O8  1  0.69912500  0.99563500  0.70407700  1
  O  O9  1  0.19910800  0.50435500  0.79589100  1
  O  O10  1  0.81704700  0.82862400  0.18986500  1
  O  O11  1  0.31704600  0.67138100  0.31020300  1
  O  O12  1  0.68297500  0.32863400  0.68982000  1
  O  O13  1  0.18291600  0.17138100  0.81018100  1
  F  F14  1  0.78734600  0.17132800  0.20290400  1
  F  F15  1  0.28738700  0.32865400  0.29708300  1
  F  F16  1  0.71261400  0.67135700  0.70292300  1
  F  F17  1  0.21265100  0.82866900  0.79711100  1
