# generated using pymatgen
data_VO2F
_symmetry_space_group_name_H-M   'P 1'
_cell_length_a   11.09897132
_cell_length_b   11.09897132
_cell_length_c   5.48011282
_cell_angle_alpha   77.70626115
_cell_angle_beta   77.70626115
_cell_angle_gamma   27.97636592
_symmetry_Int_Tables_number   1
_chemical_formula_structural   VO2F
_chemical_formula_sum   'V6 O12 F6'
_cell_volume   308.96654576
_cell_formula_units_Z   6
loop_
 _symmetry_equiv_pos_site_id
 _symmetry_equiv_pos_as_xyz
  1  'x, y, z'
loop_
 _atom_site_type_symbol
 _atom_site_label
 _atom_site_symmetry_multiplicity
 _atom_site_fract_x
 _atom_site_fract_y
 _atom_site_fract_z
 _atom_site_occupancy
  V  V0  1  0.12547900  0.37880600  0.72240000  1
  V  V1  1  0.29826700  0.52931600  0.62231200  1
  V  V2  1  0.47068400  0.70173300  0.37768800  1
  V  V3  1  0.62119400  0.87452100  0.27760000  1
  V  V4  1  0.97524300  0.18612600  0.87140900  1
  V  V5  1  0.81387400  0.02475700  0.12859100  1
  O  O6  1  0.99639400  0.00360600  0.00000000  1
  O  O7  1  0.04193200  0.76221200  0.80316900  1
  O  O8  1  0.36633500  0.63366500  0.50000000  1
  O  O9  1  0.33526000  0.32884600  0.66325000  1
  O  O10  1  0.23778800  0.95806800  0.19683100  1
  O  O11  1  0.36706200  0.10242100  0.47737700  1
  O  O12  1  0.78877600  0.34627100  0.64319400  1
  O  O13  1  0.65372900  0.21122400  0.35680600  1
  O  O14  1  0.69950200  0.96331000  0.16852400  1
  O  O15  1  0.67115400  0.66474000  0.33675000  1
  O  O16  1  0.89757900  0.63293800  0.52262300  1
  O  O17  1  0.03669100  0.30049800  0.83147600  1
  F  F18  1  0.11393800  0.68821900  0.31426800  1
  F  F19  1  0.55595500  0.30132600  0.87553700  1
  F  F20  1  0.69867400  0.44404500  0.12446300  1
  F  F21  1  0.31178100  0.88606200  0.68573200  1
  F  F22  1  0.45797400  0.01018900  0.98912800  1
  F  F23  1  0.98981100  0.54202600  0.01087200  1
