# generated using pymatgen
data_V4OF11
_symmetry_space_group_name_H-M   'P 1'
_cell_length_a   5.24219559
_cell_length_b   5.45391971
_cell_length_c   9.11634731
_cell_angle_alpha   73.32206823
_cell_angle_beta   89.57596082
_cell_angle_gamma   61.64110859
_symmetry_Int_Tables_number   1
_chemical_formula_structural   V4OF11
_chemical_formula_sum   'V4 O1 F11'
_cell_volume   217.12831160
_cell_formula_units_Z   1
loop_
 _symmetry_equiv_pos_site_id
 _symmetry_equiv_pos_as_xyz
  1  'x, y, z'
loop_
 _atom_site_type_symbol
 _atom_site_label
 _atom_site_symmetry_multiplicity
 _atom_site_fract_x
 _atom_site_fract_y
 _atom_site_fract_z
 _atom_site_occupancy
  V  V0  1  0.75424400  0.50762600  0.24743900  1
  V  V1  1  0.50131300  0.00182500  0.49935800  1
  V  V2  1  0.24843400  0.49647200  0.75237500  1
  V  V3  1  0.99397200  0.98027600  0.01451100  1
  O  O4  1  0.92120400  0.75980700  0.15834300  1
  F  F5  1  0.92709200  0.74722000  0.57456500  1
  F  F6  1  0.98088600  0.24549000  0.12497900  1
  F  F7  1  0.52463300  0.75172700  0.37531100  1
  F  F8  1  0.42164600  0.75244900  0.07302200  1
  F  F9  1  0.42544500  0.74821300  0.67579400  1
  F  F10  1  0.57741700  0.25529200  0.32230600  1
  F  F11  1  0.57826700  0.25235500  0.92627700  1
  F  F12  1  0.47558800  0.24941200  0.62519800  1
  F  F13  1  0.02086900  0.75917300  0.87163800  1
  F  F14  1  0.07495100  0.24058600  0.83367400  1
  F  F15  1  0.07403600  0.25207800  0.42521000  1
