# generated using pymatgen
data_Mn6O7F5
_symmetry_space_group_name_H-M   'P 1'
_cell_length_a   5.60435200
_cell_length_b   4.60070400
_cell_length_c   15.38665177
_cell_angle_alpha   89.83633427
_cell_angle_beta   90.00000000
_cell_angle_gamma   90.00000000
_symmetry_Int_Tables_number   1
_chemical_formula_structural   Mn6O7F5
_chemical_formula_sum   'Mn12 O14 F10'
_cell_volume   396.72726707
_cell_formula_units_Z   2
loop_
 _symmetry_equiv_pos_site_id
 _symmetry_equiv_pos_as_xyz
  1  'x, y, z'
loop_
 _atom_site_type_symbol
 _atom_site_label
 _atom_site_symmetry_multiplicity
 _atom_site_fract_x
 _atom_site_fract_y
 _atom_site_fract_z
 _atom_site_occupancy
  Mn  Mn0  1  0.85412000  0.94517300  0.41139100  1
  Mn  Mn1  1  0.16801400  0.98580700  0.24547500  1
  Mn  Mn2  1  0.85213400  0.01406500  0.07912800  1
  Mn  Mn3  1  0.83198600  0.98580700  0.74547500  1
  Mn  Mn4  1  0.14786600  0.01406500  0.57912800  1
  Mn  Mn5  1  0.14588000  0.94517300  0.91139100  1
  Mn  Mn6  1  0.64941700  0.50265200  0.58563400  1
  Mn  Mn7  1  0.64719900  0.51118100  0.92433800  1
  Mn  Mn8  1  0.63747900  0.51054100  0.25436000  1
  Mn  Mn9  1  0.35058300  0.50265200  0.08563400  1
  Mn  Mn10  1  0.35280100  0.51118100  0.42433800  1
  Mn  Mn11  1  0.36252100  0.51054100  0.75436000  1
  O  O12  1  0.89258600  0.76867000  0.30216200  1
  O  O13  1  0.89128300  0.79378600  0.63493900  1
  O  O14  1  0.88574400  0.76089200  0.96881600  1
  O  O15  1  0.10871700  0.79378600  0.13493900  1
  O  O16  1  0.11425600  0.76089200  0.46881600  1
  O  O17  1  0.10741400  0.76867000  0.80216200  1
  O  O18  1  0.39827600  0.71319800  0.31656000  1
  O  O19  1  0.61365800  0.70657500  0.47589500  1
  O  O20  1  0.60172400  0.71319800  0.81656000  1
  O  O21  1  0.38634200  0.70657500  0.97589500  1
  O  O22  1  0.62370500  0.28175900  0.02985500  1
  O  O23  1  0.38339200  0.28591200  0.19468500  1
  O  O24  1  0.37629500  0.28175900  0.52985500  1
  O  O25  1  0.61660800  0.28591200  0.69468500  1
  F  F26  1  0.61542300  0.77245300  0.14191600  1
  F  F27  1  0.38457700  0.77245300  0.64191600  1
  F  F28  1  0.61815800  0.23469400  0.36791100  1
  F  F29  1  0.38184200  0.23469400  0.86791100  1
  F  F30  1  0.87619500  0.26310100  0.19328200  1
  F  F31  1  0.88358900  0.21888500  0.51496600  1
  F  F32  1  0.12903500  0.23065600  0.35868500  1
  F  F33  1  0.11641100  0.21888500  0.01496600  1
  F  F34  1  0.87096500  0.23065600  0.85868500  1
  F  F35  1  0.12380500  0.26310100  0.69328200  1
