# generated using pymatgen
data_Na5V4(PO4)6
_symmetry_space_group_name_H-M   'P 1'
_cell_length_a   8.98379200
_cell_length_b   8.76223800
_cell_length_c   15.23415696
_cell_angle_alpha   55.75427057
_cell_angle_beta   90.00000000
_cell_angle_gamma   90.00000000
_symmetry_Int_Tables_number   1
_chemical_formula_structural   Na5V4(PO4)6
_chemical_formula_sum   'Na10 V8 P12 O48'
_cell_volume   991.30024365
_cell_formula_units_Z   2
loop_
 _symmetry_equiv_pos_site_id
 _symmetry_equiv_pos_as_xyz
  1  'x, y, z'
loop_
 _atom_site_type_symbol
 _atom_site_label
 _atom_site_symmetry_multiplicity
 _atom_site_fract_x
 _atom_site_fract_y
 _atom_site_fract_z
 _atom_site_occupancy
  Na  Na0  1  0.97173700  0.64791600  0.23673000  1
  Na  Na1  1  0.03934000  0.94759000  0.83270500  1
  Na  Na2  1  0.54837400  0.03802300  0.66810100  1
  Na  Na3  1  0.46642900  0.36479200  0.28768300  1
  Na  Na4  1  0.80690800  0.38532500  0.18983000  1
  Na  Na5  1  0.02826300  0.64791600  0.73673000  1
  Na  Na6  1  0.96066000  0.94759000  0.33270500  1
  Na  Na7  1  0.45162600  0.03802300  0.16810100  1
  Na  Na8  1  0.53357100  0.36479200  0.78768300  1
  Na  Na9  1  0.19309200  0.38532500  0.68983000  1
  V  V10  1  0.27691900  0.64304000  0.10403100  1
  V  V11  1  0.21365200  0.13997000  0.60108600  1
  V  V12  1  0.71268500  0.85768900  0.89151500  1
  V  V13  1  0.77530200  0.35400400  0.39995200  1
  V  V14  1  0.72308100  0.64304000  0.60403100  1
  V  V15  1  0.78634800  0.13997000  0.10108600  1
  V  V16  1  0.28731500  0.85768900  0.39151500  1
  V  V17  1  0.22469800  0.35400400  0.89995200  1
  P  P18  1  0.49493900  0.46713200  0.50287900  1
  P  P19  1  0.63431700  0.74932200  0.14297700  1
  P  P20  1  0.35256200  0.02687700  0.85157800  1
  P  P21  1  0.85804000  0.96924000  0.64430700  1
  P  P22  1  0.13604500  0.25987900  0.35063300  1
  P  P23  1  0.00198600  0.52847700  0.99910600  1
  P  P24  1  0.50506100  0.46713200  0.00287900  1
  P  P25  1  0.36568300  0.74932200  0.64297700  1
  P  P26  1  0.64743800  0.02687700  0.35157800  1
  P  P27  1  0.14196000  0.96924000  0.14430700  1
  P  P28  1  0.86395500  0.25987900  0.85063300  1
  P  P29  1  0.99801400  0.52847700  0.49910600  1
  O  O30  1  0.09346100  0.34950700  0.56870400  1
  O  O31  1  0.90786400  0.52435200  0.41374300  1
  O  O32  1  0.15468100  0.81514800  0.12464700  1
  O  O33  1  0.84105400  0.09070300  0.84594000  1
  O  O34  1  0.59208600  0.43051300  0.43246100  1
  O  O35  1  0.68882500  0.80100000  0.03465200  1
  O  O36  1  0.46631500  0.70664500  0.16115600  1
  O  O37  1  0.25353300  0.08017500  0.75301400  1
  O  O38  1  0.39243900  0.29191400  0.56866000  1
  O  O39  1  0.51973500  0.02335500  0.82681100  1
  O  O40  1  0.29094300  0.84737600  0.94637300  1
  O  O41  1  0.72649200  0.58003800  0.23098500  1
  O  O42  1  0.22675400  0.42983400  0.26742900  1
  O  O43  1  0.79420300  0.15204700  0.55288900  1
  O  O44  1  0.02910000  0.98070500  0.66434800  1
  O  O45  1  0.90045400  0.69773900  0.94140600  1
  O  O46  1  0.77096200  0.91568600  0.74516000  1
  O  O47  1  0.96667200  0.31070600  0.33635100  1
  O  O48  1  0.19421700  0.20296000  0.46198900  1
  O  O49  1  0.09797300  0.53869800  0.07904200  1
  O  O50  1  0.33256500  0.91933000  0.64929200  1
  O  O51  1  0.66768100  0.19170400  0.36341700  1
  O  O52  1  0.41689700  0.47589000  0.08757400  1
  O  O53  1  0.59636700  0.63919900  0.92844600  1
  O  O54  1  0.90653900  0.34950700  0.06870400  1
  O  O55  1  0.09213600  0.52435200  0.91374300  1
  O  O56  1  0.84531900  0.81514800  0.62464700  1
  O  O57  1  0.15894600  0.09070300  0.34594000  1
  O  O58  1  0.40791400  0.43051300  0.93246100  1
  O  O59  1  0.31117500  0.80100000  0.53465200  1
  O  O60  1  0.53368500  0.70664500  0.66115600  1
  O  O61  1  0.74646700  0.08017500  0.25301400  1
  O  O62  1  0.60756100  0.29191400  0.06866000  1
  O  O63  1  0.48026500  0.02335500  0.32681100  1
  O  O64  1  0.70905700  0.84737600  0.44637300  1
  O  O65  1  0.27350800  0.58003800  0.73098500  1
  O  O66  1  0.77324600  0.42983400  0.76742900  1
  O  O67  1  0.20579700  0.15204700  0.05288900  1
  O  O68  1  0.97090000  0.98070500  0.16434800  1
  O  O69  1  0.09954600  0.69773900  0.44140600  1
  O  O70  1  0.22903800  0.91568600  0.24516000  1
  O  O71  1  0.03332800  0.31070600  0.83635100  1
  O  O72  1  0.80578300  0.20296000  0.96198900  1
  O  O73  1  0.90202700  0.53869800  0.57904200  1
  O  O74  1  0.66743500  0.91933000  0.14929200  1
  O  O75  1  0.33231900  0.19170400  0.86341700  1
  O  O76  1  0.58310300  0.47589000  0.58757400  1
  O  O77  1  0.40363300  0.63919900  0.42844600  1
