# generated using pymatgen
data_W7(OF5)6
_symmetry_space_group_name_H-M   'P 1'
_cell_length_a   10.98010589
_cell_length_b   10.98010589
_cell_length_c   10.98010573
_cell_angle_alpha   50.24466449
_cell_angle_beta   50.24466449
_cell_angle_gamma   50.24466663
_symmetry_Int_Tables_number   1
_chemical_formula_structural   W7(OF5)6
_chemical_formula_sum   'W7 O6 F30'
_cell_volume   720.42085178
_cell_formula_units_Z   1
loop_
 _symmetry_equiv_pos_site_id
 _symmetry_equiv_pos_as_xyz
  1  'x, y, z'
loop_
 _atom_site_type_symbol
 _atom_site_label
 _atom_site_symmetry_multiplicity
 _atom_site_fract_x
 _atom_site_fract_y
 _atom_site_fract_z
 _atom_site_occupancy
  W  W0  1  0.00000000  0.00000000  0.00000000  1
  W  W1  1  0.23276200  0.60522600  0.92057700  1
  W  W2  1  0.39477400  0.07942300  0.76723800  1
  W  W3  1  0.07942300  0.76723800  0.39477400  1
  W  W4  1  0.92057700  0.23276200  0.60522600  1
  W  W5  1  0.60522600  0.92057700  0.23276200  1
  W  W6  1  0.76723800  0.39477400  0.07942300  1
  O  O7  1  0.23098000  0.97739500  0.90889200  1
  O  O8  1  0.90889200  0.23098000  0.97739500  1
  O  O9  1  0.97739500  0.90889200  0.23098000  1
  O  O10  1  0.02260500  0.09110800  0.76902000  1
  O  O11  1  0.09110800  0.76902000  0.02260500  1
  O  O12  1  0.76902000  0.02260500  0.09110800  1
  F  F13  1  0.51927800  0.90974900  0.91001200  1
  F  F14  1  0.63629100  0.54057100  0.94543900  1
  F  F15  1  0.54057100  0.94543900  0.63629100  1
  F  F16  1  0.91001200  0.51927800  0.90974900  1
  F  F17  1  0.09993400  0.74755100  0.78859200  1
  F  F18  1  0.25244900  0.21140800  0.90006600  1
  F  F19  1  0.90974900  0.91001200  0.51927800  1
  F  F20  1  0.94543900  0.63629100  0.54057100  1
  F  F21  1  0.37877300  0.46048200  0.80124900  1
  F  F22  1  0.37718200  0.72914100  0.75088000  1
  F  F23  1  0.27085900  0.24912000  0.62281800  1
  F  F24  1  0.19875100  0.62122700  0.53951800  1
  F  F25  1  0.53951800  0.19875100  0.62122700  1
  F  F26  1  0.21140800  0.90006600  0.25244900  1
  F  F27  1  0.24912000  0.62281800  0.27085900  1
  F  F28  1  0.75088000  0.37718200  0.72914100  1
  F  F29  1  0.78859200  0.09993400  0.74755100  1
  F  F30  1  0.46048200  0.80124900  0.37877300  1
  F  F31  1  0.80124900  0.37877300  0.46048200  1
  F  F32  1  0.72914100  0.75088000  0.37718200  1
  F  F33  1  0.62281800  0.27085900  0.24912000  1
  F  F34  1  0.62122700  0.53951800  0.19875100  1
  F  F35  1  0.05456100  0.36370900  0.45942900  1
  F  F36  1  0.09025100  0.08998800  0.48072200  1
  F  F37  1  0.74755100  0.78859200  0.09993400  1
  F  F38  1  0.90006600  0.25244900  0.21140800  1
  F  F39  1  0.08998800  0.48072200  0.09025100  1
  F  F40  1  0.45942900  0.05456100  0.36370900  1
  F  F41  1  0.36370900  0.45942900  0.05456100  1
  F  F42  1  0.48072200  0.09025100  0.08998800  1
