# generated using pymatgen
data_Zn3(GaS3)2
_symmetry_space_group_name_H-M   'P 1'
_cell_length_a   3.78018144
_cell_length_b   3.78018144
_cell_length_c   18.35039900
_cell_angle_alpha   90.00000000
_cell_angle_beta   90.00000000
_cell_angle_gamma   119.99999026
_symmetry_Int_Tables_number   1
_chemical_formula_structural   Zn3(GaS3)2
_chemical_formula_sum   'Zn3 Ga2 S6'
_cell_volume   227.09181311
_cell_formula_units_Z   1
loop_
 _symmetry_equiv_pos_site_id
 _symmetry_equiv_pos_as_xyz
  1  'x, y, z'
loop_
 _atom_site_type_symbol
 _atom_site_label
 _atom_site_symmetry_multiplicity
 _atom_site_fract_x
 _atom_site_fract_y
 _atom_site_fract_z
 _atom_site_occupancy
  Zn  Zn0  1  0.33333300  0.66666700  0.77579200  1
  Zn  Zn1  1  0.00000000  0.00000000  0.37749200  1
  Zn  Zn2  1  0.33333300  0.66666700  0.20308900  1
  Ga  Ga3  1  0.00000000  0.00000000  0.95157000  1
  Ga  Ga4  1  0.66666700  0.33333300  0.57893100  1
  S  S5  1  0.33333300  0.66666700  0.99799900  1
  S  S6  1  0.00000000  0.00000000  0.82471300  1
  S  S7  1  0.33333300  0.66666700  0.65277800  1
  S  S8  1  0.00000000  0.00000000  0.51326500  1
  S  S9  1  0.33333300  0.66666700  0.33833100  1
  S  S10  1  0.00000000  0.00000000  0.16164300  1
