# generated using pymatgen
data_MnFe(PO4)2
_symmetry_space_group_name_H-M   'P 1'
_cell_length_a   4.88929300
_cell_length_b   9.92175400
_cell_length_c   5.97409600
_cell_angle_alpha   90.00007301
_cell_angle_beta   90.00035800
_cell_angle_gamma   89.99951154
_symmetry_Int_Tables_number   1
_chemical_formula_structural   MnFe(PO4)2
_chemical_formula_sum   'Mn2 Fe2 P4 O16'
_cell_volume   289.80556184
_cell_formula_units_Z   2
loop_
 _symmetry_equiv_pos_site_id
 _symmetry_equiv_pos_as_xyz
  1  'x, y, z'
loop_
 _atom_site_type_symbol
 _atom_site_label
 _atom_site_symmetry_multiplicity
 _atom_site_fract_x
 _atom_site_fract_y
 _atom_site_fract_z
 _atom_site_occupancy
  Mn  Mn0  1  0.06721200  0.71698300  0.74999600  1
  Mn  Mn1  1  0.43272200  0.21693000  0.75000800  1
  Fe  Fe2  1  0.95774900  0.27812600  0.25000800  1
  Fe  Fe3  1  0.54229500  0.77819900  0.25000000  1
  P  P4  1  0.41023500  0.09781300  0.25000300  1
  P  P5  1  0.08973500  0.59781400  0.24999600  1
  P  P6  1  0.91477000  0.40020100  0.75000000  1
  P  P7  1  0.58526500  0.90020400  0.74999900  1
  O  O8  1  0.64091200  0.05327800  0.75000000  1
  O  O9  1  0.85914600  0.55328200  0.74999800  1
  O  O10  1  0.71750400  0.12203800  0.24999900  1
  O  O11  1  0.78247700  0.62203700  0.24999800  1
  O  O12  1  0.22918300  0.37971100  0.75000100  1
  O  O13  1  0.27084000  0.87970900  0.74999900  1
  O  O14  1  0.15674600  0.44783300  0.24999800  1
  O  O15  1  0.34322600  0.94783900  0.24999900  1
  O  O16  1  0.26051100  0.17222300  0.05038300  1
  O  O17  1  0.26051400  0.17222300  0.44962200  1
  O  O18  1  0.23947500  0.67222600  0.05038400  1
  O  O19  1  0.23947400  0.67222600  0.44961200  1
  O  O20  1  0.77380500  0.32962900  0.54629300  1
  O  O21  1  0.77380400  0.32962800  0.95370500  1
  O  O22  1  0.72619900  0.82962600  0.54627900  1
  O  O23  1  0.72620000  0.82962500  0.95371700  1
