# generated using pymatgen
data_Al2Zn2S5
_symmetry_space_group_name_H-M   'P 1'
_cell_length_a   3.68078584
_cell_length_b   3.68078584
_cell_length_c   30.31018300
_cell_angle_alpha   90.00000000
_cell_angle_beta   90.00000000
_cell_angle_gamma   119.99999717
_symmetry_Int_Tables_number   1
_chemical_formula_structural   Al2Zn2S5
_chemical_formula_sum   'Al4 Zn4 S10'
_cell_volume   355.63156602
_cell_formula_units_Z   2
loop_
 _symmetry_equiv_pos_site_id
 _symmetry_equiv_pos_as_xyz
  1  'x, y, z'
loop_
 _atom_site_type_symbol
 _atom_site_label
 _atom_site_symmetry_multiplicity
 _atom_site_fract_x
 _atom_site_fract_y
 _atom_site_fract_z
 _atom_site_occupancy
  Al  Al0  1  0.33333300  0.66666700  0.91366500  1
  Al  Al1  1  0.66666700  0.33333300  0.08633500  1
  Al  Al2  1  0.66666700  0.33333300  0.41366500  1
  Al  Al3  1  0.33333300  0.66666700  0.58633500  1
  Zn  Zn4  1  0.00000000  0.00000000  0.79955000  1
  Zn  Zn5  1  0.00000000  0.00000000  0.20045000  1
  Zn  Zn6  1  0.00000000  0.00000000  0.29955000  1
  Zn  Zn7  1  0.00000000  0.00000000  0.70045000  1
  S  S8  1  0.33333300  0.66666700  0.25000000  1
  S  S9  1  0.66666700  0.33333300  0.75000000  1
  S  S10  1  0.33333300  0.66666700  0.84186500  1
  S  S11  1  0.66666700  0.33333300  0.15813500  1
  S  S12  1  0.66666700  0.33333300  0.34186500  1
  S  S13  1  0.33333300  0.66666700  0.65813500  1
  S  S14  1  0.66666700  0.33333300  0.94609800  1
  S  S15  1  0.33333300  0.66666700  0.05390200  1
  S  S16  1  0.33333300  0.66666700  0.44609800  1
  S  S17  1  0.66666700  0.33333300  0.55390200  1
