# generated using pymatgen
data_Na3FeO4
_symmetry_space_group_name_H-M   'P 1'
_cell_length_a   8.43448510
_cell_length_b   8.43448510
_cell_length_c   5.73575279
_cell_angle_alpha   77.16610430
_cell_angle_beta   77.16610430
_cell_angle_gamma   98.86934532
_symmetry_Int_Tables_number   1
_chemical_formula_structural   Na3FeO4
_chemical_formula_sum   'Na12 Fe4 O16'
_cell_volume   378.91809976
_cell_formula_units_Z   4
loop_
 _symmetry_equiv_pos_site_id
 _symmetry_equiv_pos_as_xyz
  1  'x, y, z'
loop_
 _atom_site_type_symbol
 _atom_site_label
 _atom_site_symmetry_multiplicity
 _atom_site_fract_x
 _atom_site_fract_y
 _atom_site_fract_z
 _atom_site_occupancy
  Na  Na0  1  0.63571600  0.88050200  0.51552700  1
  Na  Na1  1  0.88050200  0.63571600  0.51552700  1
  Na  Na2  1  0.00000000  0.50000000  0.00000000  1
  Na  Na3  1  0.00000000  0.00000000  0.50000000  1
  Na  Na4  1  0.74330300  0.25669700  0.50000000  1
  Na  Na5  1  0.50000000  0.50000000  0.50000000  1
  Na  Na6  1  0.25669700  0.74330300  0.50000000  1
  Na  Na7  1  0.62442900  0.37557100  0.00000000  1
  Na  Na8  1  0.37557100  0.62442900  0.00000000  1
  Na  Na9  1  0.36428400  0.11949800  0.48447300  1
  Na  Na10  1  0.11949800  0.36428400  0.48447300  1
  Na  Na11  1  0.50000000  0.00000000  0.00000000  1
  Fe  Fe12  1  0.75039500  0.75039500  0.02938200  1
  Fe  Fe13  1  0.87598300  0.12401700  0.00000000  1
  Fe  Fe14  1  0.12401700  0.87598300  0.00000000  1
  Fe  Fe15  1  0.24960500  0.24960500  0.97061800  1
  O  O16  1  0.98823000  0.77128100  0.82248800  1
  O  O17  1  0.77128100  0.98823000  0.82248800  1
  O  O18  1  0.89069500  0.89069500  0.19133300  1
  O  O19  1  0.66468700  0.66468700  0.80806300  1
  O  O20  1  0.31776000  0.87519900  0.78132700  1
  O  O21  1  0.87519900  0.31776000  0.78132700  1
  O  O22  1  0.54696100  0.75425200  0.22840400  1
  O  O23  1  0.75425200  0.54696100  0.22840400  1
  O  O24  1  0.45303900  0.24574800  0.77159600  1
  O  O25  1  0.24574800  0.45303900  0.77159600  1
  O  O26  1  0.68224000  0.12480100  0.21867300  1
  O  O27  1  0.12480100  0.68224000  0.21867300  1
  O  O28  1  0.33531300  0.33531300  0.19193700  1
  O  O29  1  0.10930500  0.10930500  0.80866700  1
  O  O30  1  0.22871900  0.01177000  0.17751200  1
  O  O31  1  0.01177000  0.22871900  0.17751200  1
