# generated using pymatgen
data_Na8FeO6
_symmetry_space_group_name_H-M   'P 1'
_cell_length_a   6.31017769
_cell_length_b   6.31017769
_cell_length_c   12.74320268
_cell_angle_alpha   88.74591130
_cell_angle_beta   88.74591130
_cell_angle_gamma   60.71476960
_symmetry_Int_Tables_number   1
_chemical_formula_structural   Na8FeO6
_chemical_formula_sum   'Na16 Fe2 O12'
_cell_volume   442.42108425
_cell_formula_units_Z   2
loop_
 _symmetry_equiv_pos_site_id
 _symmetry_equiv_pos_as_xyz
  1  'x, y, z'
loop_
 _atom_site_type_symbol
 _atom_site_label
 _atom_site_symmetry_multiplicity
 _atom_site_fract_x
 _atom_site_fract_y
 _atom_site_fract_z
 _atom_site_occupancy
  Na  Na0  1  0.70665500  0.28954100  0.77164700  1
  Na  Na1  1  0.61109100  0.39364100  0.12341600  1
  Na  Na2  1  0.39364100  0.61109100  0.62341600  1
  Na  Na3  1  0.28954100  0.70665500  0.27164700  1
  Na  Na4  1  0.66392200  0.66828900  0.41240100  1
  Na  Na5  1  0.66828900  0.66392200  0.91240100  1
  Na  Na6  1  0.29821200  0.99247600  0.77202800  1
  Na  Na7  1  0.38821200  0.00348100  0.12332500  1
  Na  Na8  1  0.61413600  0.00168600  0.62271600  1
  Na  Na9  1  0.99247600  0.29821200  0.27202800  1
  Na  Na10  1  0.70301700  0.00370700  0.26737900  1
  Na  Na11  1  0.00348100  0.38821200  0.62332500  1
  Na  Na12  1  0.32948400  0.33370000  0.91233700  1
  Na  Na13  1  0.33370000  0.32948400  0.41233700  1
  Na  Na14  1  0.00168600  0.61413600  0.12271600  1
  Na  Na15  1  0.00370700  0.70301700  0.76737900  1
  Fe  Fe16  1  0.99940400  0.00297500  0.99565800  1
  Fe  Fe17  1  0.00297500  0.99940400  0.49565800  1
  O  O18  1  0.71400900  0.27309700  0.95292500  1
  O  O19  1  0.27309700  0.71400900  0.45292500  1
  O  O20  1  0.66445300  0.66972900  0.22141600  1
  O  O21  1  0.99732900  0.01064400  0.14770300  1
  O  O22  1  0.01064400  0.99732900  0.64770300  1
  O  O23  1  0.66972900  0.66445300  0.72141600  1
  O  O24  1  0.28900800  0.98661600  0.95319900  1
  O  O25  1  0.98661600  0.28900800  0.45319900  1
  O  O26  1  0.72688700  0.00075300  0.44754500  1
  O  O27  1  0.33667300  0.32855300  0.72164700  1
  O  O28  1  0.32855300  0.33667300  0.22164700  1
  O  O29  1  0.00075300  0.72688700  0.94754500  1
