# generated using pymatgen
data_V4OF11
_symmetry_space_group_name_H-M   'P 1'
_cell_length_a   5.26314000
_cell_length_b   5.46167149
_cell_length_c   17.45299865
_cell_angle_alpha   88.75202051
_cell_angle_beta   98.38114861
_cell_angle_gamma   118.68982285
_symmetry_Int_Tables_number   1
_chemical_formula_structural   V4OF11
_chemical_formula_sum   'V8 O2 F22'
_cell_volume   434.73140995
_cell_formula_units_Z   2
loop_
 _symmetry_equiv_pos_site_id
 _symmetry_equiv_pos_as_xyz
  1  'x, y, z'
loop_
 _atom_site_type_symbol
 _atom_site_label
 _atom_site_symmetry_multiplicity
 _atom_site_fract_x
 _atom_site_fract_y
 _atom_site_fract_z
 _atom_site_occupancy
  V  V0  1  0.22942400  0.59943000  0.87983200  1
  V  V1  1  0.25410500  0.12153300  0.37374000  1
  V  V2  1  0.49690800  0.24301000  0.75126000  1
  V  V3  1  0.50805800  0.73853400  0.24251400  1
  V  V4  1  0.74905700  0.87115200  0.62555200  1
  V  V5  1  0.74934700  0.38654600  0.12586100  1
  V  V6  1  0.99906600  0.01273900  0.99848100  1
  V  V7  1  0.00053300  0.49777900  0.49980500  1
  O  O8  1  0.05246500  0.32987800  0.93469500  1
  O  O9  1  0.57755800  0.59333000  0.16979700  1
  F  F10  1  0.07019800  0.83803700  0.91188900  1
  F  F11  1  0.02273700  0.80924200  0.43711200  1
  F  F12  1  0.46030600  0.92509600  0.81533600  1
  F  F13  1  0.06838500  0.03360400  0.71383100  1
  F  F14  1  0.07577300  0.33442300  0.41143800  1
  F  F15  1  0.07720100  0.54160400  0.21225000  1
  F  F16  1  0.57555500  0.79917200  0.96209100  1
  F  F17  1  0.43495400  0.42208000  0.83836400  1
  F  F18  1  0.42167000  0.90693100  0.33190100  1
  F  F19  1  0.42998700  0.71385600  0.53693300  1
  F  F20  1  0.51968900  0.55659600  0.68810800  1
  F  F21  1  0.48219700  0.44872400  0.31410900  1
  F  F22  1  0.57116300  0.08592700  0.66302400  1
  F  F23  1  0.57371500  0.28089600  0.46241900  1
  F  F24  1  0.42520400  0.21389000  0.03825300  1
  F  F25  1  0.92735800  0.65707100  0.58827700  1
  F  F26  1  0.92754200  0.46196700  0.78825700  1
  F  F27  1  0.92225000  0.96856700  0.28656900  1
  F  F28  1  0.52250000  0.06431400  0.18732300  1
  F  F29  1  0.96904200  0.69097600  0.06190100  1
  F  F30  1  0.98065900  0.18547200  0.56258100  1
  F  F31  1  0.92539300  0.16762700  0.08649300  1
