# generated using pymatgen
data_Li6MnV3(PO4)6
_symmetry_space_group_name_H-M   'P 1'
_cell_length_a   8.68009909
_cell_length_b   8.72944187
_cell_length_c   15.05001641
_cell_angle_alpha   106.09722876
_cell_angle_beta   89.99616006
_cell_angle_gamma   61.38040520
_symmetry_Int_Tables_number   1
_chemical_formula_structural   Li6MnV3(PO4)6
_chemical_formula_sum   'Li12 Mn2 V6 P12 O48'
_cell_volume   949.78420126
_cell_formula_units_Z   2
loop_
 _symmetry_equiv_pos_site_id
 _symmetry_equiv_pos_as_xyz
  1  'x, y, z'
loop_
 _atom_site_type_symbol
 _atom_site_label
 _atom_site_symmetry_multiplicity
 _atom_site_fract_x
 _atom_site_fract_y
 _atom_site_fract_z
 _atom_site_occupancy
  Li  Li0  1  0.30683600  0.74836700  0.32267100  1
  Li  Li1  1  0.18410200  0.71059600  0.55354200  1
  Li  Li2  1  0.68253600  0.71227100  0.05150400  1
  Li  Li3  1  0.16889300  0.25231900  0.19200300  1
  Li  Li4  1  0.21025200  0.67770700  0.82694900  1
  Li  Li5  1  0.71088100  0.67764200  0.32745900  1
  Li  Li6  1  0.26351800  0.21006700  0.63052400  1
  Li  Li7  1  0.76035900  0.21186700  0.13269700  1
  Li  Li8  1  0.79942900  0.74998300  0.81838400  1
  Li  Li9  1  0.67142200  0.24762100  0.68466400  1
  Li  Li10  1  0.36345600  0.17693500  0.98048700  1
  Li  Li11  1  0.86580100  0.17675300  0.48019200  1
  Mn  Mn12  1  0.78570000  0.85797900  0.57443800  1
  Mn  Mn13  1  0.53172500  0.35823900  0.32045200  1
  V  V14  1  0.28514600  0.85618400  0.07255700  1
  V  V15  1  0.03275800  0.35705000  0.82096300  1
  V  V16  1  0.47410000  0.64044900  0.67899500  1
  V  V17  1  0.21839200  0.14031700  0.42338000  1
  V  V18  1  0.97205700  0.63965200  0.17939500  1
  V  V19  1  0.71700600  0.14042100  0.92406200  1
  P  P20  1  0.01434000  0.95616000  0.73521300  1
  P  P21  1  0.51621300  0.95292600  0.23472400  1
  P  P22  1  0.02301900  0.25162800  0.02421500  1
  P  P23  1  0.09836500  0.54035100  0.37599100  1
  P  P24  1  0.40413000  0.45622000  0.12569800  1
  P  P25  1  0.47704900  0.75904100  0.47894900  1
  P  P26  1  0.52028400  0.25884200  0.52209900  1
  P  P27  1  0.59810400  0.53950300  0.87505300  1
  P  P28  1  0.90484300  0.45358100  0.62499000  1
  P  P29  1  0.97450200  0.75158300  0.97602600  1
  P  P30  1  0.48662100  0.04027200  0.76301500  1
  P  P31  1  0.98699500  0.03807600  0.26238100  1
  O  O32  1  0.02034400  0.84073100  0.23959900  1
  O  O33  1  0.46463200  0.90917400  0.13523600  1
  O  O34  1  0.40260900  0.94047000  0.30955700  1
  O  O35  1  0.00941600  0.68045700  0.47435600  1
  O  O36  1  0.29651100  0.92357400  0.47420000  1
  O  O37  1  0.35910600  0.64522300  0.12241600  1
  O  O38  1  0.23500300  0.44609100  0.14650900  1
  O  O39  1  0.26458300  0.55480400  0.35217700  1
  O  O40  1  0.20545200  0.79566100  0.72578300  1
  O  O41  1  0.70787200  0.79288200  0.22691100  1
  O  O42  1  0.20686300  0.09746700  0.03560000  1
  O  O43  1  0.15410900  0.34096300  0.36909700  1
  O  O44  1  0.10770300  0.04740600  0.19004000  1
  O  O45  1  0.01060400  0.29519400  0.53254200  1
  O  O46  1  0.12100200  0.80393200  0.99358600  1
  O  O47  1  0.43079900  0.69447300  0.55553700  1
  O  O48  1  0.51262700  0.29393700  0.03504700  1
  O  O49  1  0.02927000  0.40841500  0.70008400  1
  O  O50  1  0.04944500  0.59796300  0.87799800  1
  O  O51  1  0.62485700  0.81092900  0.49697100  1
  O  O52  1  0.92711800  0.68957000  0.05341800  1
  O  O53  1  0.03239600  0.08493100  0.36293100  1
  O  O54  1  0.52600400  0.41989800  0.20336800  1
  O  O55  1  0.54793800  0.61072900  0.38044200  1
  O  O56  1  0.52334600  0.84177500  0.73985000  1
  O  O57  1  0.49370600  0.14299400  0.25665600  1
  O  O58  1  0.43664700  0.42365400  0.61465200  1
  O  O59  1  0.94604400  0.41297200  0.11775600  1
  O  O60  1  0.95871700  0.92017500  0.63551200  1
  O  O61  1  0.46942500  0.58547600  0.80212800  1
  O  O62  1  0.07055800  0.30383700  0.94237800  1
  O  O63  1  0.38212500  0.19424200  0.50690500  1
  O  O64  1  0.96865400  0.58523300  0.30359000  1
  O  O65  1  0.56744900  0.31069900  0.43925400  1
  O  O66  1  0.88174400  0.19111000  0.00902300  1
  O  O67  1  0.90013600  0.94396100  0.80926700  1
  O  O68  1  0.50610100  0.68175600  0.97217200  1
  O  O69  1  0.79589400  0.91393600  0.96812200  1
  O  O70  1  0.86037400  0.64446300  0.62669600  1
  O  O71  1  0.29491500  0.18064800  0.75965900  1
  O  O72  1  0.79624600  0.18100000  0.25790900  1
  O  O73  1  0.73554900  0.44184600  0.64568800  1
  O  O74  1  0.76598700  0.55145700  0.85272500  1
  O  O75  1  0.70373300  0.11123900  0.53600000  1
  O  O76  1  0.65110300  0.34195100  0.87022200  1
  O  O77  1  0.60459500  0.05424300  0.69122900  1
  O  O78  1  0.53037300  0.08728700  0.86416600  1
  O  O79  1  0.99448200  0.14639900  0.76036700  1
