# generated using pymatgen
data_Sr2Fe23O38
_symmetry_space_group_name_H-M   'P 1'
_cell_length_a   5.93453400
_cell_length_b   5.95558128
_cell_length_c   23.26522196
_cell_angle_alpha   90.26808123
_cell_angle_beta   89.87442816
_cell_angle_gamma   119.86141814
_symmetry_Int_Tables_number   1
_chemical_formula_structural   Sr2Fe23O38
_chemical_formula_sum   'Sr2 Fe23 O38'
_cell_volume   713.09702753
_cell_formula_units_Z   1
loop_
 _symmetry_equiv_pos_site_id
 _symmetry_equiv_pos_as_xyz
  1  'x, y, z'
loop_
 _atom_site_type_symbol
 _atom_site_label
 _atom_site_symmetry_multiplicity
 _atom_site_fract_x
 _atom_site_fract_y
 _atom_site_fract_z
 _atom_site_occupancy
  Sr  Sr0  1  0.33705700  0.66898600  0.74874800  1
  Sr  Sr1  1  0.67325300  0.33107200  0.25043400  1
  Fe  Fe2  1  0.16718500  0.33557300  0.61191000  1
  Fe  Fe3  1  0.16761400  0.33518200  0.89133400  1
  Fe  Fe4  1  0.33223300  0.66035000  0.19460600  1
  Fe  Fe5  1  0.33203100  0.66564300  0.02675900  1
  Fe  Fe6  1  0.66318600  0.83260800  0.60722800  1
  Fe  Fe7  1  0.33497200  0.66573300  0.30956300  1
  Fe  Fe8  1  0.99890900  0.00161100  0.99971500  1
  Fe  Fe9  1  0.99860300  0.99843100  0.50130000  1
  Fe  Fe10  1  0.99862600  0.99736500  0.75099500  1
  Fe  Fe11  1  0.33178200  0.66783600  0.47496100  1
  Fe  Fe12  1  0.66468400  0.83116100  0.89145500  1
  Fe  Fe13  1  0.16907000  0.83222700  0.89052700  1
  Fe  Fe14  1  0.16811700  0.83284900  0.60711100  1
  Fe  Fe15  1  0.83323500  0.16506700  0.10957800  1
  Fe  Fe16  1  0.83676100  0.17257700  0.39391800  1
  Fe  Fe17  1  0.66649100  0.33463400  0.68933400  1
  Fe  Fe18  1  0.66632900  0.33619200  0.97359600  1
  Fe  Fe19  1  0.66602800  0.33136000  0.52873800  1
  Fe  Fe20  1  0.66742700  0.33187700  0.80847300  1
  Fe  Fe21  1  0.33475800  0.16497200  0.39059300  1
  Fe  Fe22  1  0.33285200  0.16362800  0.10851100  1
  Fe  Fe23  1  0.83581500  0.66764500  0.10855400  1
  Fe  Fe24  1  0.83063700  0.66525200  0.39072500  1
  O  O25  1  0.15277700  0.30882300  0.05062400  1
  O  O26  1  0.15084300  0.31117300  0.44743500  1
  O  O27  1  0.49689600  0.50258100  0.84994700  1
  O  O28  1  0.50033800  0.51839900  0.65116300  1
  O  O29  1  0.18967300  0.38528500  0.24611200  1
  O  O30  1  0.33202100  0.66688600  0.94382400  1
  O  O31  1  0.33497800  0.67146400  0.55784900  1
  O  O32  1  0.69089100  0.84767900  0.05029900  1
  O  O33  1  0.99892100  0.00063300  0.14630900  1
  O  O34  1  0.99236500  0.00413700  0.35317600  1
  O  O35  1  0.99509500  0.99151500  0.65037100  1
  O  O36  1  0.68492900  0.83370600  0.44959700  1
  O  O37  1  0.00061500  0.99995000  0.84683200  1
  O  O38  1  0.60853800  0.80547600  0.24808600  1
  O  O39  1  0.01540700  0.51812900  0.65073900  1
  O  O40  1  0.01224900  0.50439400  0.84831800  1
  O  O41  1  0.19816600  0.80496700  0.25066000  1
  O  O42  1  0.83896700  0.14855200  0.55492600  1
  O  O43  1  0.84631500  0.15400900  0.94857700  1
  O  O44  1  0.49103900  0.98436400  0.64879500  1
  O  O45  1  0.49481000  0.98835000  0.84802800  1
  O  O46  1  0.51660700  0.01416400  0.34944900  1
  O  O47  1  0.49889100  0.99944600  0.15095300  1
  O  O48  1  0.15203000  0.84880400  0.05060000  1
  O  O49  1  0.15777900  0.84509200  0.44774400  1
  O  O50  1  0.81686800  0.18257300  0.74774400  1
  O  O51  1  0.00112400  0.50248100  0.15108000  1
  O  O52  1  0.99828200  0.50545900  0.34777500  1
  O  O53  1  0.66511900  0.33210300  0.44494400  1
  O  O54  1  0.66831000  0.33331900  0.05667500  1
  O  O55  1  0.36539800  0.18344500  0.74843000  1
  O  O56  1  0.30513400  0.15155800  0.94856700  1
  O  O57  1  0.30914300  0.15015800  0.55472700  1
  O  O58  1  0.81507500  0.63284600  0.75042900  1
  O  O59  1  0.50259500  0.49874800  0.15108500  1
  O  O60  1  0.50072600  0.49546500  0.34767200  1
  O  O61  1  0.84852500  0.69511700  0.94863300  1
  O  O62  1  0.84449700  0.68852400  0.55569200  1
