# generated using pymatgen
data_Al12ZnS19
_symmetry_space_group_name_H-M   'P 1'
_cell_length_a   7.05849167
_cell_length_b   7.05849167
_cell_length_c   27.51730700
_cell_angle_alpha   90.00000000
_cell_angle_beta   90.00000000
_cell_angle_gamma   119.99999688
_symmetry_Int_Tables_number   1
_chemical_formula_structural   Al12ZnS19
_chemical_formula_sum   'Al24 Zn2 S38'
_cell_volume   1187.29977952
_cell_formula_units_Z   2
loop_
 _symmetry_equiv_pos_site_id
 _symmetry_equiv_pos_as_xyz
  1  'x, y, z'
loop_
 _atom_site_type_symbol
 _atom_site_label
 _atom_site_symmetry_multiplicity
 _atom_site_fract_x
 _atom_site_fract_y
 _atom_site_fract_z
 _atom_site_occupancy
  Al  Al0  1  0.16814200  0.83185800  0.61044500  1
  Al  Al1  1  0.16814200  0.33628400  0.61044500  1
  Al  Al2  1  0.66371600  0.83185800  0.61044500  1
  Al  Al3  1  0.83185800  0.16814200  0.38955500  1
  Al  Al4  1  0.83185800  0.66371600  0.38955500  1
  Al  Al5  1  0.33628400  0.16814200  0.38955500  1
  Al  Al6  1  0.83185800  0.16814200  0.11044500  1
  Al  Al7  1  0.83185800  0.66371600  0.11044500  1
  Al  Al8  1  0.33628400  0.16814200  0.11044500  1
  Al  Al9  1  0.16814200  0.83185800  0.88955500  1
  Al  Al10  1  0.16814200  0.33628400  0.88955500  1
  Al  Al11  1  0.66371600  0.83185800  0.88955500  1
  Al  Al12  1  0.33333300  0.66666700  0.47351300  1
  Al  Al13  1  0.66666700  0.33333300  0.52648700  1
  Al  Al14  1  0.66666700  0.33333300  0.97351300  1
  Al  Al15  1  0.33333300  0.66666700  0.02648700  1
  Al  Al16  1  0.33333300  0.66666700  0.30974600  1
  Al  Al17  1  0.66666700  0.33333300  0.69025400  1
  Al  Al18  1  0.66666700  0.33333300  0.80974600  1
  Al  Al19  1  0.33333300  0.66666700  0.19025400  1
  Al  Al20  1  0.00000000  0.00000000  0.50000000  1
  Al  Al21  1  0.00000000  0.00000000  0.00000000  1
  Al  Al22  1  0.00000000  0.00000000  0.25000000  1
  Al  Al23  1  0.00000000  0.00000000  0.75000000  1
  Zn  Zn24  1  0.33333300  0.66666700  0.75000000  1
  Zn  Zn25  1  0.66666700  0.33333300  0.25000000  1
  S  S26  1  0.15524300  0.84475700  0.44554000  1
  S  S27  1  0.15524300  0.31048600  0.44554000  1
  S  S28  1  0.68951400  0.84475700  0.44554000  1
  S  S29  1  0.84475700  0.15524300  0.55446000  1
  S  S30  1  0.84475700  0.68951400  0.55446000  1
  S  S31  1  0.31048600  0.15524300  0.55446000  1
  S  S32  1  0.84475700  0.15524300  0.94554000  1
  S  S33  1  0.84475700  0.68951400  0.94554000  1
  S  S34  1  0.31048600  0.15524300  0.94554000  1
  S  S35  1  0.15524300  0.84475700  0.05446000  1
  S  S36  1  0.15524300  0.31048600  0.05446000  1
  S  S37  1  0.68951400  0.84475700  0.05446000  1
  S  S38  1  0.51066200  0.48933800  0.34428300  1
  S  S39  1  0.51066200  0.02132500  0.34428300  1
  S  S40  1  0.97867500  0.48933800  0.34428300  1
  S  S41  1  0.48933800  0.51066200  0.65571700  1
  S  S42  1  0.48933800  0.97867500  0.65571700  1
  S  S43  1  0.02132500  0.51066200  0.65571700  1
  S  S44  1  0.48933800  0.51066200  0.84428300  1
  S  S45  1  0.48933800  0.97867500  0.84428300  1
  S  S46  1  0.02132500  0.51066200  0.84428300  1
  S  S47  1  0.51066200  0.48933800  0.15571700  1
  S  S48  1  0.51066200  0.02132500  0.15571700  1
  S  S49  1  0.97867500  0.48933800  0.15571700  1
  S  S50  1  0.33333300  0.66666700  0.55622600  1
  S  S51  1  0.66666700  0.33333300  0.44377400  1
  S  S52  1  0.66666700  0.33333300  0.05622600  1
  S  S53  1  0.33333300  0.66666700  0.94377400  1
  S  S54  1  0.00000000  0.00000000  0.34614200  1
  S  S55  1  0.00000000  0.00000000  0.65385800  1
  S  S56  1  0.00000000  0.00000000  0.84614200  1
  S  S57  1  0.00000000  0.00000000  0.15385800  1
  S  S58  1  0.18373100  0.81626900  0.25000000  1
  S  S59  1  0.18373100  0.36746200  0.25000000  1
  S  S60  1  0.63253800  0.81626900  0.25000000  1
  S  S61  1  0.81626900  0.18373100  0.75000000  1
  S  S62  1  0.81626900  0.63253800  0.75000000  1
  S  S63  1  0.36746200  0.18373100  0.75000000  1
