# generated using pymatgen
data_Li14V9(P2O7)8
_symmetry_space_group_name_H-M   'P 1'
_cell_length_a   10.87005733
_cell_length_b   9.76494478
_cell_length_c   12.98219733
_cell_angle_alpha   69.42382360
_cell_angle_beta   116.77764319
_cell_angle_gamma   107.91085215
_symmetry_Int_Tables_number   1
_chemical_formula_structural   Li14V9(P2O7)8
_chemical_formula_sum   'Li14 V9 P16 O56'
_cell_volume   1133.24741126
_cell_formula_units_Z   1
loop_
 _symmetry_equiv_pos_site_id
 _symmetry_equiv_pos_as_xyz
  1  'x, y, z'
loop_
 _atom_site_type_symbol
 _atom_site_label
 _atom_site_symmetry_multiplicity
 _atom_site_fract_x
 _atom_site_fract_y
 _atom_site_fract_z
 _atom_site_occupancy
  Li  Li0  1  0.01946800  0.14842100  0.88978900  1
  Li  Li1  1  0.12554500  0.93042600  0.58781600  1
  Li  Li2  1  0.37193000  0.04766500  0.91171800  1
  Li  Li3  1  0.13165700  0.42617000  0.09303400  1
  Li  Li4  1  0.37421100  0.54756300  0.41052000  1
  Li  Li5  1  0.50042800  0.36779900  0.81684100  1
  Li  Li6  1  0.49064400  0.86618900  0.32103300  1
  Li  Li7  1  0.50935600  0.13381100  0.67896700  1
  Li  Li8  1  0.49957200  0.63220100  0.18315900  1
  Li  Li9  1  0.62578900  0.45243700  0.58948000  1
  Li  Li10  1  0.86834300  0.57383000  0.90696600  1
  Li  Li11  1  0.62807000  0.95233500  0.08828200  1
  Li  Li12  1  0.87445500  0.06957400  0.41218500  1
  Li  Li13  1  0.98053200  0.85157900  0.11021100  1
  V  V14  1  0.22791500  0.70026900  0.92345900  1
  V  V15  1  0.00000000  0.50000000  0.50000000  1
  V  V16  1  0.26711600  0.56668300  0.70513600  1
  V  V17  1  0.22530300  0.19840000  0.42275100  1
  V  V18  1  0.74319100  0.93729400  0.80263400  1
  V  V19  1  0.25680900  0.06270600  0.19736600  1
  V  V20  1  0.77469700  0.80160000  0.57724900  1
  V  V21  1  0.73288400  0.43331700  0.29486400  1
  V  V22  1  0.77208500  0.29973100  0.07654100  1
  P  P23  1  0.05087900  0.97163200  0.77041500  1
  P  P24  1  0.30285500  0.35826300  0.98949200  1
  P  P25  1  0.04945500  0.47073000  0.27151600  1
  P  P26  1  0.46297300  0.81218800  0.86410300  1
  P  P27  1  0.20487600  0.23202100  0.66043400  1
  P  P28  1  0.29459000  0.85072800  0.48679100  1
  P  P29  1  0.20671500  0.72792300  0.16135500  1
  P  P30  1  0.53840900  0.69296500  0.63515400  1
  P  P31  1  0.46159100  0.30703500  0.36484600  1
  P  P32  1  0.79328500  0.27207700  0.83864500  1
  P  P33  1  0.70541000  0.14927200  0.51320900  1
  P  P34  1  0.79512400  0.76797900  0.33956600  1
  P  P35  1  0.53702700  0.18781200  0.13589700  1
  P  P36  1  0.95054500  0.52927000  0.72848400  1
  P  P37  1  0.69714500  0.64173700  0.01050800  1
  P  P38  1  0.94912100  0.02836800  0.22958500  1
  O  O39  1  0.01844900  0.59555000  0.83629900  1
  O  O40  1  0.19004100  0.92077700  0.85649700  1
  O  O41  1  0.04783100  0.54911600  0.66613200  1
  O  O42  1  0.09449100  0.15233100  0.72660100  1
  O  O43  1  0.31271200  0.75022800  0.78577400  1
  O  O44  1  0.45494200  0.84328400  0.97053500  1
  O  O45  1  0.19850100  0.70203500  0.51714200  1
  O  O46  1  0.27177800  0.97557600  0.51922400  1
  O  O47  1  0.31027400  0.40042900  0.86822900  1
  O  O48  1  0.18255200  0.39400900  0.61043900  1
  O  O49  1  0.08944200  0.65051700  0.22346600  1
  O  O50  1  0.01515500  0.09314600  0.33851900  1
  O  O51  1  0.15462000  0.15378300  0.56117500  1
  O  O52  1  0.30226600  0.89286500  0.36566900  1
  O  O53  1  0.18922900  0.42192000  0.35766600  1
  O  O54  1  0.18034300  0.88657500  0.11090700  1
  O  O55  1  0.53909300  0.94419300  0.79755500  1
  O  O56  1  0.54199100  0.67459900  0.91335000  1
  O  O57  1  0.35245400  0.20972500  0.75143800  1
  O  O58  1  0.04447100  0.04106500  0.16892500  1
  O  O59  1  0.15907200  0.64672700  0.06442500  1
  O  O60  1  0.45417600  0.82663300  0.58383400  1
  O  O61  1  0.46523000  0.55904500  0.70334900  1
  O  O62  1  0.35280100  0.70211700  0.25506400  1
  O  O63  1  0.71619200  0.51671700  0.97583900  1
  O  O64  1  0.80016800  0.78598800  0.98715600  1
  O  O65  1  0.31179900  0.24350500  0.28694900  1
  O  O66  1  0.45259300  0.33923600  0.47063900  1
  O  O67  1  0.54740700  0.66076400  0.52936100  1
  O  O68  1  0.68820100  0.75649500  0.71305100  1
  O  O69  1  0.19983200  0.21401200  0.01284400  1
  O  O70  1  0.28380800  0.48328300  0.02416100  1
  O  O71  1  0.64719900  0.29788300  0.74493600  1
  O  O72  1  0.53477000  0.44095500  0.29665100  1
  O  O73  1  0.54582400  0.17336700  0.41616600  1
  O  O74  1  0.84092800  0.35327300  0.93557500  1
  O  O75  1  0.95552900  0.95893500  0.83107500  1
  O  O76  1  0.64754600  0.79027500  0.24856200  1
  O  O77  1  0.45800900  0.32540100  0.08665000  1
  O  O78  1  0.46090700  0.05580700  0.20244500  1
  O  O79  1  0.81965700  0.11342500  0.88909300  1
  O  O80  1  0.81077100  0.57808000  0.64233400  1
  O  O81  1  0.69773400  0.10713500  0.63433100  1
  O  O82  1  0.84538000  0.84621700  0.43882500  1
  O  O83  1  0.98484500  0.90685400  0.66148100  1
  O  O84  1  0.91055800  0.34948300  0.77653400  1
  O  O85  1  0.81744800  0.60599100  0.38956100  1
  O  O86  1  0.68972600  0.59957100  0.13177100  1
  O  O87  1  0.72822200  0.02442400  0.48077600  1
  O  O88  1  0.80149900  0.29796500  0.48285800  1
  O  O89  1  0.54505800  0.15671600  0.02946500  1
  O  O90  1  0.68728800  0.24977200  0.21422600  1
  O  O91  1  0.90550900  0.84766900  0.27339900  1
  O  O92  1  0.95216900  0.45088400  0.33386800  1
  O  O93  1  0.80995900  0.07922300  0.14350300  1
  O  O94  1  0.98155100  0.40445000  0.16370100  1
