# generated using pymatgen
data_LiFeSiO4
_symmetry_space_group_name_H-M   'P 1'
_cell_length_a   18.76232702
_cell_length_b   8.22312101
_cell_length_c   5.53124300
_cell_angle_alpha   89.99837686
_cell_angle_beta   89.99779961
_cell_angle_gamma   90.00406529
_symmetry_Int_Tables_number   1
_chemical_formula_structural   LiFeSiO4
_chemical_formula_sum   'Li12 Fe12 Si12 O48'
_cell_volume   853.38718950
_cell_formula_units_Z   12
loop_
 _symmetry_equiv_pos_site_id
 _symmetry_equiv_pos_as_xyz
  1  'x, y, z'
loop_
 _atom_site_type_symbol
 _atom_site_label
 _atom_site_symmetry_multiplicity
 _atom_site_fract_x
 _atom_site_fract_y
 _atom_site_fract_z
 _atom_site_occupancy
  Li  Li0  1  0.08224500  0.57156200  0.03089400  1
  Li  Li1  1  0.08544600  0.07469700  0.47229300  1
  Li  Li2  1  0.24849800  0.92462600  0.99991100  1
  Li  Li3  1  0.25151100  0.42468800  0.49989100  1
  Li  Li4  1  0.41454000  0.57470800  0.97227200  1
  Li  Li5  1  0.41775700  0.07152900  0.53089000  1
  Li  Li6  1  0.58223100  0.92846600  0.03089500  1
  Li  Li7  1  0.58545400  0.42529000  0.47226900  1
  Li  Li8  1  0.74848600  0.57528500  0.99989700  1
  Li  Li9  1  0.75150600  0.07539100  0.49989900  1
  Li  Li10  1  0.91455000  0.92536000  0.97230100  1
  Li  Li11  1  0.91776100  0.42840500  0.53089700  1
  Fe  Fe12  1  0.99809200  0.24838600  0.99399900  1
  Fe  Fe13  1  0.00189800  0.75162900  0.49399400  1
  Fe  Fe14  1  0.16863000  0.74757500  0.51633700  1
  Fe  Fe15  1  0.16483500  0.24983900  0.00854300  1
  Fe  Fe16  1  0.33516300  0.74983900  0.50854900  1
  Fe  Fe17  1  0.33143000  0.24753700  0.01620500  1
  Fe  Fe18  1  0.49814700  0.25164600  0.99399400  1
  Fe  Fe19  1  0.50185200  0.74835400  0.49398300  1
  Fe  Fe20  1  0.66856600  0.75246000  0.51625300  1
  Fe  Fe21  1  0.66488300  0.25014600  0.00855800  1
  Fe  Fe22  1  0.83516700  0.75014300  0.50850400  1
  Fe  Fe23  1  0.83141300  0.25244600  0.01621100  1
  Si  Si24  1  0.08198900  0.90165300  0.99690100  1
  Si  Si25  1  0.08372700  0.40245300  0.50876700  1
  Si  Si26  1  0.24947100  0.59575800  0.01405900  1
  Si  Si27  1  0.25050500  0.09584700  0.51402200  1
  Si  Si28  1  0.41628000  0.90247200  0.00874800  1
  Si  Si29  1  0.41803500  0.40161900  0.49688600  1
  Si  Si30  1  0.58194600  0.59836000  0.99687400  1
  Si  Si31  1  0.58370500  0.09752600  0.50875600  1
  Si  Si32  1  0.74949400  0.90413500  0.01403600  1
  Si  Si33  1  0.75052200  0.40425300  0.51404700  1
  Si  Si34  1  0.91628700  0.59762700  0.00875900  1
  Si  Si35  1  0.91803800  0.09829200  0.49686100  1
  O  O36  1  0.98932000  0.98589800  0.49292500  1
  O  O37  1  0.01066300  0.01414100  0.99292500  1
  O  O38  1  0.01334900  0.51702700  0.50221300  1
  O  O39  1  0.08320500  0.27662600  0.74589400  1
  O  O40  1  0.08342000  0.27840400  0.26818300  1
  O  O41  1  0.08197400  0.77541600  0.23482400  1
  O  O42  1  0.08354100  0.77767600  0.75794600  1
  O  O43  1  0.15228000  0.01580300  0.01127400  1
  O  O44  1  0.15506400  0.51425300  0.51208100  1
  O  O45  1  0.17844100  0.48342000  0.01469700  1
  O  O46  1  0.17998300  0.98172300  0.50937100  1
  O  O47  1  0.25054400  0.22372500  0.27892800  1
  O  O48  1  0.24943600  0.21801300  0.75612800  1
  O  O49  1  0.24950000  0.72373000  0.77891700  1
  O  O50  1  0.25060400  0.71802800  0.25611900  1
  O  O51  1  0.32003200  0.48168000  0.00935800  1
  O  O52  1  0.32160000  0.98329200  0.51470400  1
  O  O53  1  0.34494500  0.01423700  0.01207600  1
  O  O54  1  0.34770300  0.51587700  0.51128800  1
  O  O55  1  0.41646600  0.27766400  0.25786400  1
  O  O56  1  0.41803100  0.27540200  0.73488600  1
  O  O57  1  0.41657800  0.77838400  0.76813700  1
  O  O58  1  0.41678200  0.77660500  0.24596800  1
  O  O59  1  0.48665000  0.01704000  0.00221600  1
  O  O60  1  0.48933000  0.51411500  0.49291500  1
  O  O61  1  0.51066600  0.48588100  0.99291300  1
  O  O62  1  0.51334300  0.98296900  0.50221900  1
  O  O63  1  0.58319100  0.22339000  0.74597800  1
  O  O64  1  0.58339500  0.22160600  0.26813800  1
  O  O65  1  0.58196100  0.72459700  0.23486500  1
  O  O66  1  0.58353500  0.72233200  0.75787500  1
  O  O67  1  0.65228500  0.48414400  0.01128700  1
  O  O68  1  0.65505300  0.98574000  0.51208100  1
  O  O69  1  0.67841400  0.01662600  0.01470200  1
  O  O70  1  0.67997300  0.51832400  0.50936600  1
  O  O71  1  0.74941500  0.28197700  0.75609500  1
  O  O72  1  0.75052200  0.27626500  0.27887600  1
  O  O73  1  0.75058400  0.78198100  0.25618500  1
  O  O74  1  0.74947900  0.77626700  0.77888200  1
  O  O75  1  0.82003100  0.01832000  0.00937100  1
  O  O76  1  0.82156300  0.51662100  0.51469200  1
  O  O77  1  0.84492200  0.48573700  0.01208100  1
  O  O78  1  0.84771400  0.98414700  0.51127800  1
  O  O79  1  0.91645200  0.22233900  0.25794500  1
  O  O80  1  0.91801600  0.22460100  0.73486400  1
  O  O81  1  0.91655900  0.72160300  0.76815300  1
  O  O82  1  0.91677300  0.72337800  0.24594200  1
  O  O83  1  0.98665400  0.48297400  0.00221500  1
