# generated using pymatgen
data_Zr15VO32
_symmetry_space_group_name_H-M   'P 1'
_cell_length_a   5.26837100
_cell_length_b   10.38895044
_cell_length_c   10.76278005
_cell_angle_alpha   99.62009444
_cell_angle_beta   90.10545349
_cell_angle_gamma   90.16377571
_symmetry_Int_Tables_number   1
_chemical_formula_structural   Zr15VO32
_chemical_formula_sum   'Zr15 V1 O32'
_cell_volume   580.78968642
_cell_formula_units_Z   1
loop_
 _symmetry_equiv_pos_site_id
 _symmetry_equiv_pos_as_xyz
  1  'x, y, z'
loop_
 _atom_site_type_symbol
 _atom_site_label
 _atom_site_symmetry_multiplicity
 _atom_site_fract_x
 _atom_site_fract_y
 _atom_site_fract_z
 _atom_site_occupancy
  Zr  Zr0  1  0.54223700  0.86327000  0.14667700  1
  Zr  Zr1  1  0.95605400  0.86463800  0.39452100  1
  Zr  Zr2  1  0.54384800  0.86265600  0.64447200  1
  Zr  Zr3  1  0.95796100  0.86110000  0.89523000  1
  Zr  Zr4  1  0.04284500  0.63850200  0.10511700  1
  Zr  Zr5  1  0.45384400  0.63674400  0.35535300  1
  Zr  Zr6  1  0.04285700  0.63713900  0.60335700  1
  Zr  Zr7  1  0.45818400  0.63766000  0.85398600  1
  Zr  Zr8  1  0.54302300  0.35961600  0.14789400  1
  Zr  Zr9  1  0.95315500  0.35501200  0.39461900  1
  Zr  Zr10  1  0.54081500  0.35875000  0.64147000  1
  Zr  Zr11  1  0.95505200  0.36209000  0.89538000  1
  Zr  Zr12  1  0.04171700  0.13962300  0.10764200  1
  Zr  Zr13  1  0.04304100  0.14131200  0.60361400  1
  Zr  Zr14  1  0.45562900  0.13841900  0.85493600  1
  V  V15  1  0.44680600  0.12944400  0.34980000  1
  O  O16  1  0.83650300  0.96519100  0.08000500  1
  O  O17  1  0.66560700  0.97781100  0.33110900  1
  O  O18  1  0.83988900  0.96610500  0.57560700  1
  O  O19  1  0.66756100  0.96598600  0.82781600  1
  O  O20  1  0.25904900  0.77706400  0.01138900  1
  O  O21  1  0.24209800  0.77676300  0.26093900  1
  O  O22  1  0.25594600  0.77713000  0.50953200  1
  O  O23  1  0.75694200  0.73076400  0.24128600  1
  O  O24  1  0.24302200  0.77547300  0.75991000  1
  O  O25  1  0.74222800  0.72597000  0.48861000  1
  O  O26  1  0.75778300  0.72438100  0.73876300  1
  O  O27  1  0.74279400  0.72460300  0.98985900  1
  O  O28  1  0.33365000  0.53424900  0.17227400  1
  O  O29  1  0.16414800  0.53319500  0.42156000  1
  O  O30  1  0.83295400  0.46536900  0.07889500  1
  O  O31  1  0.33442700  0.53388300  0.67070700  1
  O  O32  1  0.66910700  0.46624100  0.32801000  1
  O  O33  1  0.16515200  0.53546000  0.92230300  1
  O  O34  1  0.83474600  0.46194900  0.57750700  1
  O  O35  1  0.66542200  0.46484600  0.82750400  1
  O  O36  1  0.25624500  0.27603700  0.01212000  1
  O  O37  1  0.24927100  0.26931400  0.26449400  1
  O  O38  1  0.25490100  0.27385000  0.50809400  1
  O  O39  1  0.75664600  0.22271800  0.23994700  1
  O  O40  1  0.24197200  0.27580800  0.76028500  1
  O  O41  1  0.73059400  0.21857400  0.48492700  1
  O  O42  1  0.75791700  0.22434900  0.73847200  1
  O  O43  1  0.74229900  0.22384700  0.99005200  1
  O  O44  1  0.33931600  0.03879400  0.17998300  1
  O  O45  1  0.18278600  0.03952700  0.41753400  1
  O  O46  1  0.33248000  0.03467100  0.67145200  1
  O  O47  1  0.16948400  0.03409900  0.92498800  1
