# generated using pymatgen
data_AlFe2BO5
_symmetry_space_group_name_H-M   'P 1'
_cell_length_a   2.96451800
_cell_length_b   9.66872400
_cell_length_c   12.27848000
_cell_angle_alpha   90.00000000
_cell_angle_beta   90.00000000
_cell_angle_gamma   90.00000000
_symmetry_Int_Tables_number   1
_chemical_formula_structural   AlFe2BO5
_chemical_formula_sum   'Al4 Fe8 B4 O20'
_cell_volume   351.93937787
_cell_formula_units_Z   4
loop_
 _symmetry_equiv_pos_site_id
 _symmetry_equiv_pos_as_xyz
  1  'x, y, z'
loop_
 _atom_site_type_symbol
 _atom_site_label
 _atom_site_symmetry_multiplicity
 _atom_site_fract_x
 _atom_site_fract_y
 _atom_site_fract_z
 _atom_site_occupancy
  Al  Al0  1  0.00000000  0.74232200  0.38409200  1
  Al  Al1  1  0.00000000  0.25767800  0.61590800  1
  Al  Al2  1  0.00000000  0.24232200  0.11590800  1
  Al  Al3  1  0.00000000  0.75767800  0.88409200  1
  Fe  Fe4  1  0.50000000  0.49568900  0.22569900  1
  Fe  Fe5  1  0.50000000  0.50431100  0.77430100  1
  Fe  Fe6  1  0.50000000  0.99568900  0.27430100  1
  Fe  Fe7  1  0.50000000  0.00431100  0.72569900  1
  Fe  Fe8  1  0.50000000  0.50000000  0.50000000  1
  Fe  Fe9  1  0.50000000  0.00000000  0.00000000  1
  Fe  Fe10  1  0.00000000  0.00000000  0.50000000  1
  Fe  Fe11  1  0.00000000  0.50000000  0.00000000  1
  B  B12  1  0.00000000  0.76277500  0.13657100  1
  B  B13  1  0.00000000  0.23722500  0.86342900  1
  B  B14  1  0.00000000  0.26277500  0.36342900  1
  B  B15  1  0.00000000  0.73722500  0.63657100  1
  O  O16  1  0.00000000  0.83646500  0.03870500  1
  O  O17  1  0.00000000  0.16353500  0.96129500  1
  O  O18  1  0.00000000  0.33646500  0.46129500  1
  O  O19  1  0.00000000  0.66353500  0.53870500  1
  O  O20  1  0.50000000  0.61876700  0.35831500  1
  O  O21  1  0.50000000  0.38123300  0.64168500  1
  O  O22  1  0.50000000  0.11876700  0.14168500  1
  O  O23  1  0.50000000  0.88123300  0.85831500  1
  O  O24  1  0.00000000  0.62005500  0.13719000  1
  O  O25  1  0.00000000  0.37994500  0.86281000  1
  O  O26  1  0.00000000  0.12005500  0.36281000  1
  O  O27  1  0.00000000  0.87994500  0.63719000  1
  O  O28  1  0.50000000  0.86898000  0.41544800  1
  O  O29  1  0.50000000  0.13102000  0.58455200  1
  O  O30  1  0.50000000  0.36898000  0.08455200  1
  O  O31  1  0.50000000  0.63102000  0.91544800  1
  O  O32  1  0.00000000  0.83120400  0.23642400  1
  O  O33  1  0.00000000  0.16879600  0.76357600  1
  O  O34  1  0.00000000  0.33120400  0.26357600  1
  O  O35  1  0.00000000  0.66879600  0.73642400  1
