# generated using pymatgen
data_Ti15VO24
_symmetry_space_group_name_H-M   'P 1'
_cell_length_a   5.53784599
_cell_length_b   9.10917437
_cell_length_c   9.11153430
_cell_angle_alpha   68.23323907
_cell_angle_beta   95.23778869
_cell_angle_gamma   95.19733630
_symmetry_Int_Tables_number   1
_chemical_formula_structural   Ti15VO24
_chemical_formula_sum   'Ti15 V1 O24'
_cell_volume   424.27888246
_cell_formula_units_Z   1
loop_
 _symmetry_equiv_pos_site_id
 _symmetry_equiv_pos_as_xyz
  1  'x, y, z'
loop_
 _atom_site_type_symbol
 _atom_site_label
 _atom_site_symmetry_multiplicity
 _atom_site_fract_x
 _atom_site_fract_y
 _atom_site_fract_z
 _atom_site_occupancy
  Ti  Ti0  1  0.69092800  0.07660500  0.07724400  1
  Ti  Ti1  1  0.30857900  0.17235900  0.17290500  1
  Ti  Ti2  1  0.19235100  0.07675000  0.57813500  1
  Ti  Ti3  1  0.30729000  0.42251400  0.42373700  1
  Ti  Ti4  1  0.69092900  0.32745000  0.32711000  1
  Ti  Ti5  1  0.80958800  0.17302300  0.67320600  1
  Ti  Ti6  1  0.19242400  0.32811700  0.82732200  1
  Ti  Ti7  1  0.18996100  0.57637100  0.07621400  1
  Ti  Ti8  1  0.80933500  0.67290300  0.17296200  1
  Ti  Ti9  1  0.19108700  0.82591000  0.32779100  1
  Ti  Ti10  1  0.69353600  0.57745900  0.57578900  1
  Ti  Ti11  1  0.80785600  0.42296100  0.92314800  1
  Ti  Ti12  1  0.80817100  0.92428800  0.42203600  1
  Ti  Ti13  1  0.30890200  0.92279800  0.92395000  1
  Ti  Ti14  1  0.69059200  0.82741700  0.82583500  1
  V  V15  1  0.30957700  0.67249900  0.67220000  1
  O  O16  1  0.15728100  0.03080600  0.37613400  1
  O  O17  1  0.99915600  0.21857500  0.03055000  1
  O  O18  1  0.99960600  0.28185100  0.46902600  1
  O  O19  1  0.15699800  0.12519100  0.78192900  1
  O  O20  1  0.65597000  0.12549900  0.28065800  1
  O  O21  1  0.65613800  0.03042800  0.87542300  1
  O  O22  1  0.34278200  0.37509700  0.21912100  1
  O  O23  1  0.49984400  0.21929800  0.53069700  1
  O  O24  1  0.15623500  0.62470700  0.28138400  1
  O  O25  1  0.49968600  0.28026400  0.96937500  1
  O  O26  1  0.34411400  0.46502100  0.62505100  1
  O  O27  1  0.84315600  0.46907400  0.12475700  1
  O  O28  1  0.15596200  0.52591300  0.88234100  1
  O  O29  1  0.65426100  0.53095900  0.37493600  1
  O  O30  1  0.99066100  0.71896700  0.52586200  1
  O  O31  1  0.49909800  0.71834600  0.03051200  1
  O  O32  1  0.84369600  0.37599400  0.71893200  1
  O  O33  1  0.66221000  0.62492500  0.78168800  1
  O  O34  1  0.50297400  0.78245700  0.46524800  1
  O  O35  1  0.99946500  0.78143900  0.96853800  1
  O  O36  1  0.34319600  0.96809800  0.12599000  1
  O  O37  1  0.34702500  0.88222300  0.71842100  1
  O  O38  1  0.84485700  0.87579100  0.21905500  1
  O  O39  1  0.84452300  0.96964900  0.62478800  1
