# generated using pymatgen
data_Sb3(WO3)20
_symmetry_space_group_name_H-M   'P 1'
_cell_length_a   12.94868276
_cell_length_b   12.85763266
_cell_length_c   10.79973515
_cell_angle_alpha   65.70008044
_cell_angle_beta   64.82263895
_cell_angle_gamma   49.47728061
_symmetry_Int_Tables_number   1
_chemical_formula_structural   Sb3(WO3)20
_chemical_formula_sum   'Sb3 W20 O60'
_cell_volume   1212.84234044
_cell_formula_units_Z   1
loop_
 _symmetry_equiv_pos_site_id
 _symmetry_equiv_pos_as_xyz
  1  'x, y, z'
loop_
 _atom_site_type_symbol
 _atom_site_label
 _atom_site_symmetry_multiplicity
 _atom_site_fract_x
 _atom_site_fract_y
 _atom_site_fract_z
 _atom_site_occupancy
  Sb  Sb0  1  0.41247300  0.58752700  0.58752700  1
  Sb  Sb1  1  0.57568000  0.42432000  0.90137100  1
  Sb  Sb2  1  0.09862900  0.90137100  0.42432000  1
  W  W3  1  0.91315000  0.40807800  0.08685000  1
  W  W4  1  0.59192200  0.08685000  0.40807800  1
  W  W5  1  0.86609800  0.13390200  0.63434000  1
  W  W6  1  0.63399300  0.36600700  0.36600700  1
  W  W7  1  0.66200800  0.66306600  0.33799200  1
  W  W8  1  0.84504600  0.84357700  0.15495400  1
  W  W9  1  0.90787900  0.41172100  0.59256900  1
  W  W10  1  0.33693400  0.33799200  0.66306600  1
  W  W11  1  0.58827900  0.09212100  0.91217000  1
  W  W12  1  0.15642300  0.15495400  0.84357700  1
  W  W13  1  0.65988000  0.66049900  0.84010900  1
  W  W14  1  0.15989100  0.16048700  0.34012000  1
  W  W15  1  0.83951300  0.84010900  0.66049900  1
  W  W16  1  0.33950100  0.34012000  0.16048700  1
  W  W17  1  0.09288400  0.59316900  0.90711600  1
  W  W18  1  0.40683100  0.90711600  0.59316900  1
  W  W19  1  0.12536500  0.87463500  0.87463500  1
  W  W20  1  0.36566000  0.63434000  0.13390200  1
  W  W21  1  0.40743100  0.91217000  0.09212100  1
  W  W22  1  0.08783000  0.59256900  0.41172100  1
  O  O23  1  0.99809500  0.00190500  0.75001700  1
  O  O24  1  0.46763600  0.21601300  0.28239700  1
  O  O25  1  0.28432800  0.03110400  0.46563200  1
  O  O26  1  0.78398700  0.53236400  0.96604600  1
  O  O27  1  0.96889600  0.71567200  0.78106400  1
  O  O28  1  0.64650100  0.21822700  0.35349900  1
  O  O29  1  0.78177300  0.35349900  0.21822700  1
  O  O30  1  0.79819200  0.55111600  0.20180800  1
  O  O31  1  0.50027300  0.49972700  0.25004800  1
  O  O32  1  0.74995200  0.25004800  0.49972700  1
  O  O33  1  0.44888400  0.20180800  0.55111600  1
  O  O34  1  0.30216000  0.05162200  0.69784000  1
  O  O35  1  0.94837800  0.69784000  0.05162200  1
  O  O36  1  0.85038800  0.28293300  0.64806700  1
  O  O37  1  0.71706700  0.14961200  0.78138700  1
  O  O38  1  0.10250000  0.03087200  0.89750000  1
  O  O39  1  0.46216800  0.41521600  0.53783200  1
  O  O40  1  0.96912800  0.89750000  0.03087200  1
  O  O41  1  0.58478400  0.53783200  0.41521600  1
  O  O42  1  0.78105500  0.53555500  0.46847200  1
  O  O43  1  0.28138900  0.03408000  0.96902000  1
  O  O44  1  0.03098000  0.28449000  0.71861100  1
  O  O45  1  0.53152800  0.78508200  0.21894500  1
  O  O46  1  0.21491800  0.46847200  0.53555500  1
  O  O47  1  0.46444500  0.21894500  0.78508200  1
  O  O48  1  0.71551000  0.96902000  0.03408000  1
  O  O49  1  0.96592000  0.71861100  0.28449000  1
  O  O50  1  0.97438900  0.52561100  0.52561100  1
  O  O51  1  0.72433900  0.77710700  0.27566100  1
  O  O52  1  0.22289300  0.27566100  0.77710700  1
  O  O53  1  0.47438900  0.02561100  0.02561100  1
  O  O54  1  0.50703300  0.75639700  0.49296700  1
  O  O55  1  0.24360300  0.49296700  0.75639700  1
  O  O56  1  0.01125500  0.26198000  0.98874500  1
  O  O57  1  0.25472900  0.00760700  0.24575300  1
  O  O58  1  0.75424700  0.50808900  0.74527100  1
  O  O59  1  0.49191100  0.24575300  0.00760700  1
  O  O60  1  0.99239300  0.74527100  0.50808900  1
  O  O61  1  0.73802000  0.98874500  0.26198000  1
  O  O62  1  0.77760000  0.72240000  0.72240000  1
  O  O63  1  0.02538300  0.47608900  0.97461700  1
  O  O64  1  0.27760000  0.22240000  0.22240000  1
  O  O65  1  0.52391100  0.97461700  0.47608900  1
  O  O66  1  0.53436800  0.78106400  0.71567200  1
  O  O67  1  0.71760300  0.96604600  0.53236400  1
  O  O68  1  0.03395400  0.28239700  0.21601300  1
  O  O69  1  0.21893600  0.46563200  0.03110400  1
  O  O70  1  0.91721100  0.96109900  0.58541000  1
  O  O71  1  0.03890100  0.08278900  0.46372000  1
  O  O72  1  0.53628000  0.58541000  0.96109900  1
  O  O73  1  0.41459000  0.46372000  0.08278900  1
  O  O74  1  0.28205400  0.85057600  0.71794600  1
  O  O75  1  0.14942400  0.71794600  0.85057600  1
  O  O76  1  0.70185300  0.94849700  0.79831700  1
  O  O77  1  0.55133300  0.79831700  0.94849700  1
  O  O78  1  0.20168300  0.44866700  0.29814700  1
  O  O79  1  0.05150300  0.29814700  0.44866700  1
  O  O80  1  0.24998300  0.75001700  0.00190500  1
  O  O81  1  0.35193300  0.78138700  0.14961200  1
  O  O82  1  0.21861300  0.64806700  0.28293300  1
