# generated using pymatgen
data_VF5
_symmetry_space_group_name_H-M   'P 1'
_cell_length_a   8.71972300
_cell_length_b   6.33907700
_cell_length_c   8.77270333
_cell_angle_alpha   48.88939947
_cell_angle_beta   90.00000000
_cell_angle_gamma   90.00000000
_symmetry_Int_Tables_number   1
_chemical_formula_structural   VF5
_chemical_formula_sum   'V4 F20'
_cell_volume   365.35229863
_cell_formula_units_Z   4
loop_
 _symmetry_equiv_pos_site_id
 _symmetry_equiv_pos_as_xyz
  1  'x, y, z'
loop_
 _atom_site_type_symbol
 _atom_site_label
 _atom_site_symmetry_multiplicity
 _atom_site_fract_x
 _atom_site_fract_y
 _atom_site_fract_z
 _atom_site_occupancy
  V  V0  1  0.62934800  0.11562300  0.06186300  1
  V  V1  1  0.12934800  0.88437700  0.43813700  1
  V  V2  1  0.87065200  0.11562300  0.56186300  1
  V  V3  1  0.37065200  0.88437700  0.93813700  1
  F  F4  1  0.40006000  0.08435300  0.04117500  1
  F  F5  1  0.82827400  0.10432700  0.05667100  1
  F  F6  1  0.60098700  0.28759900  0.15319400  1
  F  F7  1  0.38355500  0.57480900  0.19595000  1
  F  F8  1  0.11343700  0.22151800  0.19485500  1
  F  F9  1  0.88355500  0.42519100  0.30405000  1
  F  F10  1  0.61343700  0.77848200  0.30514500  1
  F  F11  1  0.10098700  0.71240100  0.34680600  1
  F  F12  1  0.32827400  0.89567300  0.44332900  1
  F  F13  1  0.90006000  0.91564700  0.45882500  1
  F  F14  1  0.09994000  0.08435300  0.54117500  1
  F  F15  1  0.67172600  0.10432700  0.55667100  1
  F  F16  1  0.89901300  0.28759900  0.65319400  1
  F  F17  1  0.38656300  0.22151800  0.69485500  1
  F  F18  1  0.11644500  0.57480900  0.69595000  1
  F  F19  1  0.88656300  0.77848200  0.80514500  1
  F  F20  1  0.61644500  0.42519100  0.80405000  1
  F  F21  1  0.39901300  0.71240100  0.84680600  1
  F  F22  1  0.17172600  0.89567300  0.94332900  1
  F  F23  1  0.59994000  0.91564700  0.95882500  1
