# generated using pymatgen
data_Ba7Sn3S13
_symmetry_space_group_name_H-M   'P 1'
_cell_length_a   9.03606400
_cell_length_b   12.47045700
_cell_length_c   24.41472800
_cell_angle_alpha   90.00000000
_cell_angle_beta   90.00000000
_cell_angle_gamma   90.00000000
_symmetry_Int_Tables_number   1
_chemical_formula_structural   Ba7Sn3S13
_chemical_formula_sum   'Ba28 Sn12 S52'
_cell_volume   2751.14548820
_cell_formula_units_Z   4
loop_
 _symmetry_equiv_pos_site_id
 _symmetry_equiv_pos_as_xyz
  1  'x, y, z'
loop_
 _atom_site_type_symbol
 _atom_site_label
 _atom_site_symmetry_multiplicity
 _atom_site_fract_x
 _atom_site_fract_y
 _atom_site_fract_z
 _atom_site_occupancy
  Ba  Ba0  1  0.11825700  0.68805400  0.53290800  1
  Ba  Ba1  1  0.38174300  0.18805400  0.96709200  1
  Ba  Ba2  1  0.88174300  0.31194600  0.03290800  1
  Ba  Ba3  1  0.61825700  0.81194600  0.46709200  1
  Ba  Ba4  1  0.88174300  0.31194600  0.46709200  1
  Ba  Ba5  1  0.61825700  0.81194600  0.03290800  1
  Ba  Ba6  1  0.11825700  0.68805400  0.96709200  1
  Ba  Ba7  1  0.38174300  0.18805400  0.53290800  1
  Ba  Ba8  1  0.60310300  0.84277300  0.65502900  1
  Ba  Ba9  1  0.89689700  0.34277300  0.84497100  1
  Ba  Ba10  1  0.39689700  0.15722700  0.15502900  1
  Ba  Ba11  1  0.10310300  0.65722700  0.34497100  1
  Ba  Ba12  1  0.39689700  0.15722700  0.34497100  1
  Ba  Ba13  1  0.10310300  0.65722700  0.15502900  1
  Ba  Ba14  1  0.60310300  0.84277300  0.84497100  1
  Ba  Ba15  1  0.89689700  0.34277300  0.65502900  1
  Ba  Ba16  1  0.89592500  0.64434400  0.75000000  1
  Ba  Ba17  1  0.60407500  0.14434400  0.75000000  1
  Ba  Ba18  1  0.10407500  0.35565600  0.25000000  1
  Ba  Ba19  1  0.39592500  0.85565600  0.25000000  1
  Ba  Ba20  1  0.40978200  0.47777700  0.65808800  1
  Ba  Ba21  1  0.09021800  0.97777700  0.84191200  1
  Ba  Ba22  1  0.59021800  0.52222300  0.15808800  1
  Ba  Ba23  1  0.90978200  0.02222300  0.34191200  1
  Ba  Ba24  1  0.59021800  0.52222300  0.34191200  1
  Ba  Ba25  1  0.90978200  0.02222300  0.15808800  1
  Ba  Ba26  1  0.40978200  0.47777700  0.84191200  1
  Ba  Ba27  1  0.09021800  0.97777700  0.65808800  1
  Sn  Sn28  1  0.30571800  0.75732600  0.75000000  1
  Sn  Sn29  1  0.19428200  0.25732600  0.75000000  1
  Sn  Sn30  1  0.69428200  0.24267400  0.25000000  1
  Sn  Sn31  1  0.80571800  0.74267400  0.25000000  1
  Sn  Sn32  1  0.69925200  0.54858500  0.55165600  1
  Sn  Sn33  1  0.80074800  0.04858500  0.94834400  1
  Sn  Sn34  1  0.30074800  0.45141500  0.05165600  1
  Sn  Sn35  1  0.19925200  0.95141500  0.44834400  1
  Sn  Sn36  1  0.30074800  0.45141500  0.44834400  1
  Sn  Sn37  1  0.19925200  0.95141500  0.05165600  1
  Sn  Sn38  1  0.69925200  0.54858500  0.94834400  1
  Sn  Sn39  1  0.80074800  0.04858500  0.55165600  1
  S  S40  1  0.14136200  0.44898100  0.75000000  1
  S  S41  1  0.35863800  0.94898100  0.75000000  1
  S  S42  1  0.85863800  0.55101900  0.25000000  1
  S  S43  1  0.64136200  0.05101900  0.25000000  1
  S  S44  1  0.35940900  0.63722100  0.42838100  1
  S  S45  1  0.14059100  0.13722100  0.07161900  1
  S  S46  1  0.64059100  0.36277900  0.92838100  1
  S  S47  1  0.85940900  0.86277900  0.57161900  1
  S  S48  1  0.64059100  0.36277900  0.57161900  1
  S  S49  1  0.85940900  0.86277900  0.92838100  1
  S  S50  1  0.35940900  0.63722100  0.07161900  1
  S  S51  1  0.14059100  0.13722100  0.42838100  1
  S  S52  1  0.49076100  0.66314400  0.57076200  1
  S  S53  1  0.00923900  0.16314400  0.92923800  1
  S  S54  1  0.50923900  0.33685600  0.07076200  1
  S  S55  1  0.99076100  0.83685600  0.42923800  1
  S  S56  1  0.50923900  0.33685600  0.42923800  1
  S  S57  1  0.99076100  0.83685600  0.07076200  1
  S  S58  1  0.49076100  0.66314400  0.92923800  1
  S  S59  1  0.00923900  0.16314400  0.57076200  1
  S  S60  1  0.53083000  0.65251300  0.75000000  1
  S  S61  1  0.96917000  0.15251300  0.75000000  1
  S  S62  1  0.46917000  0.34748700  0.25000000  1
  S  S63  1  0.03083000  0.84748700  0.25000000  1
  S  S64  1  0.17321700  0.72010800  0.66852800  1
  S  S65  1  0.32678300  0.22010800  0.83147200  1
  S  S66  1  0.82678300  0.27989200  0.16852800  1
  S  S67  1  0.67321700  0.77989200  0.33147200  1
  S  S68  1  0.82678300  0.27989200  0.33147200  1
  S  S69  1  0.67321700  0.77989200  0.16852800  1
  S  S70  1  0.17321700  0.72010800  0.83147200  1
  S  S71  1  0.32678300  0.22010800  0.66852800  1
  S  S72  1  0.88314000  0.58926900  0.62043800  1
  S  S73  1  0.61686000  0.08926900  0.87956200  1
  S  S74  1  0.11686000  0.41073100  0.12043800  1
  S  S75  1  0.38314000  0.91073100  0.37956200  1
  S  S76  1  0.11686000  0.41073100  0.37956200  1
  S  S77  1  0.38314000  0.91073100  0.12043800  1
  S  S78  1  0.88314000  0.58926900  0.87956200  1
  S  S79  1  0.61686000  0.08926900  0.62043800  1
  S  S80  1  0.80981400  0.57764400  0.46296500  1
  S  S81  1  0.69018600  0.07764400  0.03703500  1
  S  S82  1  0.19018600  0.42235600  0.96296500  1
  S  S83  1  0.30981400  0.92235600  0.53703500  1
  S  S84  1  0.19018600  0.42235600  0.53703500  1
  S  S85  1  0.30981400  0.92235600  0.96296500  1
  S  S86  1  0.80981400  0.57764400  0.03703500  1
  S  S87  1  0.69018600  0.07764400  0.46296500  1
  S  S88  1  0.67252300  0.39428000  0.75000000  1
  S  S89  1  0.82747700  0.89428000  0.75000000  1
  S  S90  1  0.32747700  0.60572000  0.25000000  1
  S  S91  1  0.17252300  0.10572000  0.25000000  1
