# generated using pymatgen
data_Na3Ni7O12
_symmetry_space_group_name_H-M   'P 1'
_cell_length_a   5.41486956
_cell_length_b   5.82384226
_cell_length_c   7.69484211
_cell_angle_alpha   99.57984083
_cell_angle_beta   84.20419524
_cell_angle_gamma   74.01705305
_symmetry_Int_Tables_number   1
_chemical_formula_structural   Na3Ni7O12
_chemical_formula_sum   'Na3 Ni7 O12'
_cell_volume   227.25070087
_cell_formula_units_Z   1
loop_
 _symmetry_equiv_pos_site_id
 _symmetry_equiv_pos_as_xyz
  1  'x, y, z'
loop_
 _atom_site_type_symbol
 _atom_site_label
 _atom_site_symmetry_multiplicity
 _atom_site_fract_x
 _atom_site_fract_y
 _atom_site_fract_z
 _atom_site_occupancy
  Na  Na0  1  0.49516000  0.42062100  0.16537000  1
  Na  Na1  1  0.50071200  0.91699500  0.17101700  1
  Na  Na2  1  0.50354100  0.72776800  0.51655100  1
  Ni  Ni3  1  0.01182900  0.99744900  0.99382200  1
  Ni  Ni4  1  0.99824500  0.50304200  0.99644600  1
  Ni  Ni5  1  0.99894900  0.33112700  0.33792100  1
  Ni  Ni6  1  0.99295300  0.16845200  0.67027500  1
  Ni  Ni7  1  0.00357700  0.66570200  0.66859800  1
  Ni  Ni8  1  0.99102700  0.83837700  0.33323800  1
  Ni  Ni9  1  0.49810200  0.09534700  0.82316900  1
  O  O10  1  0.22241000  0.19831500  0.06311400  1
  O  O11  1  0.18019700  0.05364200  0.43421500  1
  O  O12  1  0.20413000  0.73522500  0.08072100  1
  O  O13  1  0.18282400  0.57526500  0.42743400  1
  O  O14  1  0.19979000  0.36510300  0.75058400  1
  O  O15  1  0.20763500  0.91439500  0.76334300  1
  O  O16  1  0.81653000  0.09929500  0.22510500  1
  O  O17  1  0.80281700  0.43058800  0.58747500  1
  O  O18  1  0.80639100  0.60992800  0.24807600  1
  O  O19  1  0.79423000  0.25536000  0.90183300  1
  O  O20  1  0.78573300  0.96108800  0.60264300  1
  O  O21  1  0.80321900  0.80358500  0.90571500  1
