# generated using pymatgen
data_BaNb4(FeO7)2
_symmetry_space_group_name_H-M   'P 1'
_cell_length_a   8.21328551
_cell_length_b   8.21328551
_cell_length_c   10.95879884
_cell_angle_alpha   82.88894919
_cell_angle_beta   82.88894919
_cell_angle_gamma   88.42884435
_symmetry_Int_Tables_number   1
_chemical_formula_structural   BaNb4(FeO7)2
_chemical_formula_sum   'Ba2 Nb8 Fe4 O28'
_cell_volume   727.87548457
_cell_formula_units_Z   2
loop_
 _symmetry_equiv_pos_site_id
 _symmetry_equiv_pos_as_xyz
  1  'x, y, z'
loop_
 _atom_site_type_symbol
 _atom_site_label
 _atom_site_symmetry_multiplicity
 _atom_site_fract_x
 _atom_site_fract_y
 _atom_site_fract_z
 _atom_site_occupancy
  Ba  Ba0  1  0.50000000  0.00000000  0.50000000  1
  Ba  Ba1  1  0.00000000  0.50000000  0.00000000  1
  Nb  Nb2  1  0.12735500  0.75323100  0.55546700  1
  Nb  Nb3  1  0.24676900  0.87264500  0.94453300  1
  Nb  Nb4  1  0.87264500  0.24676900  0.44453300  1
  Nb  Nb5  1  0.75323100  0.12735500  0.05546700  1
  Nb  Nb6  1  0.75536500  0.66917200  0.71049100  1
  Nb  Nb7  1  0.33082800  0.24463500  0.78950900  1
  Nb  Nb8  1  0.24463500  0.33082800  0.28950900  1
  Nb  Nb9  1  0.66917200  0.75536500  0.21049100  1
  Fe  Fe10  1  0.95075400  0.04924600  0.75000000  1
  Fe  Fe11  1  0.04924600  0.95075400  0.25000000  1
  Fe  Fe12  1  0.50000000  0.50000000  0.50000000  1
  Fe  Fe13  1  0.50000000  0.50000000  0.00000000  1
  O  O14  1  0.14365600  0.95280200  0.61838100  1
  O  O15  1  0.04719800  0.85634400  0.88161900  1
  O  O16  1  0.85634400  0.04719800  0.38161900  1
  O  O17  1  0.95280200  0.14365600  0.11838100  1
  O  O18  1  0.32583800  0.65048800  0.56838300  1
  O  O19  1  0.34951200  0.67416200  0.93161700  1
  O  O20  1  0.67416200  0.34951200  0.43161700  1
  O  O21  1  0.65048800  0.32583800  0.06838300  1
  O  O22  1  0.10372600  0.79087100  0.38879500  1
  O  O23  1  0.20912900  0.89627400  0.11120500  1
  O  O24  1  0.89627400  0.20912900  0.61120500  1
  O  O25  1  0.79087100  0.10372600  0.88879500  1
  O  O26  1  0.97696100  0.60042700  0.66237300  1
  O  O27  1  0.39957300  0.02303900  0.83762700  1
  O  O28  1  0.02303900  0.39957300  0.33762700  1
  O  O29  1  0.60042700  0.97696100  0.16237300  1
  O  O30  1  0.77721800  0.89497800  0.70908400  1
  O  O31  1  0.10502200  0.22278200  0.79091600  1
  O  O32  1  0.22278200  0.10502200  0.29091600  1
  O  O33  1  0.89497800  0.77721800  0.20908400  1
  O  O34  1  0.63734500  0.64259000  0.58329600  1
  O  O35  1  0.35741000  0.36265500  0.91670400  1
  O  O36  1  0.36265500  0.35741000  0.41670400  1
  O  O37  1  0.64259000  0.63734500  0.08329600  1
  O  O38  1  0.68421900  0.54442300  0.85984100  1
  O  O39  1  0.45557700  0.31578100  0.64015900  1
  O  O40  1  0.31578100  0.45557700  0.14015900  1
  O  O41  1  0.54442300  0.68421900  0.35984100  1
