# generated using pymatgen
data_VF4
_symmetry_space_group_name_H-M   'P 1'
_cell_length_a   7.67454701
_cell_length_b   7.67454701
_cell_length_c   7.67454715
_cell_angle_alpha   96.25235347
_cell_angle_beta   96.25235347
_cell_angle_gamma   96.25235443
_symmetry_Int_Tables_number   1
_chemical_formula_structural   VF4
_chemical_formula_sum   'V6 F24'
_cell_volume   443.31077541
_cell_formula_units_Z   6
loop_
 _symmetry_equiv_pos_site_id
 _symmetry_equiv_pos_as_xyz
  1  'x, y, z'
loop_
 _atom_site_type_symbol
 _atom_site_label
 _atom_site_symmetry_multiplicity
 _atom_site_fract_x
 _atom_site_fract_y
 _atom_site_fract_z
 _atom_site_occupancy
  V  V0  1  0.54925700  0.91955500  0.81369000  1
  V  V1  1  0.91955500  0.81369000  0.54925700  1
  V  V2  1  0.18631000  0.45074300  0.08044500  1
  V  V3  1  0.81369000  0.54925700  0.91955500  1
  V  V4  1  0.08044500  0.18631000  0.45074300  1
  V  V5  1  0.45074300  0.08044500  0.18631000  1
  F  F6  1  0.52786700  0.90153400  0.28340500  1
  F  F7  1  0.91452300  0.96715000  0.35716500  1
  F  F8  1  0.75530400  0.94704600  0.68722100  1
  F  F9  1  0.35716500  0.91452300  0.96715000  1
  F  F10  1  0.03285000  0.64283500  0.08547700  1
  F  F11  1  0.09846600  0.71659500  0.47213300  1
  F  F12  1  0.44598300  0.73323700  0.67366400  1
  F  F13  1  0.68722100  0.75530400  0.94704600  1
  F  F14  1  0.32633600  0.55401700  0.26676300  1
  F  F15  1  0.73323700  0.67366400  0.44598300  1
  F  F16  1  0.94704600  0.68722100  0.75530400  1
  F  F17  1  0.28340500  0.52786700  0.90153400  1
  F  F18  1  0.71659500  0.47213300  0.09846600  1
  F  F19  1  0.05295400  0.31277900  0.24469600  1
  F  F20  1  0.26676300  0.32633600  0.55401700  1
  F  F21  1  0.67366400  0.44598300  0.73323700  1
  F  F22  1  0.31277900  0.24469600  0.05295400  1
  F  F23  1  0.55401700  0.26676300  0.32633600  1
  F  F24  1  0.90153400  0.28340500  0.52786700  1
  F  F25  1  0.96715000  0.35716500  0.91452300  1
  F  F26  1  0.64283500  0.08547700  0.03285000  1
  F  F27  1  0.24469600  0.05295400  0.31277900  1
  F  F28  1  0.08547700  0.03285000  0.64283500  1
  F  F29  1  0.47213300  0.09846600  0.71659500  1
