# generated using pymatgen
data_Na3V5O10
_symmetry_space_group_name_H-M   'P 1'
_cell_length_a   6.58002315
_cell_length_b   7.25238607
_cell_length_c   10.25659767
_cell_angle_alpha   97.25233930
_cell_angle_beta   104.22869085
_cell_angle_gamma   108.73881105
_symmetry_Int_Tables_number   1
_chemical_formula_structural   Na3V5O10
_chemical_formula_sum   'Na6 V10 O20'
_cell_volume   437.91991987
_cell_formula_units_Z   2
loop_
 _symmetry_equiv_pos_site_id
 _symmetry_equiv_pos_as_xyz
  1  'x, y, z'
loop_
 _atom_site_type_symbol
 _atom_site_label
 _atom_site_symmetry_multiplicity
 _atom_site_fract_x
 _atom_site_fract_y
 _atom_site_fract_z
 _atom_site_occupancy
  Na  Na0  1  0.69990900  0.19987300  0.30000200  1
  Na  Na1  1  0.69990300  0.19988600  0.79999900  1
  Na  Na2  1  0.09359400  0.59691600  0.39815300  1
  Na  Na3  1  0.09318800  0.59698300  0.89754100  1
  Na  Na4  1  0.30636200  0.80309400  0.20180200  1
  Na  Na5  1  0.30679000  0.80307800  0.70244800  1
  V  V6  1  0.19993500  0.19995900  0.79991800  1
  V  V7  1  0.19993200  0.19984900  0.29988900  1
  V  V8  1  0.59783000  0.60236800  0.40373000  1
  V  V9  1  0.59484600  0.60085000  0.90018200  1
  V  V10  1  0.80229100  0.79771700  0.19629600  1
  V  V11  1  0.80514900  0.79916700  0.69982500  1
  V  V12  1  0.40368000  0.39741500  0.09874700  1
  V  V13  1  0.40951300  0.39724500  0.60175300  1
  V  V14  1  0.99645200  0.00261000  0.50131300  1
  V  V15  1  0.99043700  0.00274700  0.99823600  1
  O  O16  1  0.09270000  0.27569600  0.44636100  1
  O  O17  1  0.08764900  0.27828200  0.94346900  1
  O  O18  1  0.30727400  0.12429900  0.15364200  1
  O  O19  1  0.31230400  0.12176800  0.65658400  1
  O  O20  1  0.10867100  0.92156200  0.34000900  1
  O  O21  1  0.11790900  0.92485100  0.84837700  1
  O  O22  1  0.29137600  0.47850800  0.26001300  1
  O  O23  1  0.28211200  0.47524600  0.75168200  1
  O  O24  1  0.68497500  0.87115300  0.34436100  1
  O  O25  1  0.68724800  0.87803300  0.85429700  1
  O  O26  1  0.71507600  0.52886800  0.25564900  1
  O  O27  1  0.71278900  0.52197100  0.74569800  1
  O  O28  1  0.51021600  0.32744900  0.43715300  1
  O  O29  1  0.50617600  0.32452800  0.94071000  1
  O  O30  1  0.88978100  0.07258200  0.16284500  1
  O  O31  1  0.89381500  0.07544300  0.65930700  1
  O  O32  1  0.48661400  0.67520900  0.06090500  1
  O  O33  1  0.48420700  0.67690600  0.54479500  1
  O  O34  1  0.91583400  0.72310900  0.05520000  1
  O  O35  1  0.91346200  0.72478500  0.53911200  1
