# generated using pymatgen
data_Na5(NiO2)8
_symmetry_space_group_name_H-M   'P 1'
_cell_length_a   5.85425900
_cell_length_b   6.86940301
_cell_length_c   8.19318146
_cell_angle_alpha   81.13365073
_cell_angle_beta   77.50021512
_cell_angle_gamma   78.79432048
_symmetry_Int_Tables_number   1
_chemical_formula_structural   Na5(NiO2)8
_chemical_formula_sum   'Na5 Ni8 O16'
_cell_volume   313.38039959
_cell_formula_units_Z   1
loop_
 _symmetry_equiv_pos_site_id
 _symmetry_equiv_pos_as_xyz
  1  'x, y, z'
loop_
 _atom_site_type_symbol
 _atom_site_label
 _atom_site_symmetry_multiplicity
 _atom_site_fract_x
 _atom_site_fract_y
 _atom_site_fract_z
 _atom_site_occupancy
  Na  Na0  1  0.78156400  0.26764500  0.72978400  1
  Na  Na1  1  0.50000000  0.50000000  0.50000000  1
  Na  Na2  1  0.21843600  0.73235500  0.27021600  1
  Na  Na3  1  0.50000000  0.00000000  0.00000000  1
  Na  Na4  1  0.00000000  0.00000000  0.00000000  1
  Ni  Ni5  1  0.62504300  0.87697000  0.62521500  1
  Ni  Ni6  1  0.37683400  0.62527700  0.87597100  1
  Ni  Ni7  1  0.12596500  0.87812700  0.62810300  1
  Ni  Ni8  1  0.62316600  0.37472300  0.12402900  1
  Ni  Ni9  1  0.37495700  0.12303000  0.37478500  1
  Ni  Ni10  1  0.87576900  0.62678600  0.87618800  1
  Ni  Ni11  1  0.12423100  0.37321400  0.12381200  1
  Ni  Ni12  1  0.87403500  0.12187300  0.37189700  1
  O  O13  1  0.83967100  0.90191900  0.79661300  1
  O  O14  1  0.65582400  0.60529600  0.71147700  1
  O  O15  1  0.59421700  0.14819600  0.53847200  1
  O  O16  1  0.33653900  0.89648700  0.79247000  1
  O  O17  1  0.81818800  0.39476400  0.27577300  1
  O  O18  1  0.40578300  0.85180400  0.46152800  1
  O  O19  1  0.66346100  0.10351300  0.20753000  1
  O  O20  1  0.18181200  0.60523600  0.72422700  1
  O  O21  1  0.56977300  0.64850100  0.03163700  1
  O  O22  1  0.08331700  0.14594300  0.53057600  1
  O  O23  1  0.34417600  0.39470400  0.28852300  1
  O  O24  1  0.16032900  0.09808100  0.20338700  1
  O  O25  1  0.43022700  0.35149900  0.96836300  1
  O  O26  1  0.91668300  0.85405700  0.46942400  1
  O  O27  1  0.09636400  0.64609500  0.04118800  1
  O  O28  1  0.90363600  0.35390500  0.95881200  1
