# generated using pymatgen
data_Ba(WO3)6
_symmetry_space_group_name_H-M   'P 1'
_cell_length_a   7.52182292
_cell_length_b   7.52182292
_cell_length_c   7.73528800
_cell_angle_alpha   90.00000000
_cell_angle_beta   90.00000000
_cell_angle_gamma   120.00000811
_symmetry_Int_Tables_number   1
_chemical_formula_structural   Ba(WO3)6
_chemical_formula_sum   'Ba1 W6 O18'
_cell_volume   379.01229140
_cell_formula_units_Z   1
loop_
 _symmetry_equiv_pos_site_id
 _symmetry_equiv_pos_as_xyz
  1  'x, y, z'
loop_
 _atom_site_type_symbol
 _atom_site_label
 _atom_site_symmetry_multiplicity
 _atom_site_fract_x
 _atom_site_fract_y
 _atom_site_fract_z
 _atom_site_occupancy
  Ba  Ba0  1  0.00000000  0.00000000  0.56760200  1
  W  W1  1  0.00000000  0.50000000  0.75111000  1
  W  W2  1  0.00000000  0.50000000  0.24999800  1
  W  W3  1  0.50000000  0.50000000  0.75111000  1
  W  W4  1  0.50000000  0.50000000  0.24999800  1
  W  W5  1  0.50000000  0.00000000  0.24999800  1
  W  W6  1  0.50000000  0.00000000  0.75111000  1
  O  O7  1  0.00000000  0.50000000  0.00003500  1
  O  O8  1  0.00000000  0.50000000  0.50045900  1
  O  O9  1  0.21115900  0.78884100  0.25331900  1
  O  O10  1  0.20830600  0.79169400  0.74578100  1
  O  O11  1  0.20830600  0.41661200  0.74578100  1
  O  O12  1  0.21115900  0.42231900  0.25331900  1
  O  O13  1  0.57768100  0.78884100  0.25331900  1
  O  O14  1  0.58338800  0.79169400  0.74578100  1
  O  O15  1  0.50000000  0.50000000  0.00003500  1
  O  O16  1  0.50000000  0.50000000  0.50045900  1
  O  O17  1  0.42231900  0.21115900  0.25331900  1
  O  O18  1  0.41661200  0.20830600  0.74578100  1
  O  O19  1  0.50000000  0.00000000  0.50045900  1
  O  O20  1  0.79169400  0.58338800  0.74578100  1
  O  O21  1  0.78884100  0.57768100  0.25331900  1
  O  O22  1  0.50000000  0.00000000  0.00003500  1
  O  O23  1  0.78884100  0.21115900  0.25331900  1
  O  O24  1  0.79169400  0.20830600  0.74578100  1
