# generated using pymatgen
data_RbCuSb2H2Se4O
_symmetry_space_group_name_H-M   'P 1'
_cell_length_a   4.11704200
_cell_length_b   11.36635800
_cell_length_c   21.42183100
_cell_angle_alpha   90.00000000
_cell_angle_beta   90.00000000
_cell_angle_gamma   90.00000000
_symmetry_Int_Tables_number   1
_chemical_formula_structural   RbCuSb2H2Se4O
_chemical_formula_sum   'Rb4 Cu4 Sb8 H8 Se16 O4'
_cell_volume   1002.45114657
_cell_formula_units_Z   4
loop_
 _symmetry_equiv_pos_site_id
 _symmetry_equiv_pos_as_xyz
  1  'x, y, z'
loop_
 _atom_site_type_symbol
 _atom_site_label
 _atom_site_symmetry_multiplicity
 _atom_site_fract_x
 _atom_site_fract_y
 _atom_site_fract_z
 _atom_site_occupancy
  Rb  Rb0  1  0.75000000  0.15344500  0.58080700  1
  Rb  Rb1  1  0.25000000  0.34655500  0.08080700  1
  Rb  Rb2  1  0.75000000  0.65344500  0.91919300  1
  Rb  Rb3  1  0.25000000  0.84655500  0.41919300  1
  Cu  Cu4  1  0.75000000  0.09373500  0.77420000  1
  Cu  Cu5  1  0.25000000  0.40626500  0.27420000  1
  Cu  Cu6  1  0.75000000  0.59373500  0.72580000  1
  Cu  Cu7  1  0.25000000  0.90626500  0.22580000  1
  Sb  Sb8  1  0.25000000  0.03420600  0.91838000  1
  Sb  Sb9  1  0.75000000  0.13768400  0.26209900  1
  Sb  Sb10  1  0.25000000  0.36231600  0.76209900  1
  Sb  Sb11  1  0.75000000  0.46579400  0.41838000  1
  Sb  Sb12  1  0.25000000  0.53420600  0.58162000  1
  Sb  Sb13  1  0.75000000  0.63768400  0.23790100  1
  Sb  Sb14  1  0.25000000  0.86231600  0.73790100  1
  Sb  Sb15  1  0.75000000  0.96579400  0.08162000  1
  H  H16  1  0.56659200  0.09617900  0.42816000  1
  H  H17  1  0.93340800  0.09617900  0.42816000  1
  H  H18  1  0.06659200  0.40382100  0.92816000  1
  H  H19  1  0.43340800  0.40382100  0.92816000  1
  H  H20  1  0.56659200  0.59617900  0.07184000  1
  H  H21  1  0.93340800  0.59617900  0.07184000  1
  H  H22  1  0.06659200  0.90382100  0.57184000  1
  H  H23  1  0.43340800  0.90382100  0.57184000  1
  Se  Se24  1  0.25000000  0.08601000  0.70923800  1
  Se  Se25  1  0.25000000  0.07496100  0.15208700  1
  Se  Se26  1  0.75000000  0.13997400  0.00089900  1
  Se  Se27  1  0.25000000  0.21393900  0.33817200  1
  Se  Se28  1  0.75000000  0.28606100  0.83817200  1
  Se  Se29  1  0.25000000  0.36002600  0.50089900  1
  Se  Se30  1  0.75000000  0.42503900  0.65208700  1
  Se  Se31  1  0.75000000  0.41399000  0.20923800  1
  Se  Se32  1  0.25000000  0.58601000  0.79076200  1
  Se  Se33  1  0.25000000  0.57496100  0.34791300  1
  Se  Se34  1  0.75000000  0.63997400  0.49910100  1
  Se  Se35  1  0.25000000  0.71393900  0.16182800  1
  Se  Se36  1  0.75000000  0.78606100  0.66182800  1
  Se  Se37  1  0.25000000  0.86002600  0.99910100  1
  Se  Se38  1  0.75000000  0.92503900  0.84791300  1
  Se  Se39  1  0.75000000  0.91399000  0.29076200  1
  O  O40  1  0.75000000  0.05919000  0.45010700  1
  O  O41  1  0.25000000  0.44081000  0.95010700  1
  O  O42  1  0.75000000  0.55919000  0.04989300  1
  O  O43  1  0.25000000  0.94081000  0.54989300  1
