# generated using pymatgen
data_CeZrO4
_symmetry_space_group_name_H-M   'P 1'
_cell_length_a   7.51545331
_cell_length_b   7.51545331
_cell_length_c   7.51545331
_cell_angle_alpha   60.00000000
_cell_angle_beta   60.00000000
_cell_angle_gamma   60.00000000
_symmetry_Int_Tables_number   1
_chemical_formula_structural   CeZrO4
_chemical_formula_sum   'Ce4 Zr4 O16'
_cell_volume   300.15843034
_cell_formula_units_Z   4
loop_
 _symmetry_equiv_pos_site_id
 _symmetry_equiv_pos_as_xyz
  1  'x, y, z'
loop_
 _atom_site_type_symbol
 _atom_site_label
 _atom_site_symmetry_multiplicity
 _atom_site_fract_x
 _atom_site_fract_y
 _atom_site_fract_z
 _atom_site_occupancy
  Ce  Ce0  1  0.62500000  0.62500000  0.62500000  1
  Ce  Ce1  1  0.62500000  0.62500000  0.12500000  1
  Ce  Ce2  1  0.62500000  0.12500000  0.62500000  1
  Ce  Ce3  1  0.12500000  0.62500000  0.62500000  1
  Zr  Zr4  1  0.12500000  0.12500000  0.12500000  1
  Zr  Zr5  1  0.12500000  0.12500000  0.62500000  1
  Zr  Zr6  1  0.12500000  0.62500000  0.12500000  1
  Zr  Zr7  1  0.62500000  0.12500000  0.12500000  1
  O  O8  1  0.75000000  0.75000000  0.75000000  1
  O  O9  1  0.75908800  0.75908800  0.24091200  1
  O  O10  1  0.75908800  0.24091200  0.75908800  1
  O  O11  1  0.24091200  0.75908800  0.75908800  1
  O  O12  1  0.00908800  0.00908800  0.49091200  1
  O  O13  1  0.00000000  0.00000000  0.00000000  1
  O  O14  1  0.00908800  0.49091200  0.00908800  1
  O  O15  1  0.49091200  0.00908800  0.00908800  1
  O  O16  1  0.25000000  0.25000000  0.25000000  1
  O  O17  1  0.24091200  0.24091200  0.75908800  1
  O  O18  1  0.24091200  0.75908800  0.24091200  1
  O  O19  1  0.75908800  0.24091200  0.24091200  1
  O  O20  1  0.49091200  0.49091200  0.00908800  1
  O  O21  1  0.50000000  0.50000000  0.50000000  1
  O  O22  1  0.49091200  0.00908800  0.49091200  1
  O  O23  1  0.00908800  0.49091200  0.49091200  1
