# generated using pymatgen
data_CoPO4
_symmetry_space_group_name_H-M   'P 1'
_cell_length_a   5.03142100
_cell_length_b   6.94458100
_cell_length_c   10.30495800
_cell_angle_alpha   90.00000000
_cell_angle_beta   90.00000000
_cell_angle_gamma   90.00000000
_symmetry_Int_Tables_number   1
_chemical_formula_structural   CoPO4
_chemical_formula_sum   'Co4 P4 O16'
_cell_volume   360.06667803
_cell_formula_units_Z   4
loop_
 _symmetry_equiv_pos_site_id
 _symmetry_equiv_pos_as_xyz
  1  'x, y, z'
loop_
 _atom_site_type_symbol
 _atom_site_label
 _atom_site_symmetry_multiplicity
 _atom_site_fract_x
 _atom_site_fract_y
 _atom_site_fract_z
 _atom_site_occupancy
  Co  Co0  1  0.74230800  0.77829600  0.09137000  1
  Co  Co1  1  0.24230800  0.27829600  0.40863000  1
  Co  Co2  1  0.74230800  0.72170400  0.59137000  1
  Co  Co3  1  0.24230800  0.22170400  0.90863000  1
  P  P4  1  0.24909600  0.01710400  0.17074100  1
  P  P5  1  0.74909600  0.51710400  0.32925900  1
  P  P6  1  0.24909600  0.48289600  0.67074100  1
  P  P7  1  0.74909600  0.98289600  0.82925900  1
  O  O8  1  0.18550400  0.19719000  0.08544000  1
  O  O9  1  0.10278200  0.83670400  0.11944200  1
  O  O10  1  0.66433200  0.56039700  0.18743500  1
  O  O11  1  0.55179400  0.98007700  0.16763100  1
  O  O12  1  0.05179400  0.48007700  0.33236900  1
  O  O13  1  0.16433200  0.06039700  0.31256500  1
  O  O14  1  0.60278200  0.33670400  0.38055800  1
  O  O15  1  0.68550400  0.69719000  0.41456000  1
  O  O16  1  0.18550400  0.30281000  0.58544000  1
  O  O17  1  0.10278200  0.66329600  0.61944200  1
  O  O18  1  0.66433200  0.93960300  0.68743500  1
  O  O19  1  0.55179400  0.51992300  0.66763100  1
  O  O20  1  0.05179400  0.01992300  0.83236900  1
  O  O21  1  0.16433200  0.43960300  0.81256500  1
  O  O22  1  0.60278200  0.16329600  0.88055800  1
  O  O23  1  0.68550400  0.80281000  0.91456000  1
