# generated using pymatgen
data_P4WO12
_symmetry_space_group_name_H-M   'P 1'
_cell_length_a   8.52557831
_cell_length_b   8.52557831
_cell_length_c   9.66972422
_cell_angle_alpha   61.84036768
_cell_angle_beta   61.84036768
_cell_angle_gamma   51.65491813
_symmetry_Int_Tables_number   1
_chemical_formula_structural   P4WO12
_chemical_formula_sum   'P8 W2 O24'
_cell_volume   469.39527438
_cell_formula_units_Z   2
loop_
 _symmetry_equiv_pos_site_id
 _symmetry_equiv_pos_as_xyz
  1  'x, y, z'
loop_
 _atom_site_type_symbol
 _atom_site_label
 _atom_site_symmetry_multiplicity
 _atom_site_fract_x
 _atom_site_fract_y
 _atom_site_fract_z
 _atom_site_occupancy
  P  P0  1  0.44002800  0.30393900  0.63356200  1
  P  P1  1  0.68821100  0.03090800  0.17211400  1
  P  P2  1  0.03090800  0.68821100  0.67211400  1
  P  P3  1  0.69606100  0.55997200  0.86643800  1
  P  P4  1  0.30393900  0.44002800  0.13356200  1
  P  P5  1  0.96909200  0.31178900  0.32788600  1
  P  P6  1  0.31178900  0.96909200  0.82788600  1
  P  P7  1  0.55997200  0.69606100  0.36643800  1
  W  W8  1  0.85736000  0.14264000  0.75000000  1
  W  W9  1  0.14264000  0.85736000  0.25000000  1
  O  O10  1  0.36651600  0.13998800  0.70016800  1
  O  O11  1  0.00425500  0.14042700  0.28713900  1
  O  O12  1  0.85957300  0.99574500  0.21286100  1
  O  O13  1  0.23426300  0.48336200  0.72023900  1
  O  O14  1  0.73494700  0.03170700  0.00101100  1
  O  O15  1  0.79040700  0.40373000  0.77357000  1
  O  O16  1  0.59627000  0.20959300  0.72643000  1
  O  O17  1  0.03170700  0.73494700  0.50101100  1
  O  O18  1  0.48336200  0.23426300  0.22023900  1
  O  O19  1  0.86001200  0.63348400  0.79983200  1
  O  O20  1  0.49493000  0.36033200  0.45578100  1
  O  O21  1  0.63966800  0.50507000  0.04421900  1
  O  O22  1  0.36033200  0.49493000  0.95578100  1
  O  O23  1  0.50507000  0.63966800  0.54421900  1
  O  O24  1  0.13998800  0.36651600  0.20016800  1
  O  O25  1  0.51663800  0.76573700  0.77976100  1
  O  O26  1  0.96829300  0.26505300  0.49898900  1
  O  O27  1  0.40373000  0.79040700  0.27357000  1
  O  O28  1  0.20959300  0.59627000  0.22643000  1
  O  O29  1  0.26505300  0.96829300  0.99898900  1
  O  O30  1  0.76573700  0.51663800  0.27976100  1
  O  O31  1  0.14042700  0.00425500  0.78713900  1
  O  O32  1  0.99574500  0.85957300  0.71286100  1
  O  O33  1  0.63348400  0.86001200  0.29983200  1
