# generated using pymatgen
data_P4WO13
_symmetry_space_group_name_H-M   'P 1'
_cell_length_a   7.11059500
_cell_length_b   8.32642100
_cell_length_c   17.48517300
_cell_angle_alpha   90.00000000
_cell_angle_beta   90.00000000
_cell_angle_gamma   90.00000000
_symmetry_Int_Tables_number   1
_chemical_formula_structural   P4WO13
_chemical_formula_sum   'P16 W4 O52'
_cell_volume   1035.22378728
_cell_formula_units_Z   4
loop_
 _symmetry_equiv_pos_site_id
 _symmetry_equiv_pos_as_xyz
  1  'x, y, z'
loop_
 _atom_site_type_symbol
 _atom_site_label
 _atom_site_symmetry_multiplicity
 _atom_site_fract_x
 _atom_site_fract_y
 _atom_site_fract_z
 _atom_site_occupancy
  P  P0  1  0.06964300  0.31973800  0.42169000  1
  P  P1  1  0.08588300  0.90095600  0.92468600  1
  P  P2  1  0.10010500  0.35132300  0.16837400  1
  P  P3  1  0.10162900  0.90201600  0.66103100  1
  P  P4  1  0.39837100  0.09798400  0.16103100  1
  P  P5  1  0.39989500  0.64867700  0.66837400  1
  P  P6  1  0.41411700  0.09904400  0.42468600  1
  P  P7  1  0.43035700  0.68026200  0.92169000  1
  P  P8  1  0.56964300  0.18026200  0.57831000  1
  P  P9  1  0.58588300  0.59904400  0.07531400  1
  P  P10  1  0.60010500  0.14867700  0.83162600  1
  P  P11  1  0.60162900  0.59798400  0.33896900  1
  P  P12  1  0.89837100  0.40201600  0.83896900  1
  P  P13  1  0.89989500  0.85132300  0.33162600  1
  P  P14  1  0.91411700  0.40095600  0.57531400  1
  P  P15  1  0.93035700  0.81973800  0.07831000  1
  W  W16  1  0.23295800  0.27559900  0.71440900  1
  W  W17  1  0.26704200  0.72440100  0.21440900  1
  W  W18  1  0.73295800  0.22440100  0.28559100  1
  W  W19  1  0.76704200  0.77559900  0.78559100  1
  O  O20  1  0.99255700  0.28907300  0.50710000  1
  O  O21  1  0.03033300  0.33273000  0.64542800  1
  O  O22  1  0.07459700  0.79787100  0.28179700  1
  O  O23  1  0.08238000  0.33107000  0.80103200  1
  O  O24  1  0.07118300  0.37007100  0.08651900  1
  O  O25  1  0.10658500  0.76967800  0.12709300  1
  O  O26  1  0.08028100  0.07453000  0.93308300  1
  O  O27  1  0.10755200  0.92822000  0.57890300  1
  O  O28  1  0.13789800  0.05741900  0.71202200  1
  O  O29  1  0.17002800  0.50731400  0.21256800  1
  O  O30  1  0.15320800  0.47516100  0.40374200  1
  O  O31  1  0.20536300  0.16714100  0.41061100  1
  O  O32  1  0.24750500  0.21962900  0.19862100  1
  O  O33  1  0.25249500  0.78037100  0.69862100  1
  O  O34  1  0.29463700  0.83285900  0.91061100  1
  O  O35  1  0.34679200  0.52483900  0.90374200  1
  O  O36  1  0.32997200  0.49268600  0.71256800  1
  O  O37  1  0.36210200  0.94258100  0.21202200  1
  O  O38  1  0.39244800  0.07178000  0.07890300  1
  O  O39  1  0.41971900  0.92547000  0.43308300  1
  O  O40  1  0.39341500  0.23032200  0.62709300  1
  O  O41  1  0.42881700  0.62992900  0.58651900  1
  O  O42  1  0.41762000  0.66893000  0.30103200  1
  O  O43  1  0.42540300  0.20212900  0.78179700  1
  O  O44  1  0.46966700  0.66727000  0.14542800  1
  O  O45  1  0.50744300  0.71092700  0.00710000  1
  O  O46  1  0.49255700  0.21092700  0.49290000  1
  O  O47  1  0.53033300  0.16727000  0.35457200  1
  O  O48  1  0.57459700  0.70212900  0.71820300  1
  O  O49  1  0.58238000  0.16893000  0.19896800  1
  O  O50  1  0.57118300  0.12992900  0.91348100  1
  O  O51  1  0.60658500  0.73032200  0.87290700  1
  O  O52  1  0.58028100  0.42547000  0.06691700  1
  O  O53  1  0.60755200  0.57178000  0.42109700  1
  O  O54  1  0.63789800  0.44258100  0.28797800  1
  O  O55  1  0.67002800  0.99268600  0.78743200  1
  O  O56  1  0.65320800  0.02483900  0.59625800  1
  O  O57  1  0.70536300  0.33285900  0.58938900  1
  O  O58  1  0.74750500  0.28037100  0.80137900  1
  O  O59  1  0.75249500  0.71962900  0.30137900  1
  O  O60  1  0.79463700  0.66714100  0.08938900  1
  O  O61  1  0.84679200  0.97516100  0.09625800  1
  O  O62  1  0.82997200  0.00731400  0.28743200  1
  O  O63  1  0.86210200  0.55741900  0.78797800  1
  O  O64  1  0.89244800  0.42822000  0.92109700  1
  O  O65  1  0.91971900  0.57453000  0.56691700  1
  O  O66  1  0.89341500  0.26967800  0.37290700  1
  O  O67  1  0.92881700  0.87007100  0.41348100  1
  O  O68  1  0.91762000  0.83107000  0.69896800  1
  O  O69  1  0.92540300  0.29787100  0.21820300  1
  O  O70  1  0.96966700  0.83273000  0.85457200  1
  O  O71  1  0.00744300  0.78907300  0.99290000  1
