# generated using pymatgen
data_P2WO8
_symmetry_space_group_name_H-M   'P 1'
_cell_length_a   5.25589400
_cell_length_b   11.12565000
_cell_length_c   11.25366200
_cell_angle_alpha   90.00000000
_cell_angle_beta   90.00000000
_cell_angle_gamma   90.00000000
_symmetry_Int_Tables_number   1
_chemical_formula_structural   P2WO8
_chemical_formula_sum   'P8 W4 O32'
_cell_volume   658.06055348
_cell_formula_units_Z   4
loop_
 _symmetry_equiv_pos_site_id
 _symmetry_equiv_pos_as_xyz
  1  'x, y, z'
loop_
 _atom_site_type_symbol
 _atom_site_label
 _atom_site_symmetry_multiplicity
 _atom_site_fract_x
 _atom_site_fract_y
 _atom_site_fract_z
 _atom_site_occupancy
  P  P0  1  0.25458500  0.09587100  0.03897900  1
  P  P1  1  0.24970700  0.86120400  0.15568100  1
  P  P2  1  0.75029300  0.36120400  0.34431900  1
  P  P3  1  0.74541500  0.59587100  0.46102100  1
  P  P4  1  0.24541500  0.90412900  0.53897900  1
  P  P5  1  0.25029300  0.13879600  0.65568100  1
  P  P6  1  0.74970700  0.63879600  0.84431900  1
  P  P7  1  0.75458500  0.40412900  0.96102100  1
  W  W8  1  0.24968300  0.40083000  0.15875800  1
  W  W9  1  0.75031700  0.90083000  0.34124200  1
  W  W10  1  0.25031700  0.59917000  0.65875800  1
  W  W11  1  0.74968300  0.09917000  0.84124200  1
  O  O12  1  0.99930300  0.43621800  0.02953900  1
  O  O13  1  0.52144600  0.43325200  0.03914200  1
  O  O14  1  0.23208700  0.80367400  0.03951000  1
  O  O15  1  0.25386600  0.22274200  0.08440500  1
  O  O16  1  0.24476000  0.00912600  0.15044300  1
  O  O17  1  0.24532000  0.54477400  0.21585200  1
  O  O18  1  0.49394000  0.83680500  0.23289300  1
  O  O19  1  0.02737100  0.83612700  0.24651000  1
  O  O20  1  0.97262900  0.33612700  0.25349000  1
  O  O21  1  0.50606000  0.33680500  0.26710700  1
  O  O22  1  0.75468000  0.04477400  0.28414800  1
  O  O23  1  0.75524000  0.50912600  0.34955700  1
  O  O24  1  0.74613400  0.72274200  0.41559500  1
  O  O25  1  0.76791300  0.30367400  0.46049000  1
  O  O26  1  0.47855400  0.93325200  0.46085800  1
  O  O27  1  0.00069700  0.93621800  0.47046100  1
  O  O28  1  0.50069700  0.56378200  0.52953900  1
  O  O29  1  0.97855400  0.56674800  0.53914200  1
  O  O30  1  0.26791300  0.19632600  0.53951000  1
  O  O31  1  0.24613400  0.77725800  0.58440500  1
  O  O32  1  0.25524000  0.99087400  0.65044300  1
  O  O33  1  0.25468000  0.45522600  0.71585200  1
  O  O34  1  0.00606000  0.16319500  0.73289300  1
  O  O35  1  0.47262900  0.16387300  0.74651000  1
  O  O36  1  0.52737100  0.66387300  0.75349000  1
  O  O37  1  0.99394000  0.66319500  0.76710700  1
  O  O38  1  0.74532000  0.95522600  0.78414800  1
  O  O39  1  0.74476000  0.49087400  0.84955700  1
  O  O40  1  0.75386600  0.27725800  0.91559500  1
  O  O41  1  0.73208700  0.69632600  0.96049000  1
  O  O42  1  0.02144600  0.06674800  0.96085800  1
  O  O43  1  0.49930300  0.06378200  0.97046100  1
