# generated using pymatgen
data_Zr11VO24
_symmetry_space_group_name_H-M   'P 1'
_cell_length_a   5.30115100
_cell_length_b   7.29651700
_cell_length_c   10.86537400
_cell_angle_alpha   90.00000000
_cell_angle_beta   90.00000000
_cell_angle_gamma   90.00000000
_symmetry_Int_Tables_number   1
_chemical_formula_structural   Zr11VO24
_chemical_formula_sum   'Zr11 V1 O24'
_cell_volume   420.27199692
_cell_formula_units_Z   1
loop_
 _symmetry_equiv_pos_site_id
 _symmetry_equiv_pos_as_xyz
  1  'x, y, z'
loop_
 _atom_site_type_symbol
 _atom_site_label
 _atom_site_symmetry_multiplicity
 _atom_site_fract_x
 _atom_site_fract_y
 _atom_site_fract_z
 _atom_site_occupancy
  Zr  Zr0  1  0.75454900  0.74552900  0.00000000  1
  Zr  Zr1  1  0.74701700  0.75312600  0.33317200  1
  Zr  Zr2  1  0.74701700  0.75312600  0.66682800  1
  Zr  Zr3  1  0.25469200  0.00000000  0.83561100  1
  Zr  Zr4  1  0.25469200  0.00000000  0.16438900  1
  Zr  Zr5  1  0.22890300  0.00000000  0.50000000  1
  Zr  Zr6  1  0.75454900  0.25447100  0.00000000  1
  Zr  Zr7  1  0.74701700  0.24687400  0.33317200  1
  Zr  Zr8  1  0.74701700  0.24687400  0.66682800  1
  Zr  Zr9  1  0.25278300  0.50000000  0.82775400  1
  Zr  Zr10  1  0.25278300  0.50000000  0.17224600  1
  V  V11  1  0.26741900  0.50000000  0.50000000  1
  O  O12  1  0.44987000  0.75467900  0.83329500  1
  O  O13  1  0.95058000  0.73593200  0.83145900  1
  O  O14  1  0.44987000  0.75467900  0.16670500  1
  O  O15  1  0.95058000  0.73593200  0.16854100  1
  O  O16  1  0.42348700  0.72813200  0.50000000  1
  O  O17  1  0.92564400  0.78421800  0.50000000  1
  O  O18  1  0.04636800  0.00000000  0.67522200  1
  O  O19  1  0.54046200  0.00000000  0.65413300  1
  O  O20  1  0.56269900  0.00000000  0.00000000  1
  O  O21  1  0.05173300  0.00000000  0.00000000  1
  O  O22  1  0.04636800  0.00000000  0.32477800  1
  O  O23  1  0.54046200  0.00000000  0.34586700  1
  O  O24  1  0.44987000  0.24532100  0.83329500  1
  O  O25  1  0.95058000  0.26406800  0.83145900  1
  O  O26  1  0.95058000  0.26406800  0.16854100  1
  O  O27  1  0.44987000  0.24532100  0.16670500  1
  O  O28  1  0.42348700  0.27186800  0.50000000  1
  O  O29  1  0.92564400  0.21578200  0.50000000  1
  O  O30  1  0.55372400  0.50000000  0.00000000  1
  O  O31  1  0.06301100  0.50000000  0.00000000  1
  O  O32  1  0.07298800  0.50000000  0.35197500  1
  O  O33  1  0.57034800  0.50000000  0.31995500  1
  O  O34  1  0.07298800  0.50000000  0.64802500  1
  O  O35  1  0.57034800  0.50000000  0.68004500  1
