# generated using pymatgen
data_Na4(WO3)9
_symmetry_space_group_name_H-M   'P 1'
_cell_length_a   9.54647228
_cell_length_b   9.54647228
_cell_length_c   11.69819763
_cell_angle_alpha   65.91097339
_cell_angle_beta   65.91097339
_cell_angle_gamma   33.57307988
_symmetry_Int_Tables_number   1
_chemical_formula_structural   Na4(WO3)9
_chemical_formula_sum   'Na4 W9 O27'
_cell_volume   533.30154471
_cell_formula_units_Z   1
loop_
 _symmetry_equiv_pos_site_id
 _symmetry_equiv_pos_as_xyz
  1  'x, y, z'
loop_
 _atom_site_type_symbol
 _atom_site_label
 _atom_site_symmetry_multiplicity
 _atom_site_fract_x
 _atom_site_fract_y
 _atom_site_fract_z
 _atom_site_occupancy
  Na  Na0  1  0.50000000  0.50000000  0.83291700  1
  Na  Na1  1  0.16673400  0.16673400  0.38871900  1
  Na  Na2  1  0.50000000  0.50000000  0.16708300  1
  Na  Na3  1  0.83326600  0.83326600  0.61128100  1
  W  W4  1  0.33192000  0.33192000  0.77990800  1
  W  W5  1  0.66775300  0.66775300  0.88937700  1
  W  W6  1  0.00000000  0.00000000  0.00000000  1
  W  W7  1  0.66808000  0.66808000  0.22009200  1
  W  W8  1  0.33224700  0.33224700  0.11062300  1
  W  W9  1  0.00062100  0.00062100  0.33290600  1
  W  W10  1  0.66651900  0.66651900  0.55567800  1
  W  W11  1  0.33348100  0.33348100  0.44432200  1
  W  W12  1  0.99937900  0.99937900  0.66709400  1
  O  O13  1  0.50313300  0.99825100  0.83149400  1
  O  O14  1  0.99825100  0.50313300  0.83149400  1
  O  O15  1  0.00001800  0.00001800  0.83323600  1
  O  O16  1  0.66534200  0.66534200  0.05648200  1
  O  O17  1  0.33465800  0.33465800  0.94351800  1
  O  O18  1  0.33628600  0.82726900  0.94557000  1
  O  O19  1  0.66371400  0.17273100  0.05443000  1
  O  O20  1  0.49686700  0.00174900  0.16850600  1
  O  O21  1  0.17273100  0.66371400  0.05443000  1
  O  O22  1  0.00174900  0.49686700  0.16850600  1
  O  O23  1  0.82726900  0.33628600  0.94557000  1
  O  O24  1  0.99998200  0.99998200  0.16676400  1
  O  O25  1  0.66679900  0.66679900  0.38888300  1
  O  O26  1  0.33319100  0.33319100  0.27797300  1
  O  O27  1  0.00000000  0.50000000  0.50000000  1
  O  O28  1  0.50000000  0.00000000  0.50000000  1
  O  O29  1  0.16661800  0.66698700  0.38881800  1
  O  O30  1  0.33350900  0.83346200  0.27761500  1
  O  O31  1  0.66698700  0.16661800  0.38881800  1
  O  O32  1  0.83346200  0.33350900  0.27761500  1
  O  O33  1  0.00000000  0.00000000  0.50000000  1
  O  O34  1  0.66680900  0.66680900  0.72202700  1
  O  O35  1  0.33320100  0.33320100  0.61111700  1
  O  O36  1  0.33301300  0.83338200  0.61118200  1
  O  O37  1  0.16653800  0.66649100  0.72238500  1
  O  O38  1  0.66649100  0.16653800  0.72238500  1
  O  O39  1  0.83338200  0.33301300  0.61118200  1
