# generated using pymatgen
data_Li3Mn4(PO4)6
_symmetry_space_group_name_H-M   'P 1'
_cell_length_a   8.35477170
_cell_length_b   8.51681854
_cell_length_c   8.46393387
_cell_angle_alpha   119.23872917
_cell_angle_beta   61.11882126
_cell_angle_gamma   89.17662038
_symmetry_Int_Tables_number   1
_chemical_formula_structural   Li3Mn4(PO4)6
_chemical_formula_sum   'Li3 Mn4 P6 O24'
_cell_volume   434.77444267
_cell_formula_units_Z   1
loop_
 _symmetry_equiv_pos_site_id
 _symmetry_equiv_pos_as_xyz
  1  'x, y, z'
loop_
 _atom_site_type_symbol
 _atom_site_label
 _atom_site_symmetry_multiplicity
 _atom_site_fract_x
 _atom_site_fract_y
 _atom_site_fract_z
 _atom_site_occupancy
  Li  Li0  1  0.01261100  0.49275600  0.97972300  1
  Li  Li1  1  0.75303400  0.64024900  0.48944400  1
  Li  Li2  1  0.48657300  0.01581300  0.01517600  1
  Mn  Mn3  1  0.35928900  0.85645200  0.71717600  1
  Mn  Mn4  1  0.14095600  0.64918200  0.28501000  1
  Mn  Mn5  1  0.86302300  0.35344800  0.71812000  1
  Mn  Mn6  1  0.63529000  0.14553900  0.28357000  1
  P  P7  1  0.74743800  0.97129200  0.51269300  1
  P  P8  1  0.45540700  0.52850900  0.78503700  1
  P  P9  1  0.03805300  0.25113200  0.21846800  1
  P  P10  1  0.95512300  0.75149000  0.79108900  1
  P  P11  1  0.55397000  0.46249500  0.20984600  1
  P  P12  1  0.25369300  0.03444400  0.48777500  1
  O  O13  1  0.12738800  0.79571400  0.79998000  1
  O  O14  1  0.32050400  0.97824600  0.59575600  1
  O  O15  1  0.18833000  0.88481800  0.35691400  1
  O  O16  1  0.25818700  0.55203600  0.97342900  1
  O  O17  1  0.58904300  0.93714400  0.67847400  1
  O  O18  1  0.45842300  0.71951300  0.80400200  1
  O  O19  1  0.03183400  0.43456400  0.21389800  1
  O  O20  1  0.76197000  0.91901300  0.97960900  1
  O  O21  1  0.00437600  0.29744200  0.43334100  1
  O  O22  1  0.09082600  0.23095600  0.67568400  1
  O  O23  1  0.37719800  0.52687400  0.21635600  1
  O  O24  1  0.55357900  0.60369600  0.40940500  1
  O  O25  1  0.47245500  0.37648600  0.57391700  1
  O  O26  1  0.62205400  0.47711300  0.79803600  1
  O  O27  1  0.90936800  0.76961800  0.32870400  1
  O  O28  1  0.97219500  0.70777900  0.58109600  1
  O  O29  1  0.23324900  0.09685800  0.03620800  1
  O  O30  1  0.94229600  0.57981700  0.81186600  1
  O  O31  1  0.55353000  0.26548300  0.17802400  1
  O  O32  1  0.41802700  0.05460200  0.31154700  1
  O  O33  1  0.74778300  0.43827800  0.01840200  1
  O  O34  1  0.80852300  0.12079000  0.64586200  1
  O  O35  1  0.68704700  0.01813100  0.39395300  1
  O  O36  1  0.87052200  0.20113400  0.19479500  1
