# generated using pymatgen
data_La2Th11O26
_symmetry_space_group_name_H-M   'P 1'
_cell_length_a   6.90841900
_cell_length_b   6.90915325
_cell_length_c   12.61773731
_cell_angle_alpha   90.00737453
_cell_angle_beta   100.51624278
_cell_angle_gamma   99.59665407
_symmetry_Int_Tables_number   1
_chemical_formula_structural   La2Th11O26
_chemical_formula_sum   'La2 Th11 O26'
_cell_volume   583.56856571
_cell_formula_units_Z   1
loop_
 _symmetry_equiv_pos_site_id
 _symmetry_equiv_pos_as_xyz
  1  'x, y, z'
loop_
 _atom_site_type_symbol
 _atom_site_label
 _atom_site_symmetry_multiplicity
 _atom_site_fract_x
 _atom_site_fract_y
 _atom_site_fract_z
 _atom_site_occupancy
  La  La0  1  0.80761400  0.38456300  0.73063200  1
  La  La1  1  0.19238600  0.61543700  0.26936800  1
  Th  Th2  1  0.03745300  0.92281900  0.65423800  1
  Th  Th3  1  0.26906700  0.46155700  0.57686900  1
  Th  Th4  1  0.57800000  0.84649700  0.80760600  1
  Th  Th5  1  0.73093300  0.53844300  0.42313100  1
  Th  Th6  1  0.65376200  0.69214600  0.11621300  1
  Th  Th7  1  0.96254700  0.07718100  0.34576200  1
  Th  Th8  1  0.50000000  0.00000000  0.50000000  1
  Th  Th9  1  0.42200000  0.15350300  0.19239400  1
  Th  Th10  1  0.11533300  0.76802500  0.96190700  1
  Th  Th11  1  0.88466700  0.23197500  0.03809300  1
  Th  Th12  1  0.34623800  0.30785400  0.88378700  1
  O  O13  1  0.88704800  0.73932100  0.79061100  1
  O  O14  1  0.12235900  0.26509500  0.71095300  1
  O  O15  1  0.49296300  0.50403500  0.75050300  1
  O  O16  1  0.34572500  0.80930900  0.63501300  1
  O  O17  1  0.72827400  0.02972600  0.67123800  1
  O  O18  1  0.96522200  0.58277200  0.59314900  1
  O  O19  1  0.57086300  0.34396600  0.55327100  1
  O  O20  1  0.42913700  0.65603400  0.44672900  1
  O  O21  1  0.19158400  0.11360700  0.51937000  1
  O  O22  1  0.80841600  0.88639300  0.48063000  1
  O  O23  1  0.03477800  0.41722800  0.40685100  1
  O  O24  1  0.87764100  0.73490500  0.28904700  1
  O  O25  1  0.65427500  0.19069100  0.36498700  1
  O  O26  1  0.11295200  0.26067900  0.20938900  1
  O  O27  1  0.50703700  0.49596500  0.24949700  1
  O  O28  1  0.27172600  0.97027400  0.32876200  1
  O  O29  1  0.34994100  0.81243400  0.13126500  1
  O  O30  1  0.95490400  0.57625500  0.09215800  1
  O  O31  1  0.73054400  0.03962800  0.17291400  1
  O  O32  1  0.19185900  0.11506600  0.01853700  1
  O  O33  1  0.80814100  0.88493400  0.98146300  1
  O  O34  1  0.42440700  0.65398800  0.94244900  1
  O  O35  1  0.04509600  0.42374500  0.90784200  1
  O  O36  1  0.57559300  0.34601200  0.05755100  1
  O  O37  1  0.65005900  0.18756600  0.86873500  1
  O  O38  1  0.26945600  0.96037200  0.82708600  1
