# generated using pymatgen
data_ZnPH5C2N4O3
_symmetry_space_group_name_H-M   'P 1'
_cell_length_a   9.12857115
_cell_length_b   9.12857115
_cell_length_c   10.54255304
_cell_angle_alpha   70.27155603
_cell_angle_beta   70.27155603
_cell_angle_gamma   72.00574896
_symmetry_Int_Tables_number   1
_chemical_formula_structural   ZnPH5C2N4O3
_chemical_formula_sum   'Zn4 P4 H20 C8 N16 O12'
_cell_volume   759.33401124
_cell_formula_units_Z   4
loop_
 _symmetry_equiv_pos_site_id
 _symmetry_equiv_pos_as_xyz
  1  'x, y, z'
loop_
 _atom_site_type_symbol
 _atom_site_label
 _atom_site_symmetry_multiplicity
 _atom_site_fract_x
 _atom_site_fract_y
 _atom_site_fract_z
 _atom_site_occupancy
  Zn  Zn0  1  0.44264000  0.72162200  0.04456500  1
  Zn  Zn1  1  0.27837800  0.55736000  0.45543500  1
  Zn  Zn2  1  0.72162200  0.44264000  0.54456500  1
  Zn  Zn3  1  0.55736000  0.27837800  0.95543500  1
  P  P4  1  0.60902100  0.66695300  0.27875200  1
  P  P5  1  0.66695300  0.60902100  0.77875200  1
  P  P6  1  0.33304700  0.39097900  0.22124800  1
  P  P7  1  0.39097900  0.33304700  0.72124800  1
  H  H8  1  0.91512900  0.85749400  0.09520600  1
  H  H9  1  0.66019200  0.80765800  0.25207200  1
  H  H10  1  0.85749400  0.91512900  0.59520600  1
  H  H11  1  0.29553000  0.91210200  0.39660000  1
  H  H12  1  0.87432800  0.38598200  0.20579700  1
  H  H13  1  0.80765800  0.66019200  0.75207200  1
  H  H14  1  0.79900900  0.42897400  0.06274900  1
  H  H15  1  0.91210200  0.29553000  0.89660000  1
  H  H16  1  0.38598200  0.87432800  0.70579700  1
  H  H17  1  0.57102600  0.20099100  0.43725100  1
  H  H18  1  0.42897400  0.79900900  0.56274900  1
  H  H19  1  0.61401800  0.12567200  0.29420300  1
  H  H20  1  0.08789800  0.70447000  0.10340000  1
  H  H21  1  0.20099100  0.57102600  0.93725100  1
  H  H22  1  0.19234200  0.33980800  0.24792800  1
  H  H23  1  0.12567200  0.61401800  0.79420300  1
  H  H24  1  0.70447000  0.08789800  0.60340000  1
  H  H25  1  0.14250600  0.08487100  0.40479400  1
  H  H26  1  0.33980800  0.19234200  0.74792800  1
  H  H27  1  0.08487100  0.14250600  0.90479400  1
  C  C28  1  0.96279500  0.79505400  0.39731800  1
  C  C29  1  0.79505400  0.96279500  0.89731800  1
  C  C30  1  0.99382100  0.24514800  0.06881800  1
  C  C31  1  0.75485200  0.00617900  0.43118200  1
  C  C32  1  0.24514800  0.99382100  0.56881800  1
  C  C33  1  0.00617900  0.75485200  0.93118200  1
  C  C34  1  0.20494600  0.03720500  0.10268200  1
  C  C35  1  0.03720500  0.20494600  0.60268200  1
  N  N36  1  0.84662000  0.90073200  0.35569500  1
  N  N37  1  0.90073200  0.84662000  0.85569500  1
  N  N38  1  0.22400700  0.99634300  0.44811000  1
  N  N39  1  0.88124300  0.36083500  0.11665800  1
  N  N40  1  0.30490600  0.92761300  0.07082500  1
  N  N41  1  0.99634300  0.22400700  0.94811000  1
  N  N42  1  0.07238700  0.69509400  0.42917500  1
  N  N43  1  0.36083500  0.88124300  0.61665800  1
  N  N44  1  0.63916500  0.11875700  0.38334200  1
  N  N45  1  0.92761300  0.30490600  0.57082500  1
  N  N46  1  0.00365700  0.77599300  0.05189000  1
  N  N47  1  0.69509400  0.07238700  0.92917500  1
  N  N48  1  0.11875700  0.63916500  0.88334200  1
  N  N49  1  0.77599300  0.00365700  0.55189000  1
  N  N50  1  0.09926800  0.15338000  0.14430500  1
  N  N51  1  0.15338000  0.09926800  0.64430500  1
  O  O52  1  0.73047300  0.52856100  0.34533700  1
  O  O53  1  0.43907300  0.69501700  0.37765100  1
  O  O54  1  0.61478300  0.64810300  0.13754600  1
  O  O55  1  0.52856100  0.73047300  0.84533700  1
  O  O56  1  0.69501700  0.43907300  0.87765100  1
  O  O57  1  0.64810300  0.61478300  0.63754600  1
  O  O58  1  0.35189700  0.38521700  0.36245400  1
  O  O59  1  0.30498300  0.56092700  0.12234900  1
  O  O60  1  0.47143900  0.26952700  0.15466300  1
  O  O61  1  0.38521700  0.35189700  0.86245400  1
  O  O62  1  0.56092700  0.30498300  0.62234900  1
  O  O63  1  0.26952700  0.47143900  0.65466300  1
