# generated using pymatgen
data_Y7TmO12
_symmetry_space_group_name_H-M   'P 1'
_cell_length_a   9.24061823
_cell_length_b   9.24061823
_cell_length_c   9.24061823
_cell_angle_alpha   109.48822138
_cell_angle_beta   109.47309513
_cell_angle_gamma   109.45234739
_symmetry_Int_Tables_number   1
_chemical_formula_structural   Y7TmO12
_chemical_formula_sum   'Y14 Tm2 O24'
_cell_volume   607.40889859
_cell_formula_units_Z   2
loop_
 _symmetry_equiv_pos_site_id
 _symmetry_equiv_pos_as_xyz
  1  'x, y, z'
loop_
 _atom_site_type_symbol
 _atom_site_label
 _atom_site_symmetry_multiplicity
 _atom_site_fract_x
 _atom_site_fract_y
 _atom_site_fract_z
 _atom_site_occupancy
  Y  Y0  1  0.21691600  0.25000000  0.46691600  1
  Y  Y1  1  0.99841100  0.49952800  0.49870800  1
  Y  Y2  1  0.75000000  0.96699100  0.21699100  1
  Y  Y3  1  0.25000000  0.53300900  0.28300900  1
  Y  Y4  1  0.53430500  0.78430500  0.75000000  1
  Y  Y5  1  0.03199800  0.28199800  0.75000000  1
  Y  Y6  1  0.50158900  0.00029700  0.50111700  1
  Y  Y7  1  0.50082000  0.49970300  0.00129200  1
  Y  Y8  1  0.28308400  0.75000000  0.03308400  1
  Y  Y9  1  0.99918000  0.00047200  0.99888300  1
  Y  Y10  1  0.46800200  0.21800200  0.25000000  1
  Y  Y11  1  0.96569500  0.71569500  0.25000000  1
  Y  Y12  1  0.25000000  0.03242500  0.78242500  1
  Y  Y13  1  0.75000000  0.46757500  0.71757500  1
  Tm  Tm14  1  0.71636200  0.25000000  0.96636200  1
  Tm  Tm15  1  0.78363800  0.75000000  0.53363800  1
  O  O16  1  0.49033200  0.72810100  0.95767400  1
  O  O17  1  0.27042700  0.53265800  0.54232600  1
  O  O18  1  0.04035500  0.77010300  0.53204600  1
  O  O19  1  0.23899700  0.27078700  0.22786800  1
  O  O20  1  0.45964500  0.99169200  0.72974900  1
  O  O21  1  0.26100300  0.48887200  0.03179000  1
  O  O22  1  0.22957300  0.77189900  0.26223100  1
  O  O23  1  0.00966800  0.96734200  0.23776900  1
  O  O24  1  0.77146100  0.04578300  0.01051800  1
  O  O25  1  0.53526500  0.76094300  0.48948200  1
  O  O26  1  0.27167900  0.26107500  0.72948000  1
  O  O27  1  0.03159500  0.54219900  0.77052000  1
  O  O28  1  0.46840500  0.23892500  0.51060400  1
  O  O29  1  0.96473500  0.45421700  0.22567800  1
  O  O30  1  0.72853900  0.73905700  0.27432200  1
  O  O31  1  0.22832100  0.95780100  0.98939600  1
  O  O32  1  0.98617300  0.02822800  0.75698800  1
  O  O33  1  0.77124000  0.22918500  0.74301200  1
  O  O34  1  0.54291900  0.01112800  0.27213200  1
  O  O35  1  0.73805700  0.50830800  0.96795300  1
  O  O36  1  0.95708100  0.22921300  0.46821000  1
  O  O37  1  0.76194300  0.72989700  0.77025100  1
  O  O38  1  0.51382700  0.27081500  0.04205500  1
  O  O39  1  0.72876000  0.47177200  0.45794500  1
