# generated using pymatgen
data_Ba6CaI14
_symmetry_space_group_name_H-M   'P 1'
_cell_length_a   15.97622722
_cell_length_b   15.97622722
_cell_length_c   8.47072400
_cell_angle_alpha   90.00000000
_cell_angle_beta   90.00000000
_cell_angle_gamma   98.41038470
_symmetry_Int_Tables_number   1
_chemical_formula_structural   Ba6CaI14
_chemical_formula_sum   'Ba12 Ca2 I28'
_cell_volume   2138.81499871
_cell_formula_units_Z   2
loop_
 _symmetry_equiv_pos_site_id
 _symmetry_equiv_pos_as_xyz
  1  'x, y, z'
loop_
 _atom_site_type_symbol
 _atom_site_label
 _atom_site_symmetry_multiplicity
 _atom_site_fract_x
 _atom_site_fract_y
 _atom_site_fract_z
 _atom_site_occupancy
  Ba  Ba0  1  0.75298400  0.05172800  0.31183700  1
  Ba  Ba1  1  0.94827200  0.24701600  0.68816300  1
  Ba  Ba2  1  0.55172800  0.25298400  0.18816300  1
  Ba  Ba3  1  0.74701600  0.44827200  0.81183700  1
  Ba  Ba4  1  0.69299700  0.69299700  0.26036500  1
  Ba  Ba5  1  0.19299700  0.19299700  0.23963500  1
  Ba  Ba6  1  0.30700300  0.30700300  0.73963500  1
  Ba  Ba7  1  0.80700300  0.80700300  0.76036500  1
  Ba  Ba8  1  0.44827200  0.74701600  0.81183700  1
  Ba  Ba9  1  0.25298400  0.55172800  0.18816300  1
  Ba  Ba10  1  0.05172800  0.75298400  0.31183700  1
  Ba  Ba11  1  0.24701600  0.94827200  0.68816300  1
  Ca  Ca12  1  0.00000000  0.00000000  0.00000000  1
  Ca  Ca13  1  0.50000000  0.50000000  0.50000000  1
  I  I14  1  0.96602400  0.14945500  0.22895100  1
  I  I15  1  0.85054500  0.03397600  0.77104900  1
  I  I16  1  0.74584500  0.25415500  0.00000000  1
  I  I17  1  0.95092000  0.45092000  0.75000000  1
  I  I18  1  0.54908000  0.04908000  0.25000000  1
  I  I19  1  0.75415500  0.24584500  0.50000000  1
  I  I20  1  0.36273800  0.16081500  0.00474300  1
  I  I21  1  0.33918500  0.13726200  0.50474300  1
  I  I22  1  0.83918500  0.63726200  0.99525700  1
  I  I23  1  0.86273800  0.66081500  0.49525700  1
  I  I24  1  0.64945500  0.46602400  0.27104900  1
  I  I25  1  0.53397600  0.35054500  0.72895100  1
  I  I26  1  0.12222700  0.12222700  0.79553300  1
  I  I27  1  0.37777300  0.37777300  0.29553300  1
  I  I28  1  0.62222700  0.62222700  0.70446700  1
  I  I29  1  0.87777300  0.87777300  0.20446700  1
  I  I30  1  0.35054500  0.53397600  0.72895100  1
  I  I31  1  0.46602400  0.64945500  0.27104900  1
  I  I32  1  0.63726200  0.83918500  0.99525700  1
  I  I33  1  0.13726200  0.33918500  0.50474300  1
  I  I34  1  0.16081500  0.36273800  0.00474300  1
  I  I35  1  0.66081500  0.86273800  0.49525700  1
  I  I36  1  0.24584500  0.75415500  0.50000000  1
  I  I37  1  0.04908000  0.54908000  0.25000000  1
  I  I38  1  0.45092000  0.95092000  0.75000000  1
  I  I39  1  0.25415500  0.74584500  0.00000000  1
  I  I40  1  0.14945500  0.96602400  0.22895100  1
  I  I41  1  0.03397600  0.85054500  0.77104900  1
