# generated using pymatgen
data_Bi25O38
_symmetry_space_group_name_H-M   'P 1'
_cell_length_a   8.99094400
_cell_length_b   9.07999153
_cell_length_c   14.71381920
_cell_angle_alpha   90.53096336
_cell_angle_beta   90.02740216
_cell_angle_gamma   109.57575149
_symmetry_Int_Tables_number   1
_chemical_formula_structural   Bi25O38
_chemical_formula_sum   'Bi25 O38'
_cell_volume   1131.71521927
_cell_formula_units_Z   1
loop_
 _symmetry_equiv_pos_site_id
 _symmetry_equiv_pos_as_xyz
  1  'x, y, z'
loop_
 _atom_site_type_symbol
 _atom_site_label
 _atom_site_symmetry_multiplicity
 _atom_site_fract_x
 _atom_site_fract_y
 _atom_site_fract_z
 _atom_site_occupancy
  Bi  Bi0  1  0.43849900  0.23576800  0.08396200  1
  Bi  Bi1  1  0.78434700  0.62312200  0.08745700  1
  Bi  Bi2  1  0.46944900  0.17223100  0.33606600  1
  Bi  Bi3  1  0.83552500  0.51161700  0.35129400  1
  Bi  Bi4  1  0.99967400  0.35518600  0.15577800  1
  Bi  Bi5  1  0.66034900  0.96718400  0.17494500  1
  Bi  Bi6  1  0.92763400  0.05291700  0.76545800  1
  Bi  Bi7  1  0.25050800  0.77152700  0.06195500  1
  Bi  Bi8  1  0.41543000  0.55328000  0.24225000  1
  Bi  Bi9  1  0.76989000  0.25909700  0.57607200  1
  Bi  Bi10  1  0.91936700  0.72372700  0.58857900  1
  Bi  Bi11  1  0.09651100  0.26620000  0.40209800  1
  Bi  Bi12  1  0.25900800  0.10131800  0.59687100  1
  Bi  Bi13  1  0.72607600  0.91757400  0.42259800  1
  Bi  Bi14  1  0.49978300  0.50268400  0.50348800  1
  Bi  Bi15  1  0.26750400  0.75743200  0.43177100  1
  Bi  Bi16  1  0.76383200  0.27396400  0.92033300  1
  Bi  Bi17  1  0.06147100  0.90952800  0.25630100  1
  Bi  Bi18  1  0.55792900  0.41619600  0.74544600  1
  Bi  Bi19  1  0.97995800  0.68145400  0.84834200  1
  Bi  Bi20  1  0.32964300  0.02490100  0.85129300  1
  Bi  Bi21  1  0.51416000  0.86077600  0.65948100  1
  Bi  Bi22  1  0.16204400  0.48174900  0.67472500  1
  Bi  Bi23  1  0.57092500  0.75193100  0.90162500  1
  Bi  Bi24  1  0.20837800  0.38754600  0.91930000  1
  O  O25  1  0.37222400  0.00243200  0.99983800  1
  O  O26  1  0.95572400  0.06946900  0.30681800  1
  O  O27  1  0.68485000  0.28588000  0.05621600  1
  O  O28  1  0.94125900  0.56392600  0.17823300  1
  O  O29  1  0.43554000  0.07617200  0.18911600  1
  O  O30  1  0.56821300  0.44568600  0.18333300  1
  O  O31  1  0.80211000  0.17911800  0.44348000  1
  O  O32  1  0.99239400  0.36208300  0.00026100  1
  O  O33  1  0.81965000  0.81674100  0.18537100  1
  O  O34  1  0.24146400  0.47056800  0.12972200  1
  O  O35  1  0.50089700  0.75833600  0.12222400  1
  O  O36  1  0.98727800  0.74815400  0.36674300  1
  O  O37  1  0.25801500  0.99616700  0.37518700  1
  O  O38  1  0.31193700  0.31224500  0.31152700  1
  O  O39  1  0.86931200  0.50405900  0.49937600  1
  O  O40  1  0.00267900  0.73771000  0.00171400  1
  O  O41  1  0.62261200  0.61878300  0.38364500  1
  O  O42  1  0.48903800  0.26167400  0.49689600  1
  O  O43  1  0.44012800  0.06954400  0.67885400  1
  O  O44  1  0.57586800  0.92978900  0.31202800  1
  O  O45  1  0.05014600  0.43315800  0.31736500  1
  O  O46  1  0.94233500  0.57281400  0.69095700  1
  O  O47  1  0.62185300  0.61581700  0.62608900  1
  O  O48  1  0.26136300  0.50758400  0.49550500  1
  O  O49  1  0.50119900  0.86779700  0.49875900  1
  O  O50  1  0.32006100  0.32085700  0.68277500  1
  O  O51  1  0.00704500  0.26912600  0.62055400  1
  O  O52  1  0.74742000  0.00285400  0.62928500  1
  O  O53  1  0.76308900  0.50194700  0.88340000  1
  O  O54  1  0.49527500  0.25344200  0.87271300  1
  O  O55  1  0.81576800  0.81201600  0.82035100  1
  O  O56  1  0.18242200  0.80482500  0.55838900  1
  O  O57  1  0.44954800  0.56385100  0.81072400  1
  O  O58  1  0.13304000  0.13471000  0.86885400  1
  O  O59  1  0.06169700  0.42124500  0.81369100  1
  O  O60  1  0.55600000  0.93394600  0.81835700  1
  O  O61  1  0.07189400  0.95054200  0.69267800  1
  O  O62  1  0.30295100  0.68182700  0.93728400  1
