# generated using pymatgen
data_MnFe3(PO4)4
_symmetry_space_group_name_H-M   'P 1'
_cell_length_a   4.89737500
_cell_length_b   9.91878600
_cell_length_c   11.93836400
_cell_angle_alpha   90.00000000
_cell_angle_beta   90.00000000
_cell_angle_gamma   90.00000000
_symmetry_Int_Tables_number   1
_chemical_formula_structural   MnFe3(PO4)4
_chemical_formula_sum   'Mn2 Fe6 P8 O32'
_cell_volume   579.91814381
_cell_formula_units_Z   2
loop_
 _symmetry_equiv_pos_site_id
 _symmetry_equiv_pos_as_xyz
  1  'x, y, z'
loop_
 _atom_site_type_symbol
 _atom_site_label
 _atom_site_symmetry_multiplicity
 _atom_site_fract_x
 _atom_site_fract_y
 _atom_site_fract_z
 _atom_site_occupancy
  Mn  Mn0  1  0.81270600  0.71773400  0.50000000  1
  Mn  Mn1  1  0.18729400  0.21773400  0.00000000  1
  Fe  Fe2  1  0.78083400  0.72717400  0.00000000  1
  Fe  Fe3  1  0.21916600  0.22717400  0.50000000  1
  Fe  Fe4  1  0.28458700  0.77459200  0.25113500  1
  Fe  Fe5  1  0.28458700  0.77459200  0.74886500  1
  Fe  Fe6  1  0.71541300  0.27459200  0.75113500  1
  Fe  Fe7  1  0.71541300  0.27459200  0.24886500  1
  P  P8  1  0.83304900  0.59712800  0.24831500  1
  P  P9  1  0.83304900  0.59712800  0.75168500  1
  P  P10  1  0.16695100  0.09712800  0.25168500  1
  P  P11  1  0.16695100  0.09712800  0.74831500  1
  P  P12  1  0.33126700  0.89939600  0.50000000  1
  P  P13  1  0.32991200  0.90429400  0.00000000  1
  P  P14  1  0.66873300  0.39939600  0.00000000  1
  P  P15  1  0.67008800  0.40429400  0.50000000  1
  O  O16  1  0.90327900  0.44685600  0.25057700  1
  O  O17  1  0.90327900  0.44685600  0.74942300  1
  O  O18  1  0.97915900  0.67234900  0.65157400  1
  O  O19  1  0.97816400  0.67194900  0.85155000  1
  O  O20  1  0.97816400  0.67194900  0.14845000  1
  O  O21  1  0.97915900  0.67234900  0.34842600  1
  O  O22  1  0.98254100  0.37983600  0.00000000  1
  O  O23  1  0.97911500  0.38309200  0.50000000  1
  O  O24  1  0.02088500  0.88309200  0.00000000  1
  O  O25  1  0.01745900  0.87983600  0.50000000  1
  O  O26  1  0.02183600  0.17194900  0.64845000  1
  O  O27  1  0.02084100  0.17234900  0.84842600  1
  O  O28  1  0.02183600  0.17194900  0.35155000  1
  O  O29  1  0.02084100  0.17234900  0.15157400  1
  O  O30  1  0.09672100  0.94685600  0.75057700  1
  O  O31  1  0.09672100  0.94685600  0.24942300  1
  O  O32  1  0.39833600  0.05596100  0.00000000  1
  O  O33  1  0.39021200  0.05128500  0.50000000  1
  O  O34  1  0.47589300  0.83096200  0.10039100  1
  O  O35  1  0.46899100  0.82754400  0.39805300  1
  O  O36  1  0.47589300  0.83096200  0.89960900  1
  O  O37  1  0.46899100  0.82754400  0.60194700  1
  O  O38  1  0.47537900  0.11923300  0.25141300  1
  O  O39  1  0.47537900  0.11923300  0.74858700  1
  O  O40  1  0.52462100  0.61923300  0.75141300  1
  O  O41  1  0.52462100  0.61923300  0.24858700  1
  O  O42  1  0.53100900  0.32754400  0.10194700  1
  O  O43  1  0.52410700  0.33096200  0.39960900  1
  O  O44  1  0.52410700  0.33096200  0.60039100  1
  O  O45  1  0.53100900  0.32754400  0.89805300  1
  O  O46  1  0.60978800  0.55128500  0.00000000  1
  O  O47  1  0.60166400  0.55596100  0.50000000  1
