# generated using pymatgen
data_Ce4Al2O9
_symmetry_space_group_name_H-M   'P 1'
_cell_length_a   7.82373981
_cell_length_b   10.97989544
_cell_length_c   11.47154106
_cell_angle_alpha   90.00000000
_cell_angle_beta   109.45314254
_cell_angle_gamma   90.00000000
_symmetry_Int_Tables_number   1
_chemical_formula_structural   Ce4Al2O9
_chemical_formula_sum   'Ce16 Al8 O36'
_cell_volume   929.19428250
_cell_formula_units_Z   4
loop_
 _symmetry_equiv_pos_site_id
 _symmetry_equiv_pos_as_xyz
  1  'x, y, z'
loop_
 _atom_site_type_symbol
 _atom_site_label
 _atom_site_symmetry_multiplicity
 _atom_site_fract_x
 _atom_site_fract_y
 _atom_site_fract_z
 _atom_site_occupancy
  Ce  Ce0  1  0.52509188  0.40171772  0.29006966  1
  Ce  Ce1  1  0.47490812  0.90171772  0.20993034  1
  Ce  Ce2  1  0.47490812  0.59828228  0.70993034  1
  Ce  Ce3  1  0.52509188  0.09828228  0.79006966  1
  Ce  Ce4  1  0.02605298  0.41359685  0.30832509  1
  Ce  Ce5  1  0.97394702  0.91359685  0.19167491  1
  Ce  Ce6  1  0.97394702  0.58640315  0.69167491  1
  Ce  Ce7  1  0.02605298  0.08640315  0.80832509  1
  Ce  Ce8  1  0.33400421  0.37403655  0.92857906  1
  Ce  Ce9  1  0.66599579  0.87403655  0.57142094  1
  Ce  Ce10  1  0.66599579  0.62596345  0.07142094  1
  Ce  Ce11  1  0.33400421  0.12596345  0.42857906  1
  Ce  Ce12  1  0.83687799  0.37544563  0.91640645  1
  Ce  Ce13  1  0.16312201  0.87544563  0.58359355  1
  Ce  Ce14  1  0.16312201  0.62455437  0.08359355  1
  Ce  Ce15  1  0.83687799  0.12455437  0.41640645  1
  Al  Al16  1  0.22356481  0.30880962  0.62882857  1
  Al  Al17  1  0.77643519  0.80880962  0.87117143  1
  Al  Al18  1  0.77643519  0.69119038  0.37117143  1
  Al  Al19  1  0.22356481  0.19119038  0.12882857  1
  Al  Al20  1  0.65144792  0.31139815  0.61949140  1
  Al  Al21  1  0.34855208  0.81139815  0.88050860  1
  Al  Al22  1  0.34855208  0.68860185  0.38050860  1
  Al  Al23  1  0.65144792  0.18860185  0.11949140  1
  O  O24  1  0.78291633  0.27874100  0.24699707  1
  O  O25  1  0.21708367  0.77874100  0.25300293  1
  O  O26  1  0.21708367  0.72125900  0.75300293  1
  O  O27  1  0.78291633  0.22125900  0.74699707  1
  O  O28  1  0.23073572  0.27673850  0.26241946  1
  O  O29  1  0.76926428  0.77673850  0.23758054  1
  O  O30  1  0.76926428  0.72326150  0.73758054  1
  O  O31  1  0.23073572  0.22326150  0.76241946  1
  O  O32  1  0.21563975  0.46384638  0.66701069  1
  O  O33  1  0.78436025  0.96384638  0.83298931  1
  O  O34  1  0.78436025  0.53615362  0.33298931  1
  O  O35  1  0.21563975  0.03615362  0.16701069  1
  O  O36  1  0.07994628  0.26473913  0.48090878  1
  O  O37  1  0.92005372  0.76473913  0.01909122  1
  O  O38  1  0.92005372  0.73526087  0.51909122  1
  O  O39  1  0.07994628  0.23526087  0.98090878  1
  O  O40  1  0.43414913  0.26170539  0.61692180  1
  O  O41  1  0.56585087  0.76170539  0.88307820  1
  O  O42  1  0.56585087  0.73829461  0.38307820  1
  O  O43  1  0.43414913  0.23829461  0.11692180  1
  O  O44  1  0.64044908  0.27120731  0.46814560  1
  O  O45  1  0.35955092  0.77120731  0.03185440  1
  O  O46  1  0.35955092  0.72879269  0.53185440  1
  O  O47  1  0.64044908  0.22879269  0.96814560  1
  O  O48  1  0.70249395  0.46336278  0.67148630  1
  O  O49  1  0.29750605  0.96336278  0.82851370  1
  O  O50  1  0.29750605  0.53663722  0.32851370  1
  O  O51  1  0.70249395  0.03663722  0.17148630  1
  O  O52  1  0.07547804  0.50337511  0.89405774  1
  O  O53  1  0.92452196  0.00337511  0.60594226  1
  O  O54  1  0.92452196  0.49662489  0.10594226  1
  O  O55  1  0.07547804  0.99662489  0.39405774  1
  O  O56  1  0.56766250  0.49425585  0.89648905  1
  O  O57  1  0.43233750  0.99425585  0.60351095  1
  O  O58  1  0.43233750  0.50574415  0.10351095  1
  O  O59  1  0.56766250  0.00574415  0.39648905  1
