# generated using pymatgen
data_Mg3Cu9(SiO3)16
_symmetry_space_group_name_H-M   'P 1'
_cell_length_a   8.20241900
_cell_length_b   8.23215676
_cell_length_c   14.22329617
_cell_angle_alpha   78.49896848
_cell_angle_beta   74.14097290
_cell_angle_gamma   72.16400719
_symmetry_Int_Tables_number   1
_chemical_formula_structural   Mg3Cu9(SiO3)16
_chemical_formula_sum   'Mg3 Cu9 Si16 O48'
_cell_volume   872.40282108
_cell_formula_units_Z   1
loop_
 _symmetry_equiv_pos_site_id
 _symmetry_equiv_pos_as_xyz
  1  'x, y, z'
loop_
 _atom_site_type_symbol
 _atom_site_label
 _atom_site_symmetry_multiplicity
 _atom_site_fract_x
 _atom_site_fract_y
 _atom_site_fract_z
 _atom_site_occupancy
  Mg  Mg0  1  0.00004400  0.75061500  0.74779600  1
  Mg  Mg1  1  0.99995600  0.24938500  0.25220400  1
  Mg  Mg2  1  0.50000000  0.00000000  0.50000000  1
  Cu  Cu3  1  0.74217200  0.21723300  0.46820900  1
  Cu  Cu4  1  0.24170300  0.96698300  0.71801500  1
  Cu  Cu5  1  0.75829700  0.03301700  0.28198500  1
  Cu  Cu6  1  0.25782800  0.78276700  0.53179100  1
  Cu  Cu7  1  0.74115900  0.71745400  0.96870600  1
  Cu  Cu8  1  0.24178800  0.46614100  0.21982200  1
  Cu  Cu9  1  0.50000000  0.50000000  0.00000000  1
  Cu  Cu10  1  0.75821200  0.53385900  0.78017800  1
  Cu  Cu11  1  0.25884100  0.28254600  0.03129400  1
  Si  Si12  1  0.85469200  0.16688800  0.71412500  1
  Si  Si13  1  0.58442600  0.94592100  0.75157000  1
  Si  Si14  1  0.91584500  0.80328500  0.49791300  1
  Si  Si15  1  0.64520900  0.58316700  0.53475700  1
  Si  Si16  1  0.85523700  0.66594700  0.21417900  1
  Si  Si17  1  0.35479100  0.41683300  0.46524300  1
  Si  Si18  1  0.58419800  0.44634800  0.25480400  1
  Si  Si19  1  0.91534600  0.30307700  0.99819900  1
  Si  Si20  1  0.08415500  0.19671500  0.50208700  1
  Si  Si21  1  0.41557400  0.05407900  0.24843000  1
  Si  Si22  1  0.64547000  0.08505600  0.03638100  1
  Si  Si23  1  0.14530800  0.83311200  0.28587500  1
  Si  Si24  1  0.35453000  0.91494400  0.96361900  1
  Si  Si25  1  0.08465400  0.69692300  0.00180100  1
  Si  Si26  1  0.41580200  0.55365200  0.74519600  1
  Si  Si27  1  0.14476300  0.33405300  0.78582100  1
  O  O28  1  0.92998400  0.24689100  0.60075900  1
  O  O29  1  0.69108200  0.09329300  0.71002100  1
  O  O30  1  0.80838900  0.65644500  0.53995700  1
  O  O31  1  0.98481900  0.18005000  0.41928000  1
  O  O32  1  0.56903500  0.49999500  0.64668900  1
  O  O33  1  0.48424900  0.93032400  0.66897400  1
  O  O34  1  0.76133600  0.98099100  0.47525700  1
  O  O35  1  0.71039900  0.44858500  0.45403400  1
  O  O36  1  0.00043000  0.49320300  0.25121000  1
  O  O37  1  0.26033500  0.73131000  0.72333000  1
  O  O38  1  0.20883300  0.19811000  0.70596700  1
  O  O39  1  0.49922100  0.75663800  0.49817200  1
  O  O40  1  0.50077900  0.24336200  0.50182800  1
  O  O41  1  0.79116700  0.80189000  0.29403300  1
  O  O42  1  0.73966500  0.26869000  0.27667000  1
  O  O43  1  0.99957000  0.50679700  0.74879000  1
  O  O44  1  0.28960100  0.55141500  0.54596600  1
  O  O45  1  0.93106300  0.74574000  0.10076700  1
  O  O46  1  0.23866400  0.01900900  0.52474300  1
  O  O47  1  0.51575100  0.06967600  0.33102600  1
  O  O48  1  0.69111300  0.59326700  0.21007700  1
  O  O49  1  0.43096500  0.50000500  0.35331100  1
  O  O50  1  0.01518100  0.81995000  0.58072000  1
  O  O51  1  0.81003800  0.15543700  0.04061800  1
  O  O52  1  0.19161100  0.34355500  0.46004300  1
  O  O53  1  0.98377600  0.67883600  0.92026900  1
  O  O54  1  0.56901300  0.00512300  0.14909600  1
  O  O55  1  0.30891800  0.90670700  0.28997900  1
  O  O56  1  0.48305000  0.42342400  0.17535700  1
  O  O57  1  0.75729000  0.48134700  0.97605400  1
  O  O58  1  0.07001600  0.75310900  0.39924100  1
  O  O59  1  0.70414900  0.95024400  0.95630800  1
  O  O60  1  0.00026200  0.99348500  0.75156500  1
  O  O61  1  0.26042800  0.23074800  0.22544100  1
  O  O62  1  0.20958900  0.69769800  0.20589400  1
  O  O63  1  0.50058700  0.26188700  0.99746500  1
  O  O64  1  0.49941300  0.73811300  0.00253500  1
  O  O65  1  0.79041100  0.30230200  0.79410600  1
  O  O66  1  0.73957200  0.76925200  0.77455900  1
  O  O67  1  0.99973800  0.00651500  0.24843500  1
  O  O68  1  0.29585100  0.04975600  0.04369200  1
  O  O69  1  0.24271000  0.51865300  0.02394600  1
  O  O70  1  0.51695000  0.57657600  0.82464300  1
  O  O71  1  0.43098700  0.99487700  0.85090400  1
  O  O72  1  0.01622400  0.32116400  0.07973100  1
  O  O73  1  0.18996200  0.84456300  0.95938200  1
  O  O74  1  0.30888700  0.40673300  0.78992300  1
  O  O75  1  0.06893700  0.25426000  0.89923300  1
