# generated using pymatgen
data_LiCr2(PO4)2
_symmetry_space_group_name_H-M   'P 1'
_cell_length_a   6.40912300
_cell_length_b   9.50576921
_cell_length_c   9.50647206
_cell_angle_alpha   119.93033171
_cell_angle_beta   90.05810057
_cell_angle_gamma   90.01207906
_symmetry_Int_Tables_number   1
_chemical_formula_structural   LiCr2(PO4)2
_chemical_formula_sum   'Li3 Cr6 P6 O24'
_cell_volume   501.92631501
_cell_formula_units_Z   3
loop_
 _symmetry_equiv_pos_site_id
 _symmetry_equiv_pos_as_xyz
  1  'x, y, z'
loop_
 _atom_site_type_symbol
 _atom_site_label
 _atom_site_symmetry_multiplicity
 _atom_site_fract_x
 _atom_site_fract_y
 _atom_site_fract_z
 _atom_site_occupancy
  Li  Li0  1  0.09142200  0.33240600  0.66698500  1
  Li  Li1  1  0.09745300  0.99804400  0.99696600  1
  Li  Li2  1  0.60830100  0.66936300  0.33610400  1
  Cr  Cr3  1  0.50067300  0.27175300  0.42442700  1
  Cr  Cr4  1  0.50109200  0.57516700  0.84722500  1
  Cr  Cr5  1  0.50137800  0.15453400  0.72934400  1
  Cr  Cr6  1  0.99875700  0.86270300  0.27909400  1
  Cr  Cr7  1  0.99973800  0.42441500  0.14794800  1
  Cr  Cr8  1  0.99924900  0.71792600  0.58866900  1
  P  P9  1  0.99903500  0.30953100  0.35778400  1
  P  P10  1  0.99967000  0.63733100  0.94958400  1
  P  P11  1  0.99932500  0.05022000  0.68785900  1
  P  P12  1  0.49387500  0.95373400  0.31399500  1
  P  P13  1  0.49450300  0.36059600  0.04727200  1
  P  P14  1  0.49395900  0.68529300  0.63953800  1
  O  O15  1  0.49015600  0.05473400  0.22709100  1
  O  O16  1  0.80798300  0.26566400  0.42472300  1
  O  O17  1  0.18738700  0.28223200  0.44384600  1
  O  O18  1  0.50114900  0.50053100  0.59960800  1
  O  O19  1  0.49034200  0.77254200  0.82726800  1
  O  O20  1  0.50154500  0.09745400  0.49893700  1
  O  O21  1  0.18802800  0.55424600  0.83522900  1
  O  O22  1  0.80805800  0.57337100  0.83824900  1
  O  O23  1  0.01693100  0.82530200  0.04695000  1
  O  O24  1  0.18830300  0.16539100  0.71959800  1
  O  O25  1  0.80845200  0.16308300  0.73674200  1
  O  O26  1  0.50124400  0.40074200  0.90259200  1
  O  O27  1  0.99034700  0.59191700  0.08730900  1
  O  O28  1  0.30419300  0.84452600  0.28133200  1
  O  O29  1  0.68510700  0.84126400  0.27668400  1
  O  O30  1  0.49042600  0.17308600  0.94672900  1
  O  O31  1  0.30528900  0.43764000  0.15694300  1
  O  O32  1  0.68530700  0.43708900  0.16024600  1
  O  O33  1  0.98861800  0.91411400  0.50583700  1
  O  O34  1  0.01617800  0.21876800  0.16939000  1
  O  O35  1  0.98983700  0.49121800  0.39489900  1
  O  O36  1  0.68600400  0.72115100  0.56425200  1
  O  O37  1  0.30406600  0.71703900  0.56253500  1
  O  O38  1  0.01746200  0.95389000  0.78004800  1
