# generated using pymatgen
data_Na5(WO3)7
_symmetry_space_group_name_H-M   'P 1'
_cell_length_a   11.81108579
_cell_length_b   11.81108579
_cell_length_c   6.79838372
_cell_angle_alpha   79.01484026
_cell_angle_beta   79.01484026
_cell_angle_gamma   27.64918410
_symmetry_Int_Tables_number   1
_chemical_formula_structural   Na5(WO3)7
_chemical_formula_sum   'Na5 W7 O21'
_cell_volume   431.54757782
_cell_formula_units_Z   1
loop_
 _symmetry_equiv_pos_site_id
 _symmetry_equiv_pos_as_xyz
  1  'x, y, z'
loop_
 _atom_site_type_symbol
 _atom_site_label
 _atom_site_symmetry_multiplicity
 _atom_site_fract_x
 _atom_site_fract_y
 _atom_site_fract_z
 _atom_site_occupancy
  Na  Na0  1  0.71463800  0.71463800  0.85440900  1
  Na  Na1  1  0.42773000  0.42773000  0.71358000  1
  Na  Na2  1  0.00000000  0.00000000  0.00000000  1
  Na  Na3  1  0.28536200  0.28536200  0.14559100  1
  Na  Na4  1  0.57227000  0.57227000  0.28642000  1
  W  W5  1  0.85592000  0.85592000  0.92759800  1
  W  W6  1  0.28566100  0.28566100  0.63940400  1
  W  W7  1  0.71433900  0.71433900  0.36059600  1
  W  W8  1  0.00000000  0.00000000  0.50000000  1
  W  W9  1  0.42733300  0.42733300  0.21538600  1
  W  W10  1  0.57266700  0.57266700  0.78461400  1
  W  W11  1  0.14408000  0.14408000  0.07240200  1
  O  O12  1  0.07626900  0.56471500  0.78599400  1
  O  O13  1  0.92373100  0.43528500  0.21400600  1
  O  O14  1  0.78709300  0.78709300  0.13544800  1
  O  O15  1  0.21290700  0.21290700  0.86455200  1
  O  O16  1  0.00000000  0.50000000  0.50000000  1
  O  O17  1  0.43528500  0.92373100  0.21400600  1
  O  O18  1  0.56471500  0.07626900  0.78599400  1
  O  O19  1  0.92930700  0.92930700  0.71650900  1
  O  O20  1  0.77676400  0.29269900  0.64633400  1
  O  O21  1  0.50000000  0.00000000  0.50000000  1
  O  O22  1  0.63562300  0.15420800  0.06679000  1
  O  O23  1  0.70730100  0.22323600  0.35366600  1
  O  O24  1  0.29269900  0.77676400  0.64633400  1
  O  O25  1  0.07069300  0.07069300  0.28349100  1
  O  O26  1  0.64121300  0.64121300  0.57855100  1
  O  O27  1  0.50000000  0.50000000  0.00000000  1
  O  O28  1  0.15420800  0.63562300  0.06679000  1
  O  O29  1  0.84579200  0.36437700  0.93321000  1
  O  O30  1  0.35878700  0.35878700  0.42144900  1
  O  O31  1  0.22323600  0.70730100  0.35366600  1
  O  O32  1  0.36437700  0.84579200  0.93321000  1
