# generated using pymatgen
data_Ni(PO3)3
_symmetry_space_group_name_H-M   'P 1'
_cell_length_a   8.31940200
_cell_length_b   8.59955200
_cell_length_c   8.87954900
_cell_angle_alpha   90.00000000
_cell_angle_beta   90.00000000
_cell_angle_gamma   90.00000000
_symmetry_Int_Tables_number   1
_chemical_formula_structural   Ni(PO3)3
_chemical_formula_sum   'Ni4 P12 O36'
_cell_volume   635.27072941
_cell_formula_units_Z   4
loop_
 _symmetry_equiv_pos_site_id
 _symmetry_equiv_pos_as_xyz
  1  'x, y, z'
loop_
 _atom_site_type_symbol
 _atom_site_label
 _atom_site_symmetry_multiplicity
 _atom_site_fract_x
 _atom_site_fract_y
 _atom_site_fract_z
 _atom_site_occupancy
  Ni  Ni0  1  0.65187500  0.62991000  0.61394100  1
  Ni  Ni1  1  0.84812500  0.37009000  0.11394100  1
  Ni  Ni2  1  0.34812500  0.12991000  0.88605900  1
  Ni  Ni3  1  0.15187500  0.87009000  0.38605900  1
  P  P4  1  0.80023600  0.68987600  0.92357700  1
  P  P5  1  0.02542900  0.68757400  0.67073400  1
  P  P6  1  0.18381400  0.52764200  0.19298100  1
  P  P7  1  0.31618600  0.47235800  0.69298100  1
  P  P8  1  0.47457100  0.31242600  0.17073400  1
  P  P9  1  0.69976400  0.31012400  0.42357700  1
  P  P10  1  0.19976400  0.18987600  0.57642300  1
  P  P11  1  0.97457100  0.18757400  0.82926600  1
  P  P12  1  0.81618600  0.02764200  0.30701900  1
  P  P13  1  0.68381400  0.97235800  0.80701900  1
  P  P14  1  0.52542900  0.81242600  0.32926600  1
  P  P15  1  0.30023600  0.81012400  0.07642300  1
  O  O16  1  0.96393400  0.73848300  0.83564300  1
  O  O17  1  0.61893400  0.68047700  0.39822600  1
  O  O18  1  0.22203800  0.64120300  0.04942600  1
  O  O19  1  0.88577100  0.62619200  0.58047800  1
  O  O20  1  0.83621600  0.61590200  0.07156700  1
  O  O21  1  0.14412300  0.62637200  0.32653000  1
  O  O22  1  0.42160500  0.60402600  0.64203100  1
  O  O23  1  0.69244500  0.59016400  0.82365100  1
  O  O24  1  0.14196900  0.54913900  0.71930100  1
  O  O25  1  0.35803100  0.45086100  0.21930100  1
  O  O26  1  0.80755500  0.40983600  0.32365100  1
  O  O27  1  0.07839500  0.39597400  0.14203100  1
  O  O28  1  0.35587700  0.37362800  0.82653000  1
  O  O29  1  0.66378400  0.38409800  0.57156700  1
  O  O30  1  0.61422900  0.37380800  0.08047800  1
  O  O31  1  0.27796200  0.35879700  0.54942600  1
  O  O32  1  0.88106600  0.31952300  0.89822600  1
  O  O33  1  0.53606600  0.26151700  0.33564300  1
  O  O34  1  0.03606600  0.23848300  0.66435700  1
  O  O35  1  0.38106600  0.18047700  0.10177400  1
  O  O36  1  0.77796200  0.14120300  0.45057400  1
  O  O37  1  0.11422900  0.12619200  0.91952200  1
  O  O38  1  0.16378400  0.11590200  0.42843300  1
  O  O39  1  0.85587700  0.12637200  0.17347000  1
  O  O40  1  0.57839500  0.10402600  0.85796900  1
  O  O41  1  0.30755500  0.09016400  0.67634900  1
  O  O42  1  0.85803100  0.04913900  0.78069900  1
  O  O43  1  0.64196900  0.95086100  0.28069900  1
  O  O44  1  0.19244500  0.90983600  0.17634900  1
  O  O45  1  0.92160500  0.89597400  0.35796900  1
  O  O46  1  0.64412300  0.87362800  0.67347000  1
  O  O47  1  0.33621600  0.88409800  0.92843300  1
  O  O48  1  0.38577100  0.87380800  0.41952200  1
  O  O49  1  0.72203800  0.85879700  0.95057400  1
  O  O50  1  0.11893400  0.81952300  0.60177400  1
  O  O51  1  0.46393400  0.76151700  0.16435700  1
