# generated using pymatgen
data_P5(WO6)4
_symmetry_space_group_name_H-M   'P 1'
_cell_length_a   9.59852175
_cell_length_b   9.59852175
_cell_length_c   15.42235003
_cell_angle_alpha   64.09022320
_cell_angle_beta   64.09022320
_cell_angle_gamma   52.68197413
_symmetry_Int_Tables_number   1
_chemical_formula_structural   P5(WO6)4
_chemical_formula_sum   'P10 W8 O48'
_cell_volume   986.58319658
_cell_formula_units_Z   2
loop_
 _symmetry_equiv_pos_site_id
 _symmetry_equiv_pos_as_xyz
  1  'x, y, z'
loop_
 _atom_site_type_symbol
 _atom_site_label
 _atom_site_symmetry_multiplicity
 _atom_site_fract_x
 _atom_site_fract_y
 _atom_site_fract_z
 _atom_site_occupancy
  P  P0  1  0.81672000  0.16342200  0.89546300  1
  P  P1  1  0.83945700  0.18065600  0.60265500  1
  P  P2  1  0.24695800  0.26415700  0.03987000  1
  P  P3  1  0.26415700  0.24695800  0.53987000  1
  P  P4  1  0.59859700  0.40221000  0.24963500  1
  P  P5  1  0.40221000  0.59859700  0.74963500  1
  P  P6  1  0.73913400  0.74995000  0.46014900  1
  P  P7  1  0.74995000  0.73913400  0.96014900  1
  P  P8  1  0.18065600  0.83945700  0.10265500  1
  P  P9  1  0.16342200  0.81672000  0.39546300  1
  W  W10  1  0.85407100  0.47292700  0.68115100  1
  W  W11  1  0.52197900  0.15077400  0.81803200  1
  W  W12  1  0.10049500  0.70851900  0.97928000  1
  W  W13  1  0.29306400  0.90184700  0.51775200  1
  W  W14  1  0.90184700  0.29306400  0.01775200  1
  W  W15  1  0.70851900  0.10049500  0.47928000  1
  W  W16  1  0.47292700  0.85407100  0.18115100  1
  W  W17  1  0.15077400  0.52197900  0.31803200  1
  O  O18  1  0.42236500  0.41250700  0.77279600  1
  O  O19  1  0.74566100  0.26291100  0.97425000  1
  O  O20  1  0.74206000  0.24663100  0.52007200  1
  O  O21  1  0.66895700  0.15563000  0.88896200  1
  O  O22  1  0.84502300  0.33372300  0.60422900  1
  O  O23  1  0.72786700  0.11969600  0.70404700  1
  O  O24  1  0.89380600  0.25871100  0.79132400  1
  O  O25  1  0.14332000  0.39922700  0.26710600  1
  O  O26  1  0.05156900  0.28778500  0.90161900  1
  O  O27  1  0.11850900  0.35331400  0.62067900  1
  O  O28  1  0.18693900  0.34671300  0.44656800  1
  O  O29  1  0.25115400  0.43734500  0.01372200  1
  O  O30  1  0.98224000  0.96892100  0.91712600  1
  O  O31  1  0.02312500  0.01171000  0.58485400  1
  O  O32  1  0.41250700  0.42236500  0.27279600  1
  O  O33  1  0.43734500  0.25115400  0.51372200  1
  O  O34  1  0.34671300  0.18693900  0.94656800  1
  O  O35  1  0.35331400  0.11850900  0.12067900  1
  O  O36  1  0.28778500  0.05156900  0.40161900  1
  O  O37  1  0.39922700  0.14332000  0.76710600  1
  O  O38  1  0.30689200  0.05296500  0.57603200  1
  O  O39  1  0.94697000  0.69953000  0.92634700  1
  O  O40  1  0.71731000  0.32614000  0.15883700  1
  O  O41  1  0.67782500  0.28351300  0.34087900  1
  O  O42  1  0.28351300  0.67782500  0.84087900  1
  O  O43  1  0.32614000  0.71731000  0.65883700  1
  O  O44  1  0.69953000  0.94697000  0.42634700  1
  O  O45  1  0.05296500  0.30689200  0.07603200  1
  O  O46  1  0.59655900  0.85671600  0.23375100  1
  O  O47  1  0.71370000  0.95153100  0.59468800  1
  O  O48  1  0.65036900  0.88770500  0.87701400  1
  O  O49  1  0.65315600  0.81628900  0.05358700  1
  O  O50  1  0.57440300  0.74195700  0.48104900  1
  O  O51  1  0.01171000  0.02312500  0.08485400  1
  O  O52  1  0.96892100  0.98224000  0.41712600  1
  O  O53  1  0.59269800  0.56658900  0.72992900  1
  O  O54  1  0.74195700  0.57440300  0.98104900  1
  O  O55  1  0.81628900  0.65315600  0.55358700  1
  O  O56  1  0.88770500  0.65036900  0.37701400  1
  O  O57  1  0.95153100  0.71370000  0.09468800  1
  O  O58  1  0.85671600  0.59655900  0.73375100  1
  O  O59  1  0.25871100  0.89380600  0.29132400  1
  O  O60  1  0.11969600  0.72786700  0.20404700  1
  O  O61  1  0.33372300  0.84502300  0.10422900  1
  O  O62  1  0.15563000  0.66895700  0.38896200  1
  O  O63  1  0.24663100  0.74206000  0.02007200  1
  O  O64  1  0.26291100  0.74566100  0.47425000  1
  O  O65  1  0.56658900  0.59269800  0.22992900  1
