# generated using pymatgen
data_Mg3P2(HO)16
_symmetry_space_group_name_H-M   'P 1'
_cell_length_a   14.12049540
_cell_length_b   14.12049540
_cell_length_c   10.00757931
_cell_angle_alpha   88.11858000
_cell_angle_beta   88.11858000
_cell_angle_gamma   160.91290782
_symmetry_Int_Tables_number   1
_chemical_formula_structural   Mg3P2(HO)16
_chemical_formula_sum   'Mg6 P4 H32 O32'
_cell_volume   639.58336427
_cell_formula_units_Z   2
loop_
 _symmetry_equiv_pos_site_id
 _symmetry_equiv_pos_as_xyz
  1  'x, y, z'
loop_
 _atom_site_type_symbol
 _atom_site_label
 _atom_site_symmetry_multiplicity
 _atom_site_fract_x
 _atom_site_fract_y
 _atom_site_fract_z
 _atom_site_occupancy
  Mg  Mg0  1  0.18298500  0.81701500  0.75000000  1
  Mg  Mg1  1  0.07606400  0.92393600  0.75000000  1
  Mg  Mg2  1  0.62725700  0.37274300  0.25000000  1
  Mg  Mg3  1  0.37274300  0.62725700  0.75000000  1
  Mg  Mg4  1  0.81701500  0.18298500  0.25000000  1
  Mg  Mg5  1  0.92393600  0.07606400  0.25000000  1
  P  P6  1  0.44224400  0.70357500  0.06273100  1
  P  P7  1  0.29642500  0.55775600  0.43726900  1
  P  P8  1  0.70357500  0.44224400  0.56273100  1
  P  P9  1  0.55775600  0.29642500  0.93726900  1
  H  H10  1  0.08292100  0.90465800  0.12571300  1
  H  H11  1  0.15361400  0.81528100  0.12934700  1
  H  H12  1  0.18471900  0.84638600  0.37065300  1
  H  H13  1  0.09534200  0.91707900  0.37428700  1
  H  H14  1  0.19601600  0.17522700  0.34946600  1
  H  H15  1  0.50440000  0.03678200  0.20742700  1
  H  H16  1  0.33711200  0.18708000  0.45012400  1
  H  H17  1  0.46207800  0.08265600  0.43624800  1
  H  H18  1  0.13560400  0.58506800  0.37535300  1
  H  H19  1  0.32669400  0.40169700  0.37675100  1
  H  H20  1  0.17522700  0.19601600  0.84946600  1
  H  H21  1  0.03678200  0.50440000  0.70742700  1
  H  H22  1  0.18708000  0.33711200  0.95012400  1
  H  H23  1  0.08265600  0.46207800  0.93624800  1
  H  H24  1  0.59830300  0.67330600  0.12324900  1
  H  H25  1  0.41493200  0.86439600  0.12464700  1
  H  H26  1  0.58506800  0.13560400  0.87535300  1
  H  H27  1  0.40169700  0.32669400  0.87675100  1
  H  H28  1  0.91734400  0.53792200  0.06375200  1
  H  H29  1  0.81292000  0.66288800  0.04987600  1
  H  H30  1  0.96321800  0.49560000  0.29257300  1
  H  H31  1  0.82477300  0.80398400  0.15053400  1
  H  H32  1  0.67330600  0.59830300  0.62324900  1
  H  H33  1  0.86439600  0.41493200  0.62464700  1
  H  H34  1  0.53792200  0.91734400  0.56375200  1
  H  H35  1  0.66288800  0.81292000  0.54987600  1
  H  H36  1  0.49560000  0.96321800  0.79257300  1
  H  H37  1  0.80398400  0.82477300  0.65053400  1
  H  H38  1  0.90465800  0.08292100  0.62571300  1
  H  H39  1  0.81528100  0.15361400  0.62934700  1
  H  H40  1  0.84638600  0.18471900  0.87065300  1
  H  H41  1  0.91707900  0.09534200  0.87428700  1
  O  O42  1  0.05639300  0.58221000  0.65179400  1
  O  O43  1  0.40778500  0.14780900  0.09251100  1
  O  O44  1  0.05462600  0.31485200  0.35168300  1
  O  O45  1  0.15728300  0.20764700  0.35250600  1
  O  O46  1  0.39884500  0.03138200  0.34615600  1
  O  O47  1  0.28033000  0.13159300  0.35694000  1
  O  O48  1  0.29966000  0.46799300  0.09059200  1
  O  O49  1  0.20981400  0.56438400  0.09046700  1
  O  O50  1  0.14780900  0.40778500  0.59251100  1
  O  O51  1  0.41779000  0.94360700  0.84820600  1
  O  O52  1  0.31485200  0.05462600  0.85168300  1
  O  O53  1  0.20764700  0.15728300  0.85250600  1
  O  O54  1  0.03138200  0.39884500  0.84615600  1
  O  O55  1  0.13159300  0.28033000  0.85694000  1
  O  O56  1  0.46799300  0.29966000  0.59059200  1
  O  O57  1  0.56438400  0.20981400  0.59046700  1
  O  O58  1  0.43561600  0.79018600  0.40953300  1
  O  O59  1  0.53200700  0.70034000  0.40940800  1
  O  O60  1  0.86840700  0.71967000  0.14306000  1
  O  O61  1  0.96861800  0.60115500  0.15384400  1
  O  O62  1  0.79235300  0.84271700  0.14749400  1
  O  O63  1  0.68514800  0.94537400  0.14831700  1
  O  O64  1  0.58221000  0.05639300  0.15179400  1
  O  O65  1  0.85219100  0.59221500  0.40748900  1
  O  O66  1  0.79018600  0.43561600  0.90953300  1
  O  O67  1  0.70034000  0.53200700  0.90940800  1
  O  O68  1  0.71967000  0.86840700  0.64306000  1
  O  O69  1  0.60115500  0.96861800  0.65384400  1
  O  O70  1  0.84271700  0.79235300  0.64749400  1
  O  O71  1  0.94537400  0.68514800  0.64831700  1
  O  O72  1  0.59221500  0.85219100  0.90748900  1
  O  O73  1  0.94360700  0.41779000  0.34820600  1
