# generated using pymatgen
data_V(SiO3)2
_symmetry_space_group_name_H-M   'P 1'
_cell_length_a   5.32799200
_cell_length_b   8.81961100
_cell_length_c   17.99261200
_cell_angle_alpha   90.00000000
_cell_angle_beta   90.00000000
_cell_angle_gamma   90.00000000
_symmetry_Int_Tables_number   1
_chemical_formula_structural   V(SiO3)2
_chemical_formula_sum   'V8 Si16 O48'
_cell_volume   845.48753517
_cell_formula_units_Z   8
loop_
 _symmetry_equiv_pos_site_id
 _symmetry_equiv_pos_as_xyz
  1  'x, y, z'
loop_
 _atom_site_type_symbol
 _atom_site_label
 _atom_site_symmetry_multiplicity
 _atom_site_fract_x
 _atom_site_fract_y
 _atom_site_fract_z
 _atom_site_occupancy
  V  V0  1  0.62084200  0.64581300  0.12586400  1
  V  V1  1  0.12084200  0.85418700  0.12586400  1
  V  V2  1  0.12084200  0.35418700  0.37413600  1
  V  V3  1  0.62084200  0.14581300  0.37413600  1
  V  V4  1  0.37915800  0.85418700  0.62586400  1
  V  V5  1  0.87915800  0.64581300  0.62586400  1
  V  V6  1  0.37915800  0.35418700  0.87413600  1
  V  V7  1  0.87915800  0.14581300  0.87413600  1
  Si  Si8  1  0.69679400  0.33297900  0.02520900  1
  Si  Si9  1  0.19679400  0.16702100  0.02520900  1
  Si  Si10  1  0.44938300  0.33484600  0.22372400  1
  Si  Si11  1  0.94938300  0.16515400  0.22372400  1
  Si  Si12  1  0.44938300  0.83484600  0.27627600  1
  Si  Si13  1  0.94938300  0.66515400  0.27627600  1
  Si  Si14  1  0.69679400  0.83297900  0.47479100  1
  Si  Si15  1  0.19679400  0.66702100  0.47479100  1
  Si  Si16  1  0.80320600  0.33297900  0.52520900  1
  Si  Si17  1  0.30320600  0.16702100  0.52520900  1
  Si  Si18  1  0.05061700  0.33484600  0.72372400  1
  Si  Si19  1  0.55061700  0.16515400  0.72372400  1
  Si  Si20  1  0.05061700  0.83484600  0.77627600  1
  Si  Si21  1  0.55061700  0.66515400  0.77627600  1
  Si  Si22  1  0.80320600  0.83297900  0.97479100  1
  Si  Si23  1  0.30320600  0.66702100  0.97479100  1
  O  O24  1  0.92966400  0.23142300  0.05509400  1
  O  O25  1  0.42966400  0.26857700  0.05509400  1
  O  O26  1  0.80688000  0.81627900  0.06707800  1
  O  O27  1  0.30688000  0.68372100  0.06707800  1
  O  O28  1  0.73039200  0.50435000  0.05750300  1
  O  O29  1  0.23039200  0.99565000  0.05750300  1
  O  O30  1  0.43637000  0.81886300  0.18353800  1
  O  O31  1  0.93637000  0.68113700  0.18353800  1
  O  O32  1  0.99430400  0.99362700  0.19383900  1
  O  O33  1  0.49430400  0.50637300  0.19383900  1
  O  O34  1  0.68191900  0.23118900  0.19455500  1
  O  O35  1  0.18191900  0.26881100  0.19455500  1
  O  O36  1  0.18191900  0.76881100  0.30544500  1
  O  O37  1  0.68191900  0.73118900  0.30544500  1
  O  O38  1  0.99430400  0.49362700  0.30616100  1
  O  O39  1  0.49430400  0.00637300  0.30616100  1
  O  O40  1  0.43637000  0.31886300  0.31646200  1
  O  O41  1  0.93637000  0.18113700  0.31646200  1
  O  O42  1  0.73039200  0.00435000  0.44249700  1
  O  O43  1  0.23039200  0.49565000  0.44249700  1
  O  O44  1  0.80688000  0.31627900  0.43292200  1
  O  O45  1  0.30688000  0.18372100  0.43292200  1
  O  O46  1  0.42966400  0.76857700  0.44490600  1
  O  O47  1  0.92966400  0.73142300  0.44490600  1
  O  O48  1  0.07033600  0.26857700  0.55509400  1
  O  O49  1  0.57033600  0.23142300  0.55509400  1
  O  O50  1  0.69312000  0.81627900  0.56707800  1
  O  O51  1  0.19312000  0.68372100  0.56707800  1
  O  O52  1  0.76960800  0.50435000  0.55750300  1
  O  O53  1  0.26960800  0.99565000  0.55750300  1
  O  O54  1  0.06363000  0.81886300  0.68353800  1
  O  O55  1  0.56363000  0.68113700  0.68353800  1
  O  O56  1  0.50569600  0.99362700  0.69383900  1
  O  O57  1  0.00569600  0.50637300  0.69383900  1
  O  O58  1  0.31808100  0.26881100  0.69455500  1
  O  O59  1  0.81808100  0.23118900  0.69455500  1
  O  O60  1  0.31808100  0.76881100  0.80544500  1
  O  O61  1  0.81808100  0.73118900  0.80544500  1
  O  O62  1  0.50569600  0.49362700  0.80616100  1
  O  O63  1  0.00569600  0.00637300  0.80616100  1
  O  O64  1  0.06363000  0.31886300  0.81646200  1
  O  O65  1  0.56363000  0.18113700  0.81646200  1
  O  O66  1  0.76960800  0.00435000  0.94249700  1
  O  O67  1  0.26960800  0.49565000  0.94249700  1
  O  O68  1  0.69312000  0.31627900  0.93292200  1
  O  O69  1  0.19312000  0.18372100  0.93292200  1
  O  O70  1  0.07033600  0.76857700  0.94490600  1
  O  O71  1  0.57033600  0.73142300  0.94490600  1
