# generated using pymatgen
data_Na4Ti5Mn4O18
_symmetry_space_group_name_H-M   'P 1'
_cell_length_a   2.94337500
_cell_length_b   9.42692300
_cell_length_c   26.49639500
_cell_angle_alpha   90.00000000
_cell_angle_beta   90.00000000
_cell_angle_gamma   90.00000000
_symmetry_Int_Tables_number   1
_chemical_formula_structural   Na4Ti5Mn4O18
_chemical_formula_sum   'Na8 Ti10 Mn8 O36'
_cell_volume   735.19466353
_cell_formula_units_Z   2
loop_
 _symmetry_equiv_pos_site_id
 _symmetry_equiv_pos_as_xyz
  1  'x, y, z'
loop_
 _atom_site_type_symbol
 _atom_site_label
 _atom_site_symmetry_multiplicity
 _atom_site_fract_x
 _atom_site_fract_y
 _atom_site_fract_z
 _atom_site_occupancy
  Na  Na0  1  0.00000000  0.17028500  0.99329000  1
  Na  Na1  1  0.00000000  0.21042500  0.20281600  1
  Na  Na2  1  0.00000000  0.28957500  0.70281600  1
  Na  Na3  1  0.00000000  0.32971500  0.49329000  1
  Na  Na4  1  0.00000000  0.67028500  0.50671000  1
  Na  Na5  1  0.00000000  0.71042500  0.29718400  1
  Na  Na6  1  0.00000000  0.78957500  0.79718400  1
  Na  Na7  1  0.00000000  0.82971500  0.00671000  1
  Ti  Ti8  1  0.00000000  0.00000000  0.50000000  1
  Ti  Ti9  1  0.00000000  0.01513200  0.10489900  1
  Ti  Ti10  1  0.50000000  0.13746400  0.80917800  1
  Ti  Ti11  1  0.50000000  0.36253600  0.30917800  1
  Ti  Ti12  1  0.00000000  0.48486800  0.60489900  1
  Ti  Ti13  1  0.00000000  0.50000000  0.00000000  1
  Ti  Ti14  1  0.00000000  0.51513200  0.39510100  1
  Ti  Ti15  1  0.50000000  0.63746400  0.69082200  1
  Ti  Ti16  1  0.50000000  0.86253600  0.19082200  1
  Ti  Ti17  1  0.00000000  0.98486800  0.89510100  1
  Mn  Mn18  1  0.00000000  0.02894600  0.30724800  1
  Mn  Mn19  1  0.50000000  0.14139800  0.59019800  1
  Mn  Mn20  1  0.50000000  0.35860200  0.09019800  1
  Mn  Mn21  1  0.00000000  0.47105400  0.80724800  1
  Mn  Mn22  1  0.00000000  0.52894600  0.19275200  1
  Mn  Mn23  1  0.50000000  0.64139800  0.90980200  1
  Mn  Mn24  1  0.50000000  0.85860200  0.40980200  1
  Mn  Mn25  1  0.00000000  0.97105400  0.69275200  1
  O  O26  1  0.00000000  0.98875300  0.42383700  1
  O  O27  1  0.00000000  0.01124700  0.57616300  1
  O  O28  1  0.50000000  0.02613200  0.94006800  1
  O  O29  1  0.50000000  0.05315900  0.15701100  1
  O  O30  1  0.50000000  0.09081000  0.66958500  1
  O  O31  1  0.00000000  0.08575500  0.76509300  1
  O  O32  1  0.50000000  0.13907800  0.50088800  1
  O  O33  1  0.50000000  0.16030100  0.28794000  1
  O  O34  1  0.00000000  0.16964500  0.85899500  1
  O  O35  1  0.00000000  0.21856600  0.09152100  1
  O  O36  1  0.00000000  0.28143400  0.59152100  1
  O  O37  1  0.00000000  0.33035500  0.35899500  1
  O  O38  1  0.50000000  0.33969900  0.78794000  1
  O  O39  1  0.50000000  0.36092200  0.00088800  1
  O  O40  1  0.00000000  0.41424500  0.26509300  1
  O  O41  1  0.50000000  0.40919000  0.16958500  1
  O  O42  1  0.50000000  0.44684100  0.65701100  1
  O  O43  1  0.50000000  0.47386800  0.44006800  1
  O  O44  1  0.00000000  0.48875300  0.07616300  1
  O  O45  1  0.00000000  0.51124700  0.92383700  1
  O  O46  1  0.50000000  0.52613200  0.55993200  1
  O  O47  1  0.50000000  0.55315900  0.34298900  1
  O  O48  1  0.50000000  0.59081000  0.83041500  1
  O  O49  1  0.00000000  0.58575500  0.73490700  1
  O  O50  1  0.50000000  0.63907800  0.99911200  1
  O  O51  1  0.50000000  0.66030100  0.21206000  1
  O  O52  1  0.00000000  0.66964500  0.64100500  1
  O  O53  1  0.00000000  0.71856600  0.40847900  1
  O  O54  1  0.00000000  0.78143400  0.90847900  1
  O  O55  1  0.00000000  0.83035500  0.14100500  1
  O  O56  1  0.50000000  0.83969900  0.71206000  1
  O  O57  1  0.50000000  0.86092200  0.49911200  1
  O  O58  1  0.00000000  0.91424500  0.23490700  1
  O  O59  1  0.50000000  0.90919000  0.33041500  1
  O  O60  1  0.50000000  0.94684100  0.84298900  1
  O  O61  1  0.50000000  0.97386800  0.05993200  1
