# generated using pymatgen
data_VPH5O7
_symmetry_space_group_name_H-M   'P 1'
_cell_length_a   7.03967000
_cell_length_b   8.24719000
_cell_length_c   10.07689983
_cell_angle_alpha   78.47711874
_cell_angle_beta   90.00000000
_cell_angle_gamma   90.00000000
_symmetry_Int_Tables_number   1
_chemical_formula_structural   VPH5O7
_chemical_formula_sum   'V4 P4 H20 O28'
_cell_volume   573.24810427
_cell_formula_units_Z   4
loop_
 _symmetry_equiv_pos_site_id
 _symmetry_equiv_pos_as_xyz
  1  'x, y, z'
loop_
 _atom_site_type_symbol
 _atom_site_label
 _atom_site_symmetry_multiplicity
 _atom_site_fract_x
 _atom_site_fract_y
 _atom_site_fract_z
 _atom_site_occupancy
  V  V0  1  0.62311100  0.54441200  0.75922500  1
  V  V1  1  0.12311100  0.45558800  0.74077500  1
  V  V2  1  0.87688900  0.54441200  0.25922500  1
  V  V3  1  0.37688900  0.45558800  0.24077500  1
  P  P4  1  0.35111400  0.72549500  0.50929800  1
  P  P5  1  0.14888600  0.72549500  0.00929800  1
  P  P6  1  0.85111400  0.27450500  0.99070200  1
  P  P7  1  0.64888600  0.27450500  0.49070200  1
  H  H8  1  0.77096200  0.04215200  0.61269900  1
  H  H9  1  0.34744400  0.99737400  0.68025100  1
  H  H10  1  0.72903800  0.04215200  0.11269900  1
  H  H11  1  0.99149600  0.72439800  0.82079100  1
  H  H12  1  0.15255600  0.99737400  0.18025100  1
  H  H13  1  0.50850400  0.72439800  0.32079100  1
  H  H14  1  0.48561000  0.89611300  0.79028800  1
  H  H15  1  0.01439000  0.89611300  0.29028800  1
  H  H16  1  0.54067900  0.67261600  0.94866800  1
  H  H17  1  0.95932100  0.67261600  0.44866800  1
  H  H18  1  0.04067900  0.32738400  0.55133200  1
  H  H19  1  0.45932100  0.32738400  0.05133200  1
  H  H20  1  0.98561000  0.10388700  0.70971200  1
  H  H21  1  0.51439000  0.10388700  0.20971200  1
  H  H22  1  0.49149600  0.27560200  0.67920900  1
  H  H23  1  0.84744400  0.00262600  0.81974900  1
  H  H24  1  0.00850400  0.27560200  0.17920900  1
  H  H25  1  0.27096200  0.95784800  0.88730100  1
  H  H26  1  0.65255600  0.00262600  0.31974900  1
  H  H27  1  0.22903800  0.95784800  0.38730100  1
  O  O28  1  0.90353700  0.00113300  0.73116700  1
  O  O29  1  0.59646300  0.00113300  0.23116700  1
  O  O30  1  0.30948000  0.91557900  0.47518600  1
  O  O31  1  0.19052000  0.91557900  0.97518600  1
  O  O32  1  0.58696000  0.71384900  0.85587200  1
  O  O33  1  0.10724900  0.67236700  0.86546400  1
  O  O34  1  0.91304000  0.71384900  0.35587200  1
  O  O35  1  0.52925200  0.69959300  0.59485500  1
  O  O36  1  0.39275100  0.67236700  0.36546400  1
  O  O37  1  0.17729800  0.62627200  0.56724600  1
  O  O38  1  0.97074800  0.69959300  0.09485500  1
  O  O39  1  0.86479500  0.55100600  0.71844600  1
  O  O40  1  0.32270200  0.62627200  0.06724600  1
  O  O41  1  0.63520500  0.55100600  0.21844600  1
  O  O42  1  0.36479500  0.44899400  0.78155400  1
  O  O43  1  0.67729800  0.37372800  0.93275400  1
  O  O44  1  0.13520500  0.44899400  0.28155400  1
  O  O45  1  0.02925200  0.30040700  0.90514500  1
  O  O46  1  0.82270200  0.37372800  0.43275400  1
  O  O47  1  0.60724900  0.32763300  0.63453600  1
  O  O48  1  0.47074800  0.30040700  0.40514500  1
  O  O49  1  0.08696000  0.28615100  0.64412800  1
  O  O50  1  0.89275100  0.32763300  0.13453600  1
  O  O51  1  0.41304000  0.28615100  0.14412800  1
  O  O52  1  0.80948000  0.08442100  0.02481400  1
  O  O53  1  0.69052000  0.08442100  0.52481400  1
  O  O54  1  0.40353700  0.99886700  0.76883300  1
  O  O55  1  0.09646300  0.99886700  0.26883300  1
