# generated using pymatgen
data_Sb9PO25
_symmetry_space_group_name_H-M   'P 1'
_cell_length_a   11.11361929
_cell_length_b   11.11361929
_cell_length_c   11.11361929
_cell_angle_alpha   91.81985386
_cell_angle_beta   91.81985386
_cell_angle_gamma   159.46952696
_symmetry_Int_Tables_number   1
_chemical_formula_structural   Sb9PO25
_chemical_formula_sum   'Sb9 P1 O25'
_cell_volume   473.69771554
_cell_formula_units_Z   1
loop_
 _symmetry_equiv_pos_site_id
 _symmetry_equiv_pos_as_xyz
  1  'x, y, z'
loop_
 _atom_site_type_symbol
 _atom_site_label
 _atom_site_symmetry_multiplicity
 _atom_site_fract_x
 _atom_site_fract_y
 _atom_site_fract_z
 _atom_site_occupancy
  Sb  Sb0  1  0.00000000  0.00000000  0.00000000  1
  Sb  Sb1  1  0.91321800  0.23891900  0.11833100  1
  Sb  Sb2  1  0.10043100  0.30705600  0.44780100  1
  Sb  Sb3  1  0.34737000  0.89956900  0.20662500  1
  Sb  Sb4  1  0.76108100  0.87941200  0.67429900  1
  Sb  Sb5  1  0.20511300  0.08678200  0.32570100  1
  Sb  Sb6  1  0.69294400  0.14074500  0.79337500  1
  Sb  Sb7  1  0.85925500  0.65263000  0.55219900  1
  Sb  Sb8  1  0.12058800  0.79488700  0.88166900  1
  P  P9  1  0.75000000  0.25000000  0.50000000  1
  O  O10  1  0.50000000  0.50000000  0.00000000  1
  O  O11  1  0.91951700  0.09945100  0.02688200  1
  O  O12  1  0.16381900  0.19800900  0.41521800  1
  O  O13  1  0.40883200  0.77838400  0.15106600  1
  O  O14  1  0.03847400  0.28980200  0.28114000  1
  O  O15  1  0.25139900  0.83618100  0.03419000  1
  O  O16  1  0.87150000  0.37539400  0.20394000  1
  O  O17  1  0.62460600  0.82854600  0.49610700  1
  O  O18  1  0.22161600  0.37268100  0.63044700  1
  O  O19  1  0.47478400  0.96196100  0.38367100  1
  O  O20  1  0.90054900  0.92743200  0.82006600  1
  O  O21  1  0.03803900  0.42171000  0.51282300  1
  O  O22  1  0.24266700  0.96152600  0.25132800  1
  O  O23  1  0.71019800  0.99133800  0.74867200  1
  O  O24  1  0.90888700  0.52521600  0.48717700  1
  O  O25  1  0.10736600  0.08048300  0.17993400  1
  O  O26  1  0.57829000  0.09111300  0.61632900  1
  O  O27  1  0.74223400  0.59116800  0.36955300  1
  O  O28  1  0.33244000  0.12850000  0.50389300  1
  O  O29  1  0.17145400  0.66756000  0.79606000  1
  O  O30  1  0.80199100  0.21720900  0.96581000  1
  O  O31  1  0.00866200  0.75733300  0.71886000  1
  O  O32  1  0.62731900  0.25776600  0.84893400  1
  O  O33  1  0.78279100  0.74860100  0.58478200  1
  O  O34  1  0.07256800  0.89263400  0.97311800  1
