# generated using pymatgen
data_NaMnPCO7
_symmetry_space_group_name_H-M   'P 1'
_cell_length_a   6.25284200
_cell_length_b   9.09052406
_cell_length_c   10.47371064
_cell_angle_alpha   91.97385468
_cell_angle_beta   90.23365397
_cell_angle_gamma   91.34055196
_symmetry_Int_Tables_number   1
_chemical_formula_structural   NaMnPCO7
_chemical_formula_sum   'Na4 Mn4 P4 C4 O28'
_cell_volume   594.81938129
_cell_formula_units_Z   4
loop_
 _symmetry_equiv_pos_site_id
 _symmetry_equiv_pos_as_xyz
  1  'x, y, z'
loop_
 _atom_site_type_symbol
 _atom_site_label
 _atom_site_symmetry_multiplicity
 _atom_site_fract_x
 _atom_site_fract_y
 _atom_site_fract_z
 _atom_site_occupancy
  Na  Na0  1  0.46729100  0.24071600  0.37622900  1
  Na  Na1  1  0.02863800  0.24141200  0.87689100  1
  Na  Na2  1  0.97423800  0.75969700  0.11957700  1
  Na  Na3  1  0.97497600  0.76071500  0.62166500  1
  Mn  Mn4  1  0.74828300  0.34215100  0.10878200  1
  Mn  Mn5  1  0.75167400  0.34204300  0.60903100  1
  Mn  Mn6  1  0.26046900  0.65783100  0.39157600  1
  Mn  Mn7  1  0.26456300  0.65829800  0.89151400  1
  P  P8  1  0.25106300  0.43306300  0.14146400  1
  P  P9  1  0.25107000  0.43265100  0.64158300  1
  P  P10  1  0.75328800  0.56748400  0.35890500  1
  P  P11  1  0.75624600  0.56740300  0.85891100  1
  C  C12  1  0.74568500  0.07648500  0.13445900  1
  C  C13  1  0.74015600  0.07618300  0.63469400  1
  C  C14  1  0.24436900  0.92250300  0.36523200  1
  C  C15  1  0.25820800  0.92366500  0.86525100  1
  O  O16  1  0.23195800  0.05605900  0.34994000  1
  O  O17  1  0.25352700  0.05728400  0.85008100  1
  O  O18  1  0.75046800  0.14095200  0.02371700  1
  O  O19  1  0.73396900  0.14102200  0.52402800  1
  O  O20  1  0.74064100  0.17685600  0.22931700  1
  O  O21  1  0.74561100  0.17675800  0.72971000  1
  O  O22  1  0.05634200  0.33009800  0.10410700  1
  O  O23  1  0.44266700  0.33203700  0.11324800  1
  O  O24  1  0.05642300  0.32576100  0.61537300  1
  O  O25  1  0.44276800  0.33577700  0.60280000  1
  O  O26  1  0.25078800  0.47415800  0.28728500  1
  O  O27  1  0.74550300  0.42504100  0.43426800  1
  O  O28  1  0.25320600  0.47448200  0.78730700  1
  O  O29  1  0.75790800  0.42504800  0.93426500  1
  O  O30  1  0.25002900  0.57509700  0.06565200  1
  O  O31  1  0.76231900  0.52656900  0.21312100  1
  O  O32  1  0.24177400  0.57415200  0.56543900  1
  O  O33  1  0.76319000  0.52655700  0.71311200  1
  O  O34  1  0.56343000  0.66904400  0.38969800  1
  O  O35  1  0.94945500  0.66942500  0.39488600  1
  O  O36  1  0.56686800  0.66770000  0.89190300  1
  O  O37  1  0.95277000  0.67100200  0.89282600  1
  O  O38  1  0.24980200  0.82185200  0.27048900  1
  O  O39  1  0.26026100  0.82262500  0.77048400  1
  O  O40  1  0.25388900  0.85874500  0.47623600  1
  O  O41  1  0.26060100  0.85920600  0.97622500  1
  O  O42  1  0.74604500  0.94213800  0.14940800  1
  O  O43  1  0.74337400  0.94226000  0.64931100  1
