# generated using pymatgen
data_Sn2P2O7
_symmetry_space_group_name_H-M   'P 1'
_cell_length_a   9.54389200
_cell_length_b   7.65419400
_cell_length_c   9.75352281
_cell_angle_alpha   66.17138294
_cell_angle_beta   90.00000000
_cell_angle_gamma   90.00000000
_symmetry_Int_Tables_number   1
_chemical_formula_structural   Sn2P2O7
_chemical_formula_sum   'Sn8 P8 O28'
_cell_volume   651.76750022
_cell_formula_units_Z   4
loop_
 _symmetry_equiv_pos_site_id
 _symmetry_equiv_pos_as_xyz
  1  'x, y, z'
loop_
 _atom_site_type_symbol
 _atom_site_label
 _atom_site_symmetry_multiplicity
 _atom_site_fract_x
 _atom_site_fract_y
 _atom_site_fract_z
 _atom_site_occupancy
  Sn  Sn0  1  0.94880100  0.76376800  0.11132400  1
  Sn  Sn1  1  0.55155700  0.75452700  0.12690400  1
  Sn  Sn2  1  0.05155700  0.24547300  0.37309600  1
  Sn  Sn3  1  0.44880100  0.23623200  0.38867600  1
  Sn  Sn4  1  0.55119900  0.76376800  0.61132400  1
  Sn  Sn5  1  0.94844300  0.75452700  0.62690400  1
  Sn  Sn6  1  0.44844300  0.24547300  0.87309600  1
  Sn  Sn7  1  0.05119900  0.23623200  0.88867600  1
  P  P8  1  0.25987000  0.50355800  0.05967000  1
  P  P9  1  0.75987000  0.49644200  0.44033000  1
  P  P10  1  0.75209100  0.10376300  0.19819100  1
  P  P11  1  0.25209100  0.89623700  0.30180900  1
  P  P12  1  0.74790900  0.10376300  0.69819100  1
  P  P13  1  0.24790900  0.89623700  0.80180900  1
  P  P14  1  0.24013000  0.50355800  0.55967000  1
  P  P15  1  0.74013000  0.49644200  0.94033000  1
  O  O16  1  0.74654900  0.58799100  0.05294600  1
  O  O17  1  0.12271000  0.47165300  0.15213800  1
  O  O18  1  0.39454100  0.45293000  0.15791800  1
  O  O19  1  0.89454100  0.54707000  0.34208200  1
  O  O20  1  0.62271000  0.52834700  0.34786200  1
  O  O21  1  0.72331400  0.26804700  0.02882000  1
  O  O22  1  0.24654900  0.41200900  0.44705400  1
  O  O23  1  0.25584000  0.08194600  0.33139000  1
  O  O24  1  0.77668600  0.26804700  0.52882000  1
  O  O25  1  0.89450300  0.14609600  0.24654800  1
  O  O26  1  0.12730900  0.89894500  0.20432200  1
  O  O27  1  0.62730900  0.10105500  0.29567800  1
  O  O28  1  0.39450300  0.85390400  0.25345200  1
  O  O29  1  0.75584000  0.91805400  0.16861000  1
  O  O30  1  0.24416000  0.08194600  0.83139000  1
  O  O31  1  0.60549700  0.14609600  0.74654800  1
  O  O32  1  0.37269100  0.89894500  0.70432200  1
  O  O33  1  0.87269100  0.10105500  0.79567800  1
  O  O34  1  0.10549700  0.85390400  0.75345200  1
  O  O35  1  0.22331400  0.73195300  0.47118000  1
  O  O36  1  0.74416000  0.91805400  0.66861000  1
  O  O37  1  0.75345100  0.58799100  0.55294600  1
  O  O38  1  0.27668600  0.73195300  0.97118000  1
  O  O39  1  0.37729000  0.47165300  0.65213800  1
  O  O40  1  0.10545900  0.45293000  0.65791800  1
  O  O41  1  0.60545900  0.54707000  0.84208200  1
  O  O42  1  0.87729000  0.52834700  0.84786200  1
  O  O43  1  0.25345100  0.41200900  0.94705400  1
