# generated using pymatgen
data_Li10Cr(SiO5)2
_symmetry_space_group_name_H-M   'P 1'
_cell_length_a   6.13186887
_cell_length_b   15.39878260
_cell_length_c   5.16146551
_cell_angle_alpha   79.78907330
_cell_angle_beta   90.02375198
_cell_angle_gamma   78.57482852
_symmetry_Int_Tables_number   1
_chemical_formula_structural   Li10Cr(SiO5)2
_chemical_formula_sum   'Li20 Cr2 Si4 O20'
_cell_volume   469.82024718
_cell_formula_units_Z   2
loop_
 _symmetry_equiv_pos_site_id
 _symmetry_equiv_pos_as_xyz
  1  'x, y, z'
loop_
 _atom_site_type_symbol
 _atom_site_label
 _atom_site_symmetry_multiplicity
 _atom_site_fract_x
 _atom_site_fract_y
 _atom_site_fract_z
 _atom_site_occupancy
  Li  Li0  1  0.50934400  0.98121400  0.75915600  1
  Li  Li1  1  0.35184500  0.86837600  0.23784400  1
  Li  Li2  1  0.77766200  0.86735400  0.23701400  1
  Li  Li3  1  0.13025100  0.73685300  0.48226800  1
  Li  Li4  1  0.34614500  0.73855700  0.02639500  1
  Li  Li5  1  0.91558000  0.73841500  0.02405800  1
  Li  Li6  1  0.67237500  0.65017000  0.41718300  1
  Li  Li7  1  0.43833600  0.61062200  0.78892600  1
  Li  Li8  1  0.95275400  0.61088100  0.78599600  1
  Li  Li9  1  0.73219300  0.54051300  0.13334500  1
  Li  Li10  1  0.26933000  0.45999600  0.86122800  1
  Li  Li11  1  0.56268500  0.38967000  0.21005800  1
  Li  Li12  1  0.04765200  0.38980500  0.21093500  1
  Li  Li13  1  0.32622500  0.34882500  0.57897800  1
  Li  Li14  1  0.08277500  0.26211400  0.97593600  1
  Li  Li15  1  0.64909700  0.26178200  0.97496200  1
  Li  Li16  1  0.86670600  0.26214100  0.51955600  1
  Li  Li17  1  0.64448400  0.13171000  0.76544600  1
  Li  Li18  1  0.21964400  0.13116500  0.76637500  1
  Li  Li19  1  0.48999900  0.01739300  0.24637400  1
  Cr  Cr20  1  0.03380200  0.92963100  0.87120900  1
  Cr  Cr21  1  0.96094500  0.07244300  0.13474300  1
  Si  Si22  1  0.60025400  0.79965000  0.69257800  1
  Si  Si23  1  0.22034600  0.56256200  0.30740700  1
  Si  Si24  1  0.78123500  0.43781000  0.68998800  1
  Si  Si25  1  0.39863100  0.19962600  0.30915900  1
  O  O26  1  0.55028100  0.89962900  0.49839700  1
  O  O27  1  0.08835500  0.81626200  0.13227300  1
  O  O28  1  0.59450400  0.80973700  0.00725500  1
  O  O29  1  0.41017700  0.74263000  0.63478000  1
  O  O30  1  0.84481900  0.74195900  0.63383100  1
  O  O31  1  0.97021900  0.61378400  0.16847700  1
  O  O32  1  0.42050100  0.61376400  0.17069600  1
  O  O33  1  0.21488900  0.57284700  0.61861800  1
  O  O34  1  0.72899800  0.54365800  0.73601500  1
  O  O35  1  0.27228300  0.45678400  0.26106900  1
  O  O36  1  0.78591200  0.42809900  0.37787200  1
  O  O37  1  0.03191100  0.38654400  0.82761000  1
  O  O38  1  0.58219300  0.38655900  0.82801600  1
  O  O39  1  0.15176500  0.25715300  0.36687300  1
  O  O40  1  0.58522000  0.25741200  0.36796800  1
  O  O41  1  0.40230800  0.18990700  0.99468300  1
  O  O42  1  0.90317300  0.18323600  0.87142900  1
  O  O43  1  0.44694500  0.09952300  0.50447800  1
  O  O44  1  0.24942000  0.99989700  0.00354600  1
  O  O45  1  0.76024000  0.00055700  0.00005700  1
