# generated using pymatgen
data_MnH8C2S2(NO2)2
_symmetry_space_group_name_H-M   'P 1'
_cell_length_a   9.20956700
_cell_length_b   7.65600600
_cell_length_c   8.06828556
_cell_angle_alpha   65.89033565
_cell_angle_beta   90.00000000
_cell_angle_gamma   90.00000000
_symmetry_Int_Tables_number   1
_chemical_formula_structural   MnH8C2S2(NO2)2
_chemical_formula_sum   'Mn2 H16 C4 S4 N4 O8'
_cell_volume   519.25639488
_cell_formula_units_Z   2
loop_
 _symmetry_equiv_pos_site_id
 _symmetry_equiv_pos_as_xyz
  1  'x, y, z'
loop_
 _atom_site_type_symbol
 _atom_site_label
 _atom_site_symmetry_multiplicity
 _atom_site_fract_x
 _atom_site_fract_y
 _atom_site_fract_z
 _atom_site_occupancy
  Mn  Mn0  1  0.50000000  0.50000000  0.50000000  1
  Mn  Mn1  1  0.00000000  0.00000000  0.50000000  1
  H  H2  1  0.87850600  0.04459200  0.17126200  1
  H  H3  1  0.62149400  0.54459200  0.17126200  1
  H  H4  1  0.55701600  0.33883700  0.25079500  1
  H  H5  1  0.96109700  0.39343900  0.29827100  1
  H  H6  1  0.80350100  0.32653600  0.37326300  1
  H  H7  1  0.94298400  0.83883700  0.25079500  1
  H  H8  1  0.53890300  0.89343900  0.29827100  1
  H  H9  1  0.69649900  0.82653600  0.37326300  1
  H  H10  1  0.30350100  0.17346400  0.62673700  1
  H  H11  1  0.46109700  0.10656100  0.70172900  1
  H  H12  1  0.05701600  0.16116300  0.74920500  1
  H  H13  1  0.19649900  0.67346400  0.62673700  1
  H  H14  1  0.03890300  0.60656100  0.70172900  1
  H  H15  1  0.44298400  0.66116300  0.74920500  1
  H  H16  1  0.37850600  0.45540800  0.82873800  1
  H  H17  1  0.12149400  0.95540800  0.82873800  1
  C  C18  1  0.28488700  0.13925900  0.22446400  1
  C  C19  1  0.21511300  0.63925900  0.22446400  1
  C  C20  1  0.78488700  0.36074100  0.77553600  1
  C  C21  1  0.71511300  0.86074100  0.77553600  1
  S  S22  1  0.42911900  0.18224100  0.09584800  1
  S  S23  1  0.07088100  0.68224100  0.09584800  1
  S  S24  1  0.92911900  0.31775900  0.90415200  1
  S  S25  1  0.57088100  0.81775900  0.90415200  1
  N  N26  1  0.18138400  0.10545300  0.31887800  1
  N  N27  1  0.31861600  0.60545300  0.31887800  1
  N  N28  1  0.68138400  0.39454700  0.68112200  1
  N  N29  1  0.81861600  0.89454700  0.68112200  1
  O  O30  1  0.61738500  0.42645700  0.28476500  1
  O  O31  1  0.90692000  0.29037200  0.39383800  1
  O  O32  1  0.88261500  0.92645700  0.28476500  1
  O  O33  1  0.59308000  0.79037200  0.39383800  1
  O  O34  1  0.40692000  0.20962800  0.60616200  1
  O  O35  1  0.11738500  0.07354300  0.71523500  1
  O  O36  1  0.09308000  0.70962800  0.60616200  1
  O  O37  1  0.38261500  0.57354300  0.71523500  1
