# generated using pymatgen
data_Gd3AsO7
_symmetry_space_group_name_H-M   'P 1'
_cell_length_a   6.44122284
_cell_length_b   6.44122284
_cell_length_c   7.45790000
_cell_angle_alpha   90.00000000
_cell_angle_beta   90.00000000
_cell_angle_gamma   109.38288163
_symmetry_Int_Tables_number   1
_chemical_formula_structural   Gd3AsO7
_chemical_formula_sum   'Gd6 As2 O14'
_cell_volume   291.88589028
_cell_formula_units_Z   2
loop_
 _symmetry_equiv_pos_site_id
 _symmetry_equiv_pos_as_xyz
  1  'x, y, z'
loop_
 _atom_site_type_symbol
 _atom_site_label
 _atom_site_symmetry_multiplicity
 _atom_site_fract_x
 _atom_site_fract_y
 _atom_site_fract_z
 _atom_site_occupancy
  Gd  Gd0  1  0.46491300  0.00178600  0.25199800  1
  Gd  Gd1  1  0.99821400  0.53508700  0.24800200  1
  Gd  Gd2  1  0.48886300  0.48886300  0.00000000  1
  Gd  Gd3  1  0.51113700  0.51113700  0.50000000  1
  Gd  Gd4  1  0.53508700  0.99821400  0.75199800  1
  Gd  Gd5  1  0.00178600  0.46491300  0.74800200  1
  As  As6  1  0.99969900  0.99969900  0.50000000  1
  As  As7  1  0.00030100  0.00030100  0.00000000  1
  O  O8  1  0.94227100  0.05772900  0.75000000  1
  O  O9  1  0.63544200  0.36455800  0.75000000  1
  O  O10  1  0.29924200  0.05678300  0.52975400  1
  O  O11  1  0.94321700  0.70075800  0.97024600  1
  O  O12  1  0.62933000  0.37067000  0.25000000  1
  O  O13  1  0.93304000  0.69451700  0.52659200  1
  O  O14  1  0.30548300  0.06696000  0.97340800  1
  O  O15  1  0.06696000  0.30548300  0.02659200  1
  O  O16  1  0.69451700  0.93304000  0.47340800  1
  O  O17  1  0.37067000  0.62933000  0.75000000  1
  O  O18  1  0.70075800  0.94321700  0.02975400  1
  O  O19  1  0.05678300  0.29924200  0.47024600  1
  O  O20  1  0.36455800  0.63544200  0.25000000  1
  O  O21  1  0.05772900  0.94227100  0.25000000  1
