# generated using pymatgen
data_Na2SmPCO7
_symmetry_space_group_name_H-M   'P 1'
_cell_length_a   7.11187600
_cell_length_b   5.18577700
_cell_length_c   9.41393025
_cell_angle_alpha   89.17738108
_cell_angle_beta   90.00000000
_cell_angle_gamma   90.00000000
_symmetry_Int_Tables_number   1
_chemical_formula_structural   Na2SmPCO7
_chemical_formula_sum   'Na4 Sm2 P2 C2 O14'
_cell_volume   347.15564070
_cell_formula_units_Z   2
loop_
 _symmetry_equiv_pos_site_id
 _symmetry_equiv_pos_as_xyz
  1  'x, y, z'
loop_
 _atom_site_type_symbol
 _atom_site_label
 _atom_site_symmetry_multiplicity
 _atom_site_fract_x
 _atom_site_fract_y
 _atom_site_fract_z
 _atom_site_occupancy
  Na  Na0  1  0.49467300  0.22859200  0.79427100  1
  Na  Na1  1  0.00532700  0.22859200  0.79427100  1
  Na  Na2  1  0.50532700  0.77140800  0.20572900  1
  Na  Na3  1  0.99467300  0.77140800  0.20572900  1
  Sm  Sm4  1  0.75000000  0.76406200  0.62281900  1
  Sm  Sm5  1  0.25000000  0.23593800  0.37718100  1
  P  P6  1  0.25000000  0.70676000  0.58706200  1
  P  P7  1  0.75000000  0.29324000  0.41293800  1
  C  C8  1  0.75000000  0.73095200  0.92350900  1
  C  C9  1  0.25000000  0.26904800  0.07649100  1
  O  O10  1  0.25000000  0.29888500  0.94274300  1
  O  O11  1  0.75000000  0.95715900  0.85954700  1
  O  O12  1  0.75000000  0.53151800  0.83656700  1
  O  O13  1  0.07137200  0.83185500  0.64951200  1
  O  O14  1  0.42862800  0.83185500  0.64951200  1
  O  O15  1  0.75000000  0.25066000  0.57977200  1
  O  O16  1  0.25000000  0.40882300  0.61088000  1
  O  O17  1  0.75000000  0.59117700  0.38912000  1
  O  O18  1  0.25000000  0.74934000  0.42022800  1
  O  O19  1  0.57137200  0.16814500  0.35048800  1
  O  O20  1  0.92862800  0.16814500  0.35048800  1
  O  O21  1  0.25000000  0.46848200  0.16343300  1
  O  O22  1  0.25000000  0.04284100  0.14045300  1
  O  O23  1  0.75000000  0.70111500  0.05725700  1
