# generated using pymatgen
data_Na2AsPCO7
_symmetry_space_group_name_H-M   'P 1'
_cell_length_a   6.66243600
_cell_length_b   5.41030300
_cell_length_c   9.24387635
_cell_angle_alpha   83.96538542
_cell_angle_beta   90.00000000
_cell_angle_gamma   90.00000000
_symmetry_Int_Tables_number   1
_chemical_formula_structural   Na2AsPCO7
_chemical_formula_sum   'Na4 As2 P2 C2 O14'
_cell_volume   331.35647228
_cell_formula_units_Z   2
loop_
 _symmetry_equiv_pos_site_id
 _symmetry_equiv_pos_as_xyz
  1  'x, y, z'
loop_
 _atom_site_type_symbol
 _atom_site_label
 _atom_site_symmetry_multiplicity
 _atom_site_fract_x
 _atom_site_fract_y
 _atom_site_fract_z
 _atom_site_occupancy
  Na  Na0  1  0.49015100  0.24925400  0.77094500  1
  Na  Na1  1  0.00984900  0.24925400  0.77094500  1
  Na  Na2  1  0.50984900  0.75074600  0.22905500  1
  Na  Na3  1  0.99015100  0.75074600  0.22905500  1
  As  As4  1  0.75000000  0.82630800  0.63634900  1
  As  As5  1  0.25000000  0.17369200  0.36365100  1
  P  P6  1  0.25000000  0.74028900  0.60116800  1
  P  P7  1  0.75000000  0.25971100  0.39883200  1
  C  C8  1  0.75000000  0.70679000  0.91700300  1
  C  C9  1  0.25000000  0.29321000  0.08299700  1
  O  O10  1  0.25000000  0.27531200  0.94921800  1
  O  O11  1  0.75000000  0.92641700  0.82513100  1
  O  O12  1  0.75000000  0.50997400  0.85083600  1
  O  O13  1  0.06409800  0.86338600  0.66609500  1
  O  O14  1  0.43590200  0.86338600  0.66609500  1
  O  O15  1  0.75000000  0.17672500  0.57293800  1
  O  O16  1  0.25000000  0.45926200  0.62195400  1
  O  O17  1  0.75000000  0.54073800  0.37804600  1
  O  O18  1  0.25000000  0.82327500  0.42706200  1
  O  O19  1  0.56409800  0.13661400  0.33390500  1
  O  O20  1  0.93590200  0.13661400  0.33390500  1
  O  O21  1  0.25000000  0.49002600  0.14916400  1
  O  O22  1  0.25000000  0.07358300  0.17486900  1
  O  O23  1  0.75000000  0.72468800  0.05078200  1
