# generated using pymatgen
data_NaHfPCO7
_symmetry_space_group_name_H-M   'P 1'
_cell_length_a   6.65554300
_cell_length_b   5.55523700
_cell_length_c   9.30803086
_cell_angle_alpha   87.65665395
_cell_angle_beta   90.00000000
_cell_angle_gamma   90.00000000
_symmetry_Int_Tables_number   1
_chemical_formula_structural   NaHfPCO7
_chemical_formula_sum   'Na2 Hf2 P2 C2 O14'
_cell_volume   343.85913654
_cell_formula_units_Z   2
loop_
 _symmetry_equiv_pos_site_id
 _symmetry_equiv_pos_as_xyz
  1  'x, y, z'
loop_
 _atom_site_type_symbol
 _atom_site_label
 _atom_site_symmetry_multiplicity
 _atom_site_fract_x
 _atom_site_fract_y
 _atom_site_fract_z
 _atom_site_occupancy
  Na  Na0  1  0.50638300  0.75919400  0.79639900  1
  Na  Na1  1  0.00638300  0.24080600  0.20360100  1
  Hf  Hf2  1  0.23331200  0.20909700  0.65743200  1
  Hf  Hf3  1  0.73331200  0.79090300  0.34256800  1
  P  P4  1  0.74003700  0.27557800  0.56123500  1
  P  P5  1  0.24003700  0.72442200  0.43876500  1
  C  C6  1  0.26573700  0.27666000  0.92630700  1
  C  C7  1  0.76573700  0.72334000  0.07369300  1
  O  O8  1  0.75320700  0.68715100  0.94432100  1
  O  O9  1  0.26336400  0.05948100  0.86793200  1
  O  O10  1  0.27597500  0.45208500  0.82215100  1
  O  O11  1  0.92629600  0.22069800  0.65574100  1
  O  O12  1  0.55008000  0.19970900  0.64487100  1
  O  O13  1  0.25604800  0.86791300  0.57862600  1
  O  O14  1  0.73171000  0.54854800  0.51767100  1
  O  O15  1  0.23171000  0.45145200  0.48232900  1
  O  O16  1  0.75604800  0.13208700  0.42137400  1
  O  O17  1  0.05008000  0.80029100  0.35512900  1
  O  O18  1  0.42629600  0.77930200  0.34425900  1
  O  O19  1  0.77597500  0.54791500  0.17784900  1
  O  O20  1  0.76336400  0.94051900  0.13206800  1
  O  O21  1  0.25320700  0.31284900  0.05567900  1
