# generated using pymatgen
data_NaNdPCO7
_symmetry_space_group_name_H-M   'P 1'
_cell_length_a   7.16264300
_cell_length_b   5.29800500
_cell_length_c   9.74337498
_cell_angle_alpha   89.50475107
_cell_angle_beta   90.00000000
_cell_angle_gamma   90.00000000
_symmetry_Int_Tables_number   1
_chemical_formula_structural   NaNdPCO7
_chemical_formula_sum   'Na2 Nd2 P2 C2 O14'
_cell_volume   369.72503806
_cell_formula_units_Z   2
loop_
 _symmetry_equiv_pos_site_id
 _symmetry_equiv_pos_as_xyz
  1  'x, y, z'
loop_
 _atom_site_type_symbol
 _atom_site_label
 _atom_site_symmetry_multiplicity
 _atom_site_fract_x
 _atom_site_fract_y
 _atom_site_fract_z
 _atom_site_occupancy
  Na  Na0  1  0.53597100  0.77052800  0.76917700  1
  Na  Na1  1  0.03597100  0.22947200  0.23082300  1
  Nd  Nd2  1  0.22120800  0.22049500  0.62663300  1
  Nd  Nd3  1  0.72120800  0.77950500  0.37336700  1
  P  P4  1  0.72832700  0.28440600  0.58353500  1
  P  P5  1  0.22832700  0.71559400  0.41646500  1
  C  C6  1  0.27864900  0.27604200  0.92915100  1
  C  C7  1  0.77864900  0.72395800  0.07084900  1
  O  O8  1  0.73887000  0.68848700  0.94553500  1
  O  O9  1  0.28887200  0.05061800  0.88095400  1
  O  O10  1  0.30289100  0.45998900  0.84324900  1
  O  O11  1  0.90542800  0.21172200  0.66411100  1
  O  O12  1  0.55404000  0.15283400  0.64416100  1
  O  O13  1  0.24915800  0.78985300  0.57178300  1
  O  O14  1  0.69873500  0.57640300  0.58420000  1
  O  O15  1  0.19873500  0.42359700  0.41580000  1
  O  O16  1  0.74915800  0.21014700  0.42821700  1
  O  O17  1  0.05404000  0.84716600  0.35583900  1
  O  O18  1  0.40542800  0.78827800  0.33588900  1
  O  O19  1  0.80289100  0.54001100  0.15675100  1
  O  O20  1  0.78887200  0.94938200  0.11904600  1
  O  O21  1  0.23887000  0.31151300  0.05446500  1
