# generated using pymatgen
data_P4WO12
_symmetry_space_group_name_H-M   'P 1'
_cell_length_a   7.35052403
_cell_length_b   7.35052403
_cell_length_c   10.45474842
_cell_angle_alpha   65.52901497
_cell_angle_beta   65.52901497
_cell_angle_gamma   69.58084908
_symmetry_Int_Tables_number   1
_chemical_formula_structural   P4WO12
_chemical_formula_sum   'P8 W2 O24'
_cell_volume   457.10394734
_cell_formula_units_Z   2
loop_
 _symmetry_equiv_pos_site_id
 _symmetry_equiv_pos_as_xyz
  1  'x, y, z'
loop_
 _atom_site_type_symbol
 _atom_site_label
 _atom_site_symmetry_multiplicity
 _atom_site_fract_x
 _atom_site_fract_y
 _atom_site_fract_z
 _atom_site_occupancy
  P  P0  1  0.28569400  0.31315400  0.69592200  1
  P  P1  1  0.25299900  0.72856600  0.48007100  1
  P  P2  1  0.27143400  0.74700100  0.01992900  1
  P  P3  1  0.31315400  0.28569400  0.19592200  1
  P  P4  1  0.68684600  0.71430600  0.80407800  1
  P  P5  1  0.72856600  0.25299900  0.98007100  1
  P  P6  1  0.74700100  0.27143400  0.51992900  1
  P  P7  1  0.71430600  0.68684600  0.30407800  1
  W  W8  1  0.05307200  0.94692800  0.75000000  1
  W  W9  1  0.94692800  0.05307200  0.25000000  1
  O  O10  1  0.80789500  0.64339100  0.16313700  1
  O  O11  1  0.80319300  0.25629300  0.09370700  1
  O  O12  1  0.46774100  0.71482900  0.35504500  1
  O  O13  1  0.25629300  0.80319300  0.59370700  1
  O  O14  1  0.22430500  0.49741900  0.55537600  1
  O  O15  1  0.24998900  0.12753800  0.68604500  1
  O  O16  1  0.49741900  0.22430500  0.05537600  1
  O  O17  1  0.35660900  0.19210500  0.33686300  1
  O  O18  1  0.09082500  0.84412400  0.40556600  1
  O  O19  1  0.87246200  0.75001100  0.81395500  1
  O  O20  1  0.28517100  0.53225900  0.14495500  1
  O  O21  1  0.15587600  0.90917500  0.09443400  1
  O  O22  1  0.84412400  0.09082500  0.90556600  1
  O  O23  1  0.71482900  0.46774100  0.85504500  1
  O  O24  1  0.12753800  0.24998900  0.18604500  1
  O  O25  1  0.90917500  0.15587600  0.59443400  1
  O  O26  1  0.64339100  0.80789500  0.66313700  1
  O  O27  1  0.50258100  0.77569500  0.94462400  1
  O  O28  1  0.75001100  0.87246200  0.31395500  1
  O  O29  1  0.77569500  0.50258100  0.44462400  1
  O  O30  1  0.74370700  0.19680700  0.40629300  1
  O  O31  1  0.53225900  0.28517100  0.64495500  1
  O  O32  1  0.19680700  0.74370700  0.90629300  1
  O  O33  1  0.19210500  0.35660900  0.83686300  1
