# generated using pymatgen
data_TmTaO4
_symmetry_space_group_name_H-M   'P 1'
_cell_length_a   7.91822854
_cell_length_b   7.91822854
_cell_length_c   5.39936500
_cell_angle_alpha   90.00000000
_cell_angle_beta   90.00000000
_cell_angle_gamma   151.75819332
_symmetry_Int_Tables_number   1
_chemical_formula_structural   TmTaO4
_chemical_formula_sum   'Tm2 Ta2 O8'
_cell_volume   160.19084814
_cell_formula_units_Z   2
loop_
 _symmetry_equiv_pos_site_id
 _symmetry_equiv_pos_as_xyz
  1  'x, y, z'
loop_
 _atom_site_type_symbol
 _atom_site_label
 _atom_site_symmetry_multiplicity
 _atom_site_fract_x
 _atom_site_fract_y
 _atom_site_fract_z
 _atom_site_occupancy
  Tm  Tm0  1  0.80176700  0.19823300  0.87955100  1
  Tm  Tm1  1  0.19823300  0.80176700  0.37955100  1
  Ta  Ta2  1  0.58569300  0.41430700  0.80826200  1
  Ta  Ta3  1  0.41430700  0.58569300  0.30826200  1
  O  O4  1  0.89913300  0.10086700  0.24867800  1
  O  O5  1  0.70219600  0.29780400  0.58699300  1
  O  O6  1  0.66845900  0.33154100  0.08719800  1
  O  O7  1  0.52227100  0.47772900  0.47411900  1
  O  O8  1  0.47772900  0.52227100  0.97411900  1
  O  O9  1  0.33154100  0.66845900  0.58719800  1
  O  O10  1  0.29780400  0.70219600  0.08699300  1
  O  O11  1  0.10086700  0.89913300  0.74867800  1
