# generated using pymatgen
data_DyNbO4
_symmetry_space_group_name_H-M   'P 1'
_cell_length_a   7.10034181
_cell_length_b   7.10034181
_cell_length_c   7.24261904
_cell_angle_alpha   74.15515620
_cell_angle_beta   74.15515620
_cell_angle_gamma   32.92461623
_symmetry_Int_Tables_number   1
_chemical_formula_structural   DyNbO4
_chemical_formula_sum   'Dy2 Nb2 O8'
_cell_volume   190.25065698
_cell_formula_units_Z   2
loop_
 _symmetry_equiv_pos_site_id
 _symmetry_equiv_pos_as_xyz
  1  'x, y, z'
loop_
 _atom_site_type_symbol
 _atom_site_label
 _atom_site_symmetry_multiplicity
 _atom_site_fract_x
 _atom_site_fract_y
 _atom_site_fract_z
 _atom_site_occupancy
  Dy  Dy0  1  0.80620900  0.80620900  0.28871600  1
  Dy  Dy1  1  0.19379100  0.19379100  0.71128400  1
  Nb  Nb2  1  0.90280300  0.90280300  0.70814700  1
  Nb  Nb3  1  0.09719700  0.09719700  0.29185300  1
  O  O4  1  0.95279600  0.95279600  0.36876500  1
  O  O5  1  0.86832700  0.86832700  0.97312700  1
  O  O6  1  0.24259600  0.24259600  0.35976300  1
  O  O7  1  0.37605300  0.37605300  0.69459900  1
  O  O8  1  0.62394700  0.62394700  0.30540100  1
  O  O9  1  0.75740400  0.75740400  0.64023700  1
  O  O10  1  0.13167300  0.13167300  0.02687300  1
  O  O11  1  0.04720400  0.04720400  0.63123500  1
