# generated using pymatgen
data_SmTaO4
_symmetry_space_group_name_H-M   'P 1'
_cell_length_a   7.75196602
_cell_length_b   7.75196602
_cell_length_c   5.55232400
_cell_angle_alpha   90.00000000
_cell_angle_beta   90.00000000
_cell_angle_gamma   150.63959458
_symmetry_Int_Tables_number   1
_chemical_formula_structural   SmTaO4
_chemical_formula_sum   'Sm2 Ta2 O8'
_cell_volume   163.59190650
_cell_formula_units_Z   2
loop_
 _symmetry_equiv_pos_site_id
 _symmetry_equiv_pos_as_xyz
  1  'x, y, z'
loop_
 _atom_site_type_symbol
 _atom_site_label
 _atom_site_symmetry_multiplicity
 _atom_site_fract_x
 _atom_site_fract_y
 _atom_site_fract_z
 _atom_site_occupancy
  Sm  Sm0  1  0.81673700  0.18326300  0.86699300  1
  Sm  Sm1  1  0.18326300  0.81673700  0.36699300  1
  Ta  Ta2  1  0.58486500  0.41513500  0.80942600  1
  Ta  Ta3  1  0.41513500  0.58486500  0.30942600  1
  O  O4  1  0.90738300  0.09261700  0.26707700  1
  O  O5  1  0.70078500  0.29921500  0.59568500  1
  O  O6  1  0.66513000  0.33487000  0.08215800  1
  O  O7  1  0.52946600  0.47053400  0.46345900  1
  O  O8  1  0.47053400  0.52946600  0.96345900  1
  O  O9  1  0.33487000  0.66513000  0.58215800  1
  O  O10  1  0.29921500  0.70078500  0.09568500  1
  O  O11  1  0.09261700  0.90738300  0.76707700  1
