# generated using pymatgen
data_InFe17O24
_symmetry_space_group_name_H-M   'P 1'
_cell_length_a   10.47684495
_cell_length_b   10.47684495
_cell_length_c   10.47684495
_cell_angle_alpha   146.71558646
_cell_angle_beta   131.53044118
_cell_angle_gamma   60.06781955
_symmetry_Int_Tables_number   1
_chemical_formula_structural   InFe17O24
_chemical_formula_sum   'In1 Fe17 O24'
_cell_volume   468.15146010
_cell_formula_units_Z   1
loop_
 _symmetry_equiv_pos_site_id
 _symmetry_equiv_pos_as_xyz
  1  'x, y, z'
loop_
 _atom_site_type_symbol
 _atom_site_label
 _atom_site_symmetry_multiplicity
 _atom_site_fract_x
 _atom_site_fract_y
 _atom_site_fract_z
 _atom_site_occupancy
  In  In0  1  0.87025500  0.00000000  0.87025500  1
  Fe  Fe1  1  0.75489600  0.25176800  0.50312900  1
  Fe  Fe2  1  0.92129900  0.41752800  0.50377000  1
  Fe  Fe3  1  0.96497200  0.83518600  0.12978600  1
  Fe  Fe4  1  0.91577900  0.91540400  0.49483500  1
  Fe  Fe5  1  0.91577900  0.42094400  0.00037500  1
  Fe  Fe6  1  0.19993200  0.33440000  0.86553100  1
  Fe  Fe7  1  0.08624200  0.58247200  0.50377000  1
  Fe  Fe8  1  0.25136100  0.74823200  0.50312900  1
  Fe  Fe9  1  0.40711500  0.91552500  0.49158900  1
  Fe  Fe10  1  0.29460000  0.16481400  0.12978600  1
  Fe  Fe11  1  0.25224000  0.25483200  0.50707200  1
  Fe  Fe12  1  0.25224000  0.74516800  0.99740800  1
  Fe  Fe13  1  0.57943100  0.57905600  0.49483500  1
  Fe  Fe14  1  0.57943100  0.08459600  0.00037500  1
  Fe  Fe15  1  0.53113100  0.66560000  0.86553100  1
  Fe  Fe16  1  0.57606400  0.08447500  0.49158900  1
  Fe  Fe17  1  0.63570900  0.50000000  0.13570900  1
  O  O18  1  0.83723100  0.10535900  0.27067700  1
  O  O19  1  0.83723100  0.56655500  0.73187200  1
  O  O20  1  0.98690600  0.25071700  0.73618900  1
  O  O21  1  0.81952900  0.09164900  0.72788000  1
  O  O22  1  0.15133100  0.41907600  0.73225500  1
  O  O23  1  0.18053900  0.92150900  0.25903100  1
  O  O24  1  0.00772800  0.74872100  0.25900600  1
  O  O25  1  0.85696500  0.58326300  0.27370200  1
  O  O26  1  0.16531800  0.89464100  0.73187200  1
  O  O27  1  0.16531800  0.43344500  0.27067700  1
  O  O28  1  0.32645200  0.59798300  0.25936100  1
  O  O29  1  0.01040400  0.71446900  0.72487400  1
  O  O30  1  0.01040400  0.28553100  0.29593500  1
  O  O31  1  0.32645200  0.06709100  0.72846900  1
  O  O32  1  0.31317900  0.58092400  0.73225500  1
  O  O33  1  0.48547200  0.74928300  0.73618900  1
  O  O34  1  0.63623100  0.90835100  0.72788000  1
  O  O35  1  0.33752200  0.07849100  0.25903100  1
  O  O36  1  0.51028500  0.25127900  0.25900600  1
  O  O37  1  0.69043900  0.41673700  0.27370200  1
  O  O38  1  0.49754900  0.23759500  0.73514400  1
  O  O39  1  0.49754900  0.76240500  0.25995300  1
  O  O40  1  0.66137800  0.93290900  0.25936100  1
  O  O41  1  0.66137800  0.40201700  0.72846900  1
