# generated using pymatgen
data_Na5Bi2As(CO4)4
_symmetry_space_group_name_H-M   'P 1'
_cell_length_a   10.51206924
_cell_length_b   10.51206924
_cell_length_c   10.34294422
_cell_angle_alpha   60.67862093
_cell_angle_beta   60.67862093
_cell_angle_gamma   91.22748260
_symmetry_Int_Tables_number   1
_chemical_formula_structural   Na5Bi2As(CO4)4
_chemical_formula_sum   'Na10 Bi4 As2 C8 O32'
_cell_volume   815.92821632
_cell_formula_units_Z   2
loop_
 _symmetry_equiv_pos_site_id
 _symmetry_equiv_pos_as_xyz
  1  'x, y, z'
loop_
 _atom_site_type_symbol
 _atom_site_label
 _atom_site_symmetry_multiplicity
 _atom_site_fract_x
 _atom_site_fract_y
 _atom_site_fract_z
 _atom_site_occupancy
  Na  Na0  1  0.07511100  0.32590200  0.35827900  1
  Na  Na1  1  0.32620600  0.07506000  0.24088700  1
  Na  Na2  1  0.32590200  0.07511100  0.85827900  1
  Na  Na3  1  0.06812900  0.93187100  0.75000000  1
  Na  Na4  1  0.07506000  0.32620600  0.74088700  1
  Na  Na5  1  0.93187100  0.06812900  0.25000000  1
  Na  Na6  1  0.92494000  0.67379400  0.25911300  1
  Na  Na7  1  0.67409800  0.92488900  0.14172100  1
  Na  Na8  1  0.67379400  0.92494000  0.75911300  1
  Na  Na9  1  0.92488900  0.67409800  0.64172100  1
  Bi  Bi10  1  0.50000000  0.00000000  0.50000000  1
  Bi  Bi11  1  0.50000000  0.50000000  0.00000000  1
  Bi  Bi12  1  0.50000000  0.50000000  0.50000000  1
  Bi  Bi13  1  0.00000000  0.50000000  0.00000000  1
  As  As14  1  0.87389800  0.12610200  0.75000000  1
  As  As15  1  0.12610200  0.87389800  0.25000000  1
  C  C16  1  0.28095100  0.72205600  0.93809900  1
  C  C17  1  0.27243100  0.33605700  0.94502300  1
  C  C18  1  0.66394300  0.72756900  0.55497700  1
  C  C19  1  0.27794400  0.71904900  0.56190100  1
  C  C20  1  0.33605700  0.27243100  0.44502300  1
  C  C21  1  0.72205600  0.28095100  0.43809900  1
  C  C22  1  0.71904900  0.27794400  0.06190100  1
  C  C23  1  0.72756900  0.66394300  0.05497700  1
  O  O24  1  0.33224400  0.14001500  0.46227900  1
  O  O25  1  0.14937200  0.60521900  0.06062000  1
  O  O26  1  0.28635000  0.33653100  0.06341300  1
  O  O27  1  0.59695400  0.28996700  0.06322600  1
  O  O28  1  0.14001500  0.33224400  0.96227900  1
  O  O29  1  0.67510100  0.04521400  0.89021800  1
  O  O30  1  0.94273100  0.05842900  0.88599300  1
  O  O31  1  0.38573100  0.33589000  0.81503500  1
  O  O32  1  0.28783700  0.85319500  0.81437200  1
  O  O33  1  0.66411000  0.61426900  0.68496500  1
  O  O34  1  0.14680500  0.71216300  0.68562800  1
  O  O35  1  0.94157100  0.05726800  0.61400700  1
  O  O36  1  0.95478600  0.32489900  0.60978200  1
  O  O37  1  0.33653100  0.28635000  0.56341300  1
  O  O38  1  0.60521900  0.14937200  0.56062000  1
  O  O39  1  0.28996700  0.59695400  0.56322600  1
  O  O40  1  0.71003300  0.40304600  0.43677400  1
  O  O41  1  0.39478100  0.85062800  0.43938000  1
  O  O42  1  0.66346900  0.71365000  0.43658700  1
  O  O43  1  0.05842900  0.94273200  0.38599300  1
  O  O44  1  0.04521400  0.67510100  0.39021800  1
  O  O45  1  0.85319500  0.28783700  0.31437200  1
  O  O46  1  0.33589000  0.38573100  0.31503500  1
  O  O47  1  0.71216300  0.14680500  0.18562800  1
  O  O48  1  0.61426900  0.66411000  0.18496500  1
  O  O49  1  0.05726800  0.94157100  0.11400700  1
  O  O50  1  0.32489900  0.95478600  0.10978200  1
  O  O51  1  0.85998500  0.66775600  0.03772100  1
  O  O52  1  0.40304600  0.71003300  0.93677400  1
  O  O53  1  0.71365000  0.66346900  0.93658700  1
  O  O54  1  0.85062800  0.39478100  0.93938000  1
  O  O55  1  0.66775600  0.85998500  0.53772100  1
