# generated using pymatgen
data_Ba2YF7
_symmetry_space_group_name_H-M   'P 1'
_cell_length_a   12.15660800
_cell_length_b   5.97800400
_cell_length_c   10.04579544
_cell_angle_alpha   89.66041408
_cell_angle_beta   90.00000000
_cell_angle_gamma   90.00000000
_symmetry_Int_Tables_number   1
_chemical_formula_structural   Ba2YF7
_chemical_formula_sum   'Ba8 Y4 F28'
_cell_volume   730.03774793
_cell_formula_units_Z   4
loop_
 _symmetry_equiv_pos_site_id
 _symmetry_equiv_pos_as_xyz
  1  'x, y, z'
loop_
 _atom_site_type_symbol
 _atom_site_label
 _atom_site_symmetry_multiplicity
 _atom_site_fract_x
 _atom_site_fract_y
 _atom_site_fract_z
 _atom_site_occupancy
  Ba  Ba0  1  0.47282000  0.26003200  0.71649000  1
  Ba  Ba1  1  0.85123000  0.27692800  0.60660900  1
  Ba  Ba2  1  0.22686200  0.25842800  0.11220400  1
  Ba  Ba3  1  0.61226700  0.26514800  0.20341500  1
  Ba  Ba4  1  0.11226700  0.73485200  0.79658500  1
  Ba  Ba5  1  0.72686200  0.74157200  0.88779600  1
  Ba  Ba6  1  0.35123000  0.72307200  0.39339100  1
  Ba  Ba7  1  0.97282000  0.73996800  0.28351000  1
  Y  Y8  1  0.14985100  0.21004700  0.53341400  1
  Y  Y9  1  0.92835000  0.22999900  0.02386400  1
  Y  Y10  1  0.42835000  0.77000100  0.97613600  1
  Y  Y11  1  0.64985100  0.78995300  0.46658600  1
  F  F12  1  0.31992400  0.03577100  0.89173600  1
  F  F13  1  0.56079500  0.02951300  0.98333400  1
  F  F14  1  0.50492500  0.00624300  0.50362600  1
  F  F15  1  0.85349100  0.09770800  0.84476000  1
  F  F16  1  0.74302400  0.08303200  0.39239800  1
  F  F17  1  0.22360100  0.08969200  0.35193400  1
  F  F18  1  0.08179400  0.18720800  0.73759000  1
  F  F19  1  0.99215700  0.22885800  0.23053600  1
  F  F20  1  0.67045300  0.42061000  0.71435400  1
  F  F21  1  0.41025900  0.42487900  0.20442700  1
  F  F22  1  0.29166200  0.42035900  0.58858200  1
  F  F23  1  0.29874000  0.53780200  0.91259900  1
  F  F24  1  0.03751800  0.49827700  0.52509000  1
  F  F25  1  0.55722700  0.51543600  0.99069700  1
  F  F26  1  0.05722700  0.48456400  0.00930300  1
  F  F27  1  0.53751800  0.50172300  0.47491000  1
  F  F28  1  0.79874000  0.46219800  0.08740100  1
  F  F29  1  0.79166200  0.57964100  0.41141800  1
  F  F30  1  0.91025900  0.57512100  0.79557300  1
  F  F31  1  0.17045300  0.57939000  0.28564600  1
  F  F32  1  0.49215700  0.77114200  0.76946400  1
  F  F33  1  0.58179400  0.81279200  0.26241000  1
  F  F34  1  0.72360100  0.91030800  0.64806600  1
  F  F35  1  0.24302400  0.91696800  0.60760200  1
  F  F36  1  0.35349100  0.90229200  0.15524000  1
  F  F37  1  0.00492500  0.99375700  0.49637400  1
  F  F38  1  0.06079500  0.97048700  0.01666600  1
  F  F39  1  0.81992400  0.96422900  0.10826400  1
