# generated using pymatgen
data_CoTeO4
_symmetry_space_group_name_H-M   'P 1'
_cell_length_a   3.09147459
_cell_length_b   6.04188957
_cell_length_c   8.78666404
_cell_angle_alpha   93.21709552
_cell_angle_beta   90.00501561
_cell_angle_gamma   90.00736136
_symmetry_Int_Tables_number   1
_chemical_formula_structural   CoTeO4
_chemical_formula_sum   'Co2 Te2 O8'
_cell_volume   163.86172404
_cell_formula_units_Z   2
loop_
 _symmetry_equiv_pos_site_id
 _symmetry_equiv_pos_as_xyz
  1  'x, y, z'
loop_
 _atom_site_type_symbol
 _atom_site_label
 _atom_site_symmetry_multiplicity
 _atom_site_fract_x
 _atom_site_fract_y
 _atom_site_fract_z
 _atom_site_occupancy
  Co  Co0  1  0.49999900  0.24999900  0.25000000  1
  Co  Co1  1  0.49999900  0.74999800  0.75000000  1
  Te  Te2  1  0.00000000  0.99999600  0.49999700  1
  Te  Te3  1  0.00000000  0.50000100  0.00000300  1
  O  O4  1  0.00005300  0.46827200  0.21499300  1
  O  O5  1  0.00005300  0.96827300  0.71499500  1
  O  O6  1  0.99994500  0.03172500  0.28500700  1
  O  O7  1  0.99994500  0.53172400  0.78500400  1
  O  O8  1  0.50005700  0.21984000  0.50547600  1
  O  O9  1  0.50005700  0.71983900  0.00547700  1
  O  O10  1  0.49994300  0.28016000  0.99452400  1
  O  O11  1  0.49994300  0.78016200  0.49452300  1
