# generated using pymatgen
data_Fe5Te(PO4)6
_symmetry_space_group_name_H-M   'P 1'
_cell_length_a   8.55911884
_cell_length_b   8.55911884
_cell_length_c   8.55911885
_cell_angle_alpha   61.43273961
_cell_angle_beta   61.43273961
_cell_angle_gamma   61.43273944
_symmetry_Int_Tables_number   1
_chemical_formula_structural   Fe5Te(PO4)6
_chemical_formula_sum   'Fe5 Te1 P6 O24'
_cell_volume   457.64225835
_cell_formula_units_Z   1
loop_
 _symmetry_equiv_pos_site_id
 _symmetry_equiv_pos_as_xyz
  1  'x, y, z'
loop_
 _atom_site_type_symbol
 _atom_site_label
 _atom_site_symmetry_multiplicity
 _atom_site_fract_x
 _atom_site_fract_y
 _atom_site_fract_z
 _atom_site_occupancy
  Fe  Fe0  1  0.00256100  0.00256100  0.00256100  1
  Fe  Fe1  1  0.35223000  0.35223000  0.35223000  1
  Fe  Fe2  1  0.49841900  0.49841900  0.49841900  1
  Fe  Fe3  1  0.14396300  0.14396300  0.14396300  1
  Fe  Fe4  1  0.64650400  0.64650400  0.64650400  1
  Te  Te5  1  0.85444700  0.85444700  0.85444700  1
  P  P6  1  0.74833400  0.05486600  0.44499300  1
  P  P7  1  0.05486600  0.44499300  0.74833400  1
  P  P8  1  0.44499300  0.74833400  0.05486600  1
  P  P9  1  0.53770100  0.25621100  0.95232600  1
  P  P10  1  0.95232600  0.53770100  0.25621100  1
  P  P11  1  0.25621100  0.95232600  0.53770100  1
  O  O12  1  0.89313400  0.50026200  0.68232600  1
  O  O13  1  0.50026200  0.68232600  0.89313400  1
  O  O14  1  0.68232600  0.89313400  0.50026200  1
  O  O15  1  0.90504600  0.06576600  0.25250700  1
  O  O16  1  0.81792000  0.02762800  0.59510000  1
  O  O17  1  0.59034300  0.25303200  0.43196700  1
  O  O18  1  0.06576600  0.25250700  0.90504600  1
  O  O19  1  0.25303200  0.43196700  0.59034300  1
  O  O20  1  0.38724100  0.18122600  0.99668200  1
  O  O21  1  0.43196700  0.59034300  0.25303200  1
  O  O22  1  0.73811900  0.10180500  0.94233500  1
  O  O23  1  0.99668200  0.38724100  0.18122600  1
  O  O24  1  0.02762800  0.59510000  0.81792000  1
  O  O25  1  0.25250700  0.90504600  0.06576600  1
  O  O26  1  0.55734700  0.40881000  0.74901200  1
  O  O27  1  0.59510000  0.81792000  0.02762800  1
  O  O28  1  0.74901200  0.55734700  0.40881000  1
  O  O29  1  0.94233500  0.73811900  0.10180500  1
  O  O30  1  0.40881000  0.74901200  0.55734700  1
  O  O31  1  0.18122600  0.99668200  0.38724100  1
  O  O32  1  0.10180500  0.94233500  0.73811900  1
  O  O33  1  0.33109300  0.10223000  0.49650300  1
  O  O34  1  0.49650300  0.33109300  0.10223000  1
  O  O35  1  0.10223000  0.49650300  0.33109300  1
