# generated using pymatgen
data_TmSeO3
_symmetry_space_group_name_H-M   'P 1'
_cell_length_a   12.41658600
_cell_length_b   5.91727200
_cell_length_c   8.73391715
_cell_angle_alpha   73.98525050
_cell_angle_beta   90.00000000
_cell_angle_gamma   90.00000000
_symmetry_Int_Tables_number   1
_chemical_formula_structural   TmSeO3
_chemical_formula_sum   'Tm8 Se8 O24'
_cell_volume   616.79715958
_cell_formula_units_Z   8
loop_
 _symmetry_equiv_pos_site_id
 _symmetry_equiv_pos_as_xyz
  1  'x, y, z'
loop_
 _atom_site_type_symbol
 _atom_site_label
 _atom_site_symmetry_multiplicity
 _atom_site_fract_x
 _atom_site_fract_y
 _atom_site_fract_z
 _atom_site_occupancy
  Tm  Tm0  1  0.55950000  0.75892400  0.91449300  1
  Tm  Tm1  1  0.94050000  0.75892400  0.41449300  1
  Tm  Tm2  1  0.24372400  0.63630100  0.85635000  1
  Tm  Tm3  1  0.25627600  0.63630100  0.35635000  1
  Tm  Tm4  1  0.74372400  0.36369900  0.64365000  1
  Tm  Tm5  1  0.75627600  0.36369900  0.14365000  1
  Tm  Tm6  1  0.05950000  0.24107600  0.58550700  1
  Tm  Tm7  1  0.44050000  0.24107600  0.08550700  1
  Se  Se8  1  0.83975000  0.95398400  0.00430000  1
  Se  Se9  1  0.66025000  0.95398400  0.50430000  1
  Se  Se10  1  0.98541200  0.62904800  0.82527800  1
  Se  Se11  1  0.51458800  0.62904800  0.32527800  1
  Se  Se12  1  0.48541200  0.37095200  0.67472200  1
  Se  Se13  1  0.01458800  0.37095200  0.17472200  1
  Se  Se14  1  0.33975000  0.04601600  0.49570000  1
  Se  Se15  1  0.16025000  0.04601600  0.99570000  1
  O  O16  1  0.17279900  0.01252600  0.80584700  1
  O  O17  1  0.32720100  0.01252600  0.30584700  1
  O  O18  1  0.98211300  0.86969000  0.64576500  1
  O  O19  1  0.27203600  0.78189100  0.58736200  1
  O  O20  1  0.75865300  0.74778000  0.50143600  1
  O  O21  1  0.51788700  0.86969000  0.14576500  1
  O  O22  1  0.40601100  0.59411400  0.91907800  1
  O  O23  1  0.22796400  0.78189100  0.08736200  1
  O  O24  1  0.74134700  0.74778000  0.00143600  1
  O  O25  1  0.59445100  0.55064000  0.71731000  1
  O  O26  1  0.09398900  0.59411400  0.41907800  1
  O  O27  1  0.09445100  0.44936000  0.78269000  1
  O  O28  1  0.90554900  0.55064000  0.21731000  1
  O  O29  1  0.90601100  0.40588600  0.58092200  1
  O  O30  1  0.40554900  0.44936000  0.28269000  1
  O  O31  1  0.25865300  0.25222000  0.99856400  1
  O  O32  1  0.77203600  0.21810900  0.91263800  1
  O  O33  1  0.59398900  0.40588600  0.08092200  1
  O  O34  1  0.48211300  0.13031000  0.85423500  1
  O  O35  1  0.24134700  0.25222000  0.49856400  1
  O  O36  1  0.72796400  0.21810900  0.41263800  1
  O  O37  1  0.01788700  0.13031000  0.35423500  1
  O  O38  1  0.67279900  0.98747400  0.69415300  1
  O  O39  1  0.82720100  0.98747400  0.19415300  1
