# generated using pymatgen
data_La(ClO4)3
_symmetry_space_group_name_H-M   'P 1'
_cell_length_a   9.55605218
_cell_length_b   9.55605218
_cell_length_c   5.96292200
_cell_angle_alpha   90.00000000
_cell_angle_beta   90.00000000
_cell_angle_gamma   120.00000125
_symmetry_Int_Tables_number   1
_chemical_formula_structural   La(ClO4)3
_chemical_formula_sum   'La2 Cl6 O24'
_cell_volume   471.57066351
_cell_formula_units_Z   2
loop_
 _symmetry_equiv_pos_site_id
 _symmetry_equiv_pos_as_xyz
  1  'x, y, z'
loop_
 _atom_site_type_symbol
 _atom_site_label
 _atom_site_symmetry_multiplicity
 _atom_site_fract_x
 _atom_site_fract_y
 _atom_site_fract_z
 _atom_site_occupancy
  La  La0  1  0.33333300  0.66666700  0.75000000  1
  La  La1  1  0.66666700  0.33333300  0.25000000  1
  Cl  Cl2  1  0.09158800  0.71005000  0.25000000  1
  Cl  Cl3  1  0.28995000  0.38153700  0.25000000  1
  Cl  Cl4  1  0.61846300  0.90841200  0.25000000  1
  Cl  Cl5  1  0.38153700  0.09158800  0.75000000  1
  Cl  Cl6  1  0.71005000  0.61846300  0.75000000  1
  Cl  Cl7  1  0.90841200  0.28995000  0.75000000  1
  O  O8  1  0.01945200  0.80875900  0.25000000  1
  O  O9  1  0.02911600  0.46374500  0.75000000  1
  O  O10  1  0.19496100  0.74327200  0.05119500  1
  O  O11  1  0.19496100  0.74327200  0.44880500  1
  O  O12  1  0.43462900  0.97088400  0.75000000  1
  O  O13  1  0.25672800  0.45168900  0.44880500  1
  O  O14  1  0.25672800  0.45168900  0.05119500  1
  O  O15  1  0.19124100  0.21069300  0.25000000  1
  O  O16  1  0.54831100  0.80503900  0.05119500  1
  O  O17  1  0.54831100  0.80503900  0.44880500  1
  O  O18  1  0.21069300  0.01945200  0.75000000  1
  O  O19  1  0.46374500  0.43462900  0.25000000  1
  O  O20  1  0.53625500  0.56537100  0.75000000  1
  O  O21  1  0.78930700  0.98054800  0.25000000  1
  O  O22  1  0.45168900  0.19496100  0.55119500  1
  O  O23  1  0.45168900  0.19496100  0.94880500  1
  O  O24  1  0.80875900  0.78930700  0.75000000  1
  O  O25  1  0.74327200  0.54831100  0.94880500  1
  O  O26  1  0.74327200  0.54831100  0.55119500  1
  O  O27  1  0.56537100  0.02911600  0.25000000  1
  O  O28  1  0.80503900  0.25672800  0.94880500  1
  O  O29  1  0.80503900  0.25672800  0.55119500  1
  O  O30  1  0.97088400  0.53625500  0.25000000  1
  O  O31  1  0.98054800  0.19124100  0.75000000  1
