# generated using pymatgen
data_BaYBr5
_symmetry_space_group_name_H-M   'P 1'
_cell_length_a   9.87375500
_cell_length_b   14.53561200
_cell_length_c   21.38223300
_cell_angle_alpha   47.81626838
_cell_angle_beta   90.00000000
_cell_angle_gamma   90.00000000
_symmetry_Int_Tables_number   1
_chemical_formula_structural   BaYBr5
_chemical_formula_sum   'Ba8 Y8 Br40'
_cell_volume   2273.96709125
_cell_formula_units_Z   8
loop_
 _symmetry_equiv_pos_site_id
 _symmetry_equiv_pos_as_xyz
  1  'x, y, z'
loop_
 _atom_site_type_symbol
 _atom_site_label
 _atom_site_symmetry_multiplicity
 _atom_site_fract_x
 _atom_site_fract_y
 _atom_site_fract_z
 _atom_site_occupancy
  Ba  Ba0  1  0.24795400  0.16071700  0.30033800  1
  Ba  Ba1  1  0.26444700  0.48102400  0.90970700  1
  Ba  Ba2  1  0.76444700  0.51897600  0.59029300  1
  Ba  Ba3  1  0.74795400  0.83928300  0.19966200  1
  Ba  Ba4  1  0.25204600  0.16071700  0.80033800  1
  Ba  Ba5  1  0.23555300  0.48102400  0.40970700  1
  Ba  Ba6  1  0.73555300  0.51897600  0.09029300  1
  Ba  Ba7  1  0.75204600  0.83928300  0.69966200  1
  Y  Y8  1  0.75075000  0.10819400  0.32373700  1
  Y  Y9  1  0.76214300  0.33501500  0.87317900  1
  Y  Y10  1  0.25075000  0.89180600  0.17626300  1
  Y  Y11  1  0.26214300  0.66498500  0.62682100  1
  Y  Y12  1  0.73785700  0.33501500  0.37317900  1
  Y  Y13  1  0.74925000  0.10819400  0.82373700  1
  Y  Y14  1  0.23785700  0.66498500  0.12682100  1
  Y  Y15  1  0.24925000  0.89180600  0.67626300  1
  Br  Br16  1  0.26451100  0.31761000  0.10806900  1
  Br  Br17  1  0.72482000  0.06264200  0.48098600  1
  Br  Br18  1  0.77475600  0.24593300  0.15465800  1
  Br  Br19  1  0.97964900  0.97281200  0.36616600  1
  Br  Br20  1  0.06795300  0.70788900  0.70694700  1
  Br  Br21  1  0.43674200  0.69723700  0.72279200  1
  Br  Br22  1  0.51982200  0.98633200  0.34649100  1
  Br  Br23  1  0.96766200  0.36056500  0.94349700  1
  Br  Br24  1  0.56918800  0.36754500  0.94578100  1
  Br  Br25  1  0.75448900  0.57992300  0.71819300  1
  Br  Br26  1  0.01982200  0.01366800  0.15350900  1
  Br  Br27  1  0.25448900  0.42007700  0.78180700  1
  Br  Br28  1  0.06918800  0.63245500  0.55421900  1
  Br  Br29  1  0.46766200  0.63943500  0.55650300  1
  Br  Br30  1  0.47964900  0.02718800  0.13383400  1
  Br  Br31  1  0.27475600  0.75406700  0.34534200  1
  Br  Br32  1  0.93674200  0.30276300  0.77720800  1
  Br  Br33  1  0.56795300  0.29211100  0.79305300  1
  Br  Br34  1  0.76451100  0.68239000  0.39193100  1
  Br  Br35  1  0.22482000  0.93735800  0.01901400  1
  Br  Br36  1  0.77518000  0.06264200  0.98098600  1
  Br  Br37  1  0.23548900  0.31761000  0.60806900  1
  Br  Br38  1  0.43204700  0.70788900  0.20694700  1
  Br  Br39  1  0.06325800  0.69723700  0.22279200  1
  Br  Br40  1  0.72524400  0.24593300  0.65465800  1
  Br  Br41  1  0.52035100  0.97281200  0.86616600  1
  Br  Br42  1  0.53233800  0.36056500  0.44349700  1
  Br  Br43  1  0.93081200  0.36754500  0.44578100  1
  Br  Br44  1  0.74551100  0.57992300  0.21819300  1
  Br  Br45  1  0.98017800  0.98633200  0.84649100  1
  Br  Br46  1  0.24551100  0.42007700  0.28180700  1
  Br  Br47  1  0.43081200  0.63245500  0.05421900  1
  Br  Br48  1  0.03233800  0.63943500  0.05650300  1
  Br  Br49  1  0.48017800  0.01366800  0.65350900  1
  Br  Br50  1  0.56325800  0.30276300  0.27720800  1
  Br  Br51  1  0.93204700  0.29211100  0.29305300  1
  Br  Br52  1  0.02035100  0.02718800  0.63383400  1
  Br  Br53  1  0.22524400  0.75406700  0.84534200  1
  Br  Br54  1  0.27518000  0.93735800  0.51901400  1
  Br  Br55  1  0.73548900  0.68239000  0.89193100  1
