# generated using pymatgen
data_MnPO4
_symmetry_space_group_name_H-M   'P 1'
_cell_length_a   8.49476007
_cell_length_b   8.49476007
_cell_length_c   6.88497549
_cell_angle_alpha   70.29863028
_cell_angle_beta   70.29863028
_cell_angle_gamma   90.19222279
_symmetry_Int_Tables_number   1
_chemical_formula_structural   MnPO4
_chemical_formula_sum   'Mn6 P6 O24'
_cell_volume   436.50922447
_cell_formula_units_Z   6
loop_
 _symmetry_equiv_pos_site_id
 _symmetry_equiv_pos_as_xyz
  1  'x, y, z'
loop_
 _atom_site_type_symbol
 _atom_site_label
 _atom_site_symmetry_multiplicity
 _atom_site_fract_x
 _atom_site_fract_y
 _atom_site_fract_z
 _atom_site_occupancy
  Mn  Mn0  1  0.38088300  0.06407800  0.86328800  1
  Mn  Mn1  1  0.72678200  0.27321800  0.25000000  1
  Mn  Mn2  1  0.06407800  0.38088300  0.36328800  1
  Mn  Mn3  1  0.93592200  0.61911700  0.63671200  1
  Mn  Mn4  1  0.27321800  0.72678200  0.75000000  1
  Mn  Mn5  1  0.61911700  0.93592200  0.13671200  1
  P  P6  1  0.12080200  0.34723600  0.87954000  1
  P  P7  1  0.29296400  0.70703600  0.25000000  1
  P  P8  1  0.34723600  0.12080200  0.37954000  1
  P  P9  1  0.65276400  0.87919800  0.62046000  1
  P  P10  1  0.70703600  0.29296400  0.75000000  1
  P  P11  1  0.87919800  0.65276400  0.12046000  1
  O  O12  1  0.18504800  0.17940200  0.88245700  1
  O  O13  1  0.17095600  0.73454100  0.46110800  1
  O  O14  1  0.04153900  0.40826200  0.69543700  1
  O  O15  1  0.47244200  0.72965800  0.25297400  1
  O  O16  1  0.73647300  0.51752600  0.16519300  1
  O  O17  1  0.98054500  0.31768700  0.11035200  1
  O  O18  1  0.68231300  0.01945500  0.38964800  1
  O  O19  1  0.48247400  0.26352700  0.33480700  1
  O  O20  1  0.27034200  0.52755800  0.24702600  1
  O  O21  1  0.59173800  0.95846100  0.80456300  1
  O  O22  1  0.26545900  0.82904400  0.03889200  1
  O  O23  1  0.17940200  0.18504800  0.38245700  1
  O  O24  1  0.82059800  0.81495200  0.61754300  1
  O  O25  1  0.73454100  0.17095600  0.96110800  1
  O  O26  1  0.40826200  0.04153900  0.19543700  1
  O  O27  1  0.72965800  0.47244200  0.75297400  1
  O  O28  1  0.51752600  0.73647300  0.66519300  1
  O  O29  1  0.31768700  0.98054500  0.61035200  1
  O  O30  1  0.01945500  0.68231300  0.88964800  1
  O  O31  1  0.26352700  0.48247400  0.83480700  1
  O  O32  1  0.52755800  0.27034200  0.74702600  1
  O  O33  1  0.95846100  0.59173800  0.30456300  1
  O  O34  1  0.82904400  0.26545900  0.53889200  1
  O  O35  1  0.81495200  0.82059800  0.11754300  1
