# generated using pymatgen
data_In2Bi2O7
_symmetry_space_group_name_H-M   'P 1'
_cell_length_a   5.56102500
_cell_length_b   8.11132400
_cell_length_c   14.01653908
_cell_angle_alpha   80.93931271
_cell_angle_beta   90.00000000
_cell_angle_gamma   90.00000000
_symmetry_Int_Tables_number   1
_chemical_formula_structural   In2Bi2O7
_chemical_formula_sum   'In8 Bi8 O28'
_cell_volume   624.35875972
_cell_formula_units_Z   4
loop_
 _symmetry_equiv_pos_site_id
 _symmetry_equiv_pos_as_xyz
  1  'x, y, z'
loop_
 _atom_site_type_symbol
 _atom_site_label
 _atom_site_symmetry_multiplicity
 _atom_site_fract_x
 _atom_site_fract_y
 _atom_site_fract_z
 _atom_site_occupancy
  In  In0  1  0.27372700  0.93194800  0.31398300  1
  In  In1  1  0.76080900  0.97882500  0.11333700  1
  In  In2  1  0.76399400  0.60691800  0.67246000  1
  In  In3  1  0.24812300  0.54042400  0.87682200  1
  In  In4  1  0.74812300  0.45957600  0.12317800  1
  In  In5  1  0.26399400  0.39308200  0.32754000  1
  In  In6  1  0.26080900  0.02117500  0.88666300  1
  In  In7  1  0.77372700  0.06805200  0.68601700  1
  Bi  Bi8  1  0.32727300  0.83360600  0.54825800  1
  Bi  Bi9  1  0.76230900  0.76640500  0.92127300  1
  Bi  Bi10  1  0.22472600  0.69937800  0.14399000  1
  Bi  Bi11  1  0.78025000  0.62045700  0.37664200  1
  Bi  Bi12  1  0.28025000  0.37954300  0.62335800  1
  Bi  Bi13  1  0.72472600  0.30062200  0.85601000  1
  Bi  Bi14  1  0.26230900  0.23359500  0.07872700  1
  Bi  Bi15  1  0.82727300  0.16639400  0.45174200  1
  O  O16  1  0.56285100  0.96094300  0.42634400  1
  O  O17  1  0.43766200  0.03205900  0.18399300  1
  O  O18  1  0.58504800  0.84628600  0.65865400  1
  O  O19  1  0.39535000  0.78133100  0.86908300  1
  O  O20  1  0.09137700  0.80095300  0.43601400  1
  O  O21  1  0.09666300  0.91744300  0.03362200  1
  O  O22  1  0.98332900  0.84732700  0.22661900  1
  O  O23  1  0.12444500  0.63756100  0.63128600  1
  O  O24  1  0.89224300  0.58378700  0.82378900  1
  O  O25  1  0.59085200  0.72801500  0.08926700  1
  O  O26  1  0.40825300  0.67283500  0.29235300  1
  O  O27  1  0.54980800  0.60010700  0.53875300  1
  O  O28  1  0.56573500  0.43904900  0.96467300  1
  O  O29  1  0.46766300  0.47684000  0.75841300  1
  O  O30  1  0.96766300  0.52316000  0.24158700  1
  O  O31  1  0.06573500  0.56095100  0.03532700  1
  O  O32  1  0.04980800  0.39989300  0.46124700  1
  O  O33  1  0.90825300  0.32716500  0.70764700  1
  O  O34  1  0.09085200  0.27198500  0.91073300  1
  O  O35  1  0.39224300  0.41621300  0.17621100  1
  O  O36  1  0.62444500  0.36243900  0.36871400  1
  O  O37  1  0.48332900  0.15267300  0.77338100  1
  O  O38  1  0.59666300  0.08255700  0.96637800  1
  O  O39  1  0.59137700  0.19904700  0.56398600  1
  O  O40  1  0.89535000  0.21866900  0.13091700  1
  O  O41  1  0.08504800  0.15371400  0.34134600  1
  O  O42  1  0.93766200  0.96794100  0.81600700  1
  O  O43  1  0.06285100  0.03905700  0.57365600  1
