# generated using pymatgen
data_Bi2(SO4)3
_symmetry_space_group_name_H-M   'P 1'
_cell_length_a   8.53553828
_cell_length_b   8.53553828
_cell_length_c   9.33648939
_cell_angle_alpha   68.34073344
_cell_angle_beta   68.34073344
_cell_angle_gamma   65.82610804
_symmetry_Int_Tables_number   1
_chemical_formula_structural   Bi2(SO4)3
_chemical_formula_sum   'Bi4 S6 O24'
_cell_volume   557.37057307
_cell_formula_units_Z   2
loop_
 _symmetry_equiv_pos_site_id
 _symmetry_equiv_pos_as_xyz
  1  'x, y, z'
loop_
 _atom_site_type_symbol
 _atom_site_label
 _atom_site_symmetry_multiplicity
 _atom_site_fract_x
 _atom_site_fract_y
 _atom_site_fract_z
 _atom_site_occupancy
  Bi  Bi0  1  0.37069600  0.86279200  0.47925500  1
  Bi  Bi1  1  0.86279200  0.37069600  0.97925500  1
  Bi  Bi2  1  0.13720800  0.62930400  0.02074500  1
  Bi  Bi3  1  0.62930400  0.13720800  0.52074500  1
  S  S4  1  0.75473000  0.54550400  0.32425700  1
  S  S5  1  0.54550400  0.75473000  0.82425700  1
  S  S6  1  0.05917100  0.94082900  0.25000000  1
  S  S7  1  0.94082900  0.05917100  0.75000000  1
  S  S8  1  0.45449600  0.24527000  0.17574300  1
  S  S9  1  0.24527000  0.45449600  0.67574300  1
  O  O10  1  0.88920600  0.95179600  0.37478900  1
  O  O11  1  0.95179600  0.88920600  0.87478900  1
  O  O12  1  0.86307800  0.51074500  0.42560600  1
  O  O13  1  0.62022900  0.72792700  0.30526100  1
  O  O14  1  0.86983400  0.53746900  0.15167600  1
  O  O15  1  0.51074500  0.86307800  0.92560600  1
  O  O16  1  0.20746400  0.89834700  0.31975300  1
  O  O17  1  0.65799300  0.41379700  0.37236500  1
  O  O18  1  0.72792700  0.62022900  0.80526100  1
  O  O19  1  0.53746900  0.86983400  0.65167600  1
  O  O20  1  0.89834700  0.20746400  0.81975300  1
  O  O21  1  0.58620300  0.34200700  0.12763500  1
  O  O22  1  0.41379700  0.65799300  0.87236500  1
  O  O23  1  0.10165300  0.79253600  0.18024700  1
  O  O24  1  0.46253100  0.13016600  0.34832400  1
  O  O25  1  0.27207300  0.37977100  0.19473900  1
  O  O26  1  0.34200700  0.58620300  0.62763500  1
  O  O27  1  0.79253600  0.10165300  0.68024700  1
  O  O28  1  0.48925500  0.13692200  0.07439400  1
  O  O29  1  0.13016600  0.46253100  0.84832400  1
  O  O30  1  0.37977100  0.27207300  0.69473900  1
  O  O31  1  0.13692200  0.48925500  0.57439400  1
  O  O32  1  0.04820400  0.11079400  0.12521100  1
  O  O33  1  0.11079400  0.04820400  0.62521100  1
