# generated using pymatgen
data_Lu2WO6
_symmetry_space_group_name_H-M   'P 1'
_cell_length_a   5.19281700
_cell_length_b   9.00335100
_cell_length_c   9.85550300
_cell_angle_alpha   90.00000000
_cell_angle_beta   90.00000000
_cell_angle_gamma   90.00000000
_symmetry_Int_Tables_number   1
_chemical_formula_structural   Lu2WO6
_chemical_formula_sum   'Lu8 W4 O24'
_cell_volume   460.77190858
_cell_formula_units_Z   4
loop_
 _symmetry_equiv_pos_site_id
 _symmetry_equiv_pos_as_xyz
  1  'x, y, z'
loop_
 _atom_site_type_symbol
 _atom_site_label
 _atom_site_symmetry_multiplicity
 _atom_site_fract_x
 _atom_site_fract_y
 _atom_site_fract_z
 _atom_site_occupancy
  Lu  Lu0  1  0.01889800  0.39729100  0.03452000  1
  Lu  Lu1  1  0.03849600  0.28050400  0.62770500  1
  Lu  Lu2  1  0.46150400  0.71949600  0.12770500  1
  Lu  Lu3  1  0.48110200  0.60270900  0.53452000  1
  Lu  Lu4  1  0.51889800  0.10270900  0.96548000  1
  Lu  Lu5  1  0.53849600  0.21949600  0.37229500  1
  Lu  Lu6  1  0.96150400  0.78050400  0.87229500  1
  Lu  Lu7  1  0.98110200  0.89729100  0.46548000  1
  W  W8  1  0.03882100  0.00560600  0.15274500  1
  W  W9  1  0.46117900  0.99439400  0.65274500  1
  W  W10  1  0.53882100  0.49439400  0.84725500  1
  W  W11  1  0.96117900  0.50560600  0.34725500  1
  O  O12  1  0.09025800  0.65981100  0.47042000  1
  O  O13  1  0.17950900  0.54698700  0.19823500  1
  O  O14  1  0.17499000  0.85978100  0.68137200  1
  O  O15  1  0.19581500  0.85729700  0.26609100  1
  O  O16  1  0.23589100  0.38407400  0.43330200  1
  O  O17  1  0.24979800  0.09038800  0.50381400  1
  O  O18  1  0.25020200  0.90961200  0.00381400  1
  O  O19  1  0.26410900  0.61592600  0.93330200  1
  O  O20  1  0.30418500  0.14270300  0.76609100  1
  O  O21  1  0.32501000  0.14021900  0.18137200  1
  O  O22  1  0.32049100  0.45301300  0.69823500  1
  O  O23  1  0.40974200  0.34018900  0.97042000  1
  O  O24  1  0.59025800  0.84018900  0.52958000  1
  O  O25  1  0.67950900  0.95301300  0.80176500  1
  O  O26  1  0.67499000  0.64021900  0.31862800  1
  O  O27  1  0.69581500  0.64270300  0.73390900  1
  O  O28  1  0.73589100  0.11592600  0.56669800  1
  O  O29  1  0.74979800  0.40961200  0.49618600  1
  O  O30  1  0.75020200  0.59038800  0.99618600  1
  O  O31  1  0.76410900  0.88407400  0.06669800  1
  O  O32  1  0.80418500  0.35729700  0.23390900  1
  O  O33  1  0.82501000  0.35978100  0.81862800  1
  O  O34  1  0.82049100  0.04698700  0.30176500  1
  O  O35  1  0.90974200  0.15981100  0.02958000  1
