# generated using pymatgen
data_Li9TiMn3(PO4)6
_symmetry_space_group_name_H-M   'P 1'
_cell_length_a   8.53923946
_cell_length_b   9.31199714
_cell_length_c   8.68890566
_cell_angle_alpha   117.84014569
_cell_angle_beta   59.62801629
_cell_angle_gamma   116.86311206
_symmetry_Int_Tables_number   1
_chemical_formula_structural   Li9TiMn3(PO4)6
_chemical_formula_sum   'Li9 Ti1 Mn3 P6 O24'
_cell_volume   505.58744453
_cell_formula_units_Z   1
loop_
 _symmetry_equiv_pos_site_id
 _symmetry_equiv_pos_as_xyz
  1  'x, y, z'
loop_
 _atom_site_type_symbol
 _atom_site_label
 _atom_site_symmetry_multiplicity
 _atom_site_fract_x
 _atom_site_fract_y
 _atom_site_fract_z
 _atom_site_occupancy
  Li  Li0  1  0.93707000  0.85960000  0.25646900  1
  Li  Li1  1  0.25968200  0.82522500  0.64214900  1
  Li  Li2  1  0.72051900  0.91362300  0.94956200  1
  Li  Li3  1  0.42222200  0.40163600  0.24396200  1
  Li  Li4  1  0.14329800  0.35225100  0.77136900  1
  Li  Li5  1  0.66954900  0.33676900  0.34950500  1
  Li  Li6  1  0.53689800  0.60200900  0.81701800  1
  Li  Li7  1  0.33942100  0.09879800  0.04442100  1
  Li  Li8  1  0.79565600  0.33467300  0.52526100  1
  Ti  Ti9  1  0.66056100  0.95080600  0.63525400  1
  Mn  Mn10  1  0.13939200  0.42381400  0.14566300  1
  Mn  Mn11  1  0.32511100  0.00631200  0.36300300  1
  Mn  Mn12  1  0.86900800  0.56690100  0.85188100  1
  P  P13  1  0.06662800  0.23649500  0.44049700  1
  P  P14  1  0.55025800  0.74622400  0.24640700  1
  P  P15  1  0.27031500  0.74701600  0.93591300  1
  P  P16  1  0.77083800  0.24572800  0.00914900  1
  P  P17  1  0.45398800  0.23922700  0.73673000  1
  P  P18  1  0.92523200  0.71840000  0.53697300  1
  O  O19  1  0.22487100  0.89288700  0.12661700  1
  O  O20  1  0.24182000  0.58145000  0.96071400  1
  O  O21  1  0.90103500  0.52874600  0.41082400  1
  O  O22  1  0.13582100  0.81964000  0.50423200  1
  O  O23  1  0.17688300  0.24523600  0.23457800  1
  O  O24  1  0.53482200  0.87034200  0.18579900  1
  O  O25  1  0.15021500  0.72577300  0.83685800  1
  O  O26  1  0.39700100  0.57514600  0.21681400  1
  O  O27  1  0.19296400  0.20768300  0.49780000  1
  O  O28  1  0.51821700  0.82032700  0.46157700  1
  O  O29  1  0.75091500  0.72183200  0.13539100  1
  O  O30  1  0.48458700  0.79509400  0.80789000  1
  O  O31  1  0.56446800  0.25294000  0.15027600  1
  O  O32  1  0.25508800  0.26213100  0.84839800  1
  O  O33  1  0.51553400  0.19547500  0.51975400  1
  O  O34  1  0.83935000  0.80025200  0.48793500  1
  O  O35  1  0.60672000  0.40788900  0.78585300  1
  O  O36  1  0.86560700  0.24107100  0.11808300  1
  O  O37  1  0.46080900  0.09606000  0.77953200  1
  O  O38  1  0.81788200  0.72411000  0.74726600  1
  O  O39  1  0.87714700  0.09099500  0.44919200  1
  O  O40  1  0.01913000  0.40506200  0.57018800  1
  O  O41  1  0.88445300  0.39592700  0.93287200  1
  O  O42  1  0.76391500  0.07862100  0.84097100  1
