# generated using pymatgen
data_Cs3TlO3
_symmetry_space_group_name_H-M   'P 1'
_cell_length_a   7.54644273
_cell_length_b   7.54644273
_cell_length_c   7.53436923
_cell_angle_alpha   83.64222997
_cell_angle_beta   83.64222997
_cell_angle_gamma   114.57622699
_symmetry_Int_Tables_number   1
_chemical_formula_structural   Cs3TlO3
_chemical_formula_sum   'Cs6 Tl2 O6'
_cell_volume   381.92319559
_cell_formula_units_Z   2
loop_
 _symmetry_equiv_pos_site_id
 _symmetry_equiv_pos_as_xyz
  1  'x, y, z'
loop_
 _atom_site_type_symbol
 _atom_site_label
 _atom_site_symmetry_multiplicity
 _atom_site_fract_x
 _atom_site_fract_y
 _atom_site_fract_z
 _atom_site_occupancy
  Cs  Cs0  1  0.63328100  0.63328100  0.15631300  1
  Cs  Cs1  1  0.80371600  0.19628400  0.00000000  1
  Cs  Cs2  1  0.19628400  0.80371600  0.00000000  1
  Cs  Cs3  1  0.74317000  0.25683000  0.50000000  1
  Cs  Cs4  1  0.25683000  0.74317000  0.50000000  1
  Cs  Cs5  1  0.36671900  0.36671900  0.84368700  1
  Tl  Tl6  1  0.82108900  0.82108900  0.65061500  1
  Tl  Tl7  1  0.17891100  0.17891100  0.34938500  1
  O  O8  1  0.90228100  0.90228100  0.34341100  1
  O  O9  1  0.55438300  0.83929600  0.77314800  1
  O  O10  1  0.83929600  0.55438300  0.77314800  1
  O  O11  1  0.16070400  0.44561700  0.22685200  1
  O  O12  1  0.44561700  0.16070400  0.22685200  1
  O  O13  1  0.09771900  0.09771900  0.65658900  1
