# generated using pymatgen
data_Tm2GeO5
_symmetry_space_group_name_H-M   'P 1'
_cell_length_a   6.94201800
_cell_length_b   6.68855800
_cell_length_c   9.21915034
_cell_angle_alpha   76.42982998
_cell_angle_beta   90.00000000
_cell_angle_gamma   90.00000000
_symmetry_Int_Tables_number   1
_chemical_formula_structural   Tm2GeO5
_chemical_formula_sum   'Tm8 Ge4 O20'
_cell_volume   416.11426865
_cell_formula_units_Z   4
loop_
 _symmetry_equiv_pos_site_id
 _symmetry_equiv_pos_as_xyz
  1  'x, y, z'
loop_
 _atom_site_type_symbol
 _atom_site_label
 _atom_site_symmetry_multiplicity
 _atom_site_fract_x
 _atom_site_fract_y
 _atom_site_fract_z
 _atom_site_occupancy
  Tm  Tm0  1  0.87237800  0.27143300  0.02914000  1
  Tm  Tm1  1  0.62762200  0.77143300  0.02914000  1
  Tm  Tm2  1  0.86268100  0.46906800  0.35988600  1
  Tm  Tm3  1  0.63731900  0.96906800  0.35988600  1
  Tm  Tm4  1  0.36268100  0.03093200  0.64011400  1
  Tm  Tm5  1  0.13731900  0.53093200  0.64011400  1
  Tm  Tm6  1  0.37237800  0.22856700  0.97086000  1
  Tm  Tm7  1  0.12762200  0.72856700  0.97086000  1
  Ge  Ge8  1  0.40525700  0.47805300  0.30143100  1
  Ge  Ge9  1  0.09474300  0.97805300  0.30143100  1
  Ge  Ge10  1  0.90525700  0.02194700  0.69856900  1
  Ge  Ge11  1  0.59474300  0.52194700  0.69856900  1
  O  O12  1  0.13913000  0.00975300  0.10520200  1
  O  O13  1  0.61345300  0.07370100  0.10948900  1
  O  O14  1  0.36087000  0.50975300  0.10520200  1
  O  O15  1  0.88654700  0.57370100  0.10948900  1
  O  O16  1  0.91534600  0.18124500  0.28149700  1
  O  O17  1  0.30596600  0.01456600  0.39201000  1
  O  O18  1  0.58465400  0.68124500  0.28149700  1
  O  O19  1  0.57072400  0.28824400  0.39011500  1
  O  O20  1  0.19403400  0.51456600  0.39201000  1
  O  O21  1  0.92927600  0.78824400  0.39011500  1
  O  O22  1  0.07072400  0.21175600  0.60988500  1
  O  O23  1  0.80596600  0.48543400  0.60799000  1
  O  O24  1  0.42927600  0.71175600  0.60988500  1
  O  O25  1  0.41534600  0.31875500  0.71850300  1
  O  O26  1  0.69403400  0.98543400  0.60799000  1
  O  O27  1  0.08465400  0.81875500  0.71850300  1
  O  O28  1  0.11345300  0.42629900  0.89051100  1
  O  O29  1  0.63913000  0.49024700  0.89479800  1
  O  O30  1  0.38654700  0.92629900  0.89051100  1
  O  O31  1  0.86087000  0.99024700  0.89479800  1
