# generated using pymatgen
data_Y2TeO6
_symmetry_space_group_name_H-M   'P 1'
_cell_length_a   9.90855277
_cell_length_b   9.90855277
_cell_length_c   5.44070181
_cell_angle_alpha   75.97849752
_cell_angle_beta   75.97849752
_cell_angle_gamma   69.10071558
_symmetry_Int_Tables_number   1
_chemical_formula_structural   Y2TeO6
_chemical_formula_sum   'Y8 Te4 O24'
_cell_volume   476.94161908
_cell_formula_units_Z   4
loop_
 _symmetry_equiv_pos_site_id
 _symmetry_equiv_pos_as_xyz
  1  'x, y, z'
loop_
 _atom_site_type_symbol
 _atom_site_label
 _atom_site_symmetry_multiplicity
 _atom_site_fract_x
 _atom_site_fract_y
 _atom_site_fract_z
 _atom_site_occupancy
  Y  Y0  1  0.78534400  0.56409400  0.11542600  1
  Y  Y1  1  0.56409400  0.78534400  0.61542600  1
  Y  Y2  1  0.39676800  0.60323200  0.25000000  1
  Y  Y3  1  0.87718500  0.12281500  0.25000000  1
  Y  Y4  1  0.60323200  0.39676800  0.75000000  1
  Y  Y5  1  0.12281500  0.87718500  0.75000000  1
  Y  Y6  1  0.43590600  0.21465600  0.38457400  1
  Y  Y7  1  0.21465600  0.43590600  0.88457400  1
  Te  Te8  1  0.99983300  0.69437800  0.43670500  1
  Te  Te9  1  0.69437800  0.99983300  0.93670500  1
  Te  Te10  1  0.30562200  0.00016700  0.06329500  1
  Te  Te11  1  0.00016700  0.30562200  0.56329500  1
  O  O12  1  0.95815600  0.88637300  0.49205500  1
  O  O13  1  0.88637300  0.95815600  0.99205500  1
  O  O14  1  0.81610000  0.71291600  0.35979100  1
  O  O15  1  0.55636000  0.97045700  0.24050900  1
  O  O16  1  0.71291600  0.81610000  0.85979100  1
  O  O17  1  0.97045700  0.55636000  0.74050900  1
  O  O18  1  0.31855300  0.88087700  0.39287700  1
  O  O19  1  0.57578300  0.60717300  0.42489400  1
  O  O20  1  0.81500600  0.34459500  0.42771500  1
  O  O21  1  0.88087700  0.31855300  0.89287700  1
  O  O22  1  0.60717300  0.57578300  0.92489400  1
  O  O23  1  0.34459500  0.81500600  0.92771500  1
  O  O24  1  0.65540500  0.18499400  0.07228500  1
  O  O25  1  0.39282700  0.42421700  0.07510600  1
  O  O26  1  0.11912300  0.68144700  0.10712300  1
  O  O27  1  0.18499400  0.65540500  0.57228500  1
  O  O28  1  0.42421700  0.39282700  0.57510600  1
  O  O29  1  0.68144700  0.11912300  0.60712300  1
  O  O30  1  0.02954300  0.44364000  0.25949100  1
  O  O31  1  0.28708400  0.18390000  0.14020900  1
  O  O32  1  0.44364000  0.02954300  0.75949100  1
  O  O33  1  0.18390000  0.28708400  0.64020900  1
  O  O34  1  0.11362700  0.04184400  0.00794500  1
  O  O35  1  0.04184400  0.11362700  0.50794500  1
