# generated using pymatgen
data_MnV(PO4)2
_symmetry_space_group_name_H-M   'P 1'
_cell_length_a   8.63496821
_cell_length_b   8.63496821
_cell_length_c   8.63496794
_cell_angle_alpha   60.25229231
_cell_angle_beta   60.25229231
_cell_angle_gamma   60.25229374
_symmetry_Int_Tables_number   1
_chemical_formula_structural   MnV(PO4)2
_chemical_formula_sum   'Mn3 V3 P6 O24'
_cell_volume   457.86810519
_cell_formula_units_Z   3
loop_
 _symmetry_equiv_pos_site_id
 _symmetry_equiv_pos_as_xyz
  1  'x, y, z'
loop_
 _atom_site_type_symbol
 _atom_site_label
 _atom_site_symmetry_multiplicity
 _atom_site_fract_x
 _atom_site_fract_y
 _atom_site_fract_z
 _atom_site_occupancy
  Mn  Mn0  1  0.99769300  0.99769300  0.99769300  1
  Mn  Mn1  1  0.85503800  0.85503800  0.85503800  1
  Mn  Mn2  1  0.49909600  0.49909600  0.49909600  1
  V  V3  1  0.35494400  0.35494400  0.35494400  1
  V  V4  1  0.14338800  0.14338800  0.14338800  1
  V  V5  1  0.64526800  0.64526800  0.64526800  1
  P  P6  1  0.45426500  0.75111800  0.04536200  1
  P  P7  1  0.75111800  0.04536200  0.45426500  1
  P  P8  1  0.04536200  0.45426500  0.75111800  1
  P  P9  1  0.95867300  0.53937400  0.25416500  1
  P  P10  1  0.25416500  0.95867300  0.53937400  1
  P  P11  1  0.53937400  0.25416500  0.95867300  1
  O  O12  1  0.69533800  0.87886700  0.49521600  1
  O  O13  1  0.87886700  0.49521600  0.69533800  1
  O  O14  1  0.49521600  0.69533800  0.87886700  1
  O  O15  1  0.25850100  0.91438900  0.06112700  1
  O  O16  1  0.60697500  0.80542800  0.02102600  1
  O  O17  1  0.42795600  0.58544700  0.23887200  1
  O  O18  1  0.91438900  0.06112700  0.25850100  1
  O  O19  1  0.58544700  0.23887200  0.42795600  1
  O  O20  1  0.99670100  0.37851500  0.19325700  1
  O  O21  1  0.23887200  0.42795600  0.58544700  1
  O  O22  1  0.95097300  0.72984000  0.09614300  1
  O  O23  1  0.19325700  0.99670100  0.37851500  1
  O  O24  1  0.80542800  0.02102600  0.60697500  1
  O  O25  1  0.06112700  0.25850100  0.91438900  1
  O  O26  1  0.76427700  0.55341400  0.41947700  1
  O  O27  1  0.02102600  0.60697500  0.80542800  1
  O  O28  1  0.41947700  0.76427700  0.55341400  1
  O  O29  1  0.09614300  0.95097300  0.72984000  1
  O  O30  1  0.55341400  0.41947700  0.76427700  1
  O  O31  1  0.37851500  0.19325700  0.99670100  1
  O  O32  1  0.72984000  0.09614300  0.95097300  1
  O  O33  1  0.48848700  0.32720000  0.11418900  1
  O  O34  1  0.11418900  0.48848700  0.32720000  1
  O  O35  1  0.32720000  0.11418900  0.48848700  1
