# generated using pymatgen
data_La(HO)3
_symmetry_space_group_name_H-M   'P 1'
_cell_length_a   11.30189600
_cell_length_b   5.47594300
_cell_length_c   6.88333162
_cell_angle_alpha   84.08654481
_cell_angle_beta   90.00000000
_cell_angle_gamma   90.00000000
_symmetry_Int_Tables_number   1
_chemical_formula_structural   La(HO)3
_chemical_formula_sum   'La4 H12 O12'
_cell_volume   423.73244076
_cell_formula_units_Z   4
loop_
 _symmetry_equiv_pos_site_id
 _symmetry_equiv_pos_as_xyz
  1  'x, y, z'
loop_
 _atom_site_type_symbol
 _atom_site_label
 _atom_site_symmetry_multiplicity
 _atom_site_fract_x
 _atom_site_fract_y
 _atom_site_fract_z
 _atom_site_occupancy
  La  La0  1  0.67034100  0.98938600  0.95873900  1
  La  La1  1  0.17034100  0.01061400  0.54126100  1
  La  La2  1  0.82965900  0.98938600  0.45873900  1
  La  La3  1  0.32965900  0.01061400  0.04126100  1
  H  H4  1  0.19461700  0.41302200  0.81518400  1
  H  H5  1  0.97457100  0.76160900  0.79240000  1
  H  H6  1  0.38092100  0.68867200  0.72965300  1
  H  H7  1  0.88092100  0.31132800  0.77034700  1
  H  H8  1  0.47457100  0.23839100  0.70760000  1
  H  H9  1  0.69461700  0.58697800  0.68481600  1
  H  H10  1  0.30538300  0.41302200  0.31518400  1
  H  H11  1  0.52542900  0.76160900  0.29240000  1
  H  H12  1  0.11907900  0.68867200  0.22965300  1
  H  H13  1  0.61907900  0.31132800  0.27034700  1
  H  H14  1  0.02542900  0.23839100  0.20760000  1
  H  H15  1  0.80538300  0.58697800  0.18481600  1
  O  O16  1  0.49265400  0.20443100  0.84561500  1
  O  O17  1  0.18714700  0.23412400  0.82663800  1
  O  O18  1  0.80720400  0.22782300  0.74509600  1
  O  O19  1  0.30720400  0.77217700  0.75490400  1
  O  O20  1  0.68714700  0.76587600  0.67336200  1
  O  O21  1  0.99265400  0.79556900  0.65438500  1
  O  O22  1  0.00734600  0.20443100  0.34561500  1
  O  O23  1  0.31285300  0.23412400  0.32663800  1
  O  O24  1  0.69279600  0.22782300  0.24509600  1
  O  O25  1  0.19279600  0.77217700  0.25490400  1
  O  O26  1  0.81285300  0.76587600  0.17336200  1
  O  O27  1  0.50734600  0.79556900  0.15438500  1
