# generated using pymatgen
data_CrN2
_symmetry_space_group_name_H-M   'P 1'
_cell_length_a   13.87322812
_cell_length_b   13.87322812
_cell_length_c   14.39311397
_cell_angle_alpha   90.00000000
_cell_angle_beta   90.00000000
_cell_angle_gamma   90.00000000
_symmetry_Int_Tables_number   1
_chemical_formula_structural   CrN2
_chemical_formula_sum   'Cr32 N64'
_cell_volume   2770.19167215
_cell_formula_units_Z   32
loop_
 _symmetry_equiv_pos_site_id
 _symmetry_equiv_pos_as_xyz
  1  'x, y, z'
loop_
 _atom_site_type_symbol
 _atom_site_label
 _atom_site_symmetry_multiplicity
 _atom_site_fract_x
 _atom_site_fract_y
 _atom_site_fract_z
 _atom_site_occupancy
  Cr  Cr0  1  0.37728187  0.11895349  0.61602841  1
  Cr  Cr1  1  0.62271813  0.88104651  0.61602841  1
  Cr  Cr2  1  0.88104651  0.37728187  0.11602841  1
  Cr  Cr3  1  0.11895349  0.62271813  0.11602841  1
  Cr  Cr4  1  0.62271813  0.11895349  0.38397159  1
  Cr  Cr5  1  0.37728187  0.88104651  0.38397159  1
  Cr  Cr6  1  0.11895349  0.37728187  0.88397159  1
  Cr  Cr7  1  0.88104651  0.62271813  0.88397159  1
  Cr  Cr8  1  0.62271813  0.88104651  0.38397159  1
  Cr  Cr9  1  0.37728187  0.11895349  0.38397159  1
  Cr  Cr10  1  0.11895349  0.62271813  0.88397159  1
  Cr  Cr11  1  0.88104651  0.37728187  0.88397159  1
  Cr  Cr12  1  0.37728187  0.88104651  0.61602841  1
  Cr  Cr13  1  0.62271813  0.11895349  0.61602841  1
  Cr  Cr14  1  0.88104651  0.62271813  0.11602841  1
  Cr  Cr15  1  0.11895349  0.37728187  0.11602841  1
  Cr  Cr16  1  0.37605592  0.50000000  0.61720371  1
  Cr  Cr17  1  0.62394408  0.50000000  0.61720371  1
  Cr  Cr18  1  0.50000000  0.37605592  0.11720371  1
  Cr  Cr19  1  0.50000000  0.62394408  0.11720371  1
  Cr  Cr20  1  0.62394408  0.50000000  0.38279629  1
  Cr  Cr21  1  0.37605592  0.50000000  0.38279629  1
  Cr  Cr22  1  0.50000000  0.37605592  0.88279629  1
  Cr  Cr23  1  0.50000000  0.62394408  0.88279629  1
  Cr  Cr24  1  0.30951190  0.30951190  0.75000000  1
  Cr  Cr25  1  0.69048810  0.69048810  0.75000000  1
  Cr  Cr26  1  0.69048810  0.30951190  0.25000000  1
  Cr  Cr27  1  0.30951190  0.69048810  0.25000000  1
  Cr  Cr28  1  0.69048810  0.69048810  0.25000000  1
  Cr  Cr29  1  0.30951190  0.30951190  0.25000000  1
  Cr  Cr30  1  0.30951190  0.69048810  0.75000000  1
  Cr  Cr31  1  0.69048810  0.30951190  0.75000000  1
  N  N32  1  0.32588631  0.40075894  0.67082693  1
  N  N33  1  0.67411369  0.59924106  0.67082693  1
  N  N34  1  0.59924106  0.32588631  0.17082693  1
  N  N35  1  0.40075894  0.67411369  0.17082693  1
  N  N36  1  0.67411369  0.40075894  0.32917307  1
  N  N37  1  0.32588631  0.59924106  0.32917307  1
  N  N38  1  0.40075894  0.32588631  0.82917307  1
  N  N39  1  0.59924106  0.67411369  0.82917307  1
  N  N40  1  0.67411369  0.59924106  0.32917307  1
  N  N41  1  0.32588631  0.40075894  0.32917307  1
  N  N42  1  0.40075894  0.67411369  0.82917307  1
  N  N43  1  0.59924106  0.32588631  0.82917307  1
  N  N44  1  0.32588631  0.59924106  0.67082693  1
  N  N45  1  0.67411369  0.40075894  0.67082693  1
  N  N46  1  0.59924106  0.67411369  0.17082693  1
  N  N47  1  0.40075894  0.32588631  0.17082693  1
  N  N48  1  0.32590735  0.20103722  0.69199684  1
  N  N49  1  0.67409265  0.79896278  0.69199684  1
  N  N50  1  0.79896278  0.32590735  0.19199684  1
  N  N51  1  0.20103722  0.67409265  0.19199684  1
  N  N52  1  0.67409265  0.20103722  0.30800316  1
  N  N53  1  0.32590735  0.79896278  0.30800316  1
  N  N54  1  0.20103722  0.32590735  0.80800316  1
  N  N55  1  0.79896278  0.67409265  0.80800316  1
  N  N56  1  0.67409265  0.79896278  0.30800316  1
  N  N57  1  0.32590735  0.20103722  0.30800316  1
  N  N58  1  0.20103722  0.67409265  0.80800316  1
  N  N59  1  0.79896278  0.32590735  0.80800316  1
  N  N60  1  0.32590735  0.79896278  0.69199684  1
  N  N61  1  0.67409265  0.20103722  0.69199684  1
  N  N62  1  0.79896278  0.67409265  0.19199684  1
  N  N63  1  0.20103722  0.32590735  0.19199684  1
  N  N64  1  0.35161974  0.14096745  0.50000000  1
  N  N65  1  0.64838026  0.85903255  0.50000000  1
  N  N66  1  0.85903255  0.35161974  0.00000000  1
  N  N67  1  0.14096745  0.64838026  -0.00000000  1
  N  N68  1  0.64838026  0.14096745  0.50000000  1
  N  N69  1  0.35161974  0.85903255  0.50000000  1
  N  N70  1  0.14096745  0.35161974  -0.00000000  1
  N  N71  1  0.85903255  0.64838026  0.00000000  1
  N  N72  1  0.13060223  0.50000000  0.12823899  1
  N  N73  1  0.86939777  0.50000000  0.12823899  1
  N  N74  1  0.50000000  0.13060223  0.62823899  1
  N  N75  1  0.50000000  0.86939777  0.62823899  1
  N  N76  1  0.86939777  0.50000000  0.87176101  1
  N  N77  1  0.13060223  0.50000000  0.87176101  1
  N  N78  1  0.50000000  0.13060223  0.37176101  1
  N  N79  1  0.50000000  0.86939777  0.37176101  1
  N  N80  1  0.34855803  0.00000000  0.64112495  1
  N  N81  1  0.65144197  -0.00000000  0.64112495  1
  N  N82  1  -0.00000000  0.34855803  0.14112495  1
  N  N83  1  0.00000000  0.65144197  0.14112495  1
  N  N84  1  0.65144197  -0.00000000  0.35887505  1
  N  N85  1  0.34855803  0.00000000  0.35887505  1
  N  N86  1  -0.00000000  0.34855803  0.85887505  1
  N  N87  1  0.00000000  0.65144197  0.85887505  1
  N  N88  1  0.35154433  0.50000000  0.50000000  1
  N  N89  1  0.64845567  0.50000000  0.50000000  1
  N  N90  1  0.50000000  0.35154433  0.00000000  1
  N  N91  1  0.50000000  0.64845567  -0.00000000  1
  N  N92  1  0.50000000  0.50000000  0.63197187  1
  N  N93  1  0.50000000  0.50000000  0.13197187  1
  N  N94  1  0.50000000  0.50000000  0.36802813  1
  N  N95  1  0.50000000  0.50000000  0.86802813  1
