# generated using pymatgen
data_Rb2Fe4O7
_symmetry_space_group_name_H-M   'P 1'
_cell_length_a   5.36584021
_cell_length_b   5.36584021
_cell_length_c   7.05632000
_cell_angle_alpha   90.00000000
_cell_angle_beta   90.00000000
_cell_angle_gamma   120.00000264
_symmetry_Int_Tables_number   1
_chemical_formula_structural   Rb2Fe4O7
_chemical_formula_sum   'Rb2 Fe4 O7'
_cell_volume   175.94801015
_cell_formula_units_Z   1
loop_
 _symmetry_equiv_pos_site_id
 _symmetry_equiv_pos_as_xyz
  1  'x, y, z'
loop_
 _atom_site_type_symbol
 _atom_site_label
 _atom_site_symmetry_multiplicity
 _atom_site_fract_x
 _atom_site_fract_y
 _atom_site_fract_z
 _atom_site_occupancy
  Rb  Rb0  1  0.33333300  0.66666700  0.00000000  1
  Rb  Rb1  1  0.66666700  0.33333300  0.00000000  1
  Fe  Fe2  1  0.00000000  0.00000000  0.27292300  1
  Fe  Fe3  1  0.00000000  0.00000000  0.72707700  1
  Fe  Fe4  1  0.33333300  0.66666700  0.50000000  1
  Fe  Fe5  1  0.66666700  0.33333300  0.50000000  1
  O  O6  1  0.00000000  0.65044200  0.33946200  1
  O  O7  1  0.00000000  0.34955800  0.66053800  1
  O  O8  1  0.00000000  0.00000000  0.00000000  1
  O  O9  1  0.34955800  0.34955800  0.33946200  1
  O  O10  1  0.65044200  0.65044200  0.66053800  1
  O  O11  1  0.34955800  0.00000000  0.66053800  1
  O  O12  1  0.65044200  0.00000000  0.33946200  1
