# generated using pymatgen
data_RbFe5O8
_symmetry_space_group_name_H-M   'P 1'
_cell_length_a   10.30179300
_cell_length_b   8.01839900
_cell_length_c   10.51667744
_cell_angle_alpha   69.68909832
_cell_angle_beta   90.00000000
_cell_angle_gamma   90.00000000
_symmetry_Int_Tables_number   1
_chemical_formula_structural   RbFe5O8
_chemical_formula_sum   'Rb4 Fe20 O32'
_cell_volume   814.70404417
_cell_formula_units_Z   4
loop_
 _symmetry_equiv_pos_site_id
 _symmetry_equiv_pos_as_xyz
  1  'x, y, z'
loop_
 _atom_site_type_symbol
 _atom_site_label
 _atom_site_symmetry_multiplicity
 _atom_site_fract_x
 _atom_site_fract_y
 _atom_site_fract_z
 _atom_site_occupancy
  Rb  Rb0  1  0.51314700  0.74931900  0.53535400  1
  Rb  Rb1  1  0.98685300  0.74931900  0.03535400  1
  Rb  Rb2  1  0.01314700  0.25068100  0.96464600  1
  Rb  Rb3  1  0.48685300  0.25068100  0.46464600  1
  Fe  Fe4  1  0.64733800  0.93250000  0.85568400  1
  Fe  Fe5  1  0.36112900  0.86274300  0.90321000  1
  Fe  Fe6  1  0.85266200  0.93250000  0.35568400  1
  Fe  Fe7  1  0.87672600  0.74700300  0.70799600  1
  Fe  Fe8  1  0.13887100  0.86274300  0.40321000  1
  Fe  Fe9  1  0.19228200  0.63945500  0.74076900  1
  Fe  Fe10  1  0.62327400  0.74700300  0.20799600  1
  Fe  Fe11  1  0.85234500  0.53873300  0.48033300  1
  Fe  Fe12  1  0.35234500  0.46126700  0.01966700  1
  Fe  Fe13  1  0.69228200  0.36054500  0.75923100  1
  Fe  Fe14  1  0.30771800  0.63945500  0.24076900  1
  Fe  Fe15  1  0.64765500  0.53873300  0.98033300  1
  Fe  Fe16  1  0.14765500  0.46126700  0.51966700  1
  Fe  Fe17  1  0.37672600  0.25299700  0.79200400  1
  Fe  Fe18  1  0.80771800  0.36054500  0.25923100  1
  Fe  Fe19  1  0.86112900  0.13725700  0.59679000  1
  Fe  Fe20  1  0.12327400  0.25299700  0.29200400  1
  Fe  Fe21  1  0.14733800  0.06750000  0.64431600  1
  Fe  Fe22  1  0.63887100  0.13725700  0.09679000  1
  Fe  Fe23  1  0.35266200  0.06750000  0.14431600  1
  O  O24  1  0.31198300  0.05963200  0.96089200  1
  O  O25  1  0.98576400  0.95931800  0.71189200  1
  O  O26  1  0.18801700  0.05963200  0.46089200  1
  O  O27  1  0.75677700  0.73617900  0.85275600  1
  O  O28  1  0.24817800  0.85950200  0.75771500  1
  O  O29  1  0.51423600  0.95931800  0.21189200  1
  O  O30  1  0.49643900  0.68158000  0.92398500  1
  O  O31  1  0.01982200  0.59484300  0.78646900  1
  O  O32  1  0.74322300  0.73617900  0.35275600  1
  O  O33  1  0.78808500  0.56102800  0.64482000  1
  O  O34  1  0.25182200  0.85950200  0.25771500  1
  O  O35  1  0.72655200  0.33863500  0.94485000  1
  O  O36  1  0.22655200  0.66136500  0.55515000  1
  O  O37  1  0.00356100  0.68158000  0.42398500  1
  O  O38  1  0.28808500  0.43897200  0.85518000  1
  O  O39  1  0.48017800  0.59484300  0.28646900  1
  O  O40  1  0.51982200  0.40515700  0.71353100  1
  O  O41  1  0.71191500  0.56102800  0.14482000  1
  O  O42  1  0.99643900  0.31842000  0.57601500  1
  O  O43  1  0.77344800  0.33863500  0.44485000  1
  O  O44  1  0.27344800  0.66136500  0.05515000  1
  O  O45  1  0.74817800  0.14049800  0.74228500  1
  O  O46  1  0.21191500  0.43897200  0.35518000  1
  O  O47  1  0.25677700  0.26382100  0.64724400  1
  O  O48  1  0.98017800  0.40515700  0.21353100  1
  O  O49  1  0.50356100  0.31842000  0.07601500  1
  O  O50  1  0.48576400  0.04068200  0.78810800  1
  O  O51  1  0.75182200  0.14049800  0.24228500  1
  O  O52  1  0.24322300  0.26382100  0.14724400  1
  O  O53  1  0.81198300  0.94036800  0.53910800  1
  O  O54  1  0.01423600  0.04068200  0.28810800  1
  O  O55  1  0.68801700  0.94036800  0.03910800  1
