# generated using pymatgen
data_Li4Cr3FeO8
_symmetry_space_group_name_H-M   'P 1'
_cell_length_a   5.11397240
_cell_length_b   5.88096040
_cell_length_c   10.56015234
_cell_angle_alpha   106.08282156
_cell_angle_beta   85.32722939
_cell_angle_gamma   73.49267385
_symmetry_Int_Tables_number   1
_chemical_formula_structural   Li4Cr3FeO8
_chemical_formula_sum   'Li8 Cr6 Fe2 O16'
_cell_volume   288.13281153
_cell_formula_units_Z   2
loop_
 _symmetry_equiv_pos_site_id
 _symmetry_equiv_pos_as_xyz
  1  'x, y, z'
loop_
 _atom_site_type_symbol
 _atom_site_label
 _atom_site_symmetry_multiplicity
 _atom_site_fract_x
 _atom_site_fract_y
 _atom_site_fract_z
 _atom_site_occupancy
  Li  Li0  1  0.99964300  0.12522400  0.74893600  1
  Li  Li1  1  0.00020600  0.99991700  0.99997500  1
  Li  Li2  1  0.99991800  0.24982600  0.50079900  1
  Li  Li3  1  0.99931800  0.37550600  0.25077500  1
  Li  Li4  1  0.99997400  0.62320500  0.74829800  1
  Li  Li5  1  0.00139100  0.49981600  0.00010100  1
  Li  Li6  1  0.00020400  0.75084600  0.50022800  1
  Li  Li7  1  0.99933100  0.87562900  0.25080900  1
  Cr  Cr8  1  0.49979900  0.31209800  0.37627400  1
  Cr  Cr9  1  0.50007700  0.56381900  0.87519800  1
  Cr  Cr10  1  0.49964800  0.43524500  0.12383000  1
  Cr  Cr11  1  0.49961700  0.68770400  0.62578200  1
  Cr  Cr12  1  0.50038200  0.81337500  0.37495600  1
  Cr  Cr13  1  0.49975800  0.93840900  0.12343900  1
  Fe  Fe14  1  0.49990100  0.06402200  0.87165000  1
  Fe  Fe15  1  0.50037800  0.18410700  0.63112200  1
  O  O16  1  0.27685800  0.08567000  0.31009000  1
  O  O17  1  0.73028400  0.03497700  0.43357900  1
  O  O18  1  0.26655600  0.34137400  0.81916600  1
  O  O19  1  0.71946200  0.28625300  0.93754900  1
  O  O20  1  0.72357900  0.16438700  0.18863500  1
  O  O21  1  0.27888200  0.20820600  0.05783500  1
  O  O22  1  0.27071000  0.46945300  0.55815800  1
  O  O23  1  0.73013300  0.41828800  0.69132800  1
  O  O24  1  0.27856200  0.58439200  0.30930400  1
  O  O25  1  0.72196900  0.54015200  0.43968200  1
  O  O26  1  0.28062100  0.83917700  0.81137900  1
  O  O27  1  0.71946000  0.79408300  0.93859700  1
  O  O28  1  0.27675700  0.71082100  0.06032900  1
  O  O29  1  0.27033500  0.95688200  0.55993300  1
  O  O30  1  0.72267300  0.66351300  0.18876600  1
  O  O31  1  0.73361600  0.90362000  0.69350000  1
