# generated using pymatgen
data_Sn2(SO4)3
_symmetry_space_group_name_H-M   'P 1'
_cell_length_a   9.28731500
_cell_length_b   8.72457700
_cell_length_c   15.30806129
_cell_angle_alpha   55.60630738
_cell_angle_beta   90.00000000
_cell_angle_gamma   90.00000000
_symmetry_Int_Tables_number   1
_chemical_formula_structural   Sn2(SO4)3
_chemical_formula_sum   'Sn8 S12 O48'
_cell_volume   1023.53140317
_cell_formula_units_Z   4
loop_
 _symmetry_equiv_pos_site_id
 _symmetry_equiv_pos_as_xyz
  1  'x, y, z'
loop_
 _atom_site_type_symbol
 _atom_site_label
 _atom_site_symmetry_multiplicity
 _atom_site_fract_x
 _atom_site_fract_y
 _atom_site_fract_z
 _atom_site_occupancy
  Sn  Sn0  1  0.96574600  0.36308100  0.89059600  1
  Sn  Sn1  1  0.46574600  0.63691900  0.60940400  1
  Sn  Sn2  1  0.02845700  0.87481500  0.38143800  1
  Sn  Sn3  1  0.52845700  0.12518500  0.11856200  1
  Sn  Sn4  1  0.47154300  0.87481500  0.88143800  1
  Sn  Sn5  1  0.97154300  0.12518500  0.61856200  1
  Sn  Sn6  1  0.53425400  0.36308100  0.39059600  1
  Sn  Sn7  1  0.03425400  0.63691900  0.10940400  1
  S  S8  1  0.73456000  0.56156100  0.48612500  1
  S  S9  1  0.63611800  0.28792000  0.82592400  1
  S  S10  1  0.89851600  0.96106500  0.13917900  1
  S  S11  1  0.13611800  0.71208000  0.67407600  1
  S  S12  1  0.39851600  0.03893500  0.36082100  1
  S  S13  1  0.23456000  0.43843900  0.01387500  1
  S  S14  1  0.76544000  0.56156100  0.98612500  1
  S  S15  1  0.60148400  0.96106500  0.63917900  1
  S  S16  1  0.86388200  0.28792000  0.32592400  1
  S  S17  1  0.10148400  0.03893500  0.86082100  1
  S  S18  1  0.36388200  0.71208000  0.17407600  1
  S  S19  1  0.26544000  0.43843900  0.51387500  1
  O  O20  1  0.14982000  0.57380900  0.45884100  1
  O  O21  1  0.09617900  0.15023600  0.90980000  1
  O  O22  1  0.33130300  0.45599100  0.59900400  1
  O  O23  1  0.39086800  0.82302400  0.21641100  1
  O  O24  1  0.62069100  0.51746400  0.56794500  1
  O  O25  1  0.79542900  0.34279300  0.80861700  1
  O  O26  1  0.59831300  0.19502700  0.93729800  1
  O  O27  1  0.01531100  0.90022800  0.21656500  1
  O  O28  1  0.75550300  0.94223600  0.18361600  1
  O  O29  1  0.78134000  0.75469200  0.43267000  1
  O  O30  1  0.55044600  0.46971200  0.76288100  1
  O  O31  1  0.05044600  0.53028800  0.73711900  1
  O  O32  1  0.92073900  0.16375300  0.05035600  1
  O  O33  1  0.42073900  0.83624700  0.44964400  1
  O  O34  1  0.28134000  0.24530800  0.06733000  1
  O  O35  1  0.25550300  0.05776400  0.31638400  1
  O  O36  1  0.09831300  0.80497300  0.56270200  1
  O  O37  1  0.51531100  0.09977200  0.28343500  1
  O  O38  1  0.29542900  0.65720700  0.69138300  1
  O  O39  1  0.12069100  0.48253600  0.93205500  1
  O  O40  1  0.83130300  0.54400900  0.90099600  1
  O  O41  1  0.59617900  0.84976400  0.59020000  1
  O  O42  1  0.89086800  0.17697600  0.28358900  1
  O  O43  1  0.64982000  0.42619100  0.04115900  1
  O  O44  1  0.35018000  0.57380900  0.95884100  1
  O  O45  1  0.10913200  0.82302400  0.71641100  1
  O  O46  1  0.40382100  0.15023600  0.40980000  1
  O  O47  1  0.16869700  0.45599100  0.09900400  1
  O  O48  1  0.87930900  0.51746400  0.06794500  1
  O  O49  1  0.70457100  0.34279300  0.30861700  1
  O  O50  1  0.48468900  0.90022800  0.71656500  1
  O  O51  1  0.90168700  0.19502700  0.43729800  1
  O  O52  1  0.74449700  0.94223600  0.68361600  1
  O  O53  1  0.71866000  0.75469200  0.93267000  1
  O  O54  1  0.57926100  0.16375300  0.55035600  1
  O  O55  1  0.07926100  0.83624700  0.94964400  1
  O  O56  1  0.94955400  0.46971200  0.26288100  1
  O  O57  1  0.44955400  0.53028800  0.23711900  1
  O  O58  1  0.21866000  0.24530800  0.56733000  1
  O  O59  1  0.24449700  0.05776400  0.81638400  1
  O  O60  1  0.98468900  0.09977200  0.78343500  1
  O  O61  1  0.40168700  0.80497300  0.06270200  1
  O  O62  1  0.20457100  0.65720700  0.19138300  1
  O  O63  1  0.37930900  0.48253600  0.43205500  1
  O  O64  1  0.60913200  0.17697600  0.78358900  1
  O  O65  1  0.66869700  0.54400900  0.40099600  1
  O  O66  1  0.90382100  0.84976400  0.09020000  1
  O  O67  1  0.85018000  0.42619100  0.54115900  1
