# generated using pymatgen
data_K2Ce2Fe4O11
_symmetry_space_group_name_H-M   'P 1'
_cell_length_a   8.81727839
_cell_length_b   8.81727839
_cell_length_c   3.89906300
_cell_angle_alpha   90.00000000
_cell_angle_beta   90.00000000
_cell_angle_gamma   126.68071952
_symmetry_Int_Tables_number   1
_chemical_formula_structural   K2Ce2Fe4O11
_chemical_formula_sum   'K2 Ce2 Fe4 O11'
_cell_volume   243.10344448
_cell_formula_units_Z   1
loop_
 _symmetry_equiv_pos_site_id
 _symmetry_equiv_pos_as_xyz
  1  'x, y, z'
loop_
 _atom_site_type_symbol
 _atom_site_label
 _atom_site_symmetry_multiplicity
 _atom_site_fract_x
 _atom_site_fract_y
 _atom_site_fract_z
 _atom_site_occupancy
  K  K0  1  0.50000000  0.00000000  0.50000000  1
  K  K1  1  0.00000000  0.50000000  0.50000000  1
  Ce  Ce2  1  0.23437900  0.23437900  0.50000000  1
  Ce  Ce3  1  0.76562100  0.76562100  0.50000000  1
  Fe  Fe4  1  0.63038300  0.36961700  0.00000000  1
  Fe  Fe5  1  0.36961700  0.63038300  0.00000000  1
  Fe  Fe6  1  0.87345400  0.12654600  0.00000000  1
  Fe  Fe7  1  0.12654600  0.87345400  0.00000000  1
  O  O8  1  0.35628600  0.16730200  0.00000000  1
  O  O9  1  0.83269800  0.64371400  0.00000000  1
  O  O10  1  0.64371400  0.83269800  0.00000000  1
  O  O11  1  0.16730200  0.35628600  0.00000000  1
  O  O12  1  0.58643400  0.41356600  0.50000000  1
  O  O13  1  0.41356600  0.58643400  0.50000000  1
  O  O14  1  0.89288400  0.10711600  0.50000000  1
  O  O15  1  0.10711600  0.89288400  0.50000000  1
  O  O16  1  0.74985900  0.25014100  0.00000000  1
  O  O17  1  0.25014100  0.74985900  0.00000000  1
  O  O18  1  0.00000000  0.00000000  0.00000000  1
