# generated using pymatgen
data_DyGaO3
_symmetry_space_group_name_H-M   'P 1'
_cell_length_a   6.12098791
_cell_length_b   6.12098791
_cell_length_c   11.72040000
_cell_angle_alpha   90.00000000
_cell_angle_beta   90.00000000
_cell_angle_gamma   119.99999902
_symmetry_Int_Tables_number   1
_chemical_formula_structural   DyGaO3
_chemical_formula_sum   'Dy6 Ga6 O18'
_cell_volume   380.29105744
_cell_formula_units_Z   6
loop_
 _symmetry_equiv_pos_site_id
 _symmetry_equiv_pos_as_xyz
  1  'x, y, z'
loop_
 _atom_site_type_symbol
 _atom_site_label
 _atom_site_symmetry_multiplicity
 _atom_site_fract_x
 _atom_site_fract_y
 _atom_site_fract_z
 _atom_site_occupancy
  Dy  Dy0  1  0.33333300  0.66666700  0.22951000  1
  Dy  Dy1  1  0.00000000  0.00000000  0.27130700  1
  Dy  Dy2  1  0.00000000  0.00000000  0.77130700  1
  Dy  Dy3  1  0.33333300  0.66666700  0.72951000  1
  Dy  Dy4  1  0.66666700  0.33333300  0.72951000  1
  Dy  Dy5  1  0.66666700  0.33333300  0.22951000  1
  Ga  Ga6  1  0.00000000  0.66574700  0.49672400  1
  Ga  Ga7  1  0.00000000  0.33425300  0.99672400  1
  Ga  Ga8  1  0.33425300  0.33425300  0.49672400  1
  Ga  Ga9  1  0.66574700  0.66574700  0.99672400  1
  Ga  Ga10  1  0.33425300  0.00000000  0.99672400  1
  Ga  Ga11  1  0.66574700  0.00000000  0.49672400  1
  O  O12  1  0.00000000  0.69319200  0.65942600  1
  O  O13  1  0.00000000  0.64069000  0.33522300  1
  O  O14  1  0.00000000  0.35931000  0.83522300  1
  O  O15  1  0.00000000  0.30680800  0.15942600  1
  O  O16  1  0.33333300  0.66666700  0.01654600  1
  O  O17  1  0.33333300  0.66666700  0.51654600  1
  O  O18  1  0.00000000  0.00000000  0.47376900  1
  O  O19  1  0.00000000  0.00000000  0.97376900  1
  O  O20  1  0.30680800  0.30680800  0.65942600  1
  O  O21  1  0.35931000  0.35931000  0.33522300  1
  O  O22  1  0.30680800  0.00000000  0.15942600  1
  O  O23  1  0.64069000  0.64069000  0.83522300  1
  O  O24  1  0.69319200  0.69319200  0.15942600  1
  O  O25  1  0.35931000  0.00000000  0.83522300  1
  O  O26  1  0.66666700  0.33333300  0.51654600  1
  O  O27  1  0.66666700  0.33333300  0.01654600  1
  O  O28  1  0.64069000  0.00000000  0.33522300  1
  O  O29  1  0.69319200  0.00000000  0.65942600  1
