# generated using pymatgen
data_Sn5P6O25
_symmetry_space_group_name_H-M   'P 1'
_cell_length_a   10.09937636
_cell_length_b   10.09937636
_cell_length_c   10.09937620
_cell_angle_alpha   49.63405479
_cell_angle_beta   49.63405479
_cell_angle_gamma   49.63405679
_symmetry_Int_Tables_number   1
_chemical_formula_structural   Sn5P6O25
_chemical_formula_sum   'Sn5 P6 O25'
_cell_volume   549.86968937
_cell_formula_units_Z   1
loop_
 _symmetry_equiv_pos_site_id
 _symmetry_equiv_pos_as_xyz
  1  'x, y, z'
loop_
 _atom_site_type_symbol
 _atom_site_label
 _atom_site_symmetry_multiplicity
 _atom_site_fract_x
 _atom_site_fract_y
 _atom_site_fract_z
 _atom_site_occupancy
  Sn  Sn0  1  0.82686800  0.82686800  0.82686800  1
  Sn  Sn1  1  0.17313200  0.17313200  0.17313200  1
  Sn  Sn2  1  0.57173900  0.57173900  0.57173900  1
  Sn  Sn3  1  0.42826100  0.42826100  0.42826100  1
  Sn  Sn4  1  0.00000000  0.00000000  0.00000000  1
  P  P5  1  0.82070200  0.06106200  0.38635000  1
  P  P6  1  0.61365000  0.17929800  0.93893800  1
  P  P7  1  0.93893800  0.61365000  0.17929800  1
  P  P8  1  0.06106200  0.38635000  0.82070200  1
  P  P9  1  0.38635000  0.82070200  0.06106200  1
  P  P10  1  0.17929800  0.93893800  0.61365000  1
  O  O11  1  0.95532000  0.27386800  0.90014000  1
  O  O12  1  0.89681100  0.21463700  0.27371900  1
  O  O13  1  0.72628100  0.10318900  0.78536300  1
  O  O14  1  0.72613200  0.09986000  0.04468000  1
  O  O15  1  0.59864200  0.16722000  0.44186300  1
  O  O16  1  0.91224700  0.56276100  0.86407200  1
  O  O17  1  0.43723900  0.13592800  0.08775300  1
  O  O18  1  0.83278000  0.55813700  0.40135800  1
  O  O19  1  0.55813700  0.40135800  0.83278000  1
  O  O20  1  0.09986000  0.04468000  0.72613200  1
  O  O21  1  0.78536300  0.72628100  0.10318900  1
  O  O22  1  0.13592800  0.08775300  0.43723900  1
  O  O23  1  0.50000000  0.50000000  0.50000000  1
  O  O24  1  0.86407200  0.91224700  0.56276100  1
  O  O25  1  0.21463700  0.27371900  0.89681100  1
  O  O26  1  0.90014000  0.95532000  0.27386800  1
  O  O27  1  0.44186300  0.59864200  0.16722000  1
  O  O28  1  0.16722000  0.44186300  0.59864200  1
  O  O29  1  0.56276100  0.86407200  0.91224700  1
  O  O30  1  0.08775300  0.43723900  0.13592800  1
  O  O31  1  0.40135800  0.83278000  0.55813700  1
  O  O32  1  0.27386800  0.90014000  0.95532000  1
  O  O33  1  0.27371900  0.89681100  0.21463700  1
  O  O34  1  0.10318900  0.78536300  0.72628100  1
  O  O35  1  0.04468000  0.72613200  0.09986000  1
