# generated using pymatgen
data_Dy2(SeO4)3
_symmetry_space_group_name_H-M   'P 1'
_cell_length_a   6.83234332
_cell_length_b   6.83234332
_cell_length_c   11.29378720
_cell_angle_alpha   80.63340904
_cell_angle_beta   80.63340904
_cell_angle_gamma   117.18409649
_symmetry_Int_Tables_number   1
_chemical_formula_structural   Dy2(SeO4)3
_chemical_formula_sum   'Dy4 Se6 O24'
_cell_volume   445.51405440
_cell_formula_units_Z   2
loop_
 _symmetry_equiv_pos_site_id
 _symmetry_equiv_pos_as_xyz
  1  'x, y, z'
loop_
 _atom_site_type_symbol
 _atom_site_label
 _atom_site_symmetry_multiplicity
 _atom_site_fract_x
 _atom_site_fract_y
 _atom_site_fract_z
 _atom_site_occupancy
  Dy  Dy0  1  0.70677800  0.95707200  0.59442500  1
  Dy  Dy1  1  0.95707200  0.70677800  0.09442500  1
  Dy  Dy2  1  0.04292800  0.29322200  0.90557500  1
  Dy  Dy3  1  0.29322200  0.04292800  0.40557500  1
  Se  Se4  1  0.52802300  0.78734000  0.92470200  1
  Se  Se5  1  0.78734000  0.52802300  0.42470200  1
  Se  Se6  1  0.11825400  0.88174600  0.75000000  1
  Se  Se7  1  0.88174600  0.11825400  0.25000000  1
  Se  Se8  1  0.21266000  0.47197700  0.57529800  1
  Se  Se9  1  0.47197700  0.21266000  0.07529800  1
  O  O10  1  0.21065300  0.12685700  0.78848100  1
  O  O11  1  0.58408400  0.97297400  0.79018200  1
  O  O12  1  0.07822600  0.68175700  0.87730400  1
  O  O13  1  0.78747700  0.88845500  0.95753200  1
  O  O14  1  0.12685700  0.21065300  0.28848100  1
  O  O15  1  0.46669600  0.57563800  0.60672900  1
  O  O16  1  0.76610400  0.33702000  0.54442100  1
  O  O17  1  0.66298000  0.23389600  0.95557900  1
  O  O18  1  0.42436200  0.53330400  0.89327100  1
  O  O19  1  0.97297400  0.58408400  0.29018200  1
  O  O20  1  0.11154500  0.21252300  0.54246800  1
  O  O21  1  0.31824300  0.92177400  0.62269600  1
  O  O22  1  0.68175700  0.07822600  0.37730400  1
  O  O23  1  0.88845500  0.78747700  0.45753200  1
  O  O24  1  0.02702600  0.41591600  0.70981800  1
  O  O25  1  0.57563800  0.46669600  0.10672900  1
  O  O26  1  0.33702000  0.76610400  0.04442100  1
  O  O27  1  0.23389600  0.66298000  0.45557900  1
  O  O28  1  0.53330400  0.42436200  0.39327100  1
  O  O29  1  0.87314300  0.78934700  0.71151900  1
  O  O30  1  0.21252300  0.11154500  0.04246800  1
  O  O31  1  0.92177400  0.31824300  0.12269600  1
  O  O32  1  0.41591600  0.02702600  0.20981800  1
  O  O33  1  0.78934700  0.87314300  0.21151900  1
