# generated using pymatgen
data_Sr5Ta4O15
_symmetry_space_group_name_H-M   'P 1'
_cell_length_a   5.71537530
_cell_length_b   5.71537530
_cell_length_c   11.71317500
_cell_angle_alpha   90.00000000
_cell_angle_beta   90.00000000
_cell_angle_gamma   119.99999190
_symmetry_Int_Tables_number   1
_chemical_formula_structural   Sr5Ta4O15
_chemical_formula_sum   'Sr5 Ta4 O15'
_cell_volume   331.35597506
_cell_formula_units_Z   1
loop_
 _symmetry_equiv_pos_site_id
 _symmetry_equiv_pos_as_xyz
  1  'x, y, z'
loop_
 _atom_site_type_symbol
 _atom_site_label
 _atom_site_symmetry_multiplicity
 _atom_site_fract_x
 _atom_site_fract_y
 _atom_site_fract_z
 _atom_site_occupancy
  Sr  Sr0  1  0.33333300  0.66666700  0.44387400  1
  Sr  Sr1  1  0.33333300  0.66666700  0.77825300  1
  Sr  Sr2  1  0.00000000  0.00000000  0.00000000  1
  Sr  Sr3  1  0.66666700  0.33333300  0.22174700  1
  Sr  Sr4  1  0.66666700  0.33333300  0.55612600  1
  Ta  Ta5  1  0.33333300  0.66666700  0.10394200  1
  Ta  Ta6  1  0.00000000  0.00000000  0.31487400  1
  Ta  Ta7  1  0.00000000  0.00000000  0.68512600  1
  Ta  Ta8  1  0.66666700  0.33333300  0.89605800  1
  O  O9  1  0.16838600  0.83161400  0.61051200  1
  O  O10  1  0.00000000  0.50000000  0.00000000  1
  O  O11  1  0.16477600  0.83522400  0.19134900  1
  O  O12  1  0.16477600  0.32955200  0.19134900  1
  O  O13  1  0.16838600  0.33677200  0.61051200  1
  O  O14  1  0.33677200  0.16838600  0.38948800  1
  O  O15  1  0.67044800  0.83522400  0.19134900  1
  O  O16  1  0.50000000  0.50000000  0.00000000  1
  O  O17  1  0.32955200  0.16477600  0.80865100  1
  O  O18  1  0.66322800  0.83161400  0.61051200  1
  O  O19  1  0.50000000  0.00000000  0.00000000  1
  O  O20  1  0.83522400  0.67044800  0.80865100  1
  O  O21  1  0.83161400  0.66322800  0.38948800  1
  O  O22  1  0.83522400  0.16477600  0.80865100  1
  O  O23  1  0.83161400  0.16838600  0.38948800  1
