# generated using pymatgen
data_Ca3Ta2O8
_symmetry_space_group_name_H-M   'P 1'
_cell_length_a   7.22897868
_cell_length_b   7.22897868
_cell_length_c   9.30732200
_cell_angle_alpha   90.00000000
_cell_angle_beta   90.00000000
_cell_angle_gamma   123.33560163
_symmetry_Int_Tables_number   1
_chemical_formula_structural   Ca3Ta2O8
_chemical_formula_sum   'Ca6 Ta4 O16'
_cell_volume   406.35671091
_cell_formula_units_Z   2
loop_
 _symmetry_equiv_pos_site_id
 _symmetry_equiv_pos_as_xyz
  1  'x, y, z'
loop_
 _atom_site_type_symbol
 _atom_site_label
 _atom_site_symmetry_multiplicity
 _atom_site_fract_x
 _atom_site_fract_y
 _atom_site_fract_z
 _atom_site_occupancy
  Ca  Ca0  1  0.39059100  0.10940900  0.75000000  1
  Ca  Ca1  1  0.00000000  0.00000000  0.00000000  1
  Ca  Ca2  1  0.10940900  0.39059100  0.25000000  1
  Ca  Ca3  1  0.89059100  0.60940900  0.75000000  1
  Ca  Ca4  1  0.50000000  0.50000000  0.50000000  1
  Ca  Ca5  1  0.60940900  0.89059100  0.25000000  1
  Ta  Ta6  1  0.61632700  0.38367300  0.11826100  1
  Ta  Ta7  1  0.88367300  0.11632700  0.61826100  1
  Ta  Ta8  1  0.38367300  0.61632700  0.88173900  1
  Ta  Ta9  1  0.11632700  0.88367300  0.38173900  1
  O  O10  1  0.33610800  0.10642400  0.49789700  1
  O  O11  1  0.39357600  0.16389200  0.00210300  1
  O  O12  1  0.50058800  0.49941200  0.75163000  1
  O  O13  1  0.99941200  0.00058800  0.25163000  1
  O  O14  1  0.74286800  0.25713200  0.22111100  1
  O  O15  1  0.75713200  0.24286800  0.72111100  1
  O  O16  1  0.10642400  0.33610800  0.50210300  1
  O  O17  1  0.83610800  0.60642400  0.00210300  1
  O  O18  1  0.16389200  0.39357600  0.99789700  1
  O  O19  1  0.89357600  0.66389200  0.49789700  1
  O  O20  1  0.49941200  0.50058800  0.24837000  1
  O  O21  1  0.25713200  0.74286800  0.77888900  1
  O  O22  1  0.24286800  0.75713200  0.27888900  1
  O  O23  1  0.00058800  0.99941200  0.74837000  1
  O  O24  1  0.60642400  0.83610800  0.99789700  1
  O  O25  1  0.66389200  0.89357600  0.50210300  1
