# generated using pymatgen
data_Ta2ReNi
_symmetry_space_group_name_H-M   'P 1'
_cell_length_a   11.95495552
_cell_length_b   11.95495552
_cell_length_c   11.95495552
_cell_angle_alpha   134.58280976
_cell_angle_beta   115.71391000
_cell_angle_gamma   82.19412126
_symmetry_Int_Tables_number   1
_chemical_formula_structural   Ta2ReNi
_chemical_formula_sum   'Ta2 Re1 Ni1'
_cell_volume   1057.84122452
_cell_formula_units_Z   1
loop_
 _symmetry_equiv_pos_site_id
 _symmetry_equiv_pos_as_xyz
  1  'x, y, z'
loop_
 _atom_site_type_symbol
 _atom_site_label
 _atom_site_symmetry_multiplicity
 _atom_site_fract_x
 _atom_site_fract_y
 _atom_site_fract_z
 _atom_site_occupancy
  Ta  Ta0  1  0.00000000  0.25330000  0.25330000  1
  Ta  Ta1  1  0.00000000  0.74670000  0.74670000  1
  Re  Re2  1  0.00000000  0.50000000  0.50000000  1
  Ni  Ni3  1  0.00000000  0.00000000  0.00000000  1
