# generated using pymatgen
data_Y2Ge2O7
_symmetry_space_group_name_H-M   'P 1'
_cell_length_a   5.81447198
_cell_length_b   5.81447198
_cell_length_c   5.01658841
_cell_angle_alpha   82.60368337
_cell_angle_beta   82.60368337
_cell_angle_gamma   105.26249873
_symmetry_Int_Tables_number   1
_chemical_formula_structural   Y2Ge2O7
_chemical_formula_sum   'Y2 Ge2 O7'
_cell_volume   159.89675990
_cell_formula_units_Z   1
loop_
 _symmetry_equiv_pos_site_id
 _symmetry_equiv_pos_as_xyz
  1  'x, y, z'
loop_
 _atom_site_type_symbol
 _atom_site_label
 _atom_site_symmetry_multiplicity
 _atom_site_fract_x
 _atom_site_fract_y
 _atom_site_fract_z
 _atom_site_occupancy
  Y  Y0  1  0.30626700  0.69373300  0.00000000  1
  Y  Y1  1  0.69373300  0.30626700  0.00000000  1
  Ge  Ge2  1  0.77122700  0.77122700  0.40921000  1
  Ge  Ge3  1  0.22877300  0.22877300  0.59079000  1
  O  O4  1  0.91800100  0.60205500  0.21280900  1
  O  O5  1  0.60205500  0.91800100  0.21280900  1
  O  O6  1  0.60219600  0.60219600  0.72367100  1
  O  O7  1  0.00000000  0.00000000  0.50000000  1
  O  O8  1  0.39780400  0.39780400  0.27632900  1
  O  O9  1  0.08199900  0.39794500  0.78719100  1
  O  O10  1  0.39794500  0.08199900  0.78719100  1
