# generated using pymatgen
data_KCe2FeO6
_symmetry_space_group_name_H-M   'P 1'
_cell_length_a   5.99404200
_cell_length_b   8.44588900
_cell_length_c   11.55808700
_cell_angle_alpha   90.00000000
_cell_angle_beta   90.00000000
_cell_angle_gamma   90.00000000
_symmetry_Int_Tables_number   1
_chemical_formula_structural   KCe2FeO6
_chemical_formula_sum   'K4 Ce8 Fe4 O24'
_cell_volume   585.12830918
_cell_formula_units_Z   4
loop_
 _symmetry_equiv_pos_site_id
 _symmetry_equiv_pos_as_xyz
  1  'x, y, z'
loop_
 _atom_site_type_symbol
 _atom_site_label
 _atom_site_symmetry_multiplicity
 _atom_site_fract_x
 _atom_site_fract_y
 _atom_site_fract_z
 _atom_site_occupancy
  K  K0  1  0.25000000  0.01923200  0.37094600  1
  K  K1  1  0.25000000  0.48076800  0.87094600  1
  K  K2  1  0.75000000  0.98076800  0.62905400  1
  K  K3  1  0.75000000  0.51923200  0.12905400  1
  Ce  Ce4  1  0.25000000  0.28544300  0.14054000  1
  Ce  Ce5  1  0.25000000  0.21455700  0.64054000  1
  Ce  Ce6  1  0.75000000  0.71455700  0.85946000  1
  Ce  Ce7  1  0.75000000  0.78544300  0.35946000  1
  Ce  Ce8  1  0.25000000  0.99629900  0.88228300  1
  Ce  Ce9  1  0.25000000  0.50370100  0.38228300  1
  Ce  Ce10  1  0.75000000  0.00370100  0.11771700  1
  Ce  Ce11  1  0.75000000  0.49629900  0.61771700  1
  Fe  Fe12  1  0.25000000  0.76407500  0.10616200  1
  Fe  Fe13  1  0.25000000  0.73592500  0.60616200  1
  Fe  Fe14  1  0.75000000  0.23592500  0.89383800  1
  Fe  Fe15  1  0.75000000  0.26407500  0.39383800  1
  O  O16  1  0.96676800  0.26320600  0.03082600  1
  O  O17  1  0.53323200  0.23679400  0.53082600  1
  O  O18  1  0.46676800  0.73679400  0.96917400  1
  O  O19  1  0.03323200  0.76320600  0.46917400  1
  O  O20  1  0.03323200  0.73679400  0.96917400  1
  O  O21  1  0.46676800  0.76320600  0.46917400  1
  O  O22  1  0.53323200  0.26320600  0.03082600  1
  O  O23  1  0.96676800  0.23679400  0.53082600  1
  O  O24  1  0.25000000  0.00897100  0.06871600  1
  O  O25  1  0.25000000  0.49102900  0.56871600  1
  O  O26  1  0.75000000  0.99102900  0.93128400  1
  O  O27  1  0.75000000  0.50897100  0.43128400  1
  O  O28  1  0.02384900  0.17492100  0.79847000  1
  O  O29  1  0.47615100  0.32507900  0.29847000  1
  O  O30  1  0.52384900  0.82507900  0.20153000  1
  O  O31  1  0.97615100  0.67492100  0.70153000  1
  O  O32  1  0.97615100  0.82507900  0.20153000  1
  O  O33  1  0.52384900  0.67492100  0.70153000  1
  O  O34  1  0.47615100  0.17492100  0.79847000  1
  O  O35  1  0.02384900  0.32507900  0.29847000  1
  O  O36  1  0.25000000  0.94841100  0.67715400  1
  O  O37  1  0.25000000  0.55158900  0.17715400  1
  O  O38  1  0.75000000  0.05158900  0.32284600  1
  O  O39  1  0.75000000  0.44841100  0.82284600  1
