# generated using pymatgen
data_Na3Ni2P2(CO7)2
_symmetry_space_group_name_H-M   'P 1'
_cell_length_a   10.22053296
_cell_length_b   10.45959669
_cell_length_c   8.32664535
_cell_angle_alpha   108.18935343
_cell_angle_beta   71.84340753
_cell_angle_gamma   60.03858212
_symmetry_Int_Tables_number   1
_chemical_formula_structural   Na3Ni2P2(CO7)2
_chemical_formula_sum   'Na6 Ni4 P4 C4 O28'
_cell_volume   602.98479357
_cell_formula_units_Z   2
loop_
 _symmetry_equiv_pos_site_id
 _symmetry_equiv_pos_as_xyz
  1  'x, y, z'
loop_
 _atom_site_type_symbol
 _atom_site_label
 _atom_site_symmetry_multiplicity
 _atom_site_fract_x
 _atom_site_fract_y
 _atom_site_fract_z
 _atom_site_occupancy
  Na  Na0  1  0.75627400  0.99462600  0.48620500  1
  Na  Na1  1  0.99894200  0.75391500  0.99802400  1
  Na  Na2  1  0.53106400  0.72496200  0.95642300  1
  Na  Na3  1  0.46893600  0.27503800  0.04357700  1
  Na  Na4  1  0.00105800  0.24608500  0.00197600  1
  Na  Na5  1  0.24372600  0.00537400  0.51379500  1
  Ni  Ni6  1  0.84542600  0.80655300  0.74510600  1
  Ni  Ni7  1  0.65605300  0.69048200  0.25378900  1
  Ni  Ni8  1  0.34394700  0.30951800  0.74621100  1
  Ni  Ni9  1  0.15457400  0.19344700  0.25489400  1
  P  P10  1  0.47643500  0.95131800  0.75293500  1
  P  P11  1  0.98154300  0.44378500  0.74875500  1
  P  P12  1  0.01845700  0.55621500  0.25124500  1
  P  P13  1  0.52356500  0.04868200  0.24706500  1
  C  C14  1  0.94143600  0.98275800  0.75525100  1
  C  C15  1  0.55317100  0.52376200  0.25655900  1
  C  C16  1  0.44682900  0.47623800  0.74344100  1
  C  C17  1  0.05856400  0.01724200  0.24474900  1
  O  O18  1  0.00965900  0.92836200  0.24123900  1
  O  O19  1  0.70471500  0.96920700  0.06073400  1
  O  O20  1  0.97965800  0.59102800  0.74780700  1
  O  O21  1  0.85589900  0.68161100  0.24172200  1
  O  O22  1  0.64016300  0.82385300  0.75706300  1
  O  O23  1  0.51973600  0.90119300  0.24138300  1
  O  O24  1  0.48273000  0.85280500  0.56540900  1
  O  O25  1  0.80084600  0.52194800  0.93625900  1
  O  O26  1  0.99954600  0.32481700  0.56246400  1
  O  O27  1  0.20304800  0.97248900  0.24384600  1
  O  O28  1  0.69456400  0.48170000  0.26001500  1
  O  O29  1  0.46655900  0.66755200  0.25860700  1
  O  O30  1  0.97154200  0.16151000  0.25060600  1
  O  O31  1  0.49293700  0.56647100  0.75077700  1
  O  O32  1  0.50706300  0.43352900  0.24922300  1
  O  O33  1  0.02845800  0.83849000  0.74939400  1
  O  O34  1  0.53344100  0.33244800  0.74139300  1
  O  O35  1  0.30543600  0.51830000  0.73998500  1
  O  O36  1  0.79695200  0.02751100  0.75615400  1
  O  O37  1  0.00045400  0.67518300  0.43753600  1
  O  O38  1  0.19915400  0.47805200  0.06374100  1
  O  O39  1  0.51727000  0.14719500  0.43459100  1
  O  O40  1  0.48026400  0.09880700  0.75861700  1
  O  O41  1  0.35983700  0.17614700  0.24293700  1
  O  O42  1  0.14410100  0.31838900  0.75827800  1
  O  O43  1  0.02034200  0.40897200  0.25219300  1
  O  O44  1  0.29528500  0.03079300  0.93926600  1
  O  O45  1  0.99034100  0.07163800  0.75876100  1
