# generated using pymatgen
data_V9PO25
_symmetry_space_group_name_H-M   'P 1'
_cell_length_a   10.86291824
_cell_length_b   10.86291824
_cell_length_c   10.86291824
_cell_angle_alpha   91.60134651
_cell_angle_beta   91.60134651
_cell_angle_gamma   160.75360094
_symmetry_Int_Tables_number   1
_chemical_formula_structural   V9PO25
_chemical_formula_sum   'V9 P1 O25'
_cell_volume   416.59435331
_cell_formula_units_Z   1
loop_
 _symmetry_equiv_pos_site_id
 _symmetry_equiv_pos_as_xyz
  1  'x, y, z'
loop_
 _atom_site_type_symbol
 _atom_site_label
 _atom_site_symmetry_multiplicity
 _atom_site_fract_x
 _atom_site_fract_y
 _atom_site_fract_z
 _atom_site_occupancy
  V  V0  1  0.00000000  0.00000000  0.00000000  1
  V  V1  1  0.11474600  0.78805600  0.89936700  1
  V  V2  1  0.89861700  0.68044300  0.55171800  1
  V  V3  1  0.65310100  0.10138300  0.78182600  1
  V  V4  1  0.21194400  0.11131100  0.32669000  1
  V  V5  1  0.78462100  0.88525400  0.67331000  1
  V  V6  1  0.31955700  0.87127400  0.21817400  1
  V  V7  1  0.12872600  0.34689900  0.44828200  1
  V  V8  1  0.88868900  0.21537900  0.10063300  1
  P  P9  1  0.75000000  0.25000000  0.50000000  1
  O  O10  1  0.50000000  0.50000000  0.00000000  1
  O  O11  1  0.05517800  0.88615900  0.93974900  1
  O  O12  1  0.81202000  0.77177600  0.60293400  1
  O  O13  1  0.61381500  0.25758800  0.85798700  1
  O  O14  1  0.98754900  0.72588900  0.69885200  1
  O  O15  1  0.79091400  0.18798000  0.95975700  1
  O  O16  1  0.16262200  0.65388300  0.80332400  1
  O  O17  1  0.34611700  0.14944100  0.50873900  1
  O  O18  1  0.74241200  0.60039900  0.35622800  1
  O  O19  1  0.57038000  0.09232700  0.61990700  1
  O  O20  1  0.11384100  0.05359000  0.16901900  1
  O  O21  1  0.90767300  0.52758000  0.47805300  1
  O  O22  1  0.71130400  0.01245100  0.73834100  1
  O  O23  1  0.27411100  0.97296300  0.26165900  1
  O  O24  1  0.04952700  0.42962000  0.52194700  1
  O  O25  1  0.88457100  0.94482200  0.83098100  1
  O  O26  1  0.47242000  0.95047300  0.38009300  1
  O  O27  1  0.24417100  0.38618500  0.64377200  1
  O  O28  1  0.64070200  0.83737800  0.49126100  1
  O  O29  1  0.85055900  0.35929800  0.19667600  1
  O  O30  1  0.22822400  0.83115800  0.04024300  1
  O  O31  1  0.02703700  0.28869600  0.30114800  1
  O  O32  1  0.39960100  0.75582900  0.14201300  1
  O  O33  1  0.16884200  0.20908600  0.39706600  1
  O  O34  1  0.94641000  0.11542900  0.06025100  1
