# generated using pymatgen
data_NaVPCO7
_symmetry_space_group_name_H-M   'P 1'
_cell_length_a   5.47356127
_cell_length_b   6.43346800
_cell_length_c   17.34186839
_cell_angle_alpha   90.00000661
_cell_angle_beta   88.12850074
_cell_angle_gamma   90.00000000
_symmetry_Int_Tables_number   1
_chemical_formula_structural   NaVPCO7
_chemical_formula_sum   'Na4 V4 P4 C4 O28'
_cell_volume   610.35048479
_cell_formula_units_Z   4
loop_
 _symmetry_equiv_pos_site_id
 _symmetry_equiv_pos_as_xyz
  1  'x, y, z'
loop_
 _atom_site_type_symbol
 _atom_site_label
 _atom_site_symmetry_multiplicity
 _atom_site_fract_x
 _atom_site_fract_y
 _atom_site_fract_z
 _atom_site_occupancy
  Na  Na0  1  0.77769400  0.25000100  0.03893700  1
  Na  Na1  1  0.77792000  0.25000200  0.53892300  1
  Na  Na2  1  0.22232700  0.74999900  0.46105600  1
  Na  Na3  1  0.22206500  0.74999700  0.96108000  1
  V  V4  1  0.77313100  0.75000100  0.66915600  1
  V  V5  1  0.22696200  0.24999800  0.83084300  1
  V  V6  1  0.77306700  0.75000100  0.16918700  1
  V  V7  1  0.22689500  0.24999900  0.33078600  1
  P  P8  1  0.73919100  0.25000000  0.21712400  1
  P  P9  1  0.73926800  0.25000000  0.71713300  1
  P  P10  1  0.26079000  0.75000000  0.28285900  1
  P  P11  1  0.26075800  0.75000000  0.78289900  1
  C  C12  1  0.69757400  0.75000100  0.03061900  1
  C  C13  1  0.69781600  0.75000100  0.53047900  1
  C  C14  1  0.30242500  0.24999800  0.46936000  1
  C  C15  1  0.30222000  0.25000000  0.96953100  1
  O  O16  1  0.34416700  0.24999900  0.03938100  1
  O  O17  1  0.34455700  0.24999800  0.53926800  1
  O  O18  1  0.65584200  0.75000100  0.46063100  1
  O  O19  1  0.65543200  0.75000200  0.96071500  1
  O  O20  1  0.91990600  0.75000100  0.05981700  1
  O  O21  1  0.92008800  0.75000200  0.55974200  1
  O  O22  1  0.08008700  0.25000000  0.44016500  1
  O  O23  1  0.07995400  0.25000300  0.94025800  1
  O  O24  1  0.52756900  0.74999900  0.08699100  1
  O  O25  1  0.52771900  0.75000100  0.58686300  1
  O  O26  1  0.47242800  0.24999800  0.41299300  1
  O  O27  1  0.47233900  0.24999900  0.91315100  1
  O  O28  1  0.07324800  0.75000100  0.21779300  1
  O  O29  1  0.07284100  0.75000200  0.71790100  1
  O  O30  1  0.92672300  0.24999900  0.28219300  1
  O  O31  1  0.92710000  0.24999700  0.78213800  1
  O  O32  1  0.47921100  0.25000000  0.25479400  1
  O  O33  1  0.47953100  0.24999900  0.75492500  1
  O  O34  1  0.52076700  0.75000000  0.24518600  1
  O  O35  1  0.52043400  0.75000200  0.74509100  1
  O  O36  1  0.77553900  0.05969000  0.16398700  1
  O  O37  1  0.77544900  0.05970300  0.66398300  1
  O  O38  1  0.77554100  0.44031100  0.16398700  1
  O  O39  1  0.77545200  0.44029900  0.66398400  1
  O  O40  1  0.22446000  0.55968900  0.33599700  1
  O  O41  1  0.22452700  0.55969400  0.83604700  1
  O  O42  1  0.22446000  0.94031000  0.33599700  1
  O  O43  1  0.22452800  0.94030300  0.83604900  1
