# generated using pymatgen
data_V3(PO4)2
_symmetry_space_group_name_H-M   'P 1'
_cell_length_a   5.31914231
_cell_length_b   8.53655057
_cell_length_c   7.83850910
_cell_angle_alpha   89.70605000
_cell_angle_beta   88.96909999
_cell_angle_gamma   90.06236934
_symmetry_Int_Tables_number   1
_chemical_formula_structural   V3(PO4)2
_chemical_formula_sum   'V6 P4 O16'
_cell_volume   355.86163842
_cell_formula_units_Z   2
loop_
 _symmetry_equiv_pos_site_id
 _symmetry_equiv_pos_as_xyz
  1  'x, y, z'
loop_
 _atom_site_type_symbol
 _atom_site_label
 _atom_site_symmetry_multiplicity
 _atom_site_fract_x
 _atom_site_fract_y
 _atom_site_fract_z
 _atom_site_occupancy
  V  V0  1  0.00058100  0.99891600  0.99993000  1
  V  V1  1  0.49919800  0.49992300  0.50031200  1
  V  V2  1  0.89184700  0.35783800  0.11386800  1
  V  V3  1  0.10815800  0.64336900  0.88625600  1
  V  V4  1  0.39072700  0.14416100  0.61360200  1
  V  V5  1  0.60885800  0.85571200  0.38573000  1
  P  P6  1  0.03678800  0.69651400  0.30085900  1
  P  P7  1  0.46351100  0.19672800  0.19964900  1
  P  P8  1  0.53657000  0.80322000  0.79983800  1
  P  P9  1  0.96306800  0.30350000  0.69957700  1
  O  O10  1  0.04408900  0.58358300  0.14660600  1
  O  O11  1  0.45683100  0.08269500  0.35459400  1
  O  O12  1  0.54296000  0.91721700  0.64500300  1
  O  O13  1  0.95693500  0.41706000  0.85334600  1
  O  O14  1  0.04199500  0.13542000  0.75962400  1
  O  O15  1  0.45740700  0.63523900  0.74080800  1
  O  O16  1  0.54215800  0.36482800  0.25905700  1
  O  O17  1  0.95814900  0.86466500  0.24089700  1
  O  O18  1  0.20471000  0.19856300  0.11349200  1
  O  O19  1  0.29494800  0.69858000  0.38714900  1
  O  O20  1  0.70454900  0.30149300  0.61366300  1
  O  O21  1  0.79511600  0.80098900  0.88597600  1
  O  O22  1  0.17471700  0.35341000  0.57036500  1
  O  O23  1  0.32500100  0.85263100  0.92867700  1
  O  O24  1  0.67642500  0.14747500  0.07163400  1
  O  O25  1  0.82470400  0.64627000  0.42949100  1
