# generated using pymatgen
data_KCe2FeO5
_symmetry_space_group_name_H-M   'P 1'
_cell_length_a   5.95898100
_cell_length_b   9.20004900
_cell_length_c   11.04157100
_cell_angle_alpha   90.00000000
_cell_angle_beta   90.00000000
_cell_angle_gamma   90.00000000
_symmetry_Int_Tables_number   1
_chemical_formula_structural   KCe2FeO5
_chemical_formula_sum   'K4 Ce8 Fe4 O20'
_cell_volume   605.33113258
_cell_formula_units_Z   4
loop_
 _symmetry_equiv_pos_site_id
 _symmetry_equiv_pos_as_xyz
  1  'x, y, z'
loop_
 _atom_site_type_symbol
 _atom_site_label
 _atom_site_symmetry_multiplicity
 _atom_site_fract_x
 _atom_site_fract_y
 _atom_site_fract_z
 _atom_site_occupancy
  K  K0  1  0.24771300  0.00330400  0.35352300  1
  K  K1  1  0.24771300  0.49669600  0.85352300  1
  K  K2  1  0.74771300  0.99669600  0.64647700  1
  K  K3  1  0.74771300  0.50330400  0.14647700  1
  Ce  Ce4  1  0.23018300  0.28798700  0.14126700  1
  Ce  Ce5  1  0.23018300  0.21201300  0.64126700  1
  Ce  Ce6  1  0.73018300  0.71201300  0.85873300  1
  Ce  Ce7  1  0.73018300  0.78798700  0.35873300  1
  Ce  Ce8  1  0.24516000  0.00096800  0.88541100  1
  Ce  Ce9  1  0.24516000  0.49903200  0.38541100  1
  Ce  Ce10  1  0.74516000  0.99903200  0.11458900  1
  Ce  Ce11  1  0.74516000  0.50096800  0.61458900  1
  Fe  Fe12  1  0.25489100  0.74495100  0.11236700  1
  Fe  Fe13  1  0.25489100  0.75504900  0.61236700  1
  Fe  Fe14  1  0.75489100  0.25504900  0.88763300  1
  Fe  Fe15  1  0.75489100  0.24495100  0.38763300  1
  O  O16  1  0.88412700  0.22180200  0.06077900  1
  O  O17  1  0.38412700  0.77819800  0.93922100  1
  O  O18  1  0.38412700  0.72180200  0.43922100  1
  O  O19  1  0.88412700  0.27819800  0.56077900  1
  O  O20  1  0.38101900  0.07681900  0.07080800  1
  O  O21  1  0.38101900  0.42318100  0.57080800  1
  O  O22  1  0.88101900  0.92318100  0.92919200  1
  O  O23  1  0.88101900  0.57681900  0.42919200  1
  O  O24  1  0.04623600  0.19864000  0.80931800  1
  O  O25  1  0.49935600  0.33510500  0.29454100  1
  O  O26  1  0.54623600  0.80136000  0.19068200  1
  O  O27  1  0.99935600  0.66489500  0.70545900  1
  O  O28  1  0.99935600  0.83510500  0.20545900  1
  O  O29  1  0.54623600  0.69864000  0.69068200  1
  O  O30  1  0.49935600  0.16489500  0.79454100  1
  O  O31  1  0.04623600  0.30136000  0.30931800  1
  O  O32  1  0.21921700  0.97722300  0.62914000  1
  O  O33  1  0.21921700  0.52277700  0.12914000  1
  O  O34  1  0.71921700  0.02277700  0.37086000  1
  O  O35  1  0.71921700  0.47722300  0.87086000  1
