# generated using pymatgen
data_Na3VPCO7
_symmetry_space_group_name_H-M   'P 1'
_cell_length_a   8.97978138
_cell_length_b   5.29329703
_cell_length_c   6.83034000
_cell_angle_alpha   89.99979180
_cell_angle_beta   90.00027151
_cell_angle_gamma   87.98622897
_symmetry_Int_Tables_number   1
_chemical_formula_structural   Na3VPCO7
_chemical_formula_sum   'Na6 V2 P2 C2 O14'
_cell_volume   324.46365195
_cell_formula_units_Z   2
loop_
 _symmetry_equiv_pos_site_id
 _symmetry_equiv_pos_as_xyz
  1  'x, y, z'
loop_
 _atom_site_type_symbol
 _atom_site_label
 _atom_site_symmetry_multiplicity
 _atom_site_fract_x
 _atom_site_fract_y
 _atom_site_fract_z
 _atom_site_occupancy
  Na  Na0  1  0.08400800  0.77642800  0.24999200  1
  Na  Na1  1  0.27443400  0.25843400  0.48921600  1
  Na  Na2  1  0.27443500  0.25842000  0.01077900  1
  Na  Na3  1  0.72546600  0.74157200  0.98921700  1
  Na  Na4  1  0.72546900  0.74157800  0.51076800  1
  Na  Na5  1  0.91591200  0.22352400  0.75001000  1
  V  V6  1  0.34369300  0.77883400  0.74999400  1
  V  V7  1  0.65660800  0.22105400  0.25005500  1
  P  P8  1  0.41349800  0.71774600  0.25000200  1
  P  P9  1  0.58645200  0.28226500  0.75001200  1
  C  C10  1  0.05721000  0.70653700  0.74999500  1
  C  C11  1  0.94281500  0.29348100  0.24999500  1
  O  O12  1  0.11227500  0.93182200  0.75000000  1
  O  O13  1  0.08465800  0.32347300  0.24999800  1
  O  O14  1  0.15212000  0.51227700  0.74997000  1
  O  O15  1  0.31728000  0.79477100  0.06793700  1
  O  O16  1  0.31728200  0.79477100  0.43206300  1
  O  O17  1  0.43487400  0.15111000  0.74999800  1
  O  O18  1  0.44269600  0.42495400  0.25000100  1
  O  O19  1  0.55742500  0.57512800  0.74999700  1
  O  O20  1  0.56503500  0.84895900  0.25000400  1
  O  O21  1  0.68268100  0.20522800  0.56795800  1
  O  O22  1  0.68267900  0.20522900  0.93206200  1
  O  O23  1  0.84789100  0.48769100  0.24997300  1
  O  O24  1  0.91535500  0.67653700  0.74999800  1
  O  O25  1  0.88775100  0.06817900  0.25000400  1
