# generated using pymatgen
data_GdTa3O9
_symmetry_space_group_name_H-M   'P 1'
_cell_length_a   7.35447803
_cell_length_b   7.35447803
_cell_length_c   6.55455675
_cell_angle_alpha   86.14826282
_cell_angle_beta   86.14826282
_cell_angle_gamma   62.56645220
_symmetry_Int_Tables_number   1
_chemical_formula_structural   GdTa3O9
_chemical_formula_sum   'Gd2 Ta6 O18'
_cell_volume   313.68374411
_cell_formula_units_Z   2
loop_
 _symmetry_equiv_pos_site_id
 _symmetry_equiv_pos_as_xyz
  1  'x, y, z'
loop_
 _atom_site_type_symbol
 _atom_site_label
 _atom_site_symmetry_multiplicity
 _atom_site_fract_x
 _atom_site_fract_y
 _atom_site_fract_z
 _atom_site_occupancy
  Gd  Gd0  1  0.73178000  0.73178000  0.94598500  1
  Gd  Gd1  1  0.26822000  0.26822000  0.05401500  1
  Ta  Ta2  1  0.00000000  0.50000000  0.50000000  1
  Ta  Ta3  1  0.78301100  0.28600700  0.23605700  1
  Ta  Ta4  1  0.28600700  0.78301100  0.23605700  1
  Ta  Ta5  1  0.71399300  0.21698900  0.76394300  1
  Ta  Ta6  1  0.21698900  0.71399300  0.76394300  1
  Ta  Ta7  1  0.50000000  0.00000000  0.50000000  1
  O  O8  1  0.92616900  0.92616900  0.80999300  1
  O  O9  1  0.72960900  0.72960900  0.58379000  1
  O  O10  1  0.49934300  0.91908300  0.21765800  1
  O  O11  1  0.91908300  0.49934300  0.21765800  1
  O  O12  1  0.37326200  0.80793600  0.93020800  1
  O  O13  1  0.80793600  0.37326200  0.93020800  1
  O  O14  1  0.30511300  0.87784100  0.54549900  1
  O  O15  1  0.87784100  0.30511300  0.54549900  1
  O  O16  1  0.53964800  0.53964800  0.28250800  1
  O  O17  1  0.46035200  0.46035200  0.71749200  1
  O  O18  1  0.12215900  0.69488700  0.45450100  1
  O  O19  1  0.69488700  0.12215900  0.45450100  1
  O  O20  1  0.19206400  0.62673800  0.06979200  1
  O  O21  1  0.62673800  0.19206400  0.06979200  1
  O  O22  1  0.50065700  0.08091700  0.78234200  1
  O  O23  1  0.08091700  0.50065700  0.78234200  1
  O  O24  1  0.27039100  0.27039100  0.41621000  1
  O  O25  1  0.07383100  0.07383100  0.19000700  1
