# generated using pymatgen
data_Rb3FeO3
_symmetry_space_group_name_H-M   'P 1'
_cell_length_a   12.20823900
_cell_length_b   7.20855200
_cell_length_c   7.92239515
_cell_angle_alpha   63.25944863
_cell_angle_beta   90.00000000
_cell_angle_gamma   90.00000000
_symmetry_Int_Tables_number   1
_chemical_formula_structural   Rb3FeO3
_chemical_formula_sum   'Rb12 Fe4 O12'
_cell_volume   622.63691949
_cell_formula_units_Z   4
loop_
 _symmetry_equiv_pos_site_id
 _symmetry_equiv_pos_as_xyz
  1  'x, y, z'
loop_
 _atom_site_type_symbol
 _atom_site_label
 _atom_site_symmetry_multiplicity
 _atom_site_fract_x
 _atom_site_fract_y
 _atom_site_fract_z
 _atom_site_occupancy
  Rb  Rb0  1  0.93949600  0.51976000  0.26958400  1
  Rb  Rb1  1  0.65532000  0.43388000  0.48212000  1
  Rb  Rb2  1  0.19290200  0.63288100  0.07300300  1
  Rb  Rb3  1  0.56050400  0.01976000  0.26958400  1
  Rb  Rb4  1  0.84468000  0.93388000  0.48212000  1
  Rb  Rb5  1  0.30709800  0.13288100  0.07300300  1
  Rb  Rb6  1  0.80709800  0.36711900  0.92699700  1
  Rb  Rb7  1  0.34468000  0.56612000  0.51788000  1
  Rb  Rb8  1  0.06050400  0.48024000  0.73041600  1
  Rb  Rb9  1  0.69290200  0.86711900  0.92699700  1
  Rb  Rb10  1  0.15532000  0.06612000  0.51788000  1
  Rb  Rb11  1  0.43949600  0.98024000  0.73041600  1
  Fe  Fe12  1  0.45173800  0.50863700  0.15341600  1
  Fe  Fe13  1  0.04826200  0.00863700  0.15341600  1
  Fe  Fe14  1  0.54826200  0.49136300  0.84658400  1
  Fe  Fe15  1  0.95173800  0.99136300  0.84658400  1
  O  O16  1  0.60415100  0.45493100  0.09851100  1
  O  O17  1  0.88386700  0.22163900  0.64797500  1
  O  O18  1  0.89584900  0.95493100  0.09851100  1
  O  O19  1  0.61613300  0.72163900  0.64797500  1
  O  O20  1  0.56342300  0.24300800  0.82966400  1
  O  O21  1  0.93657700  0.74300800  0.82966400  1
  O  O22  1  0.43657700  0.75699200  0.17033600  1
  O  O23  1  0.06342300  0.25699200  0.17033600  1
  O  O24  1  0.11613300  0.77836100  0.35202500  1
  O  O25  1  0.39584900  0.54506900  0.90148900  1
  O  O26  1  0.38386700  0.27836100  0.35202500  1
  O  O27  1  0.10415100  0.04506900  0.90148900  1
