# generated using pymatgen
data_Cd(CoO2)2
_symmetry_space_group_name_H-M   'P 1'
_cell_length_a   5.06679300
_cell_length_b   5.90934957
_cell_length_c   11.01085128
_cell_angle_alpha   89.07548370
_cell_angle_beta   89.91991697
_cell_angle_gamma   89.28698270
_symmetry_Int_Tables_number   1
_chemical_formula_structural   Cd(CoO2)2
_chemical_formula_sum   'Cd4 Co8 O16'
_cell_volume   329.61218609
_cell_formula_units_Z   4
loop_
 _symmetry_equiv_pos_site_id
 _symmetry_equiv_pos_as_xyz
  1  'x, y, z'
loop_
 _atom_site_type_symbol
 _atom_site_label
 _atom_site_symmetry_multiplicity
 _atom_site_fract_x
 _atom_site_fract_y
 _atom_site_fract_z
 _atom_site_occupancy
  Cd  Cd0  1  0.97446300  0.25871200  0.24967400  1
  Cd  Cd1  1  0.64531800  0.24642600  0.74998900  1
  Cd  Cd2  1  0.35602900  0.75208100  0.24990700  1
  Cd  Cd3  1  0.02716400  0.74121400  0.75027800  1
  Co  Co4  1  0.99103500  0.75358900  0.01175200  1
  Co  Co5  1  0.00739200  0.24735200  0.98861200  1
  Co  Co6  1  0.99242200  0.74857600  0.48955200  1
  Co  Co7  1  0.00805000  0.24805300  0.51054000  1
  Co  Co8  1  0.49957100  0.99976700  0.99992500  1
  Co  Co9  1  0.50223500  0.99935000  0.50557200  1
  Co  Co10  1  0.49934000  0.49953200  0.99973900  1
  Co  Co11  1  0.49802800  0.49982600  0.49519100  1
  O  O12  1  0.83594000  0.97742700  0.90002600  1
  O  O13  1  0.82174800  0.99782800  0.61424400  1
  O  O14  1  0.84877900  0.50246000  0.59409700  1
  O  O15  1  0.83397300  0.48040900  0.88967900  1
  O  O16  1  0.66768400  0.74395200  0.09674600  1
  O  O17  1  0.66848600  0.75669700  0.40316100  1
  O  O18  1  0.68680500  0.24927200  0.08500200  1
  O  O19  1  0.68679400  0.25131100  0.41402500  1
  O  O20  1  0.31466600  0.74495000  0.58655500  1
  O  O21  1  0.31304700  0.75249800  0.91387500  1
  O  O22  1  0.33108100  0.25032700  0.59717100  1
  O  O23  1  0.33135900  0.25509400  0.90277500  1
  O  O24  1  0.16631000  0.02058200  0.10306400  1
  O  O25  1  0.15285400  0.00400900  0.40557900  1
  O  O26  1  0.16263100  0.51783000  0.10559600  1
  O  O27  1  0.17679600  0.50087600  0.38767300  1
