# generated using pymatgen
data_V2SiO4
_symmetry_space_group_name_H-M   'P 1'
_cell_length_a   5.90727825
_cell_length_b   5.90648164
_cell_length_c   5.86131522
_cell_angle_alpha   60.17626245
_cell_angle_beta   60.18881747
_cell_angle_gamma   60.66772216
_symmetry_Int_Tables_number   1
_chemical_formula_structural   V2SiO4
_chemical_formula_sum   'V4 Si2 O8'
_cell_volume   145.72868470
_cell_formula_units_Z   2
loop_
 _symmetry_equiv_pos_site_id
 _symmetry_equiv_pos_as_xyz
  1  'x, y, z'
loop_
 _atom_site_type_symbol
 _atom_site_label
 _atom_site_symmetry_multiplicity
 _atom_site_fract_x
 _atom_site_fract_y
 _atom_site_fract_z
 _atom_site_occupancy
  V  V0  1  0.49998000  0.00001500  0.50000300  1
  V  V1  1  0.50006100  0.49995400  0.00005100  1
  V  V2  1  0.99995900  0.50002100  0.49998400  1
  V  V3  1  0.50000000  0.49999600  0.49999400  1
  Si  Si4  1  0.12463400  0.12438700  0.12550600  1
  Si  Si5  1  0.87538900  0.87561100  0.87447500  1
  O  O6  1  0.24002600  0.23998400  0.24135600  1
  O  O7  1  0.78107500  0.24011400  0.23895500  1
  O  O8  1  0.24014300  0.78065600  0.23915300  1
  O  O9  1  0.24014900  0.24024400  0.77834700  1
  O  O10  1  0.75984200  0.21934300  0.76085100  1
  O  O11  1  0.75983700  0.75977200  0.22163700  1
  O  O12  1  0.21894500  0.75987500  0.76104300  1
  O  O13  1  0.75996100  0.76002800  0.75864600  1
