# generated using pymatgen
data_Sc2InAu
_symmetry_space_group_name_H-M   'P 1'
_cell_length_a   11.48433884
_cell_length_b   11.48433884
_cell_length_c   11.48433884
_cell_angle_alpha   121.97593760
_cell_angle_beta   120.21372086
_cell_angle_gamma   88.12093640
_symmetry_Int_Tables_number   1
_chemical_formula_structural   Sc2InAu
_chemical_formula_sum   'Sc2 In1 Au1'
_cell_volume   1052.37067212
_cell_formula_units_Z   1
loop_
 _symmetry_equiv_pos_site_id
 _symmetry_equiv_pos_as_xyz
  1  'x, y, z'
loop_
 _atom_site_type_symbol
 _atom_site_label
 _atom_site_symmetry_multiplicity
 _atom_site_fract_x
 _atom_site_fract_y
 _atom_site_fract_z
 _atom_site_occupancy
  Sc  Sc0  1  0.00000000  0.25984700  0.25984700  1
  Sc  Sc1  1  0.00000000  0.74015300  0.74015300  1
  In  In2  1  0.00000000  0.00000000  0.00000000  1
  Au  Au3  1  0.00000000  0.50000000  0.50000000  1
