# generated using pymatgen
data_Mg2Mn3O8
_symmetry_space_group_name_H-M   'P 1'
_cell_length_a   6.44330555
_cell_length_b   6.44330555
_cell_length_c   8.41461100
_cell_angle_alpha   90.00000000
_cell_angle_beta   90.00000000
_cell_angle_gamma   125.84682390
_symmetry_Int_Tables_number   1
_chemical_formula_structural   Mg2Mn3O8
_chemical_formula_sum   'Mg4 Mn6 O16'
_cell_volume   283.17201356
_cell_formula_units_Z   2
loop_
 _symmetry_equiv_pos_site_id
 _symmetry_equiv_pos_as_xyz
  1  'x, y, z'
loop_
 _atom_site_type_symbol
 _atom_site_label
 _atom_site_symmetry_multiplicity
 _atom_site_fract_x
 _atom_site_fract_y
 _atom_site_fract_z
 _atom_site_occupancy
  Mg  Mg0  1  0.85881600  0.14118400  0.60615700  1
  Mg  Mg1  1  0.64118400  0.35881600  0.10615700  1
  Mg  Mg2  1  0.35881600  0.64118400  0.89384300  1
  Mg  Mg3  1  0.14118400  0.85881600  0.39384300  1
  Mn  Mn4  1  0.12720000  0.37280000  0.25000000  1
  Mn  Mn5  1  0.37280000  0.12720000  0.75000000  1
  Mn  Mn6  1  0.00000000  0.00000000  0.00000000  1
  Mn  Mn7  1  0.50000000  0.50000000  0.50000000  1
  Mn  Mn8  1  0.87280000  0.62720000  0.75000000  1
  Mn  Mn9  1  0.62720000  0.87280000  0.25000000  1
  O  O10  1  0.38359700  0.15399700  0.52556200  1
  O  O11  1  0.15399700  0.38359700  0.47443800  1
  O  O12  1  0.34600300  0.11640300  0.97443800  1
  O  O13  1  0.11640300  0.34600300  0.02556200  1
  O  O14  1  0.00253800  0.99746200  0.76435400  1
  O  O15  1  0.72909500  0.27090500  0.76220400  1
  O  O16  1  0.77090500  0.22909500  0.26220400  1
  O  O17  1  0.22909500  0.77090500  0.73779600  1
  O  O18  1  0.99746200  0.00253800  0.23564600  1
  O  O19  1  0.49746200  0.50253800  0.26435400  1
  O  O20  1  0.27090500  0.72909500  0.23779600  1
  O  O21  1  0.50253800  0.49746200  0.73564600  1
  O  O22  1  0.88359700  0.65399700  0.97443800  1
  O  O23  1  0.65399700  0.88359700  0.02556200  1
  O  O24  1  0.84600300  0.61640300  0.52556200  1
  O  O25  1  0.61640300  0.84600300  0.47443800  1
