# generated using pymatgen
data_Al2FeTc
_symmetry_space_group_name_H-M   'P 1'
_cell_length_a   10.60091690
_cell_length_b   10.60091690
_cell_length_c   10.60091690
_cell_angle_alpha   124.27939190
_cell_angle_beta   119.89315730
_cell_angle_gamma   86.46759281
_symmetry_Int_Tables_number   1
_chemical_formula_structural   Al2FeTc
_chemical_formula_sum   'Al2 Fe1 Tc1'
_cell_volume   812.53294400
_cell_formula_units_Z   1
loop_
 _symmetry_equiv_pos_site_id
 _symmetry_equiv_pos_as_xyz
  1  'x, y, z'
loop_
 _atom_site_type_symbol
 _atom_site_label
 _atom_site_symmetry_multiplicity
 _atom_site_fract_x
 _atom_site_fract_y
 _atom_site_fract_z
 _atom_site_occupancy
  Al  Al0  1  0.00000000  0.25098100  0.25098100  1
  Al  Al1  1  0.00000000  0.74901900  0.74901900  1
  Fe  Fe2  1  0.00000000  0.00000000  0.00000000  1
  Tc  Tc3  1  0.00000000  0.50000000  0.50000000  1
