# generated using pymatgen
data_Mg2Mn3O8
_symmetry_space_group_name_H-M   'P 1'
_cell_length_a   4.98360600
_cell_length_b   5.87326700
_cell_length_c   9.49624000
_cell_angle_alpha   90.00000000
_cell_angle_beta   90.00000000
_cell_angle_gamma   90.00000000
_symmetry_Int_Tables_number   1
_chemical_formula_structural   Mg2Mn3O8
_chemical_formula_sum   'Mg4 Mn6 O16'
_cell_volume   277.95540689
_cell_formula_units_Z   2
loop_
 _symmetry_equiv_pos_site_id
 _symmetry_equiv_pos_as_xyz
  1  'x, y, z'
loop_
 _atom_site_type_symbol
 _atom_site_label
 _atom_site_symmetry_multiplicity
 _atom_site_fract_x
 _atom_site_fract_y
 _atom_site_fract_z
 _atom_site_occupancy
  Mg  Mg0  1  0.82363700  0.50000000  0.21879800  1
  Mg  Mg1  1  0.83694500  0.50000000  0.81844700  1
  Mg  Mg2  1  0.16305500  0.00000000  0.31844700  1
  Mg  Mg3  1  0.17636300  0.00000000  0.71879800  1
  Mn  Mn4  1  0.17208600  0.50000000  0.49720500  1
  Mn  Mn5  1  0.33601900  0.74117100  0.00048100  1
  Mn  Mn6  1  0.66398100  0.75882900  0.50048100  1
  Mn  Mn7  1  0.82791400  0.00000000  0.99720500  1
  Mn  Mn8  1  0.66398100  0.24117100  0.50048100  1
  Mn  Mn9  1  0.33601900  0.25882900  0.00048100  1
  O  O10  1  0.18867900  0.50000000  0.10745500  1
  O  O11  1  0.83959300  0.50000000  0.60653000  1
  O  O12  1  0.50494600  0.50000000  0.39164700  1
  O  O13  1  0.46203100  0.50000000  0.88719900  1
  O  O14  1  0.98000200  0.72007000  0.37994800  1
  O  O15  1  0.34027900  0.73693900  0.60302200  1
  O  O16  1  0.65972100  0.76306100  0.10302200  1
  O  O17  1  0.01999800  0.77993000  0.87994800  1
  O  O18  1  0.16040700  0.00000000  0.10653000  1
  O  O19  1  0.49505400  0.00000000  0.89164700  1
  O  O20  1  0.81132100  0.00000000  0.60745500  1
  O  O21  1  0.53796900  0.00000000  0.38719900  1
  O  O22  1  0.01999800  0.22007000  0.87994800  1
  O  O23  1  0.65972100  0.23693900  0.10302200  1
  O  O24  1  0.34027900  0.26306100  0.60302200  1
  O  O25  1  0.98000200  0.27993000  0.37994800  1
