# generated using pymatgen
data_V5BO9
_symmetry_space_group_name_H-M   'P 1'
_cell_length_a   8.57013287
_cell_length_b   8.57013287
_cell_length_c   8.35833700
_cell_angle_alpha   90.00000000
_cell_angle_beta   90.00000000
_cell_angle_gamma   137.90286375
_symmetry_Int_Tables_number   1
_chemical_formula_structural   V5BO9
_chemical_formula_sum   'V10 B2 O18'
_cell_volume   411.54962743
_cell_formula_units_Z   2
loop_
 _symmetry_equiv_pos_site_id
 _symmetry_equiv_pos_as_xyz
  1  'x, y, z'
loop_
 _atom_site_type_symbol
 _atom_site_label
 _atom_site_symmetry_multiplicity
 _atom_site_fract_x
 _atom_site_fract_y
 _atom_site_fract_z
 _atom_site_occupancy
  V  V0  1  0.36007100  0.13608700  0.49677700  1
  V  V1  1  0.69916100  0.30083900  0.83084600  1
  V  V2  1  0.74606600  0.25393400  0.17992700  1
  V  V3  1  0.55805700  0.44194300  0.19494000  1
  V  V4  1  0.86391300  0.63992900  0.49677700  1
  V  V5  1  0.13608700  0.36007100  0.99677700  1
  V  V6  1  0.44194300  0.55805700  0.69494000  1
  V  V7  1  0.30083900  0.69916100  0.33084600  1
  V  V8  1  0.25393400  0.74606600  0.67992700  1
  V  V9  1  0.63992900  0.86391300  0.99677700  1
  B  B10  1  0.98447900  0.01552100  0.72433100  1
  B  B11  1  0.01552100  0.98447900  0.22433100  1
  O  O12  1  0.24325500  0.14903100  0.28600000  1
  O  O13  1  0.44694800  0.07145500  0.69476900  1
  O  O14  1  0.80770400  0.19229600  0.94329400  1
  O  O15  1  0.95843700  0.04156300  0.10369900  1
  O  O16  1  0.66403000  0.33597000  0.35975000  1
  O  O17  1  0.54480900  0.45519100  0.56947900  1
  O  O18  1  0.64685600  0.35314400  0.04091100  1
  O  O19  1  0.14903100  0.24325500  0.78600000  1
  O  O20  1  0.92854500  0.55305200  0.69476900  1
  O  O21  1  0.07145500  0.44694800  0.19476900  1
  O  O22  1  0.85096900  0.75674500  0.28600000  1
  O  O23  1  0.45519100  0.54480900  0.06947900  1
  O  O24  1  0.35314400  0.64685600  0.54091100  1
  O  O25  1  0.19229600  0.80770400  0.44329400  1
  O  O26  1  0.04156300  0.95843700  0.60369900  1
  O  O27  1  0.33597000  0.66403000  0.85975000  1
  O  O28  1  0.55305200  0.92854500  0.19476900  1
  O  O29  1  0.75674500  0.85096900  0.78600000  1
