# generated using pymatgen
data_Mn2PO5
_symmetry_space_group_name_H-M   'P 1'
_cell_length_a   6.55550400
_cell_length_b   7.47791200
_cell_length_c   7.83041600
_cell_angle_alpha   90.00000000
_cell_angle_beta   90.00000000
_cell_angle_gamma   90.00000000
_symmetry_Int_Tables_number   1
_chemical_formula_structural   Mn2PO5
_chemical_formula_sum   'Mn8 P4 O20'
_cell_volume   383.85859721
_cell_formula_units_Z   4
loop_
 _symmetry_equiv_pos_site_id
 _symmetry_equiv_pos_as_xyz
  1  'x, y, z'
loop_
 _atom_site_type_symbol
 _atom_site_label
 _atom_site_symmetry_multiplicity
 _atom_site_fract_x
 _atom_site_fract_y
 _atom_site_fract_z
 _atom_site_occupancy
  Mn  Mn0  1  0.00000000  0.00000000  0.00000000  1
  Mn  Mn1  1  0.50000000  0.00000000  0.00000000  1
  Mn  Mn2  1  0.25000000  0.14846100  0.70913400  1
  Mn  Mn3  1  0.75000000  0.35153900  0.20913400  1
  Mn  Mn4  1  0.00000000  0.50000000  0.50000000  1
  Mn  Mn5  1  0.50000000  0.50000000  0.50000000  1
  Mn  Mn6  1  0.25000000  0.64846100  0.79086600  1
  Mn  Mn7  1  0.75000000  0.85153900  0.29086600  1
  P  P8  1  0.75000000  0.12150500  0.64121900  1
  P  P9  1  0.25000000  0.37849500  0.14121900  1
  P  P10  1  0.75000000  0.62150500  0.85878100  1
  P  P11  1  0.25000000  0.87849500  0.35878100  1
  O  O12  1  0.25000000  0.04510200  0.46762300  1
  O  O13  1  0.75000000  0.09372500  0.13369300  1
  O  O14  1  0.94028900  0.12895000  0.76253400  1
  O  O15  1  0.55971100  0.12895000  0.76253400  1
  O  O16  1  0.25000000  0.20430500  0.02964500  1
  O  O17  1  0.75000000  0.29569500  0.52964500  1
  O  O18  1  0.05971100  0.37105000  0.26253400  1
  O  O19  1  0.44028900  0.37105000  0.26253400  1
  O  O20  1  0.25000000  0.40627500  0.63369300  1
  O  O21  1  0.75000000  0.45489800  0.96762300  1
  O  O22  1  0.25000000  0.54510200  0.03237700  1
  O  O23  1  0.75000000  0.59372500  0.36630700  1
  O  O24  1  0.55971100  0.62895000  0.73746600  1
  O  O25  1  0.94028900  0.62895000  0.73746600  1
  O  O26  1  0.25000000  0.70430500  0.47035500  1
  O  O27  1  0.75000000  0.79569500  0.97035500  1
  O  O28  1  0.05971100  0.87105000  0.23746600  1
  O  O29  1  0.44028900  0.87105000  0.23746600  1
  O  O30  1  0.25000000  0.90627500  0.86630700  1
  O  O31  1  0.75000000  0.95489800  0.53237700  1
