# generated using pymatgen
data_Mn2PO5
_symmetry_space_group_name_H-M   'P 1'
_cell_length_a   7.46380392
_cell_length_b   7.46380392
_cell_length_c   9.84456696
_cell_angle_alpha   62.29676522
_cell_angle_beta   62.29676522
_cell_angle_gamma   53.05140360
_symmetry_Int_Tables_number   1
_chemical_formula_structural   Mn2PO5
_chemical_formula_sum   'Mn8 P4 O20'
_cell_volume   374.48052371
_cell_formula_units_Z   4
loop_
 _symmetry_equiv_pos_site_id
 _symmetry_equiv_pos_as_xyz
  1  'x, y, z'
loop_
 _atom_site_type_symbol
 _atom_site_label
 _atom_site_symmetry_multiplicity
 _atom_site_fract_x
 _atom_site_fract_y
 _atom_site_fract_z
 _atom_site_occupancy
  Mn  Mn0  1  0.74443500  0.52783900  0.16563000  1
  Mn  Mn1  1  0.21638100  0.70344400  0.47844200  1
  Mn  Mn2  1  0.29655600  0.78361900  0.02155800  1
  Mn  Mn3  1  0.52783900  0.74443500  0.66563000  1
  Mn  Mn4  1  0.47216100  0.25556500  0.33437000  1
  Mn  Mn5  1  0.70344400  0.21638100  0.97844200  1
  Mn  Mn6  1  0.78361900  0.29655600  0.52155800  1
  Mn  Mn7  1  0.25556500  0.47216100  0.83437000  1
  P  P8  1  0.73128300  0.90451200  0.80934800  1
  P  P9  1  0.09548800  0.26871700  0.69065200  1
  P  P10  1  0.90451200  0.73128300  0.30934800  1
  P  P11  1  0.26871700  0.09548800  0.19065200  1
  O  O12  1  0.89422500  0.93426500  0.64173400  1
  O  O13  1  0.12899500  0.29301100  0.06690500  1
  O  O14  1  0.40676100  0.86107600  0.14762500  1
  O  O15  1  0.15289800  0.43675500  0.69232100  1
  O  O16  1  0.56324500  0.84710200  0.80767900  1
  O  O17  1  0.58257000  0.38915500  0.38515500  1
  O  O18  1  0.61084500  0.41743000  0.11484500  1
  O  O19  1  0.06573500  0.10577500  0.85826600  1
  O  O20  1  0.29301100  0.12899500  0.56690500  1
  O  O21  1  0.13892400  0.59323900  0.35237500  1
  O  O22  1  0.86107600  0.40676100  0.64762500  1
  O  O23  1  0.70698900  0.87100500  0.43309500  1
  O  O24  1  0.93426500  0.89422500  0.14173400  1
  O  O25  1  0.38915500  0.58257000  0.88515500  1
  O  O26  1  0.41743000  0.61084500  0.61484500  1
  O  O27  1  0.43675500  0.15289800  0.19232100  1
  O  O28  1  0.84710200  0.56324500  0.30767900  1
  O  O29  1  0.59323900  0.13892400  0.85237500  1
  O  O30  1  0.87100500  0.70698900  0.93309500  1
  O  O31  1  0.10577500  0.06573500  0.35826600  1
