# generated using pymatgen
data_V2CrW
_symmetry_space_group_name_H-M   'P 1'
_cell_length_a   10.38323526
_cell_length_b   10.38323526
_cell_length_c   10.38323526
_cell_angle_alpha   122.01136046
_cell_angle_beta   119.86803047
_cell_angle_gamma   88.39027191
_symmetry_Int_Tables_number   1
_chemical_formula_structural   V2CrW
_chemical_formula_sum   'V2 Cr1 W1'
_cell_volume   779.62835405
_cell_formula_units_Z   1
loop_
 _symmetry_equiv_pos_site_id
 _symmetry_equiv_pos_as_xyz
  1  'x, y, z'
loop_
 _atom_site_type_symbol
 _atom_site_label
 _atom_site_symmetry_multiplicity
 _atom_site_fract_x
 _atom_site_fract_y
 _atom_site_fract_z
 _atom_site_occupancy
  V  V0  1  0.00000000  0.28295200  0.28295200  1
  V  V1  1  0.00000000  0.71704800  0.71704800  1
  Cr  Cr2  1  0.00000000  0.00000000  0.00000000  1
  W  W3  1  0.00000000  0.50000000  0.50000000  1
