# generated using pymatgen
data_Na3SnAsCO7
_symmetry_space_group_name_H-M   'P 1'
_cell_length_a   7.45314700
_cell_length_b   5.34704100
_cell_length_c   9.59757520
_cell_angle_alpha   88.58899233
_cell_angle_beta   90.00000000
_cell_angle_gamma   90.00000000
_symmetry_Int_Tables_number   1
_chemical_formula_structural   Na3SnAsCO7
_chemical_formula_sum   'Na6 Sn2 As2 C2 O14'
_cell_volume   382.36930092
_cell_formula_units_Z   2
loop_
 _symmetry_equiv_pos_site_id
 _symmetry_equiv_pos_as_xyz
  1  'x, y, z'
loop_
 _atom_site_type_symbol
 _atom_site_label
 _atom_site_symmetry_multiplicity
 _atom_site_fract_x
 _atom_site_fract_y
 _atom_site_fract_z
 _atom_site_occupancy
  Na  Na0  1  0.25000000  0.76838200  0.92073200  1
  Na  Na1  1  0.00808200  0.24533700  0.74889400  1
  Na  Na2  1  0.49191800  0.24533700  0.74889400  1
  Na  Na3  1  0.50808200  0.75466300  0.25110600  1
  Na  Na4  1  0.99191800  0.75466300  0.25110600  1
  Na  Na5  1  0.75000000  0.23161800  0.07926800  1
  Sn  Sn6  1  0.75000000  0.76696800  0.64316300  1
  Sn  Sn7  1  0.25000000  0.23303200  0.35683700  1
  As  As8  1  0.25000000  0.70875200  0.60079500  1
  As  As9  1  0.75000000  0.29124800  0.39920500  1
  C  C10  1  0.75000000  0.73044700  0.95065300  1
  C  C11  1  0.25000000  0.26955300  0.04934700  1
  O  O12  1  0.25000000  0.27475600  0.91479600  1
  O  O13  1  0.75000000  0.94640900  0.88198800  1
  O  O14  1  0.75000000  0.52197600  0.88244300  1
  O  O15  1  0.06753900  0.81339500  0.69450900  1
  O  O16  1  0.43246100  0.81339500  0.69450900  1
  O  O17  1  0.25000000  0.38687200  0.60532700  1
  O  O18  1  0.75000000  0.19486400  0.57452100  1
  O  O19  1  0.25000000  0.80513600  0.42547900  1
  O  O20  1  0.75000000  0.61312800  0.39467300  1
  O  O21  1  0.56753900  0.18660500  0.30549100  1
  O  O22  1  0.93246100  0.18660500  0.30549100  1
  O  O23  1  0.25000000  0.47802400  0.11755700  1
  O  O24  1  0.25000000  0.05359100  0.11801200  1
  O  O25  1  0.75000000  0.72524400  0.08520400  1
