# generated using pymatgen
data_MnP2O7
_symmetry_space_group_name_H-M   'P 1'
_cell_length_a   15.70898700
_cell_length_b   7.81168800
_cell_length_c   7.90759728
_cell_angle_alpha   88.75116919
_cell_angle_beta   90.00000000
_cell_angle_gamma   90.00000000
_symmetry_Int_Tables_number   1
_chemical_formula_structural   MnP2O7
_chemical_formula_sum   'Mn8 P16 O56'
_cell_volume   970.14007108
_cell_formula_units_Z   8
loop_
 _symmetry_equiv_pos_site_id
 _symmetry_equiv_pos_as_xyz
  1  'x, y, z'
loop_
 _atom_site_type_symbol
 _atom_site_label
 _atom_site_symmetry_multiplicity
 _atom_site_fract_x
 _atom_site_fract_y
 _atom_site_fract_z
 _atom_site_occupancy
  Mn  Mn0  1  0.37411900  0.01952400  0.84091700  1
  Mn  Mn1  1  0.12588100  0.51952400  0.84091700  1
  Mn  Mn2  1  0.63354000  0.48994700  0.65210700  1
  Mn  Mn3  1  0.86646000  0.98994700  0.65210700  1
  Mn  Mn4  1  0.13354000  0.01005300  0.34789300  1
  Mn  Mn5  1  0.36646000  0.51005300  0.34789300  1
  Mn  Mn6  1  0.87411900  0.48047600  0.15908300  1
  Mn  Mn7  1  0.62588100  0.98047600  0.15908300  1
  P  P8  1  0.32190400  0.40055000  0.96272600  1
  P  P9  1  0.17809600  0.90055000  0.96272600  1
  P  P10  1  0.56630400  0.09815600  0.77612900  1
  P  P11  1  0.93369600  0.59815600  0.77612900  1
  P  P12  1  0.07104800  0.13013000  0.71893600  1
  P  P13  1  0.42895200  0.63013000  0.71893600  1
  P  P14  1  0.82769500  0.39139500  0.54240400  1
  P  P15  1  0.67230500  0.89139500  0.54240400  1
  P  P16  1  0.32769500  0.10860500  0.45759600  1
  P  P17  1  0.17230500  0.60860500  0.45759600  1
  P  P18  1  0.57104800  0.36987000  0.28106400  1
  P  P19  1  0.92895200  0.86987000  0.28106400  1
  P  P20  1  0.06630400  0.40184400  0.22387100  1
  P  P21  1  0.43369600  0.90184400  0.22387100  1
  P  P22  1  0.82190400  0.09945000  0.03727400  1
  P  P23  1  0.67809600  0.59945000  0.03727400  1
  O  O24  1  0.22954100  0.45381600  0.95685600  1
  O  O25  1  0.27045900  0.95381600  0.95685600  1
  O  O26  1  0.91828400  0.48717700  0.93337700  1
  O  O27  1  0.58171600  0.98717700  0.93337700  1
  O  O28  1  0.11386300  0.03464500  0.87858600  1
  O  O29  1  0.38613700  0.53464500  0.87858600  1
  O  O30  1  0.32912300  0.23885200  0.86277800  1
  O  O31  1  0.17087700  0.73885200  0.86277800  1
  O  O32  1  0.85171500  0.11972200  0.85421800  1
  O  O33  1  0.64828500  0.61972200  0.85421800  1
  O  O34  1  0.06462500  0.31184100  0.78455400  1
  O  O35  1  0.43537500  0.81184100  0.78455400  1
  O  O36  1  0.61875300  0.26253400  0.76756500  1
  O  O37  1  0.88124700  0.76253400  0.76756500  1
  O  O38  1  0.47168700  0.14081800  0.75111900  1
  O  O39  1  0.02831300  0.64081800  0.75111900  1
  O  O40  1  0.98738700  0.04364800  0.67752400  1
  O  O41  1  0.51261300  0.54364800  0.67752400  1
  O  O42  1  0.75430000  0.43610000  0.66030400  1
  O  O43  1  0.74570000  0.93610000  0.66030400  1
  O  O44  1  0.91140400  0.47388300  0.62274400  1
  O  O45  1  0.12950700  0.12559100  0.56367800  1
  O  O46  1  0.58859600  0.97388300  0.62274400  1
  O  O47  1  0.31575800  0.01841200  0.62967700  1
  O  O48  1  0.37049300  0.62559100  0.56367800  1
  O  O49  1  0.18424200  0.51841200  0.62967700  1
  O  O50  1  0.84475800  0.20022800  0.51972400  1
  O  O51  1  0.65524200  0.70022800  0.51972400  1
  O  O52  1  0.34475800  0.29977200  0.48027600  1
  O  O53  1  0.15524200  0.79977200  0.48027600  1
  O  O54  1  0.81575800  0.48158800  0.37032300  1
  O  O55  1  0.62950700  0.37440900  0.43632200  1
  O  O56  1  0.68424200  0.98158800  0.37032300  1
  O  O57  1  0.41140400  0.02611700  0.37725600  1
  O  O58  1  0.87049300  0.87440900  0.43632200  1
  O  O59  1  0.08859600  0.52611700  0.37725600  1
  O  O60  1  0.25430000  0.06390000  0.33969600  1
  O  O61  1  0.24570000  0.56390000  0.33969600  1
  O  O62  1  0.48738700  0.45635200  0.32247600  1
  O  O63  1  0.01261300  0.95635200  0.32247600  1
  O  O64  1  0.97168700  0.35918200  0.24888100  1
  O  O65  1  0.52831300  0.85918200  0.24888100  1
  O  O66  1  0.11875300  0.23746600  0.23243500  1
  O  O67  1  0.38124700  0.73746600  0.23243500  1
  O  O68  1  0.56462500  0.18815900  0.21544600  1
  O  O69  1  0.93537500  0.68815900  0.21544600  1
  O  O70  1  0.35171500  0.38027800  0.14578200  1
  O  O71  1  0.14828500  0.88027800  0.14578200  1
  O  O72  1  0.82912300  0.26114800  0.13722200  1
  O  O73  1  0.67087700  0.76114800  0.13722200  1
  O  O74  1  0.61386300  0.46535500  0.12141400  1
  O  O75  1  0.88613700  0.96535500  0.12141400  1
  O  O76  1  0.41828400  0.01282300  0.06662300  1
  O  O77  1  0.08171600  0.51282300  0.06662300  1
  O  O78  1  0.72954100  0.04618400  0.04314400  1
  O  O79  1  0.77045900  0.54618400  0.04314400  1
