# generated using pymatgen
data_Ca2ZnPd
_symmetry_space_group_name_H-M   'P 1'
_cell_length_a   11.95813276
_cell_length_b   11.95813276
_cell_length_c   11.95813276
_cell_angle_alpha   122.06633948
_cell_angle_beta   119.25456512
_cell_angle_gamma   88.87741379
_symmetry_Int_Tables_number   1
_chemical_formula_structural   Ca2ZnPd
_chemical_formula_sum   'Ca2 Zn1 Pd1'
_cell_volume   1195.89318087
_cell_formula_units_Z   1
loop_
 _symmetry_equiv_pos_site_id
 _symmetry_equiv_pos_as_xyz
  1  'x, y, z'
loop_
 _atom_site_type_symbol
 _atom_site_label
 _atom_site_symmetry_multiplicity
 _atom_site_fract_x
 _atom_site_fract_y
 _atom_site_fract_z
 _atom_site_occupancy
  Ca  Ca0  1  0.00000000  0.27562400  0.27562400  1
  Ca  Ca1  1  0.00000000  0.72437600  0.72437600  1
  Zn  Zn2  1  0.00000000  0.00000000  0.00000000  1
  Pd  Pd3  1  0.00000000  0.50000000  0.50000000  1
