# generated using pymatgen
data_Na6Cr2As(CO4)4
_symmetry_space_group_name_H-M   'P 1'
_cell_length_a   9.98206945
_cell_length_b   9.98206945
_cell_length_c   9.98206945
_cell_angle_alpha   60.00000000
_cell_angle_beta   60.00000000
_cell_angle_gamma   60.00000000
_symmetry_Int_Tables_number   1
_chemical_formula_structural   Na6Cr2As(CO4)4
_chemical_formula_sum   'Na12 Cr4 As2 C8 O32'
_cell_volume   703.30995369
_cell_formula_units_Z   2
loop_
 _symmetry_equiv_pos_site_id
 _symmetry_equiv_pos_as_xyz
  1  'x, y, z'
loop_
 _atom_site_type_symbol
 _atom_site_label
 _atom_site_symmetry_multiplicity
 _atom_site_fract_x
 _atom_site_fract_y
 _atom_site_fract_z
 _atom_site_occupancy
  Na  Na0  1  0.54119200  0.95880800  0.54119200  1
  Na  Na1  1  0.54119200  0.54119200  0.95880800  1
  Na  Na2  1  0.95880800  0.54119200  0.54119200  1
  Na  Na3  1  0.29119200  0.70880800  0.29119200  1
  Na  Na4  1  0.54119200  0.95880800  0.95880800  1
  Na  Na5  1  0.95880800  0.95880800  0.54119200  1
  Na  Na6  1  0.70880800  0.29119200  0.29119200  1
  Na  Na7  1  0.29119200  0.29119200  0.70880800  1
  Na  Na8  1  0.95880800  0.54119200  0.95880800  1
  Na  Na9  1  0.70880800  0.70880800  0.29119200  1
  Na  Na10  1  0.29119200  0.70880800  0.70880800  1
  Na  Na11  1  0.70880800  0.29119200  0.70880800  1
  Cr  Cr12  1  0.12500000  0.12500000  0.62500000  1
  Cr  Cr13  1  0.62500000  0.12500000  0.12500000  1
  Cr  Cr14  1  0.12500000  0.62500000  0.12500000  1
  Cr  Cr15  1  0.12500000  0.12500000  0.12500000  1
  As  As16  1  0.50000000  0.50000000  0.50000000  1
  As  As17  1  0.75000000  0.75000000  0.75000000  1
  C  C18  1  0.33974400  0.33974400  0.33974400  1
  C  C19  1  0.26923200  0.91025600  0.91025600  1
  C  C20  1  0.91025600  0.91025600  0.26923200  1
  C  C21  1  0.91025600  0.26923200  0.91025600  1
  C  C22  1  0.33974400  0.98076800  0.33974400  1
  C  C23  1  0.98076800  0.33974400  0.33974400  1
  C  C24  1  0.33974400  0.33974400  0.98076800  1
  C  C25  1  0.91025600  0.91025600  0.91025600  1
  O  O26  1  0.48238600  0.22618500  0.31329400  1
  O  O27  1  0.22618500  0.31329400  0.48238600  1
  O  O28  1  0.31329400  0.48238600  0.22618500  1
  O  O29  1  0.27186500  0.76761400  0.93670600  1
  O  O30  1  0.57052500  0.28842500  0.57052500  1
  O  O31  1  0.02381500  0.76761400  0.27186500  1
  O  O32  1  0.76761400  0.93670600  0.27186500  1
  O  O33  1  0.28842500  0.57052500  0.57052500  1
  O  O34  1  0.57052500  0.57052500  0.28842500  1
  O  O35  1  0.27186500  0.02381500  0.76761400  1
  O  O36  1  0.27186500  0.93670600  0.02381500  1
  O  O37  1  0.57052500  0.57052500  0.57052500  1
  O  O38  1  0.93670600  0.27186500  0.76761400  1
  O  O39  1  0.93670600  0.02381500  0.27186500  1
  O  O40  1  0.76761400  0.27186500  0.02381500  1
  O  O41  1  0.22618500  0.97813500  0.31329400  1
  O  O42  1  0.02381500  0.27186500  0.93670600  1
  O  O43  1  0.48238600  0.97813500  0.22618500  1
  O  O44  1  0.31329400  0.22618500  0.97813500  1
  O  O45  1  0.31329400  0.97813500  0.48238600  1
  O  O46  1  0.67947500  0.67947500  0.67947500  1
  O  O47  1  0.97813500  0.31329400  0.22618500  1
  O  O48  1  0.97813500  0.22618500  0.48238600  1
  O  O49  1  0.96157500  0.67947500  0.67947500  1
  O  O50  1  0.67947500  0.67947500  0.96157500  1
  O  O51  1  0.48238600  0.31329400  0.97813500  1
  O  O52  1  0.22618500  0.48238600  0.97813500  1
  O  O53  1  0.67947500  0.96157500  0.67947500  1
  O  O54  1  0.97813500  0.48238600  0.31329400  1
  O  O55  1  0.93670600  0.76761400  0.02381500  1
  O  O56  1  0.02381500  0.93670600  0.76761400  1
  O  O57  1  0.76761400  0.02381500  0.93670600  1
