# generated using pymatgen
data_Be2IrRh
_symmetry_space_group_name_H-M   'P 1'
_cell_length_a   9.08448660
_cell_length_b   9.08448660
_cell_length_c   9.08448660
_cell_angle_alpha   125.01663897
_cell_angle_beta   118.25163037
_cell_angle_gamma   87.29698403
_symmetry_Int_Tables_number   1
_chemical_formula_structural   Be2IrRh
_chemical_formula_sum   'Be2 Ir1 Rh1'
_cell_volume   514.02606217
_cell_formula_units_Z   1
loop_
 _symmetry_equiv_pos_site_id
 _symmetry_equiv_pos_as_xyz
  1  'x, y, z'
loop_
 _atom_site_type_symbol
 _atom_site_label
 _atom_site_symmetry_multiplicity
 _atom_site_fract_x
 _atom_site_fract_y
 _atom_site_fract_z
 _atom_site_occupancy
  Be  Be0  1  0.00000000  0.24951000  0.24951000  1
  Be  Be1  1  0.00000000  0.75049000  0.75049000  1
  Ir  Ir2  1  0.00000000  0.50000000  0.50000000  1
  Rh  Rh3  1  0.00000000  0.00000000  0.00000000  1
