# generated using pymatgen
data_In2SnHg
_symmetry_space_group_name_H-M   'P 1'
_cell_length_a   12.01223153
_cell_length_b   12.01223153
_cell_length_c   12.01223153
_cell_angle_alpha   122.29555067
_cell_angle_beta   118.36599550
_cell_angle_gamma   89.46205515
_symmetry_Int_Tables_number   1
_chemical_formula_structural   In2SnHg
_chemical_formula_sum   'In2 Sn1 Hg1'
_cell_volume   1217.62081932
_cell_formula_units_Z   1
loop_
 _symmetry_equiv_pos_site_id
 _symmetry_equiv_pos_as_xyz
  1  'x, y, z'
loop_
 _atom_site_type_symbol
 _atom_site_label
 _atom_site_symmetry_multiplicity
 _atom_site_fract_x
 _atom_site_fract_y
 _atom_site_fract_z
 _atom_site_occupancy
  In  In0  1  0.00000000  0.23968700  0.23968700  1
  In  In1  1  0.00000000  0.76031300  0.76031300  1
  Sn  Sn2  1  0.00000000  0.00000000  0.00000000  1
  Hg  Hg3  1  0.00000000  0.50000000  0.50000000  1
