# generated using pymatgen
data_Na5Fe2P2(CO7)2
_symmetry_space_group_name_H-M   'P 1'
_cell_length_a   10.39229917
_cell_length_b   8.45050776
_cell_length_c   8.52318033
_cell_angle_alpha   76.19269965
_cell_angle_beta   71.06943124
_cell_angle_gamma   107.28264036
_symmetry_Int_Tables_number   1
_chemical_formula_structural   Na5Fe2P2(CO7)2
_chemical_formula_sum   'Na10 Fe4 P4 C4 O28'
_cell_volume   627.82289342
_cell_formula_units_Z   2
loop_
 _symmetry_equiv_pos_site_id
 _symmetry_equiv_pos_as_xyz
  1  'x, y, z'
loop_
 _atom_site_type_symbol
 _atom_site_label
 _atom_site_symmetry_multiplicity
 _atom_site_fract_x
 _atom_site_fract_y
 _atom_site_fract_z
 _atom_site_occupancy
  Na  Na0  1  0.91346400  0.69275200  0.56444200  1
  Na  Na1  1  0.92400100  0.22997300  0.04580900  1
  Na  Na2  1  0.73682200  0.99463200  0.50033100  1
  Na  Na3  1  0.74066000  0.74008500  0.25833300  1
  Na  Na4  1  0.73239400  0.25288800  0.76249000  1
  Na  Na5  1  0.26760600  0.74711200  0.23751000  1
  Na  Na6  1  0.25933900  0.25991500  0.74166700  1
  Na  Na7  1  0.26317800  0.00536800  0.49966900  1
  Na  Na8  1  0.08653600  0.30724800  0.43555800  1
  Na  Na9  1  0.07599900  0.77002700  0.95419100  1
  Fe  Fe10  1  0.65207400  0.31107800  0.43155400  1
  Fe  Fe11  1  0.64636700  0.79736200  0.94555300  1
  Fe  Fe12  1  0.35363300  0.20263800  0.05444700  1
  Fe  Fe13  1  0.34792600  0.68892200  0.56844600  1
  P  P14  1  0.58433700  0.56445400  0.68888800  1
  P  P15  1  0.57735500  0.05549000  0.18610200  1
  P  P16  1  0.41566300  0.43554600  0.31111200  1
  P  P17  1  0.42264500  0.94451000  0.81389800  1
  C  C18  1  0.93968900  0.48114900  0.27687400  1
  C  C19  1  0.93351300  0.97998400  0.77261100  1
  C  C20  1  0.06648700  0.02001600  0.22738900  1
  C  C21  1  0.06031100  0.51885100  0.72312600  1
  O  O22  1  0.92435300  0.93709400  0.31128800  1
  O  O23  1  0.91884000  0.43372200  0.79489600  1
  O  O24  1  0.87522700  0.32614800  0.41052000  1
  O  O25  1  0.86980800  0.83898400  0.91906800  1
  O  O26  1  0.85528200  0.54127000  0.21854900  1
  O  O27  1  0.84340600  0.02924900  0.71565100  1
  O  O28  1  0.67347300  0.97595900  0.07263800  1
  O  O29  1  0.67460400  0.67966700  0.76734500  1
  O  O30  1  0.68660300  0.48781900  0.58603700  1
  O  O31  1  0.67717500  0.15888700  0.25996000  1
  O  O32  1  0.56593700  0.58666400  0.16423200  1
  O  O33  1  0.57079500  0.09191600  0.66397900  1
  O  O34  1  0.53865700  0.18158800  0.05807400  1
  O  O35  1  0.55218300  0.69007600  0.55604000  1
  O  O36  1  0.46134300  0.81841200  0.94192600  1
  O  O37  1  0.44781700  0.30992400  0.44396000  1
  O  O38  1  0.42920500  0.90808400  0.33602100  1
  O  O39  1  0.43406300  0.41333600  0.83576800  1
  O  O40  1  0.32282500  0.84111300  0.74004000  1
  O  O41  1  0.31339700  0.51218100  0.41396300  1
  O  O42  1  0.32539600  0.32033300  0.23265500  1
  O  O43  1  0.32652700  0.02404100  0.92736200  1
  O  O44  1  0.15659400  0.97075100  0.28434900  1
  O  O45  1  0.14471800  0.45873000  0.78145100  1
  O  O46  1  0.13019200  0.16101600  0.08093200  1
  O  O47  1  0.12477300  0.67385200  0.58948000  1
  O  O48  1  0.08115900  0.56627800  0.20510400  1
  O  O49  1  0.07564700  0.06290600  0.68871200  1
