# generated using pymatgen
data_Ho2WO6
_symmetry_space_group_name_H-M   'P 1'
_cell_length_a   9.86342488
_cell_length_b   9.86342488
_cell_length_c   5.38746293
_cell_angle_alpha   75.79299496
_cell_angle_beta   75.79299496
_cell_angle_gamma   68.31724014
_symmetry_Int_Tables_number   1
_chemical_formula_structural   Ho2WO6
_chemical_formula_sum   'Ho8 W4 O24'
_cell_volume   465.13042399
_cell_formula_units_Z   4
loop_
 _symmetry_equiv_pos_site_id
 _symmetry_equiv_pos_as_xyz
  1  'x, y, z'
loop_
 _atom_site_type_symbol
 _atom_site_label
 _atom_site_symmetry_multiplicity
 _atom_site_fract_x
 _atom_site_fract_y
 _atom_site_fract_z
 _atom_site_occupancy
  Ho  Ho0  1  0.10510200  0.89489800  0.75000000  1
  Ho  Ho1  1  0.63420600  0.36579400  0.75000000  1
  Ho  Ho2  1  0.94409700  0.71532400  0.38261200  1
  Ho  Ho3  1  0.71532400  0.94409700  0.88261200  1
  Ho  Ho4  1  0.28467600  0.05590300  0.11738800  1
  Ho  Ho5  1  0.05590300  0.28467600  0.61738800  1
  Ho  Ho6  1  0.36579400  0.63420600  0.25000000  1
  Ho  Ho7  1  0.89489800  0.10510200  0.25000000  1
  W  W8  1  0.50552500  0.80083000  0.56639800  1
  W  W9  1  0.19917000  0.49447500  0.93360200  1
  W  W10  1  0.80083000  0.50552500  0.06639800  1
  W  W11  1  0.49447500  0.19917000  0.43360200  1
  O  O12  1  0.89231600  0.92501300  0.07828700  1
  O  O13  1  0.52660700  0.93971800  0.26011400  1
  O  O14  1  0.31137500  0.84052900  0.42124000  1
  O  O15  1  0.54454000  0.61016400  0.52005600  1
  O  O16  1  0.38983600  0.45546000  0.97994400  1
  O  O17  1  0.15947100  0.68862500  0.07876000  1
  O  O18  1  0.92501300  0.89231600  0.57828700  1
  O  O19  1  0.17571700  0.62070500  0.61348600  1
  O  O20  1  0.62070500  0.17571700  0.11348600  1
  O  O21  1  0.21620900  0.31543000  0.85111000  1
  O  O22  1  0.31543000  0.21620900  0.35111000  1
  O  O23  1  0.06028200  0.47339300  0.23988600  1
  O  O24  1  0.93971800  0.52660700  0.76011400  1
  O  O25  1  0.68457000  0.78379100  0.64889000  1
  O  O26  1  0.78379100  0.68457000  0.14889000  1
  O  O27  1  0.37929500  0.82428300  0.88651400  1
  O  O28  1  0.82428300  0.37929500  0.38651400  1
  O  O29  1  0.07498700  0.10768400  0.42171300  1
  O  O30  1  0.84052900  0.31137500  0.92124000  1
  O  O31  1  0.61016400  0.54454000  0.02005600  1
  O  O32  1  0.45546000  0.38983600  0.47994400  1
  O  O33  1  0.68862500  0.15947100  0.57876000  1
  O  O34  1  0.47339300  0.06028200  0.73988600  1
  O  O35  1  0.10768400  0.07498700  0.92171300  1
