# generated using pymatgen
data_Tb2WO6
_symmetry_space_group_name_H-M   'P 1'
_cell_length_a   9.93234608
_cell_length_b   9.93234608
_cell_length_c   5.43141151
_cell_angle_alpha   75.81337266
_cell_angle_beta   75.81337266
_cell_angle_gamma   68.45352317
_symmetry_Int_Tables_number   1
_chemical_formula_structural   Tb2WO6
_chemical_formula_sum   'Tb8 W4 O24'
_cell_volume   475.97670055
_cell_formula_units_Z   4
loop_
 _symmetry_equiv_pos_site_id
 _symmetry_equiv_pos_as_xyz
  1  'x, y, z'
loop_
 _atom_site_type_symbol
 _atom_site_label
 _atom_site_symmetry_multiplicity
 _atom_site_fract_x
 _atom_site_fract_y
 _atom_site_fract_z
 _atom_site_occupancy
  Tb  Tb0  1  0.10591400  0.89408600  0.75000000  1
  Tb  Tb1  1  0.63357000  0.36643000  0.75000000  1
  Tb  Tb2  1  0.94370700  0.71436200  0.38318900  1
  Tb  Tb3  1  0.71436200  0.94370700  0.88318900  1
  Tb  Tb4  1  0.28563800  0.05629300  0.11681100  1
  Tb  Tb5  1  0.05629300  0.28563800  0.61681100  1
  Tb  Tb6  1  0.36643000  0.63357000  0.25000000  1
  Tb  Tb7  1  0.89408600  0.10591400  0.25000000  1
  W  W8  1  0.50556800  0.80031000  0.56615700  1
  W  W9  1  0.19969000  0.49443200  0.93384300  1
  W  W10  1  0.80031000  0.50556800  0.06615700  1
  W  W11  1  0.49443200  0.19969000  0.43384300  1
  O  O12  1  0.89263800  0.92416800  0.07831300  1
  O  O13  1  0.52673600  0.93838500  0.26272800  1
  O  O14  1  0.31271200  0.84004000  0.42083800  1
  O  O15  1  0.54429300  0.61188200  0.52076100  1
  O  O16  1  0.38811800  0.45570700  0.97923900  1
  O  O17  1  0.15996000  0.68728800  0.07916200  1
  O  O18  1  0.92416800  0.89263800  0.57831300  1
  O  O19  1  0.17566000  0.61983100  0.61653100  1
  O  O20  1  0.61983100  0.17566000  0.11653100  1
  O  O21  1  0.21597800  0.31736100  0.85285800  1
  O  O22  1  0.31736100  0.21597800  0.35285800  1
  O  O23  1  0.06161500  0.47326400  0.23727200  1
  O  O24  1  0.93838500  0.52673600  0.76272800  1
  O  O25  1  0.68263900  0.78402200  0.64714200  1
  O  O26  1  0.78402200  0.68263900  0.14714200  1
  O  O27  1  0.38016900  0.82434000  0.88346900  1
  O  O28  1  0.82434000  0.38016900  0.38346900  1
  O  O29  1  0.07583200  0.10736200  0.42168700  1
  O  O30  1  0.84004000  0.31271200  0.92083800  1
  O  O31  1  0.61188200  0.54429300  0.02076100  1
  O  O32  1  0.45570700  0.38811800  0.47923900  1
  O  O33  1  0.68728800  0.15996000  0.57916200  1
  O  O34  1  0.47326400  0.06161500  0.73727200  1
  O  O35  1  0.10736200  0.07583200  0.92168700  1
