# generated using pymatgen
data_Tb2WO6
_symmetry_space_group_name_H-M   'P 1'
_cell_length_a   5.41927800
_cell_length_b   7.73357600
_cell_length_c   11.52649431
_cell_angle_alpha   75.53760420
_cell_angle_beta   90.00000000
_cell_angle_gamma   90.00000000
_symmetry_Int_Tables_number   1
_chemical_formula_structural   Tb2WO6
_chemical_formula_sum   'Tb8 W4 O24'
_cell_volume   467.77201368
_cell_formula_units_Z   4
loop_
 _symmetry_equiv_pos_site_id
 _symmetry_equiv_pos_as_xyz
  1  'x, y, z'
loop_
 _atom_site_type_symbol
 _atom_site_label
 _atom_site_symmetry_multiplicity
 _atom_site_fract_x
 _atom_site_fract_y
 _atom_site_fract_z
 _atom_site_occupancy
  Tb  Tb0  1  0.73786300  0.00000000  0.75000000  1
  Tb  Tb1  1  0.26213700  0.00000000  0.25000000  1
  Tb  Tb2  1  0.18866800  0.79684500  0.57762600  1
  Tb  Tb3  1  0.81133200  0.79684500  0.07762600  1
  Tb  Tb4  1  0.68343300  0.50000000  0.75000000  1
  Tb  Tb5  1  0.31656700  0.50000000  0.25000000  1
  Tb  Tb6  1  0.18866800  0.20315500  0.92237400  1
  Tb  Tb7  1  0.81133200  0.20315500  0.42237400  1
  W  W8  1  0.25412000  0.72142100  0.88630000  1
  W  W9  1  0.74588000  0.72142100  0.38630000  1
  W  W10  1  0.25412000  0.27857900  0.61370000  1
  W  W11  1  0.74588000  0.27857900  0.11370000  1
  O  O12  1  0.03907800  0.93765300  0.89604500  1
  O  O13  1  0.52437200  0.85126100  0.93066800  1
  O  O14  1  0.96092200  0.93765300  0.39604500  1
  O  O15  1  0.46317800  0.78583000  0.72886600  1
  O  O16  1  0.47562800  0.85126100  0.43066800  1
  O  O17  1  0.98640900  0.70939000  0.77142300  1
  O  O18  1  0.53682200  0.78583000  0.22886600  1
  O  O19  1  0.85174900  0.63417900  0.54750500  1
  O  O20  1  0.36346400  0.49019100  0.88784700  1
  O  O21  1  0.01359100  0.70939000  0.27142300  1
  O  O22  1  0.36346400  0.50980900  0.61215300  1
  O  O23  1  0.85174900  0.36582100  0.95249500  1
  O  O24  1  0.14825100  0.63417900  0.04750500  1
  O  O25  1  0.63653600  0.49019100  0.38784700  1
  O  O26  1  0.98640900  0.29061000  0.72857700  1
  O  O27  1  0.63653600  0.50980900  0.11215300  1
  O  O28  1  0.14825100  0.36582100  0.45249500  1
  O  O29  1  0.46317800  0.21417000  0.77113400  1
  O  O30  1  0.01359100  0.29061000  0.22857700  1
  O  O31  1  0.52437200  0.14873900  0.56933200  1
  O  O32  1  0.53682200  0.21417000  0.27113400  1
  O  O33  1  0.03907800  0.06234700  0.60395500  1
  O  O34  1  0.47562800  0.14873900  0.06933200  1
  O  O35  1  0.96092200  0.06234700  0.10395500  1
