# generated using pymatgen
data_Co5Te3O16
_symmetry_space_group_name_H-M   'P 1'
_cell_length_a   5.95464358
_cell_length_b   5.95464358
_cell_length_c   8.95469737
_cell_angle_alpha   89.23156460
_cell_angle_beta   89.23156460
_cell_angle_gamma   60.23542177
_symmetry_Int_Tables_number   1
_chemical_formula_structural   Co5Te3O16
_chemical_formula_sum   'Co5 Te3 O16'
_cell_volume   275.59178273
_cell_formula_units_Z   1
loop_
 _symmetry_equiv_pos_site_id
 _symmetry_equiv_pos_as_xyz
  1  'x, y, z'
loop_
 _atom_site_type_symbol
 _atom_site_label
 _atom_site_symmetry_multiplicity
 _atom_site_fract_x
 _atom_site_fract_y
 _atom_site_fract_z
 _atom_site_occupancy
  Co  Co0  1  0.68272000  0.68272000  0.49345300  1
  Co  Co1  1  0.82982200  0.82982200  0.79621800  1
  Co  Co2  1  0.34823700  0.34823700  0.02754500  1
  Co  Co3  1  0.16907400  0.66071700  0.28539500  1
  Co  Co4  1  0.66071700  0.16907400  0.28539500  1
  Te  Te5  1  0.33381700  0.82816900  0.78927900  1
  Te  Te6  1  0.82816900  0.33381700  0.78927900  1
  Te  Te7  1  0.16371900  0.16371900  0.28857900  1
  O  O8  1  0.32648900  0.83408000  0.39387200  1
  O  O9  1  0.51224200  0.51224200  0.66123700  1
  O  O10  1  0.65299800  0.65299800  0.91492900  1
  O  O11  1  0.00506300  0.00506300  0.67570500  1
  O  O12  1  0.99826600  0.99826600  0.18126100  1
  O  O13  1  0.83408000  0.32648900  0.39387200  1
  O  O14  1  0.50728900  0.95646200  0.66590500  1
  O  O15  1  0.95646200  0.50728900  0.66590500  1
  O  O16  1  0.16344900  0.16344900  0.90441800  1
  O  O17  1  0.83633500  0.83633500  0.38918600  1
  O  O18  1  0.05508900  0.48140800  0.15588000  1
  O  O19  1  0.48140800  0.05508900  0.15588000  1
  O  O20  1  0.33260100  0.33260100  0.39641700  1
  O  O21  1  0.17491500  0.66920100  0.90229900  1
  O  O22  1  0.47740700  0.47740700  0.16843800  1
  O  O23  1  0.66920100  0.17491500  0.90229900  1
