# generated using pymatgen
data_Li3MnBAsO7
_symmetry_space_group_name_H-M   'P 1'
_cell_length_a   5.07966832
_cell_length_b   8.48985844
_cell_length_c   13.69065604
_cell_angle_alpha   89.99186468
_cell_angle_beta   90.00098533
_cell_angle_gamma   84.61572946
_symmetry_Int_Tables_number   1
_chemical_formula_structural   Li3MnBAsO7
_chemical_formula_sum   'Li12 Mn4 B4 As4 O28'
_cell_volume   587.81357190
_cell_formula_units_Z   4
loop_
 _symmetry_equiv_pos_site_id
 _symmetry_equiv_pos_as_xyz
  1  'x, y, z'
loop_
 _atom_site_type_symbol
 _atom_site_label
 _atom_site_symmetry_multiplicity
 _atom_site_fract_x
 _atom_site_fract_y
 _atom_site_fract_z
 _atom_site_occupancy
  Li  Li0  1  0.76841400  0.09633200  0.12505100  1
  Li  Li1  1  0.76848200  0.09625400  0.62499900  1
  Li  Li2  1  0.23160400  0.90369600  0.37494300  1
  Li  Li3  1  0.23154200  0.90373500  0.87499400  1
  Li  Li4  1  0.24827800  0.23272800  0.00040400  1
  Li  Li5  1  0.24850900  0.23271600  0.50038300  1
  Li  Li6  1  0.24853000  0.23262800  0.24964600  1
  Li  Li7  1  0.24817700  0.23275300  0.74949600  1
  Li  Li8  1  0.75143300  0.76738100  0.25035200  1
  Li  Li9  1  0.75184300  0.76724500  0.75049300  1
  Li  Li10  1  0.75172800  0.76728800  0.49959200  1
  Li  Li11  1  0.75149400  0.76725200  0.99960700  1
  Mn  Mn12  1  0.78576200  0.31491400  0.87494400  1
  Mn  Mn13  1  0.21420100  0.68506000  0.62506200  1
  Mn  Mn14  1  0.78625900  0.31493000  0.37495600  1
  Mn  Mn15  1  0.21375900  0.68504700  0.12506600  1
  B  B16  1  0.70196800  0.03870700  0.37500200  1
  B  B17  1  0.70178900  0.03862300  0.87501000  1
  B  B18  1  0.29799700  0.96132500  0.12499700  1
  B  B19  1  0.29822200  0.96135400  0.62498300  1
  As  As20  1  0.74144000  0.41711200  0.12502200  1
  As  As21  1  0.74175000  0.41714900  0.62500600  1
  As  As22  1  0.25857100  0.58291700  0.37498600  1
  As  As23  1  0.25823600  0.58282900  0.87500000  1
  O  O24  1  0.36811400  0.11075600  0.12502300  1
  O  O25  1  0.36824200  0.11080500  0.62497500  1
  O  O26  1  0.63193700  0.88926500  0.37496600  1
  O  O27  1  0.63179300  0.88917100  0.87501200  1
  O  O28  1  0.95874300  0.08573100  0.37500300  1
  O  O29  1  0.95843500  0.08575300  0.87502000  1
  O  O30  1  0.04126200  0.91429900  0.12499900  1
  O  O31  1  0.04155100  0.91424500  0.62497800  1
  O  O32  1  0.51125100  0.17174900  0.37501000  1
  O  O33  1  0.51078800  0.17159000  0.87498100  1
  O  O34  1  0.48875400  0.82827100  0.12500000  1
  O  O35  1  0.48918800  0.82838100  0.62501400  1
  O  O36  1  0.40322800  0.46529500  0.12505900  1
  O  O37  1  0.40350200  0.46533000  0.62505400  1
  O  O38  1  0.59677300  0.53471900  0.37494100  1
  O  O39  1  0.59648900  0.53463900  0.87493900  1
  O  O40  1  0.13202600  0.40175900  0.37495000  1
  O  O41  1  0.13165300  0.40172500  0.87494500  1
  O  O42  1  0.86796600  0.59826500  0.12505000  1
  O  O43  1  0.86833400  0.59825800  0.62505300  1
  O  O44  1  0.83739500  0.29337700  0.02992000  1
  O  O45  1  0.83767400  0.29337200  0.52992400  1
  O  O46  1  0.83757800  0.29318400  0.22004800  1
  O  O47  1  0.83767100  0.29313300  0.72001800  1
  O  O48  1  0.16238500  0.70685500  0.27996300  1
  O  O49  1  0.16234700  0.70683700  0.77998500  1
  O  O50  1  0.16257800  0.70664500  0.47009300  1
  O  O51  1  0.16235400  0.70661500  0.97008400  1
