# generated using pymatgen
data_Na3CoBAsO7
_symmetry_space_group_name_H-M   'P 1'
_cell_length_a   5.29219981
_cell_length_b   11.39417501
_cell_length_c   11.38827346
_cell_angle_alpha   106.53478349
_cell_angle_beta   90.82388486
_cell_angle_gamma   89.10633947
_symmetry_Int_Tables_number   1
_chemical_formula_structural   Na3CoBAsO7
_chemical_formula_sum   'Na12 Co4 B4 As4 O28'
_cell_volume   658.20261324
_cell_formula_units_Z   4
loop_
 _symmetry_equiv_pos_site_id
 _symmetry_equiv_pos_as_xyz
  1  'x, y, z'
loop_
 _atom_site_type_symbol
 _atom_site_label
 _atom_site_symmetry_multiplicity
 _atom_site_fract_x
 _atom_site_fract_y
 _atom_site_fract_z
 _atom_site_occupancy
  Na  Na0  1  0.76062500  0.16586300  0.08445100  1
  Na  Na1  1  0.75804900  0.66547600  0.58469500  1
  Na  Na2  1  0.23931000  0.83410300  0.91546000  1
  Na  Na3  1  0.24204600  0.33449800  0.41536900  1
  Na  Na4  1  0.24497900  0.12224600  0.87757800  1
  Na  Na5  1  0.24217700  0.62248400  0.37746000  1
  Na  Na6  1  0.24448900  0.37246800  0.12804000  1
  Na  Na7  1  0.24342400  0.87288000  0.62738800  1
  Na  Na8  1  0.75557400  0.62750000  0.87206000  1
  Na  Na9  1  0.75651700  0.12720800  0.37259900  1
  Na  Na10  1  0.75491700  0.87777400  0.12248700  1
  Na  Na11  1  0.75808000  0.37747800  0.62251300  1
  Co  Co12  1  0.77640800  0.04179000  0.70832900  1
  Co  Co13  1  0.22344900  0.95817400  0.29170600  1
  Co  Co14  1  0.77588000  0.54141800  0.20866200  1
  Co  Co15  1  0.22398700  0.45857800  0.79120900  1
  B  B16  1  0.73885900  0.40624000  0.34348200  1
  B  B17  1  0.73793500  0.90680100  0.84333600  1
  B  B18  1  0.26137200  0.59382400  0.65653600  1
  B  B19  1  0.26193900  0.09316300  0.15670800  1
  As  As20  1  0.71279000  0.33738900  0.91281700  1
  As  As21  1  0.71400400  0.83698100  0.41310800  1
  As  As22  1  0.28701100  0.66258100  0.08709600  1
  As  As23  1  0.28610900  0.16300700  0.58691700  1
  O  O24  1  0.31355600  0.16524200  0.08500200  1
  O  O25  1  0.31173100  0.66567700  0.58447100  1
  O  O26  1  0.68640300  0.83469000  0.91500300  1
  O  O27  1  0.68852300  0.33437500  0.41552200  1
  O  O28  1  0.97592700  0.43639500  0.31168000  1
  O  O29  1  0.97535600  0.93832800  0.81346500  1
  O  O30  1  0.02424500  0.56369300  0.68833500  1
  O  O31  1  0.02449300  0.06176000  0.18664100  1
  O  O32  1  0.54463800  0.46224900  0.28918700  1
  O  O33  1  0.54457700  0.96153000  0.78724700  1
  O  O34  1  0.45550900  0.53777400  0.71081300  1
  O  O35  1  0.45525300  0.03837300  0.21275400  1
  O  O36  1  0.39077100  0.35619800  0.89279400  1
  O  O37  1  0.39183200  0.85685700  0.39476300  1
  O  O38  1  0.60909000  0.64386000  0.10711900  1
  O  O39  1  0.60828800  0.14304100  0.60516700  1
  O  O40  1  0.13083700  0.58089000  0.16849400  1
  O  O41  1  0.13064700  0.08192400  0.66916900  1
  O  O42  1  0.86911900  0.41900300  0.83143100  1
  O  O43  1  0.86934500  0.91824400  0.33099300  1
  O  O44  1  0.79091400  0.18377100  0.87040300  1
  O  O45  1  0.79144300  0.68325000  0.37081000  1
  O  O46  1  0.78926200  0.37937200  0.06666900  1
  O  O47  1  0.79365600  0.87934900  0.56654500  1
  O  O48  1  0.21058100  0.62061000  0.93326500  1
  O  O49  1  0.20634800  0.12066300  0.43349500  1
  O  O50  1  0.20877500  0.81618300  0.12961600  1
  O  O51  1  0.20895100  0.31677600  0.62914300  1
