# generated using pymatgen
data_Li7Fe3O8
_symmetry_space_group_name_H-M   'P 1'
_cell_length_a   10.53956168
_cell_length_b   7.75152200
_cell_length_c   5.55052117
_cell_angle_alpha   109.13974377
_cell_angle_beta   99.93920845
_cell_angle_gamma   67.81386385
_symmetry_Int_Tables_number   1
_chemical_formula_structural   Li7Fe3O8
_chemical_formula_sum   'Li14 Fe6 O16'
_cell_volume   396.06249996
_cell_formula_units_Z   2
loop_
 _symmetry_equiv_pos_site_id
 _symmetry_equiv_pos_as_xyz
  1  'x, y, z'
loop_
 _atom_site_type_symbol
 _atom_site_label
 _atom_site_symmetry_multiplicity
 _atom_site_fract_x
 _atom_site_fract_y
 _atom_site_fract_z
 _atom_site_occupancy
  Li  Li0  1  0.06662700  0.88356500  0.71520100  1
  Li  Li1  1  0.05365200  0.43224800  0.68287900  1
  Li  Li2  1  0.33439500  0.79737800  0.85637300  1
  Li  Li3  1  0.27764500  0.45216100  0.53244900  1
  Li  Li4  1  0.43896100  0.63966200  0.41922000  1
  Li  Li5  1  0.22037300  0.03247800  0.53995000  1
  Li  Li6  1  0.51615600  0.93685800  0.71598400  1
  Li  Li7  1  0.48384400  0.06314200  0.28401600  1
  Li  Li8  1  0.77962700  0.96752200  0.46005000  1
  Li  Li9  1  0.56103900  0.36033800  0.58078000  1
  Li  Li10  1  0.72235500  0.54783900  0.46755100  1
  Li  Li11  1  0.66560500  0.20262200  0.14362700  1
  Li  Li12  1  0.94634800  0.56775200  0.31712100  1
  Li  Li13  1  0.93337300  0.11643500  0.28479900  1
  Fe  Fe14  1  0.14579500  0.72609600  0.19181500  1
  Fe  Fe15  1  0.16193600  0.17111900  0.05238800  1
  Fe  Fe16  1  0.37820000  0.30987800  0.94011300  1
  Fe  Fe17  1  0.62180000  0.69012200  0.05988700  1
  Fe  Fe18  1  0.83806400  0.82888100  0.94761200  1
  Fe  Fe19  1  0.85420500  0.27390400  0.80818500  1
  O  O20  1  0.15459000  0.93651200  0.09033300  1
  O  O21  1  0.23699200  0.74849900  0.51377900  1
  O  O22  1  0.04666000  0.18620400  0.73375100  1
  O  O23  1  0.12415500  0.36399100  0.35067300  1
  O  O24  1  0.20313600  0.51003900  0.89994700  1
  O  O25  1  0.34103700  0.07127600  0.92352600  1
  O  O26  1  0.53984700  0.78569600  0.36760800  1
  O  O27  1  0.51814000  0.63175100  0.76435200  1
  O  O28  1  0.48186000  0.36824900  0.23564800  1
  O  O29  1  0.46015300  0.21430400  0.63239200  1
  O  O30  1  0.65896300  0.92872400  0.07647400  1
  O  O31  1  0.79686400  0.48996100  0.10005300  1
  O  O32  1  0.87584500  0.63600900  0.64932700  1
  O  O33  1  0.95334000  0.81379600  0.26624900  1
  O  O34  1  0.76300800  0.25150100  0.48622100  1
  O  O35  1  0.84541000  0.06348800  0.90966700  1
