# generated using pymatgen
data_Na3NiBSO7
_symmetry_space_group_name_H-M   'P 1'
_cell_length_a   8.57273229
_cell_length_b   8.57279927
_cell_length_c   10.29832135
_cell_angle_alpha   107.59229988
_cell_angle_beta   107.58982164
_cell_angle_gamma   104.14638744
_symmetry_Int_Tables_number   1
_chemical_formula_structural   Na3NiBSO7
_chemical_formula_sum   'Na12 Ni4 B4 S4 O28'
_cell_volume   639.05334019
_cell_formula_units_Z   4
loop_
 _symmetry_equiv_pos_site_id
 _symmetry_equiv_pos_as_xyz
  1  'x, y, z'
loop_
 _atom_site_type_symbol
 _atom_site_label
 _atom_site_symmetry_multiplicity
 _atom_site_fract_x
 _atom_site_fract_y
 _atom_site_fract_z
 _atom_site_occupancy
  Na  Na0  1  0.53042900  0.28044000  0.06255300  1
  Na  Na1  1  0.03042600  0.78042200  0.06252100  1
  Na  Na2  1  0.96956800  0.21955200  0.93745300  1
  Na  Na3  1  0.46956200  0.71955700  0.93746200  1
  Na  Na4  1  0.73816500  0.74528500  0.24066000  1
  Na  Na5  1  0.23821500  0.24530100  0.24065900  1
  Na  Na6  1  0.49530000  0.98816500  0.24066700  1
  Na  Na7  1  0.99528200  0.48818400  0.24064100  1
  Na  Na8  1  0.00467100  0.51180300  0.75929800  1
  Na  Na9  1  0.50473200  0.01179200  0.75935200  1
  Na  Na10  1  0.76180800  0.75469800  0.75932400  1
  Na  Na11  1  0.26177900  0.25469300  0.75931700  1
  Ni  Ni12  1  0.42732800  0.67728100  0.33585100  1
  Ni  Ni13  1  0.07271700  0.82290000  0.66442400  1
  Ni  Ni14  1  0.92721800  0.17738300  0.33560700  1
  Ni  Ni15  1  0.57273600  0.32261600  0.66436800  1
  B  B16  1  0.77502800  0.02500300  0.06703500  1
  B  B17  1  0.27502700  0.52502500  0.06709100  1
  B  B18  1  0.72496400  0.47497200  0.93295000  1
  B  B19  1  0.22500500  0.97499900  0.93295000  1
  S  S20  1  0.69285600  0.44282500  0.42033600  1
  S  S21  1  0.19285700  0.94287200  0.42033100  1
  S  S22  1  0.80714600  0.05716400  0.57963200  1
  S  S23  1  0.30709000  0.55708700  0.57962000  1
  O  O24  1  0.31194800  0.06192400  0.08367600  1
  O  O25  1  0.81193700  0.56194000  0.08366300  1
  O  O26  1  0.18806800  0.43808300  0.91634800  1
  O  O27  1  0.68806100  0.93804100  0.91631600  1
  O  O28  1  0.92781000  0.17778600  0.13940200  1
  O  O29  1  0.42786000  0.67781500  0.13953900  1
  O  O30  1  0.57220200  0.32219900  0.86058900  1
  O  O31  1  0.07216000  0.82221400  0.86051500  1
  O  O32  1  0.72043500  0.97043400  0.16713700  1
  O  O33  1  0.22043500  0.47045000  0.16721000  1
  O  O34  1  0.77954300  0.52954800  0.83285400  1
  O  O35  1  0.27964000  0.02961900  0.83287200  1
  O  O36  1  0.57118500  0.32104100  0.45677000  1
  O  O37  1  0.07114600  0.82112100  0.45676500  1
  O  O38  1  0.92882500  0.17893700  0.54319500  1
  O  O39  1  0.42885200  0.67888800  0.54323700  1
  O  O40  1  0.66487500  0.91487300  0.43855000  1
  O  O41  1  0.16485500  0.41484300  0.43852600  1
  O  O42  1  0.83515800  0.58514300  0.56143800  1
  O  O43  1  0.33514300  0.08515000  0.56145000  1
  O  O44  1  0.59097500  0.51776200  0.32766600  1
  O  O45  1  0.09100100  0.01783400  0.32766700  1
  O  O46  1  0.76781100  0.34105800  0.32760200  1
  O  O47  1  0.26784600  0.84108200  0.32763800  1
  O  O48  1  0.73217100  0.15892000  0.67235600  1
  O  O49  1  0.23213900  0.65891300  0.67232500  1
  O  O50  1  0.90902600  0.98222500  0.67231100  1
  O  O51  1  0.40898300  0.48213900  0.67228200  1
