# generated using pymatgen
data_Na6Cu2P(CO4)4
_symmetry_space_group_name_H-M   'P 1'
_cell_length_a   9.80758661
_cell_length_b   9.80758661
_cell_length_c   9.80758661
_cell_angle_alpha   60.00000000
_cell_angle_beta   60.00000000
_cell_angle_gamma   60.00000000
_symmetry_Int_Tables_number   1
_chemical_formula_structural   Na6Cu2P(CO4)4
_chemical_formula_sum   'Na12 Cu4 P2 C8 O32'
_cell_volume   667.07007497
_cell_formula_units_Z   2
loop_
 _symmetry_equiv_pos_site_id
 _symmetry_equiv_pos_as_xyz
  1  'x, y, z'
loop_
 _atom_site_type_symbol
 _atom_site_label
 _atom_site_symmetry_multiplicity
 _atom_site_fract_x
 _atom_site_fract_y
 _atom_site_fract_z
 _atom_site_occupancy
  Na  Na0  1  0.03955300  0.46044700  0.46044700  1
  Na  Na1  1  0.03955300  0.03955300  0.46044700  1
  Na  Na2  1  0.46044700  0.03955300  0.46044700  1
  Na  Na3  1  0.03955300  0.46044700  0.03955300  1
  Na  Na4  1  0.78955300  0.21044700  0.21044700  1
  Na  Na5  1  0.78955300  0.78955300  0.21044700  1
  Na  Na6  1  0.46044700  0.46044700  0.03955300  1
  Na  Na7  1  0.46044700  0.03955300  0.03955300  1
  Na  Na8  1  0.78955300  0.21044700  0.78955300  1
  Na  Na9  1  0.21044700  0.78955300  0.21044700  1
  Na  Na10  1  0.21044700  0.78955300  0.78955300  1
  Na  Na11  1  0.21044700  0.21044700  0.78955300  1
  Cu  Cu12  1  0.12500000  0.62500000  0.62500000  1
  Cu  Cu13  1  0.62500000  0.12500000  0.62500000  1
  Cu  Cu14  1  0.62500000  0.62500000  0.62500000  1
  Cu  Cu15  1  0.62500000  0.62500000  0.12500000  1
  P  P16  1  0.00000000  0.00000000  0.00000000  1
  P  P17  1  0.25000000  0.25000000  0.25000000  1
  C  C18  1  0.84288600  0.84288600  0.47134200  1
  C  C19  1  0.84288600  0.47134200  0.84288600  1
  C  C20  1  0.84288600  0.84288600  0.84288600  1
  C  C21  1  0.47134200  0.84288600  0.84288600  1
  C  C22  1  0.77865800  0.40711400  0.40711400  1
  C  C23  1  0.40711400  0.40711400  0.40711400  1
  C  C24  1  0.40711400  0.77865800  0.40711400  1
  C  C25  1  0.40711400  0.40711400  0.77865800  1
  O  O26  1  0.06465500  0.06465500  0.80603400  1
  O  O27  1  0.06465500  0.06465500  0.06465500  1
  O  O28  1  0.06465500  0.80603400  0.06465500  1
  O  O29  1  0.80603400  0.06465500  0.06465500  1
  O  O30  1  0.98478500  0.72271200  0.46901400  1
  O  O31  1  0.82348900  0.98478500  0.46901400  1
  O  O32  1  0.98478500  0.82348900  0.72271200  1
  O  O33  1  0.72271200  0.82348900  0.46901400  1
  O  O34  1  0.98478500  0.46901400  0.82348900  1
  O  O35  1  0.82348900  0.46901400  0.72271200  1
  O  O36  1  0.72271200  0.98478500  0.82348900  1
  O  O37  1  0.82348900  0.72271200  0.98478500  1
  O  O38  1  0.46901400  0.98478500  0.72271200  1
  O  O39  1  0.72271200  0.46901400  0.98478500  1
  O  O40  1  0.46901400  0.72271200  0.82348900  1
  O  O41  1  0.78098600  0.42651100  0.26521500  1
  O  O42  1  0.46901400  0.82348900  0.98478500  1
  O  O43  1  0.78098600  0.52728800  0.42651100  1
  O  O44  1  0.52728800  0.78098600  0.26521500  1
  O  O45  1  0.78098600  0.26521500  0.52728800  1
  O  O46  1  0.42651100  0.52728800  0.26521500  1
  O  O47  1  0.52728800  0.26521500  0.42651100  1
  O  O48  1  0.42651100  0.78098600  0.52728800  1
  O  O49  1  0.26521500  0.78098600  0.42651100  1
  O  O50  1  0.52728800  0.42651100  0.78098600  1
  O  O51  1  0.26521500  0.42651100  0.52728800  1
  O  O52  1  0.42651100  0.26521500  0.78098600  1
  O  O53  1  0.26521500  0.52728800  0.78098600  1
  O  O54  1  0.44396600  0.18534500  0.18534500  1
  O  O55  1  0.18534500  0.18534500  0.18534500  1
  O  O56  1  0.18534500  0.44396600  0.18534500  1
  O  O57  1  0.18534500  0.18534500  0.44396600  1
