# generated using pymatgen
data_CsY3O5
_symmetry_space_group_name_H-M   'P 1'
_cell_length_a   3.52049100
_cell_length_b   10.56182200
_cell_length_c   17.56484600
_cell_angle_alpha   90.00000000
_cell_angle_beta   90.00000000
_cell_angle_gamma   90.00000000
_symmetry_Int_Tables_number   1
_chemical_formula_structural   CsY3O5
_chemical_formula_sum   'Cs4 Y12 O20'
_cell_volume   653.11014346
_cell_formula_units_Z   4
loop_
 _symmetry_equiv_pos_site_id
 _symmetry_equiv_pos_as_xyz
  1  'x, y, z'
loop_
 _atom_site_type_symbol
 _atom_site_label
 _atom_site_symmetry_multiplicity
 _atom_site_fract_x
 _atom_site_fract_y
 _atom_site_fract_z
 _atom_site_occupancy
  Cs  Cs0  1  0.75000000  0.02913800  0.62506400  1
  Cs  Cs1  1  0.25000000  0.47086200  0.12506400  1
  Cs  Cs2  1  0.75000000  0.52913800  0.87493600  1
  Cs  Cs3  1  0.25000000  0.97086200  0.37493600  1
  Y  Y4  1  0.75000000  0.10613500  0.16118700  1
  Y  Y5  1  0.25000000  0.15056400  0.98686600  1
  Y  Y6  1  0.75000000  0.18553700  0.81497200  1
  Y  Y7  1  0.25000000  0.31446300  0.31497200  1
  Y  Y8  1  0.75000000  0.34943600  0.48686600  1
  Y  Y9  1  0.25000000  0.39386500  0.66118700  1
  Y  Y10  1  0.75000000  0.60613500  0.33881300  1
  Y  Y11  1  0.25000000  0.65056400  0.51313400  1
  Y  Y12  1  0.75000000  0.68553700  0.68502800  1
  Y  Y13  1  0.25000000  0.81446300  0.18502800  1
  Y  Y14  1  0.75000000  0.84943600  0.01313400  1
  Y  Y15  1  0.25000000  0.89386500  0.83881300  1
  O  O16  1  0.75000000  0.02133100  0.91978200  1
  O  O17  1  0.25000000  0.06885000  0.77076700  1
  O  O18  1  0.25000000  0.19085300  0.21420000  1
  O  O19  1  0.75000000  0.22180200  0.05088000  1
  O  O20  1  0.75000000  0.23015900  0.38474400  1
  O  O21  1  0.25000000  0.26984100  0.88474400  1
  O  O22  1  0.25000000  0.27819800  0.55088000  1
  O  O23  1  0.75000000  0.30914700  0.71420000  1
  O  O24  1  0.75000000  0.43115000  0.27076700  1
  O  O25  1  0.25000000  0.47866900  0.41978200  1
  O  O26  1  0.75000000  0.52133100  0.58021800  1
  O  O27  1  0.25000000  0.56885000  0.72923300  1
  O  O28  1  0.25000000  0.69085300  0.28580000  1
  O  O29  1  0.75000000  0.72180200  0.44912000  1
  O  O30  1  0.75000000  0.73015900  0.11525600  1
  O  O31  1  0.25000000  0.76984100  0.61525600  1
  O  O32  1  0.25000000  0.77819800  0.94912000  1
  O  O33  1  0.75000000  0.80914700  0.78580000  1
  O  O34  1  0.75000000  0.93115000  0.22923300  1
  O  O35  1  0.25000000  0.97866900  0.08021800  1
