# generated using pymatgen
data_Na4Co2P(CO4)4
_symmetry_space_group_name_H-M   'P 1'
_cell_length_a   10.00002540
_cell_length_b   9.98494065
_cell_length_c   9.80950713
_cell_angle_alpha   60.68070095
_cell_angle_beta   60.52717383
_cell_angle_gamma   58.79212522
_symmetry_Int_Tables_number   1
_chemical_formula_structural   Na4Co2P(CO4)4
_chemical_formula_sum   'Na8 Co4 P2 C8 O32'
_cell_volume   692.13532059
_cell_formula_units_Z   2
loop_
 _symmetry_equiv_pos_site_id
 _symmetry_equiv_pos_as_xyz
  1  'x, y, z'
loop_
 _atom_site_type_symbol
 _atom_site_label
 _atom_site_symmetry_multiplicity
 _atom_site_fract_x
 _atom_site_fract_y
 _atom_site_fract_z
 _atom_site_occupancy
  Na  Na0  1  0.96400000  0.53600000  0.96400000  1
  Na  Na1  1  0.96357100  0.53642900  0.53642900  1
  Na  Na2  1  0.71357100  0.28642900  0.28642900  1
  Na  Na3  1  0.71400000  0.28600000  0.71400000  1
  Na  Na4  1  0.53600000  0.96400000  0.53600000  1
  Na  Na5  1  0.53642900  0.96357100  0.96357100  1
  Na  Na6  1  0.28642900  0.71357100  0.71357100  1
  Na  Na7  1  0.28600000  0.71400000  0.28600000  1
  Co  Co8  1  0.12500000  0.62500000  0.12500000  1
  Co  Co9  1  0.62500000  0.12500000  0.12500000  1
  Co  Co10  1  0.12500000  0.12500000  0.12500000  1
  Co  Co11  1  0.12500000  0.12500000  0.62500000  1
  P  P12  1  0.50000000  0.50000000  0.50000000  1
  P  P13  1  0.75000000  0.75000000  0.75000000  1
  C  C14  1  0.90285100  0.26843000  0.91593400  1
  C  C15  1  0.98157000  0.34714900  0.33721500  1
  C  C16  1  0.91593400  0.91278500  0.90285100  1
  C  C17  1  0.91278500  0.91593400  0.26843000  1
  C  C18  1  0.33721500  0.33406600  0.98157000  1
  C  C19  1  0.33406600  0.33721500  0.34714900  1
  C  C20  1  0.26843000  0.90285100  0.91278500  1
  C  C21  1  0.34714900  0.98157000  0.33406600  1
  O  O22  1  0.01160800  0.27580000  0.94456700  1
  O  O23  1  0.56029300  0.56137300  0.30790600  1
  O  O24  1  0.76548900  0.26061900  0.03200400  1
  O  O25  1  0.98938100  0.48451100  0.30811100  1
  O  O26  1  0.03200400  0.94188900  0.76548900  1
  O  O27  1  0.97393400  0.32217900  0.22366400  1
  O  O28  1  0.30790600  0.57042900  0.56029300  1
  O  O29  1  0.56137300  0.56029300  0.57042900  1
  O  O30  1  0.48022300  0.22366400  0.32217900  1
  O  O31  1  0.94188900  0.03200400  0.26061900  1
  O  O32  1  0.97420000  0.23839200  0.48197500  1
  O  O33  1  0.57042900  0.30790600  0.56137300  1
  O  O34  1  0.94456700  0.76802500  0.01160800  1
  O  O35  1  0.76802500  0.94456700  0.27580000  1
  O  O36  1  0.92782100  0.27606600  0.76977700  1
  O  O37  1  0.22366400  0.48022300  0.97393400  1
  O  O38  1  0.02633600  0.76977700  0.27606600  1
  O  O39  1  0.32217900  0.97393400  0.48022300  1
  O  O40  1  0.48197500  0.30543300  0.97420000  1
  O  O41  1  0.30543300  0.48197500  0.23839200  1
  O  O42  1  0.67957100  0.94209400  0.68862700  1
  O  O43  1  0.27580000  0.01160800  0.76802500  1
  O  O44  1  0.30811100  0.21799600  0.98938100  1
  O  O45  1  0.76977700  0.02633600  0.92782100  1
  O  O46  1  0.68862700  0.68970700  0.67957100  1
  O  O47  1  0.94209400  0.67957100  0.68970700  1
  O  O48  1  0.27606600  0.92782100  0.02633600  1
  O  O49  1  0.21799600  0.30811100  0.48451100  1
  O  O50  1  0.26061900  0.76548900  0.94188900  1
  O  O51  1  0.48451100  0.98938100  0.21799600  1
  O  O52  1  0.68970700  0.68862700  0.94209400  1
  O  O53  1  0.23839200  0.97420000  0.30543300  1
