# generated using pymatgen
data_Nb2Ge2O7
_symmetry_space_group_name_H-M   'P 1'
_cell_length_a   5.76306400
_cell_length_b   8.01266200
_cell_length_c   13.70092448
_cell_angle_alpha   84.16824527
_cell_angle_beta   90.00000000
_cell_angle_gamma   90.00000000
_symmetry_Int_Tables_number   1
_chemical_formula_structural   Nb2Ge2O7
_chemical_formula_sum   'Nb8 Ge8 O28'
_cell_volume   629.39984462
_cell_formula_units_Z   4
loop_
 _symmetry_equiv_pos_site_id
 _symmetry_equiv_pos_as_xyz
  1  'x, y, z'
loop_
 _atom_site_type_symbol
 _atom_site_label
 _atom_site_symmetry_multiplicity
 _atom_site_fract_x
 _atom_site_fract_y
 _atom_site_fract_z
 _atom_site_occupancy
  Nb  Nb0  1  0.27005500  0.92551200  0.32244900  1
  Nb  Nb1  1  0.78810500  0.96721500  0.11737800  1
  Nb  Nb2  1  0.76188900  0.58631200  0.68581400  1
  Nb  Nb3  1  0.29064400  0.52389100  0.88954200  1
  Nb  Nb4  1  0.79064400  0.47610900  0.11045800  1
  Nb  Nb5  1  0.26188900  0.41368800  0.31418600  1
  Nb  Nb6  1  0.28810500  0.03278500  0.88262200  1
  Nb  Nb7  1  0.77005500  0.07448800  0.67755100  1
  Ge  Ge8  1  0.23716300  0.85583200  0.56322300  1
  Ge  Ge9  1  0.87405200  0.81353800  0.89818100  1
  Ge  Ge10  1  0.33981600  0.69420900  0.14062900  1
  Ge  Ge11  1  0.73941800  0.57702600  0.42832700  1
  Ge  Ge12  1  0.23941800  0.42297400  0.57167300  1
  Ge  Ge13  1  0.83981600  0.30579100  0.85937100  1
  Ge  Ge14  1  0.37405200  0.18646200  0.10181900  1
  Ge  Ge15  1  0.73716300  0.14416800  0.43677700  1
  O  O16  1  0.53033800  0.98151800  0.39572800  1
  O  O17  1  0.46649300  0.98469500  0.18482300  1
  O  O18  1  0.71112400  0.81147100  0.69500300  1
  O  O19  1  0.22705300  0.77179900  0.89129000  1
  O  O20  1  0.09019600  0.86318700  0.43520800  1
  O  O21  1  0.98860200  0.96238300  0.00699100  1
  O  O22  1  0.98494800  0.94194800  0.22271000  1
  O  O23  1  0.05146100  0.61907800  0.60767100  1
  O  O24  1  0.94871700  0.53886700  0.81326000  1
  O  O25  1  0.68653200  0.72647300  0.11085600  1
  O  O26  1  0.33320700  0.69621000  0.29026700  1
  O  O27  1  0.58561000  0.54312000  0.56260300  1
  O  O28  1  0.51683600  0.49356000  0.98487100  1
  O  O29  1  0.47023200  0.52108000  0.77469300  1
  O  O30  1  0.97023200  0.47892000  0.22530700  1
  O  O31  1  0.01683600  0.50644000  0.01512900  1
  O  O32  1  0.08561000  0.45688000  0.43739700  1
  O  O33  1  0.83320700  0.30379000  0.70973300  1
  O  O34  1  0.18653200  0.27352700  0.88914400  1
  O  O35  1  0.44871700  0.46113300  0.18674000  1
  O  O36  1  0.55146100  0.38092200  0.39232900  1
  O  O37  1  0.48494800  0.05805200  0.77729000  1
  O  O38  1  0.48860200  0.03761700  0.99300900  1
  O  O39  1  0.59019600  0.13681300  0.56479200  1
  O  O40  1  0.72705300  0.22820100  0.10871000  1
  O  O41  1  0.21112400  0.18852900  0.30499700  1
  O  O42  1  0.96649300  0.01530500  0.81517700  1
  O  O43  1  0.03033800  0.01848200  0.60427200  1
