# generated using pymatgen
data_La2P4O13
_symmetry_space_group_name_H-M   'P 1'
_cell_length_a   9.84419409
_cell_length_b   9.84419409
_cell_length_c   8.91831700
_cell_angle_alpha   90.00000000
_cell_angle_beta   90.00000000
_cell_angle_gamma   136.17175940
_symmetry_Int_Tables_number   1
_chemical_formula_structural   La2P4O13
_chemical_formula_sum   'La4 P8 O26'
_cell_volume   598.49743102
_cell_formula_units_Z   2
loop_
 _symmetry_equiv_pos_site_id
 _symmetry_equiv_pos_as_xyz
  1  'x, y, z'
loop_
 _atom_site_type_symbol
 _atom_site_label
 _atom_site_symmetry_multiplicity
 _atom_site_fract_x
 _atom_site_fract_y
 _atom_site_fract_z
 _atom_site_occupancy
  La  La0  1  0.60204500  0.89570700  0.14249700  1
  La  La1  1  0.10429300  0.39795500  0.35750300  1
  La  La2  1  0.39795500  0.10429300  0.64249700  1
  La  La3  1  0.89570700  0.60204500  0.85750300  1
  P  P4  1  0.72635300  0.84349900  0.76816900  1
  P  P5  1  0.15650100  0.27364700  0.73183100  1
  P  P6  1  0.09704600  0.41367300  0.99467500  1
  P  P7  1  0.58632700  0.90295400  0.50532500  1
  P  P8  1  0.41367300  0.09704600  0.00532500  1
  P  P9  1  0.90295400  0.58632700  0.49467500  1
  P  P10  1  0.84349900  0.72635300  0.23183100  1
  P  P11  1  0.27364700  0.15650100  0.26816900  1
  O  O12  1  0.70854200  0.74740600  0.21206800  1
  O  O13  1  0.25259400  0.29145800  0.28793200  1
  O  O14  1  0.93783000  0.06217000  0.75000000  1
  O  O15  1  0.20361700  0.37583800  0.89094800  1
  O  O16  1  0.62416200  0.79638300  0.60905200  1
  O  O17  1  0.62107200  0.84547700  0.88920300  1
  O  O18  1  0.15452300  0.37892800  0.61079700  1
  O  O19  1  0.93996000  0.22790000  0.09114400  1
  O  O20  1  0.77210000  0.06004000  0.40885600  1
  O  O21  1  0.42281500  0.74295200  0.39538000  1
  O  O22  1  0.25704800  0.57718500  0.10462000  1
  O  O23  1  0.01933000  0.46812300  0.89288000  1
  O  O24  1  0.53187700  0.98067000  0.60712000  1
  O  O25  1  0.46812300  0.01933000  0.10712000  1
  O  O26  1  0.98067000  0.53187700  0.39288000  1
  O  O27  1  0.57718500  0.25704800  0.89538000  1
  O  O28  1  0.74295200  0.42281500  0.60462000  1
  O  O29  1  0.06004000  0.77210000  0.59114400  1
  O  O30  1  0.22790000  0.93996000  0.90885600  1
  O  O31  1  0.84547700  0.62107200  0.11079700  1
  O  O32  1  0.37892800  0.15452300  0.38920300  1
  O  O33  1  0.37583800  0.20361700  0.10905200  1
  O  O34  1  0.79638300  0.62416200  0.39094800  1
  O  O35  1  0.06217000  0.93783000  0.25000000  1
  O  O36  1  0.29145800  0.25259400  0.71206800  1
  O  O37  1  0.74740600  0.70854200  0.78793200  1
