# generated using pymatgen
data_Na3CrSiBO7
_symmetry_space_group_name_H-M   'P 1'
_cell_length_a   5.32316028
_cell_length_b   8.95863939
_cell_length_c   6.48333300
_cell_angle_alpha   89.99983081
_cell_angle_beta   90.00022102
_cell_angle_gamma   87.88324419
_symmetry_Int_Tables_number   1
_chemical_formula_structural   Na3CrSiBO7
_chemical_formula_sum   'Na6 Cr2 Si2 B2 O14'
_cell_volume   308.96798357
_cell_formula_units_Z   2
loop_
 _symmetry_equiv_pos_site_id
 _symmetry_equiv_pos_as_xyz
  1  'x, y, z'
loop_
 _atom_site_type_symbol
 _atom_site_label
 _atom_site_symmetry_multiplicity
 _atom_site_fract_x
 _atom_site_fract_y
 _atom_site_fract_z
 _atom_site_occupancy
  Na  Na0  1  0.76286800  0.07966200  0.25000500  1
  Na  Na1  1  0.23763900  0.92012500  0.75000200  1
  Na  Na2  1  0.25701000  0.26086600  0.00846200  1
  Na  Na3  1  0.25701100  0.26086500  0.49154400  1
  Na  Na4  1  0.74279900  0.73905700  0.50848100  1
  Na  Na5  1  0.74279500  0.73905900  0.99152700  1
  Cr  Cr6  1  0.21210200  0.66683100  0.24999100  1
  Cr  Cr7  1  0.78769000  0.33314000  0.75001600  1
  Si  Si8  1  0.71727100  0.42835700  0.25000600  1
  Si  Si9  1  0.28192600  0.57181000  0.74999300  1
  B  B10  1  0.72918100  0.06661700  0.74999800  1
  B  B11  1  0.27217100  0.93317700  0.25000300  1
  O  O12  1  0.31307200  0.07965400  0.25000500  1
  O  O13  1  0.68609200  0.92051000  0.75000500  1
  O  O14  1  0.96513500  0.13161500  0.74999200  1
  O  O15  1  0.03630500  0.86744400  0.24999800  1
  O  O16  1  0.53710700  0.18143700  0.75000200  1
  O  O17  1  0.46433600  0.81918600  0.24999900  1
  O  O18  1  0.41644000  0.47661800  0.24999500  1
  O  O19  1  0.58260700  0.52384900  0.74999500  1
  O  O20  1  0.10638100  0.42560900  0.74999600  1
  O  O21  1  0.89179900  0.57460900  0.24999700  1
  O  O22  1  0.78412800  0.31941900  0.04991500  1
  O  O23  1  0.78412400  0.31942100  0.45008200  1
  O  O24  1  0.21600300  0.68053100  0.54972600  1
  O  O25  1  0.21600600  0.68053100  0.95026700  1
