# generated using pymatgen
data_SrYPd2
_symmetry_space_group_name_H-M   'P 1'
_cell_length_a   12.14383176
_cell_length_b   12.14383176
_cell_length_c   12.14383176
_cell_angle_alpha   126.13372081
_cell_angle_beta   118.03054344
_cell_angle_gamma   86.58234479
_symmetry_Int_Tables_number   1
_chemical_formula_structural   SrYPd2
_chemical_formula_sum   'Sr1 Y1 Pd2'
_cell_volume   1215.85944494
_cell_formula_units_Z   1
loop_
 _symmetry_equiv_pos_site_id
 _symmetry_equiv_pos_as_xyz
  1  'x, y, z'
loop_
 _atom_site_type_symbol
 _atom_site_label
 _atom_site_symmetry_multiplicity
 _atom_site_fract_x
 _atom_site_fract_y
 _atom_site_fract_z
 _atom_site_occupancy
  Sr  Sr0  1  0.00000000  0.00000000  0.00000000  1
  Y  Y1  1  0.00000000  0.50000000  0.50000000  1
  Pd  Pd2  1  0.00000000  0.27485500  0.27485500  1
  Pd  Pd3  1  0.00000000  0.72514500  0.72514500  1
