# generated using pymatgen
data_NbFe5(PO4)6
_symmetry_space_group_name_H-M   'P 1'
_cell_length_a   8.58612744
_cell_length_b   8.58612744
_cell_length_c   8.58612742
_cell_angle_alpha   61.01682424
_cell_angle_beta   61.01682424
_cell_angle_gamma   61.01682126
_symmetry_Int_Tables_number   1
_chemical_formula_structural   NbFe5(PO4)6
_chemical_formula_sum   'Nb1 Fe5 P6 O24'
_cell_volume   457.83678384
_cell_formula_units_Z   1
loop_
 _symmetry_equiv_pos_site_id
 _symmetry_equiv_pos_as_xyz
  1  'x, y, z'
loop_
 _atom_site_type_symbol
 _atom_site_label
 _atom_site_symmetry_multiplicity
 _atom_site_fract_x
 _atom_site_fract_y
 _atom_site_fract_z
 _atom_site_occupancy
  Nb  Nb0  1  0.85783500  0.85783500  0.85783500  1
  Fe  Fe1  1  0.00443500  0.00443500  0.00443500  1
  Fe  Fe2  1  0.35682300  0.35682300  0.35682300  1
  Fe  Fe3  1  0.50075500  0.50075500  0.50075500  1
  Fe  Fe4  1  0.14537600  0.14537600  0.14537600  1
  Fe  Fe5  1  0.64281000  0.64281000  0.64281000  1
  P  P6  1  0.74677600  0.04519200  0.45071300  1
  P  P7  1  0.04519200  0.45071300  0.74677600  1
  P  P8  1  0.45071300  0.74677600  0.04519200  1
  P  P9  1  0.53832700  0.25562100  0.95672800  1
  P  P10  1  0.95672800  0.53832700  0.25562100  1
  P  P11  1  0.25562100  0.95672800  0.53832700  1
  O  O12  1  0.88859700  0.49674800  0.68105200  1
  O  O13  1  0.49674800  0.68105200  0.88859700  1
  O  O14  1  0.68105200  0.88859700  0.49674800  1
  O  O15  1  0.90921300  0.06027800  0.26020800  1
  O  O16  1  0.81807300  0.99261300  0.61484700  1
  O  O17  1  0.59172400  0.23989100  0.44586000  1
  O  O18  1  0.06027800  0.26020800  0.90921300  1
  O  O19  1  0.23989100  0.44586000  0.59172400  1
  O  O20  1  0.38948700  0.18047500  0.99799400  1
  O  O21  1  0.44586000  0.59172400  0.23989100  1
  O  O22  1  0.73941200  0.09311600  0.93709500  1
  O  O23  1  0.99799400  0.38948700  0.18047500  1
  O  O24  1  0.99261300  0.61484700  0.81807300  1
  O  O25  1  0.26020800  0.90921300  0.06027800  1
  O  O26  1  0.55823600  0.40974800  0.75970400  1
  O  O27  1  0.61484700  0.81807300  0.99261300  1
  O  O28  1  0.75970400  0.55823600  0.40974800  1
  O  O29  1  0.93709500  0.73941200  0.09311600  1
  O  O30  1  0.40974800  0.75970400  0.55823600  1
  O  O31  1  0.18047500  0.99799400  0.38948700  1
  O  O32  1  0.09311600  0.93709500  0.73941200  1
  O  O33  1  0.31536500  0.11333000  0.50554200  1
  O  O34  1  0.50554200  0.31536500  0.11333000  1
  O  O35  1  0.11333000  0.50554200  0.31536500  1
