# generated using pymatgen
data_Na5Mn2P(CO4)4
_symmetry_space_group_name_H-M   'P 1'
_cell_length_a   10.08983030
_cell_length_b   10.04430215
_cell_length_c   9.96005392
_cell_angle_alpha   60.57888840
_cell_angle_beta   60.12366024
_cell_angle_gamma   59.29745136
_symmetry_Int_Tables_number   1
_chemical_formula_structural   Na5Mn2P(CO4)4
_chemical_formula_sum   'Na10 Mn4 P2 C8 O32'
_cell_volume   713.57405030
_cell_formula_units_Z   2
loop_
 _symmetry_equiv_pos_site_id
 _symmetry_equiv_pos_as_xyz
  1  'x, y, z'
loop_
 _atom_site_type_symbol
 _atom_site_label
 _atom_site_symmetry_multiplicity
 _atom_site_fract_x
 _atom_site_fract_y
 _atom_site_fract_z
 _atom_site_occupancy
  Na  Na0  1  0.79481900  0.79481900  0.20518100  1
  Na  Na1  1  0.79100700  0.20899300  0.79100700  1
  Na  Na2  1  0.79136500  0.20863500  0.20863500  1
  Na  Na3  1  0.54281500  0.54281500  0.95718500  1
  Na  Na4  1  0.20863500  0.79136500  0.79136500  1
  Na  Na5  1  0.53971800  0.96028200  0.96028200  1
  Na  Na6  1  0.20518100  0.20518100  0.79481900  1
  Na  Na7  1  0.20899300  0.79100700  0.20899300  1
  Na  Na8  1  0.96028200  0.53971800  0.53971800  1
  Na  Na9  1  0.95718500  0.95718500  0.54281500  1
  Mn  Mn10  1  0.37032700  0.37656600  0.87583600  1
  Mn  Mn11  1  0.37727100  0.87583600  0.37656600  1
  Mn  Mn12  1  0.37656600  0.37032700  0.37727100  1
  Mn  Mn13  1  0.87583600  0.37727100  0.37032700  1
  P  P14  1  0.75000000  0.75000000  0.75000000  1
  P  P15  1  0.00000000  0.00000000  0.00000000  1
  C  C16  1  0.59110300  0.59318900  0.58779800  1
  C  C17  1  0.52353600  0.16364300  0.15292500  1
  C  C18  1  0.15292500  0.15989500  0.52353600  1
  C  C19  1  0.16364300  0.52353600  0.15989500  1
  C  C20  1  0.58779800  0.22791100  0.59110300  1
  C  C21  1  0.59318900  0.59110300  0.22791100  1
  C  C22  1  0.22791100  0.58779800  0.59318900  1
  C  C23  1  0.15989500  0.15292500  0.16364300  1
  O  O24  1  0.73470800  0.47648700  0.56630000  1
  O  O25  1  0.52956200  0.02315200  0.17472900  1
  O  O26  1  0.56776600  0.72634900  0.46715000  1
  O  O27  1  0.52151900  0.27999800  0.01215600  1
  O  O28  1  0.47901400  0.57316000  0.72867300  1
  O  O29  1  0.81207400  0.56102500  0.80837100  1
  O  O30  1  0.81852900  0.80837100  0.56102500  1
  O  O31  1  0.52625800  0.19016500  0.26611200  1
  O  O32  1  0.19016500  0.52625800  0.01746500  1
  O  O33  1  0.26611200  0.01746500  0.52625800  1
  O  O34  1  0.80837100  0.81852900  0.81207400  1
  O  O35  1  0.56102500  0.81207400  0.81852900  1
  O  O36  1  0.57316000  0.47901400  0.21915300  1
  O  O37  1  0.72867300  0.21915300  0.47901400  1
  O  O38  1  0.27999800  0.52151900  0.18632700  1
  O  O39  1  0.01215600  0.18632700  0.52151900  1
  O  O40  1  0.72634900  0.56776600  0.23873500  1
  O  O41  1  0.46715000  0.23873500  0.56776600  1
  O  O42  1  0.17472900  0.27255600  0.52956200  1
  O  O43  1  0.02315200  0.52956200  0.27255600  1
  O  O44  1  0.19000000  0.93386000  0.93869100  1
  O  O45  1  0.93744900  0.93869100  0.93386000  1
  O  O46  1  0.47648700  0.73470800  0.22250500  1
  O  O47  1  0.56630000  0.22250500  0.73470800  1
  O  O48  1  0.22250500  0.56630000  0.47648700  1
  O  O49  1  0.93869100  0.93744900  0.19000000  1
  O  O50  1  0.93386000  0.19000000  0.93744900  1
  O  O51  1  0.27255600  0.17472900  0.02315200  1
  O  O52  1  0.23873500  0.46715000  0.72634900  1
  O  O53  1  0.18632700  0.01215600  0.27999800  1
  O  O54  1  0.21915300  0.72867300  0.57316000  1
  O  O55  1  0.01746500  0.26611200  0.19016500  1
