# generated using pymatgen
data_MgCdPd2
_symmetry_space_group_name_H-M   'P 1'
_cell_length_a   10.98795712
_cell_length_b   10.98795712
_cell_length_c   10.98795712
_cell_angle_alpha   124.62051131
_cell_angle_beta   118.50225106
_cell_angle_gamma   87.40179622
_symmetry_Int_Tables_number   1
_chemical_formula_structural   MgCdPd2
_chemical_formula_sum   'Mg1 Cd1 Pd2'
_cell_volume   911.45619312
_cell_formula_units_Z   1
loop_
 _symmetry_equiv_pos_site_id
 _symmetry_equiv_pos_as_xyz
  1  'x, y, z'
loop_
 _atom_site_type_symbol
 _atom_site_label
 _atom_site_symmetry_multiplicity
 _atom_site_fract_x
 _atom_site_fract_y
 _atom_site_fract_z
 _atom_site_occupancy
  Mg  Mg0  1  0.00000000  0.00000000  0.00000000  1
  Cd  Cd1  1  0.00000000  0.50000000  0.50000000  1
  Pd  Pd2  1  0.00000000  0.24074500  0.24074500  1
  Pd  Pd3  1  0.00000000  0.75925500  0.75925500  1
