# generated using pymatgen
data_Sr2YI7
_symmetry_space_group_name_H-M   'P 1'
_cell_length_a   14.61040900
_cell_length_b   8.31070100
_cell_length_c   14.91182783
_cell_angle_alpha   79.37934749
_cell_angle_beta   90.00000000
_cell_angle_gamma   90.00000000
_symmetry_Int_Tables_number   1
_chemical_formula_structural   Sr2YI7
_chemical_formula_sum   'Sr8 Y4 I28'
_cell_volume   1779.61697819
_cell_formula_units_Z   4
loop_
 _symmetry_equiv_pos_site_id
 _symmetry_equiv_pos_as_xyz
  1  'x, y, z'
loop_
 _atom_site_type_symbol
 _atom_site_label
 _atom_site_symmetry_multiplicity
 _atom_site_fract_x
 _atom_site_fract_y
 _atom_site_fract_z
 _atom_site_occupancy
  Sr  Sr0  1  0.53775900  0.75094500  0.77165900  1
  Sr  Sr1  1  0.12771100  0.75822600  0.65524800  1
  Sr  Sr2  1  0.79651800  0.77119400  0.15795200  1
  Sr  Sr3  1  0.36948000  0.62117700  0.26650400  1
  Sr  Sr4  1  0.86948000  0.37882300  0.73349600  1
  Sr  Sr5  1  0.29651800  0.22880600  0.84204800  1
  Sr  Sr6  1  0.62771100  0.24177400  0.34475200  1
  Sr  Sr7  1  0.03775900  0.24905500  0.22834100  1
  Y  Y8  1  0.84583000  0.85207300  0.55416300  1
  Y  Y9  1  0.07497000  0.84272600  0.05400900  1
  Y  Y10  1  0.57497000  0.15727400  0.94599100  1
  Y  Y11  1  0.34583000  0.14792700  0.44583700  1
  I  I12  1  0.69535100  0.88638500  0.90404900  1
  I  I13  1  0.41881200  0.92569500  0.99704700  1
  I  I14  1  0.51211600  0.95467700  0.51162800  1
  I  I15  1  0.16380000  0.88378000  0.86645900  1
  I  I16  1  0.25312900  0.84476200  0.40442200  1
  I  I17  1  0.74962400  0.87999400  0.37125800  1
  I  I18  1  0.91811400  0.79239000  0.74951400  1
  I  I19  1  0.00336900  0.83459600  0.25094300  1
  I  I20  1  0.34016700  0.60652600  0.70118900  1
  I  I21  1  0.58803000  0.60360000  0.19974000  1
  I  I22  1  0.68979500  0.61469600  0.62745500  1
  I  I23  1  0.71643300  0.42244800  0.88796700  1
  I  I24  1  0.96661100  0.55120000  0.53951900  1
  I  I25  1  0.44543200  0.44368000  0.95280500  1
  I  I26  1  0.94543200  0.55632000  0.04719500  1
  I  I27  1  0.46661100  0.44880000  0.46048100  1
  I  I28  1  0.21643300  0.57755200  0.11203300  1
  I  I29  1  0.18979500  0.38530400  0.37254500  1
  I  I30  1  0.08803000  0.39640000  0.80026000  1
  I  I31  1  0.84016700  0.39347400  0.29881100  1
  I  I32  1  0.50336900  0.16540400  0.74905700  1
  I  I33  1  0.41811400  0.20761000  0.25048600  1
  I  I34  1  0.24962400  0.12000600  0.62874200  1
  I  I35  1  0.75312900  0.15523800  0.59557800  1
  I  I36  1  0.66380000  0.11622000  0.13354100  1
  I  I37  1  0.01211600  0.04532300  0.48837200  1
  I  I38  1  0.91881200  0.07430500  0.00295300  1
  I  I39  1  0.19535100  0.11361500  0.09595100  1
