# generated using pymatgen
data_Mn3(PO4)2
_symmetry_space_group_name_H-M   'P 1'
_cell_length_a   4.95571000
_cell_length_b   10.71571615
_cell_length_c   6.25854660
_cell_angle_alpha   90.32014467
_cell_angle_beta   89.99970289
_cell_angle_gamma   89.99989043
_symmetry_Int_Tables_number   1
_chemical_formula_structural   Mn3(PO4)2
_chemical_formula_sum   'Mn6 P4 O16'
_cell_volume   332.34855571
_cell_formula_units_Z   2
loop_
 _symmetry_equiv_pos_site_id
 _symmetry_equiv_pos_as_xyz
  1  'x, y, z'
loop_
 _atom_site_type_symbol
 _atom_site_label
 _atom_site_symmetry_multiplicity
 _atom_site_fract_x
 _atom_site_fract_y
 _atom_site_fract_z
 _atom_site_occupancy
  Mn  Mn0  1  0.00040000  0.00007300  0.50062100  1
  Mn  Mn1  1  0.98880500  0.28255900  0.23443400  1
  Mn  Mn2  1  0.01107700  0.71737800  0.76554700  1
  Mn  Mn3  1  0.49959900  0.49997200  0.49966000  1
  Mn  Mn4  1  0.51117700  0.78261600  0.23443900  1
  Mn  Mn5  1  0.48889500  0.21742200  0.76552300  1
  P  P6  1  0.06865100  0.60117000  0.26160800  1
  P  P7  1  0.43136700  0.10114200  0.26164700  1
  P  P8  1  0.56873000  0.89882400  0.73834800  1
  P  P9  1  0.93129200  0.39885500  0.73831300  1
  O  O10  1  0.17446500  0.68092000  0.07322700  1
  O  O11  1  0.32558400  0.18089700  0.07327200  1
  O  O12  1  0.67447700  0.81907600  0.92674000  1
  O  O13  1  0.82556200  0.31909300  0.92670900  1
  O  O14  1  0.32417100  0.96493900  0.25342200  1
  O  O15  1  0.17579400  0.46496200  0.25333300  1
  O  O16  1  0.82410600  0.53506800  0.74655400  1
  O  O17  1  0.67584400  0.03504500  0.74663600  1
  O  O18  1  0.75838800  0.60780100  0.28025300  1
  O  O19  1  0.74163700  0.10777000  0.28035300  1
  O  O20  1  0.25848700  0.89218200  0.71976400  1
  O  O21  1  0.24152000  0.39221100  0.71967200  1
  O  O22  1  0.21711600  0.66082200  0.46395000  1
  O  O23  1  0.28287400  0.16080100  0.46400600  1
  O  O24  1  0.71720500  0.83919300  0.53600900  1
  O  O25  1  0.78277500  0.33920800  0.53595900  1
