# generated using pymatgen
data_Tm2(WO4)3
_symmetry_space_group_name_H-M   'P 1'
_cell_length_a   6.87344541
_cell_length_b   6.87344541
_cell_length_c   11.31645890
_cell_angle_alpha   79.27177595
_cell_angle_beta   79.27177595
_cell_angle_gamma   112.11359941
_symmetry_Int_Tables_number   1
_chemical_formula_structural   Tm2(WO4)3
_chemical_formula_sum   'Tm4 W6 O24'
_cell_volume   466.97362271
_cell_formula_units_Z   2
loop_
 _symmetry_equiv_pos_site_id
 _symmetry_equiv_pos_as_xyz
  1  'x, y, z'
loop_
 _atom_site_type_symbol
 _atom_site_label
 _atom_site_symmetry_multiplicity
 _atom_site_fract_x
 _atom_site_fract_y
 _atom_site_fract_z
 _atom_site_occupancy
  Tm  Tm0  1  0.71252500  0.95726900  0.59163500  1
  Tm  Tm1  1  0.95726900  0.71252500  0.09163500  1
  Tm  Tm2  1  0.04273100  0.28747500  0.90836500  1
  Tm  Tm3  1  0.28747500  0.04273100  0.40836500  1
  W  W4  1  0.53939200  0.75545200  0.94934600  1
  W  W5  1  0.75545200  0.53939200  0.44934600  1
  W  W6  1  0.13193700  0.86806300  0.75000000  1
  W  W7  1  0.86806300  0.13193700  0.25000000  1
  W  W8  1  0.24454800  0.46060800  0.55065400  1
  W  W9  1  0.46060800  0.24454800  0.05065400  1
  O  O10  1  0.54678300  0.90588200  0.79560300  1
  O  O11  1  0.86933800  0.78995500  0.71945300  1
  O  O12  1  0.07728600  0.65840600  0.89603200  1
  O  O13  1  0.76972600  0.32924600  0.56169800  1
  O  O14  1  0.82057400  0.92042600  0.96154600  1
  O  O15  1  0.52857100  0.60610100  0.57546100  1
  O  O16  1  0.90588200  0.54678300  0.29560300  1
  O  O17  1  0.39389900  0.47142900  0.92453900  1
  O  O18  1  0.07957400  0.17942600  0.53845400  1
  O  O19  1  0.67075400  0.23027400  0.93830200  1
  O  O20  1  0.34159400  0.92271400  0.60396800  1
  O  O21  1  0.78995500  0.86933800  0.21945300  1
  O  O22  1  0.21004500  0.13066200  0.78054700  1
  O  O23  1  0.65840600  0.07728600  0.39603300  1
  O  O24  1  0.32924600  0.76972600  0.06169800  1
  O  O25  1  0.92042600  0.82057400  0.46154600  1
  O  O26  1  0.60610100  0.52857100  0.07546100  1
  O  O27  1  0.09411800  0.45321700  0.70439700  1
  O  O28  1  0.47142900  0.39389900  0.42453900  1
  O  O29  1  0.17942600  0.07957400  0.03845400  1
  O  O30  1  0.23027400  0.67075400  0.43830200  1
  O  O31  1  0.92271400  0.34159400  0.10396800  1
  O  O32  1  0.13066200  0.21004500  0.28054700  1
  O  O33  1  0.45321700  0.09411800  0.20439700  1
