# generated using pymatgen
data_Mn3Cr(PO4)6
_symmetry_space_group_name_H-M   'P 1'
_cell_length_a   8.66490816
_cell_length_b   8.66490816
_cell_length_c   8.66490816
_cell_angle_alpha   58.13087436
_cell_angle_beta   58.13087436
_cell_angle_gamma   58.13086752
_symmetry_Int_Tables_number   1
_chemical_formula_structural   Mn3Cr(PO4)6
_chemical_formula_sum   'Mn3 Cr1 P6 O24'
_cell_volume   440.31050229
_cell_formula_units_Z   1
loop_
 _symmetry_equiv_pos_site_id
 _symmetry_equiv_pos_as_xyz
  1  'x, y, z'
loop_
 _atom_site_type_symbol
 _atom_site_label
 _atom_site_symmetry_multiplicity
 _atom_site_fract_x
 _atom_site_fract_y
 _atom_site_fract_z
 _atom_site_occupancy
  Mn  Mn0  1  0.14413800  0.14413800  0.14413800  1
  Mn  Mn1  1  0.35644800  0.35644800  0.35644800  1
  Mn  Mn2  1  0.64436200  0.64436200  0.64436200  1
  Cr  Cr3  1  0.85761000  0.85761000  0.85761000  1
  P  P4  1  0.03449600  0.46429700  0.74981500  1
  P  P5  1  0.46429700  0.74981500  0.03449600  1
  P  P6  1  0.74981500  0.03449600  0.46429700  1
  P  P7  1  0.25183500  0.96710500  0.53238900  1
  P  P8  1  0.53238900  0.25183500  0.96710500  1
  P  P9  1  0.96710500  0.53238900  0.25183500  1
  O  O10  1  0.14309100  0.51400400  0.27044400  1
  O  O11  1  0.27044400  0.14309100  0.51400400  1
  O  O12  1  0.05802500  0.27988900  0.92723200  1
  O  O13  1  0.51400400  0.27044400  0.14309100  1
  O  O14  1  0.21992100  0.44518000  0.57229800  1
  O  O15  1  0.00655500  0.63822600  0.78107900  1
  O  O16  1  0.27988900  0.92723200  0.05802500  1
  O  O17  1  0.44518000  0.57229800  0.21992100  1
  O  O18  1  0.57229800  0.21992100  0.44518000  1
  O  O19  1  0.22723700  0.98841200  0.35831200  1
  O  O20  1  0.07481600  0.93699300  0.71853400  1
  O  O21  1  0.35831200  0.22723700  0.98841200  1
  O  O22  1  0.63822600  0.78107900  0.00655500  1
  O  O23  1  0.92723200  0.05802500  0.27988900  1
  O  O24  1  0.78107900  0.00655500  0.63822600  1
  O  O25  1  0.42573000  0.77978200  0.56024200  1
  O  O26  1  0.56024200  0.42573000  0.77978200  1
  O  O27  1  0.71853400  0.07481600  0.93699300  1
  O  O28  1  0.98841200  0.35831200  0.22723700  1
  O  O29  1  0.77978200  0.56024200  0.42573000  1
  O  O30  1  0.48619600  0.72562300  0.85968100  1
  O  O31  1  0.93699300  0.71853400  0.07481600  1
  O  O32  1  0.72562300  0.85968100  0.48619600  1
  O  O33  1  0.85968100  0.48619600  0.72562300  1
