# generated using pymatgen
data_Sr2LaCl7
_symmetry_space_group_name_H-M   'P 1'
_cell_length_a   13.81154900
_cell_length_b   7.19391700
_cell_length_c   12.44947316
_cell_angle_alpha   89.55460208
_cell_angle_beta   90.00000000
_cell_angle_gamma   90.00000000
_symmetry_Int_Tables_number   1
_chemical_formula_structural   Sr2LaCl7
_chemical_formula_sum   'Sr8 La4 Cl28'
_cell_volume   1236.93153618
_cell_formula_units_Z   4
loop_
 _symmetry_equiv_pos_site_id
 _symmetry_equiv_pos_as_xyz
  1  'x, y, z'
loop_
 _atom_site_type_symbol
 _atom_site_label
 _atom_site_symmetry_multiplicity
 _atom_site_fract_x
 _atom_site_fract_y
 _atom_site_fract_z
 _atom_site_occupancy
  Sr  Sr0  1  0.52003000  0.80134200  0.71439600  1
  Sr  Sr1  1  0.13873800  0.73457500  0.64388400  1
  Sr  Sr2  1  0.78839500  0.73255800  0.14668400  1
  Sr  Sr3  1  0.39457300  0.73439400  0.19180400  1
  Sr  Sr4  1  0.89457300  0.26560600  0.80819600  1
  Sr  Sr5  1  0.28839500  0.26744200  0.85331600  1
  Sr  Sr6  1  0.63873800  0.26542500  0.35611600  1
  Sr  Sr7  1  0.02003000  0.19865800  0.28560400  1
  La  La8  1  0.84698000  0.81466900  0.55958200  1
  La  La9  1  0.06911600  0.79142600  0.02660700  1
  La  La10  1  0.56911600  0.20857400  0.97339300  1
  La  La11  1  0.34698000  0.18533100  0.44041800  1
  Cl  Cl12  1  0.66081100  0.90417200  0.87946200  1
  Cl  Cl13  1  0.40685200  0.96449600  0.98768700  1
  Cl  Cl14  1  0.52195400  0.00279600  0.50305500  1
  Cl  Cl15  1  0.17959800  0.91078400  0.85445600  1
  Cl  Cl16  1  0.27392500  0.84498900  0.37871400  1
  Cl  Cl17  1  0.75778200  0.90427900  0.36632300  1
  Cl  Cl18  1  0.94310800  0.86118100  0.76011700  1
  Cl  Cl19  1  0.98531600  0.80360300  0.23860000  1
  Cl  Cl20  1  0.33423200  0.59326200  0.69715200  1
  Cl  Cl21  1  0.59706100  0.56829000  0.18421000  1
  Cl  Cl22  1  0.68191800  0.61631100  0.61279800  1
  Cl  Cl23  1  0.71496900  0.42743700  0.89133900  1
  Cl  Cl24  1  0.96898100  0.50448200  0.57357500  1
  Cl  Cl25  1  0.42871600  0.48838800  0.97682900  1
  Cl  Cl26  1  0.92871600  0.51161200  0.02317100  1
  Cl  Cl27  1  0.46898100  0.49551800  0.42642500  1
  Cl  Cl28  1  0.21496900  0.57256300  0.10866100  1
  Cl  Cl29  1  0.18191800  0.38368900  0.38720200  1
  Cl  Cl30  1  0.09706100  0.43171000  0.81579000  1
  Cl  Cl31  1  0.83423200  0.40673800  0.30284800  1
  Cl  Cl32  1  0.48531600  0.19639700  0.76140000  1
  Cl  Cl33  1  0.44310800  0.13881900  0.23988300  1
  Cl  Cl34  1  0.25778200  0.09572100  0.63367700  1
  Cl  Cl35  1  0.77392500  0.15501100  0.62128600  1
  Cl  Cl36  1  0.67959800  0.08921600  0.14554400  1
  Cl  Cl37  1  0.02195400  0.99720400  0.49694500  1
  Cl  Cl38  1  0.90685200  0.03550400  0.01231300  1
  Cl  Cl39  1  0.16081100  0.09582800  0.12053800  1
