# generated using pymatgen
data_Ba3La2Cl12
_symmetry_space_group_name_H-M   'P 1'
_cell_length_a   8.99773305
_cell_length_b   8.99773305
_cell_length_c   15.93903956
_cell_angle_alpha   79.38763607
_cell_angle_beta   79.38763607
_cell_angle_gamma   109.92857037
_symmetry_Int_Tables_number   1
_chemical_formula_structural   Ba3La2Cl12
_chemical_formula_sum   'Ba6 La4 Cl24'
_cell_volume   1149.02428186
_cell_formula_units_Z   2
loop_
 _symmetry_equiv_pos_site_id
 _symmetry_equiv_pos_as_xyz
  1  'x, y, z'
loop_
 _atom_site_type_symbol
 _atom_site_label
 _atom_site_symmetry_multiplicity
 _atom_site_fract_x
 _atom_site_fract_y
 _atom_site_fract_z
 _atom_site_occupancy
  Ba  Ba0  1  0.86983900  0.13016100  0.25000000  1
  Ba  Ba1  1  0.78607900  0.53919300  0.42007000  1
  Ba  Ba2  1  0.53919300  0.78607900  0.92007000  1
  Ba  Ba3  1  0.46080700  0.21392100  0.07993000  1
  Ba  Ba4  1  0.21392100  0.46080700  0.57993000  1
  Ba  Ba5  1  0.13016100  0.86983900  0.75000000  1
  La  La6  1  0.95083900  0.70078000  0.08996500  1
  La  La7  1  0.70078000  0.95083900  0.58996500  1
  La  La8  1  0.29922000  0.04916100  0.41003500  1
  La  La9  1  0.04916100  0.29922000  0.91003500  1
  Cl  Cl10  1  0.38787100  0.40852100  0.91712500  1
  Cl  Cl11  1  0.05955100  0.09560200  0.07336000  1
  Cl  Cl12  1  0.59147900  0.61212900  0.58287500  1
  Cl  Cl13  1  0.50224500  0.99373400  0.73978500  1
  Cl  Cl14  1  0.79441200  0.76287300  0.24265400  1
  Cl  Cl15  1  0.15694100  0.64351600  0.92529400  1
  Cl  Cl16  1  0.90439800  0.94044900  0.42664000  1
  Cl  Cl17  1  0.64351600  0.15694100  0.42529400  1
  Cl  Cl18  1  0.99373400  0.50224500  0.23978500  1
  Cl  Cl19  1  0.70531700  0.14573700  0.93006700  1
  Cl  Cl20  1  0.23712700  0.20558800  0.25734600  1
  Cl  Cl21  1  0.85426300  0.29468300  0.56993300  1
  Cl  Cl22  1  0.14573700  0.70531700  0.43006700  1
  Cl  Cl23  1  0.76287300  0.79441200  0.74265400  1
  Cl  Cl24  1  0.29468300  0.85426300  0.06993300  1
  Cl  Cl25  1  0.00626600  0.49775500  0.76021500  1
  Cl  Cl26  1  0.35648400  0.84305900  0.57470600  1
  Cl  Cl27  1  0.09560200  0.05955100  0.57336000  1
  Cl  Cl28  1  0.84305900  0.35648400  0.07470600  1
  Cl  Cl29  1  0.20558800  0.23712700  0.75734600  1
  Cl  Cl30  1  0.49775500  0.00626600  0.26021500  1
  Cl  Cl31  1  0.40852100  0.38787100  0.41712500  1
  Cl  Cl32  1  0.94044900  0.90439800  0.92664000  1
  Cl  Cl33  1  0.61212900  0.59147900  0.08287500  1
