# generated using pymatgen
data_Y2AlCu
_symmetry_space_group_name_H-M   'P 1'
_cell_length_a   11.45409908
_cell_length_b   11.45409908
_cell_length_c   11.45409908
_cell_angle_alpha   120.10220449
_cell_angle_beta   119.78082255
_cell_angle_gamma   90.10155638
_symmetry_Int_Tables_number   1
_chemical_formula_structural   Y2AlCu
_chemical_formula_sum   'Y2 Al1 Cu1'
_cell_volume   1063.52221391
_cell_formula_units_Z   1
loop_
 _symmetry_equiv_pos_site_id
 _symmetry_equiv_pos_as_xyz
  1  'x, y, z'
loop_
 _atom_site_type_symbol
 _atom_site_label
 _atom_site_symmetry_multiplicity
 _atom_site_fract_x
 _atom_site_fract_y
 _atom_site_fract_z
 _atom_site_occupancy
  Y  Y0  1  0.25461900  0.00000000  0.25461900  1
  Y  Y1  1  0.74538100  0.00000000  0.74538100  1
  Al  Al2  1  0.00000000  0.00000000  0.00000000  1
  Cu  Cu3  1  0.50000000  0.00000000  0.50000000  1
