# generated using pymatgen
data_Na4Sn4H10O11
_symmetry_space_group_name_H-M   'P 1'
_cell_length_a   8.75832600
_cell_length_b   12.81091600
_cell_length_c   17.39796082
_cell_angle_alpha   56.38839661
_cell_angle_beta   90.00000000
_cell_angle_gamma   90.00000000
_symmetry_Int_Tables_number   1
_chemical_formula_structural   Na4Sn4H10O11
_chemical_formula_sum   'Na16 Sn16 H40 O44'
_cell_volume   1625.71767558
_cell_formula_units_Z   4
loop_
 _symmetry_equiv_pos_site_id
 _symmetry_equiv_pos_as_xyz
  1  'x, y, z'
loop_
 _atom_site_type_symbol
 _atom_site_label
 _atom_site_symmetry_multiplicity
 _atom_site_fract_x
 _atom_site_fract_y
 _atom_site_fract_z
 _atom_site_occupancy
  Na  Na0  1  0.85367700  0.41351900  0.99105800  1
  Na  Na1  1  0.59930500  0.65572900  0.94163000  1
  Na  Na2  1  0.31166400  0.91659400  0.84144600  1
  Na  Na3  1  0.90910400  0.78291300  0.79027900  1
  Na  Na4  1  0.40910400  0.21708700  0.70972100  1
  Na  Na5  1  0.35367700  0.58648100  0.50894200  1
  Na  Na6  1  0.81166400  0.08340600  0.65855400  1
  Na  Na7  1  0.90069500  0.65572900  0.44163000  1
  Na  Na8  1  0.09930500  0.34427100  0.55837000  1
  Na  Na9  1  0.18833600  0.91659400  0.34144600  1
  Na  Na10  1  0.64632300  0.41351900  0.49105800  1
  Na  Na11  1  0.59089600  0.78291300  0.29027900  1
  Na  Na12  1  0.09089600  0.21708700  0.20972100  1
  Na  Na13  1  0.68833600  0.08340600  0.15855400  1
  Na  Na14  1  0.40069500  0.34427100  0.05837000  1
  Na  Na15  1  0.14632300  0.58648100  0.00894200  1
  Sn  Sn16  1  0.59813700  0.27551000  0.92972500  1
  Sn  Sn17  1  0.07556500  0.21532800  0.81843100  1
  Sn  Sn18  1  0.17843700  0.51438600  0.84465200  1
  Sn  Sn19  1  0.68782500  0.95569200  0.91387800  1
  Sn  Sn20  1  0.67843700  0.48561400  0.65534800  1
  Sn  Sn21  1  0.57556500  0.78467200  0.68156900  1
  Sn  Sn22  1  0.09813700  0.72449000  0.57027500  1
  Sn  Sn23  1  0.18782500  0.04430800  0.58612200  1
  Sn  Sn24  1  0.81217500  0.95569200  0.41387800  1
  Sn  Sn25  1  0.90186300  0.27551000  0.42972500  1
  Sn  Sn26  1  0.42443500  0.21532800  0.31843100  1
  Sn  Sn27  1  0.32156300  0.51438600  0.34465200  1
  Sn  Sn28  1  0.31217500  0.04430800  0.08612200  1
  Sn  Sn29  1  0.82156300  0.48561400  0.15534800  1
  Sn  Sn30  1  0.92443500  0.78467200  0.18156900  1
  Sn  Sn31  1  0.40186300  0.72449000  0.07027500  1
  H  H32  1  0.86423300  0.67974400  0.97930400  1
  H  H33  1  0.59510000  0.51044100  0.88868400  1
  H  H34  1  0.12288600  0.80423400  0.02166000  1
  H  H35  1  0.76567000  0.61533500  0.81274800  1
  H  H36  1  0.91903500  0.54871500  0.76510000  1
  H  H37  1  0.29482600  0.05827200  0.90851800  1
  H  H38  1  0.94646600  0.88252800  0.88767400  1
  H  H39  1  0.41903500  0.45128500  0.73490000  1
  H  H40  1  0.29075100  0.72086800  0.81966900  1
  H  H41  1  0.26567000  0.38466500  0.68725200  1
  H  H42  1  0.14653000  0.86257300  0.75431400  1
  H  H43  1  0.02238700  0.09229100  0.74523600  1
  H  H44  1  0.09510000  0.48955900  0.61131600  1
  H  H45  1  0.52238700  0.90770900  0.75476400  1
  H  H46  1  0.64653000  0.13742700  0.74568600  1
  H  H47  1  0.79075100  0.27913200  0.68033100  1
  H  H48  1  0.44646600  0.11747200  0.61232600  1
  H  H49  1  0.79482600  0.94172800  0.59148200  1
  H  H50  1  0.63576700  0.67974400  0.47930400  1
  H  H51  1  0.37711400  0.80423400  0.52166000  1
  H  H52  1  0.62288600  0.19576600  0.47834000  1
  H  H53  1  0.36423300  0.32025600  0.52069600  1
  H  H54  1  0.20517400  0.05827200  0.40851800  1
  H  H55  1  0.55353400  0.88252800  0.38767400  1
  H  H56  1  0.20924900  0.72086800  0.31966900  1
  H  H57  1  0.35347000  0.86257300  0.25431400  1
  H  H58  1  0.47761300  0.09229100  0.24523600  1
  H  H59  1  0.90490000  0.51044100  0.38868400  1
  H  H60  1  0.97761300  0.90770900  0.25476400  1
  H  H61  1  0.85347000  0.13742700  0.24568600  1
  H  H62  1  0.73433000  0.61533500  0.31274800  1
  H  H63  1  0.70924900  0.27913200  0.18033100  1
  H  H64  1  0.58096500  0.54871500  0.26510000  1
  H  H65  1  0.05353400  0.11747200  0.11232600  1
  H  H66  1  0.70517400  0.94172800  0.09148200  1
  H  H67  1  0.08096500  0.45128500  0.23490000  1
  H  H68  1  0.23433000  0.38466500  0.18725200  1
  H  H69  1  0.87711400  0.19576600  0.97834000  1
  H  H70  1  0.40490000  0.48955900  0.11131600  1
  H  H71  1  0.13576700  0.32025600  0.02069600  1
  O  O72  1  0.80499100  0.21976000  0.00869400  1
  O  O73  1  0.13817900  0.41365300  0.98877900  1
  O  O74  1  0.58393800  0.42707400  0.94710500  1
  O  O75  1  0.52106200  0.82437600  0.94723300  1
  O  O76  1  0.93871100  0.54853100  0.82025600  1
  O  O77  1  0.84694200  0.84308100  0.89546900  1
  O  O78  1  0.19110000  0.68077500  0.84402800  1
  O  O79  1  0.67460200  0.66228500  0.81254300  1
  O  O80  1  0.17460200  0.33771500  0.68745700  1
  O  O81  1  0.26338200  0.09580200  0.84451800  1
  O  O82  1  0.43871100  0.45146900  0.67974400  1
  O  O83  1  0.44987100  0.85688200  0.74567700  1
  O  O84  1  0.60144800  0.05311600  0.77620700  1
  O  O85  1  0.10144800  0.94688400  0.72379300  1
  O  O86  1  0.94987100  0.14311800  0.75432300  1
  O  O87  1  0.76338200  0.90419800  0.65548200  1
  O  O88  1  0.08393800  0.57292600  0.55289500  1
  O  O89  1  0.63817900  0.58634700  0.51122100  1
  O  O90  1  0.30499100  0.78024000  0.49130600  1
  O  O91  1  0.69110000  0.31922500  0.65597200  1
  O  O92  1  0.34694200  0.15691900  0.60453100  1
  O  O93  1  0.97893800  0.82437600  0.44723300  1
  O  O94  1  0.02106200  0.17562400  0.55276700  1
  O  O95  1  0.65305800  0.84308100  0.39546900  1
  O  O96  1  0.30890000  0.68077500  0.34402800  1
  O  O97  1  0.69500900  0.21976000  0.50869400  1
  O  O98  1  0.36182100  0.41365300  0.48877900  1
  O  O99  1  0.91606200  0.42707400  0.44710500  1
  O  O100  1  0.23661800  0.09580200  0.34451800  1
  O  O101  1  0.05012900  0.85688200  0.24567700  1
  O  O102  1  0.89855200  0.05311600  0.27620700  1
  O  O103  1  0.39855200  0.94688400  0.22379300  1
  O  O104  1  0.55012900  0.14311800  0.25432300  1
  O  O105  1  0.56128900  0.54853100  0.32025600  1
  O  O106  1  0.73661800  0.90419800  0.15548200  1
  O  O107  1  0.82539800  0.66228500  0.31254300  1
  O  O108  1  0.32539800  0.33771500  0.18745700  1
  O  O109  1  0.80890000  0.31922500  0.15597200  1
  O  O110  1  0.15305800  0.15691900  0.10453100  1
  O  O111  1  0.06128900  0.45146900  0.17974400  1
  O  O112  1  0.47893800  0.17562400  0.05276700  1
  O  O113  1  0.41606200  0.57292600  0.05289500  1
  O  O114  1  0.86182100  0.58634700  0.01122100  1
  O  O115  1  0.19500900  0.78024000  0.99130600  1
