# generated using pymatgen
data_Mn3V2O10
_symmetry_space_group_name_H-M   'P 1'
_cell_length_a   5.01438527
_cell_length_b   5.57451910
_cell_length_c   14.32182080
_cell_angle_alpha   96.05497174
_cell_angle_beta   82.80335351
_cell_angle_gamma   103.15074595
_symmetry_Int_Tables_number   1
_chemical_formula_structural   Mn3V2O10
_chemical_formula_sum   'Mn6 V4 O20'
_cell_volume   385.53506848
_cell_formula_units_Z   2
loop_
 _symmetry_equiv_pos_site_id
 _symmetry_equiv_pos_as_xyz
  1  'x, y, z'
loop_
 _atom_site_type_symbol
 _atom_site_label
 _atom_site_symmetry_multiplicity
 _atom_site_fract_x
 _atom_site_fract_y
 _atom_site_fract_z
 _atom_site_occupancy
  Mn  Mn0  1  0.50013100  0.00026300  0.49997700  1
  Mn  Mn1  1  0.24527500  0.43539100  0.45024400  1
  Mn  Mn2  1  0.75470600  0.56457800  0.54976000  1
  Mn  Mn3  1  0.99999400  0.49999600  0.99999600  1
  Mn  Mn4  1  0.74530700  0.93543200  0.95024700  1
  Mn  Mn5  1  0.25468400  0.06454900  0.04974900  1
  V  V6  1  0.76110200  0.38038100  0.33775100  1
  V  V7  1  0.26112000  0.88031700  0.83777900  1
  V  V8  1  0.73887600  0.11962700  0.16221500  1
  V  V9  1  0.23887400  0.61965100  0.66224000  1
  O  O10  1  0.62820400  0.62845500  0.42752700  1
  O  O11  1  0.12817400  0.12846300  0.92753400  1
  O  O12  1  0.87180600  0.87148400  0.07247000  1
  O  O13  1  0.37180800  0.37149300  0.57248600  1
  O  O14  1  0.86290900  0.27421100  0.47726300  1
  O  O15  1  0.36290700  0.77420000  0.97724100  1
  O  O16  1  0.63708500  0.22578600  0.02275800  1
  O  O17  1  0.13712500  0.72575200  0.52276400  1
  O  O18  1  0.80748800  0.06065500  0.27165500  1
  O  O19  1  0.30749900  0.56064600  0.77168400  1
  O  O20  1  0.69249200  0.43938400  0.22832200  1
  O  O21  1  0.19248400  0.93935900  0.72835200  1
  O  O22  1  0.08907700  0.32056000  0.10816300  1
  O  O23  1  0.58905800  0.82057900  0.60817000  1
  O  O24  1  0.41095300  0.17941900  0.39181700  1
  O  O25  1  0.91088900  0.67940500  0.89183500  1
  O  O26  1  0.11477400  0.50794000  0.34032500  1
  O  O27  1  0.61477000  0.00807900  0.84035300  1
  O  O28  1  0.38522500  0.99191500  0.15964200  1
  O  O29  1  0.88520100  0.49203100  0.65968200  1
