# generated using pymatgen
data_Na3MnSiCO7
_symmetry_space_group_name_H-M   'P 1'
_cell_length_a   6.50430700
_cell_length_b   10.61480000
_cell_length_c   9.13407107
_cell_angle_alpha   88.93426686
_cell_angle_beta   90.00000646
_cell_angle_gamma   90.00003381
_symmetry_Int_Tables_number   1
_chemical_formula_structural   Na3MnSiCO7
_chemical_formula_sum   'Na12 Mn4 Si4 C4 O28'
_cell_volume   630.52469498
_cell_formula_units_Z   4
loop_
 _symmetry_equiv_pos_site_id
 _symmetry_equiv_pos_as_xyz
  1  'x, y, z'
loop_
 _atom_site_type_symbol
 _atom_site_label
 _atom_site_symmetry_multiplicity
 _atom_site_fract_x
 _atom_site_fract_y
 _atom_site_fract_z
 _atom_site_occupancy
  Na  Na0  1  0.25000000  0.39200900  0.09205600  1
  Na  Na1  1  0.24999700  0.89199700  0.09206600  1
  Na  Na2  1  0.75000200  0.10799200  0.90794700  1
  Na  Na3  1  0.75000100  0.60800200  0.90793700  1
  Na  Na4  1  0.00656900  0.13065100  0.26632500  1
  Na  Na5  1  0.00655600  0.63066400  0.26632200  1
  Na  Na6  1  0.49343300  0.13065400  0.26632700  1
  Na  Na7  1  0.49344400  0.63066300  0.26632600  1
  Na  Na8  1  0.50657000  0.36934800  0.73367800  1
  Na  Na9  1  0.50655700  0.86933600  0.73367500  1
  Na  Na10  1  0.99343200  0.36934900  0.73367400  1
  Na  Na11  1  0.99344200  0.86933700  0.73367400  1
  Mn  Mn12  1  0.74999600  0.89100600  0.35265500  1
  Mn  Mn13  1  0.25000100  0.60897200  0.64736000  1
  Mn  Mn14  1  0.75001000  0.39083100  0.35250700  1
  Mn  Mn15  1  0.24999900  0.10916800  0.64750300  1
  Si  Si16  1  0.25000300  0.34645400  0.42732100  1
  Si  Si17  1  0.24999800  0.84648100  0.42734600  1
  Si  Si18  1  0.75000000  0.15354700  0.57267900  1
  Si  Si19  1  0.75000000  0.65352500  0.57265100  1
  C  C20  1  0.75000000  0.35753400  0.05398300  1
  C  C21  1  0.75000000  0.85752800  0.05399300  1
  C  C22  1  0.25000000  0.14246500  0.94601900  1
  C  C23  1  0.24999900  0.64247100  0.94600400  1
  O  O24  1  0.25000000  0.12202600  0.08584700  1
  O  O25  1  0.25000000  0.62202300  0.08583700  1
  O  O26  1  0.74999900  0.37797300  0.91415500  1
  O  O27  1  0.75000100  0.87797900  0.91416200  1
  O  O28  1  0.75000100  0.45654000  0.13962100  1
  O  O29  1  0.74999800  0.95654400  0.13962600  1
  O  O30  1  0.24999900  0.04346000  0.86038000  1
  O  O31  1  0.24999900  0.54345900  0.86036700  1
  O  O32  1  0.74999900  0.24584900  0.11127600  1
  O  O33  1  0.75000100  0.74583900  0.11126300  1
  O  O34  1  0.24999900  0.25415100  0.88872600  1
  O  O35  1  0.24999800  0.75416300  0.88874000  1
  O  O36  1  0.24999800  0.19103300  0.45869400  1
  O  O37  1  0.24999900  0.69103600  0.45865800  1
  O  O38  1  0.75000100  0.30896800  0.54130400  1
  O  O39  1  0.75000000  0.80897000  0.54132400  1
  O  O40  1  0.74999900  0.07864500  0.42017900  1
  O  O41  1  0.74999900  0.57858700  0.42017300  1
  O  O42  1  0.25000200  0.42135600  0.57982000  1
  O  O43  1  0.25000000  0.92141200  0.57982700  1
  O  O44  1  0.04965500  0.37752000  0.31983000  1
  O  O45  1  0.04964600  0.87754600  0.31984700  1
  O  O46  1  0.45034900  0.37752000  0.31983000  1
  O  O47  1  0.45035200  0.87754600  0.31984700  1
  O  O48  1  0.54965300  0.12248200  0.68017200  1
  O  O49  1  0.54964300  0.62245500  0.68015000  1
  O  O50  1  0.95034700  0.12248100  0.68017100  1
  O  O51  1  0.95035500  0.62245300  0.68015000  1
