# generated using pymatgen
data_BaLaI5
_symmetry_space_group_name_H-M   'P 1'
_cell_length_a   14.55763600
_cell_length_b   8.20681800
_cell_length_c   11.22876721
_cell_angle_alpha   84.61120564
_cell_angle_beta   90.00000000
_cell_angle_gamma   90.00000000
_symmetry_Int_Tables_number   1
_chemical_formula_structural   BaLaI5
_chemical_formula_sum   'Ba4 La4 I20'
_cell_volume   1335.59275143
_cell_formula_units_Z   4
loop_
 _symmetry_equiv_pos_site_id
 _symmetry_equiv_pos_as_xyz
  1  'x, y, z'
loop_
 _atom_site_type_symbol
 _atom_site_label
 _atom_site_symmetry_multiplicity
 _atom_site_fract_x
 _atom_site_fract_y
 _atom_site_fract_z
 _atom_site_occupancy
  Ba  Ba0  1  0.04239000  0.05002700  0.81543000  1
  Ba  Ba1  1  0.37760500  0.41439100  0.62217500  1
  Ba  Ba2  1  0.87760600  0.58560900  0.37782500  1
  Ba  Ba3  1  0.54239000  0.94997300  0.18457000  1
  La  La4  1  0.61482000  0.96923300  0.61762900  1
  La  La5  1  0.23081700  0.51459900  0.11713500  1
  La  La6  1  0.73081700  0.48540100  0.88286500  1
  La  La7  1  0.11482000  0.03076700  0.38237100  1
  I  I8  1  0.75724700  0.94953400  0.40634300  1
  I  I9  1  0.50361200  0.13584900  0.82063200  1
  I  I10  1  0.29056100  0.13950100  0.21640400  1
  I  I11  1  0.51648600  0.22023500  0.42215800  1
  I  I12  1  0.22478200  0.33062500  0.87289600  1
  I  I13  1  0.00884400  0.27468300  0.54479200  1
  I  I14  1  0.72212200  0.18937100  0.07399900  1
  I  I15  1  0.73159700  0.34610100  0.62301000  1
  I  I16  1  0.03746800  0.34983400  0.20642100  1
  I  I17  1  0.94014700  0.42548200  0.87620400  1
  I  I18  1  0.44014700  0.57451800  0.12379600  1
  I  I19  1  0.53746800  0.65016600  0.79357900  1
  I  I20  1  0.23159700  0.65389900  0.37699000  1
  I  I21  1  0.22212200  0.81062900  0.92600100  1
  I  I22  1  0.50884400  0.72531700  0.45520800  1
  I  I23  1  0.72478200  0.66937500  0.12710400  1
  I  I24  1  0.01648600  0.77976500  0.57784200  1
  I  I25  1  0.79056100  0.86049900  0.78359600  1
  I  I26  1  0.00361200  0.86415100  0.17936800  1
  I  I27  1  0.25724700  0.05046600  0.59365700  1
