# generated using pymatgen
data_Sm(ClO4)3
_symmetry_space_group_name_H-M   'P 1'
_cell_length_a   9.38207227
_cell_length_b   9.38207227
_cell_length_c   5.82014500
_cell_angle_alpha   90.00000000
_cell_angle_beta   90.00000000
_cell_angle_gamma   120.00000188
_symmetry_Int_Tables_number   1
_chemical_formula_structural   Sm(ClO4)3
_chemical_formula_sum   'Sm2 Cl6 O24'
_cell_volume   443.67195332
_cell_formula_units_Z   2
loop_
 _symmetry_equiv_pos_site_id
 _symmetry_equiv_pos_as_xyz
  1  'x, y, z'
loop_
 _atom_site_type_symbol
 _atom_site_label
 _atom_site_symmetry_multiplicity
 _atom_site_fract_x
 _atom_site_fract_y
 _atom_site_fract_z
 _atom_site_occupancy
  Sm  Sm0  1  0.33333300  0.66666700  0.75000000  1
  Sm  Sm1  1  0.66666700  0.33333300  0.25000000  1
  Cl  Cl2  1  0.09068000  0.70911700  0.25000000  1
  Cl  Cl3  1  0.29088300  0.38156400  0.25000000  1
  Cl  Cl4  1  0.61843600  0.90932000  0.25000000  1
  Cl  Cl5  1  0.38156400  0.09068000  0.75000000  1
  Cl  Cl6  1  0.70911700  0.61843600  0.75000000  1
  Cl  Cl7  1  0.90932000  0.29088300  0.75000000  1
  O  O8  1  0.01972100  0.81153800  0.25000000  1
  O  O9  1  0.03247700  0.46744900  0.75000000  1
  O  O10  1  0.19584000  0.74257200  0.04647300  1
  O  O11  1  0.19584000  0.74257200  0.45352700  1
  O  O12  1  0.43497100  0.96752300  0.75000000  1
  O  O13  1  0.25742800  0.45326800  0.45352700  1
  O  O14  1  0.25742800  0.45326800  0.04647300  1
  O  O15  1  0.18846200  0.20818300  0.25000000  1
  O  O16  1  0.54673200  0.80416000  0.04647300  1
  O  O17  1  0.54673200  0.80416000  0.45352700  1
  O  O18  1  0.20818300  0.01972100  0.75000000  1
  O  O19  1  0.46744900  0.43497100  0.25000000  1
  O  O20  1  0.53255100  0.56502900  0.75000000  1
  O  O21  1  0.79181700  0.98027900  0.25000000  1
  O  O22  1  0.45326800  0.19584000  0.54647300  1
  O  O23  1  0.45326800  0.19584000  0.95352700  1
  O  O24  1  0.81153800  0.79181700  0.75000000  1
  O  O25  1  0.74257200  0.54673200  0.95352700  1
  O  O26  1  0.74257200  0.54673200  0.54647300  1
  O  O27  1  0.56502900  0.03247700  0.25000000  1
  O  O28  1  0.80416000  0.25742800  0.95352700  1
  O  O29  1  0.80416000  0.25742800  0.54647300  1
  O  O30  1  0.96752300  0.53255100  0.25000000  1
  O  O31  1  0.98027900  0.18846200  0.75000000  1
