# generated using pymatgen
data_Li2VAsCO7
_symmetry_space_group_name_H-M   'P 1'
_cell_length_a   6.59780900
_cell_length_b   10.22212699
_cell_length_c   8.78486397
_cell_angle_alpha   86.12579008
_cell_angle_beta   89.99967811
_cell_angle_gamma   89.99974236
_symmetry_Int_Tables_number   1
_chemical_formula_structural   Li2VAsCO7
_chemical_formula_sum   'Li8 V4 As4 C4 O28'
_cell_volume   591.12926901
_cell_formula_units_Z   4
loop_
 _symmetry_equiv_pos_site_id
 _symmetry_equiv_pos_as_xyz
  1  'x, y, z'
loop_
 _atom_site_type_symbol
 _atom_site_label
 _atom_site_symmetry_multiplicity
 _atom_site_fract_x
 _atom_site_fract_y
 _atom_site_fract_z
 _atom_site_occupancy
  Li  Li0  1  0.50678800  0.10808000  0.20564100  1
  Li  Li1  1  0.50677700  0.60794700  0.20550800  1
  Li  Li2  1  0.99322800  0.10808700  0.20563900  1
  Li  Li3  1  0.99323300  0.60794700  0.20549800  1
  Li  Li4  1  0.49323600  0.39188400  0.79429500  1
  Li  Li5  1  0.49324000  0.89201800  0.79449200  1
  Li  Li6  1  0.00677400  0.39186600  0.79430900  1
  Li  Li7  1  0.00675800  0.89201200  0.79449500  1
  V  V8  1  0.74998100  0.89833600  0.33510200  1
  V  V9  1  0.25000700  0.60164100  0.66482000  1
  V  V10  1  0.75002200  0.39829900  0.33510100  1
  V  V11  1  0.25000700  0.10168900  0.66486400  1
  As  As12  1  0.24999000  0.35896200  0.41784200  1
  As  As13  1  0.24997800  0.85874700  0.41807500  1
  As  As14  1  0.75001400  0.14099100  0.58210500  1
  As  As15  1  0.75000400  0.64125400  0.58194200  1
  C  C16  1  0.75000100  0.36555900  0.05587300  1
  C  C17  1  0.75000900  0.86574400  0.05591900  1
  C  C18  1  0.25001500  0.13451400  0.94412600  1
  C  C19  1  0.25000200  0.63422400  0.94403900  1
  O  O20  1  0.25001000  0.15238900  0.08520700  1
  O  O21  1  0.25000900  0.65229800  0.08508000  1
  O  O22  1  0.75000300  0.34765400  0.91482500  1
  O  O23  1  0.75000000  0.84769200  0.91488500  1
  O  O24  1  0.74998200  0.48262500  0.10980300  1
  O  O25  1  0.75000600  0.98279800  0.10969600  1
  O  O26  1  0.25001400  0.01750800  0.89021700  1
  O  O27  1  0.25000000  0.51717000  0.89027200  1
  O  O28  1  0.75002400  0.26714100  0.16302100  1
  O  O29  1  0.75000200  0.76719400  0.16303700  1
  O  O30  1  0.24999200  0.23289300  0.83697400  1
  O  O31  1  0.25000300  0.73276800  0.83691000  1
  O  O32  1  0.75001700  0.08218200  0.40197600  1
  O  O33  1  0.75000500  0.58214000  0.40203500  1
  O  O34  1  0.24999100  0.41781000  0.59794600  1
  O  O35  1  0.25000600  0.91783500  0.59799100  1
  O  O36  1  0.24999900  0.19113800  0.44359400  1
  O  O37  1  0.24995600  0.69088000  0.44323400  1
  O  O38  1  0.75000600  0.30883800  0.55650600  1
  O  O39  1  0.75005300  0.80910200  0.55666700  1
  O  O40  1  0.04722600  0.41553800  0.31038900  1
  O  O41  1  0.04719000  0.91591700  0.31121200  1
  O  O42  1  0.45277400  0.41552400  0.31046000  1
  O  O43  1  0.45284200  0.91590700  0.31121700  1
  O  O44  1  0.54722000  0.08448900  0.68962100  1
  O  O45  1  0.54716400  0.58414600  0.68888900  1
  O  O46  1  0.95270400  0.08445900  0.68972200  1
  O  O47  1  0.95273900  0.58416400  0.68892800  1
