# generated using pymatgen
data_Na2VSiCO7
_symmetry_space_group_name_H-M   'P 1'
_cell_length_a   6.61829800
_cell_length_b   10.28227761
_cell_length_c   10.77602201
_cell_angle_alpha   118.28733134
_cell_angle_beta   90.00000532
_cell_angle_gamma   90.00000000
_symmetry_Int_Tables_number   1
_chemical_formula_structural   Na2VSiCO7
_chemical_formula_sum   'Na8 V4 Si4 C4 O28'
_cell_volume   645.74937484
_cell_formula_units_Z   4
loop_
 _symmetry_equiv_pos_site_id
 _symmetry_equiv_pos_as_xyz
  1  'x, y, z'
loop_
 _atom_site_type_symbol
 _atom_site_label
 _atom_site_symmetry_multiplicity
 _atom_site_fract_x
 _atom_site_fract_y
 _atom_site_fract_z
 _atom_site_occupancy
  Na  Na0  1  0.49986000  0.00744400  0.22772600  1
  Na  Na1  1  0.49984400  0.50741800  0.72770700  1
  Na  Na2  1  0.00014100  0.00744700  0.22772700  1
  Na  Na3  1  0.00015600  0.50742000  0.72770800  1
  Na  Na4  1  0.50014900  0.99263900  0.77235000  1
  Na  Na5  1  0.50013400  0.49261400  0.27234700  1
  Na  Na6  1  0.99985100  0.99264000  0.77235000  1
  Na  Na7  1  0.99986600  0.49261600  0.27234700  1
  V  V8  1  0.75000000  0.71896200  0.07713500  1
  V  V9  1  0.24999900  0.78090800  0.42277200  1
  V  V10  1  0.75000100  0.21904700  0.57718300  1
  V  V11  1  0.25000000  0.28085400  0.92273700  1
  Si  Si12  1  0.25000000  0.14955400  0.58210500  1
  Si  Si13  1  0.25000000  0.64967800  0.08219400  1
  Si  Si14  1  0.75000000  0.85024100  0.41776700  1
  Si  Si15  1  0.75000000  0.35034200  0.91785300  1
  C  C16  1  0.75000000  0.32198400  0.40543800  1
  C  C17  1  0.75000000  0.82197800  0.90546300  1
  C  C18  1  0.25000000  0.67813100  0.59457300  1
  C  C19  1  0.25000000  0.17812500  0.09458600  1
  O  O20  1  0.25000000  0.13030300  0.18230600  1
  O  O21  1  0.25000000  0.63032900  0.68231000  1
  O  O22  1  0.75000000  0.86985900  0.81774000  1
  O  O23  1  0.75000000  0.36986900  0.31773400  1
  O  O24  1  0.75000000  0.40500600  0.54275200  1
  O  O25  1  0.75000000  0.90494900  0.04275700  1
  O  O26  1  0.25000000  0.59504900  0.45725000  1
  O  O27  1  0.25000000  0.09503000  0.95726000  1
  O  O28  1  0.75000000  0.17946200  0.36875100  1
  O  O29  1  0.75000000  0.67941200  0.86871000  1
  O  O30  1  0.25000000  0.82065600  0.63120000  1
  O  O31  1  0.25000000  0.32062500  0.13118600  1
  O  O32  1  0.75000000  0.85913200  0.26761800  1
  O  O33  1  0.75000000  0.35916300  0.76763600  1
  O  O34  1  0.25000000  0.14073000  0.73235500  1
  O  O35  1  0.25000000  0.64076500  0.23236800  1
  O  O36  1  0.25000000  0.97406100  0.45542500  1
  O  O37  1  0.25000000  0.47402400  0.95538800  1
  O  O38  1  0.75000000  0.02596300  0.54457600  1
  O  O39  1  0.75000000  0.52593400  0.04453500  1
  O  O40  1  0.04771200  0.23249400  0.57071200  1
  O  O41  1  0.04771000  0.73250900  0.07073700  1
  O  O42  1  0.45228800  0.23249300  0.57071200  1
  O  O43  1  0.45229000  0.73250900  0.07073600  1
  O  O44  1  0.54771700  0.76738800  0.42927700  1
  O  O45  1  0.54772500  0.26742500  0.92931500  1
  O  O46  1  0.95228300  0.76738900  0.42927700  1
  O  O47  1  0.95227500  0.26742500  0.92931500  1
