# generated using pymatgen
data_Cr(PO3)2
_symmetry_space_group_name_H-M   'P 1'
_cell_length_a   5.68438059
_cell_length_b   5.68438059
_cell_length_c   16.51113385
_cell_angle_alpha   87.39548521
_cell_angle_beta   87.39548521
_cell_angle_gamma   89.88393917
_symmetry_Int_Tables_number   1
_chemical_formula_structural   Cr(PO3)2
_chemical_formula_sum   'Cr4 P8 O24'
_cell_volume   532.40910059
_cell_formula_units_Z   4
loop_
 _symmetry_equiv_pos_site_id
 _symmetry_equiv_pos_as_xyz
  1  'x, y, z'
loop_
 _atom_site_type_symbol
 _atom_site_label
 _atom_site_symmetry_multiplicity
 _atom_site_fract_x
 _atom_site_fract_y
 _atom_site_fract_z
 _atom_site_occupancy
  Cr  Cr0  1  0.06409400  0.85236100  0.90654700  1
  Cr  Cr1  1  0.85236100  0.06409400  0.40654700  1
  Cr  Cr2  1  0.67696700  0.06342500  0.61506900  1
  Cr  Cr3  1  0.06342500  0.67696700  0.11506900  1
  P  P4  1  0.00420900  0.56272400  0.65038600  1
  P  P5  1  0.56272400  0.00420900  0.15038600  1
  P  P6  1  0.56506400  0.52226200  0.87356700  1
  P  P7  1  0.27281300  0.79137300  0.51111200  1
  P  P8  1  0.52226200  0.56506400  0.37356700  1
  P  P9  1  0.79137300  0.27281300  0.01111200  1
  P  P10  1  0.29476900  0.25607100  0.75938100  1
  P  P11  1  0.25607100  0.29476900  0.25938100  1
  O  O12  1  0.88375700  0.79014500  0.66572900  1
  O  O13  1  0.79014500  0.88375700  0.16572900  1
  O  O14  1  0.77225000  0.67969200  0.85946000  1
  O  O15  1  0.67969200  0.77225000  0.35946000  1
  O  O16  1  0.50422300  0.91151800  0.52362000  1
  O  O17  1  0.91151800  0.50422300  0.02362000  1
  O  O18  1  0.86291700  0.36270500  0.62188800  1
  O  O19  1  0.36270500  0.86291700  0.12188800  1
  O  O20  1  0.33451700  0.62219600  0.90349200  1
  O  O21  1  0.62654800  0.30171400  0.93522600  1
  O  O22  1  0.05600600  0.93954300  0.49906800  1
  O  O23  1  0.62219600  0.33451700  0.40349200  1
  O  O24  1  0.52527900  0.38440600  0.79199400  1
  O  O25  1  0.30171400  0.62654800  0.43522600  1
  O  O26  1  0.93954300  0.05600600  0.99906800  1
  O  O27  1  0.38440600  0.52527900  0.29199400  1
  O  O28  1  0.22648000  0.60506100  0.58554300  1
  O  O29  1  0.60506100  0.22648000  0.08554300  1
  O  O30  1  0.13992200  0.48147100  0.73026000  1
  O  O31  1  0.48147100  0.13992200  0.23026000  1
  O  O32  1  0.37852300  0.12007200  0.68823500  1
  O  O33  1  0.12007200  0.37852300  0.18823500  1
  O  O34  1  0.15994700  0.13170500  0.82806900  1
  O  O35  1  0.13170500  0.15994700  0.32806900  1
