# generated using pymatgen
data_Ba2LaI7
_symmetry_space_group_name_H-M   'P 1'
_cell_length_a   12.39567700
_cell_length_b   10.01326300
_cell_length_c   18.61215949
_cell_angle_alpha   58.72612921
_cell_angle_beta   90.00000000
_cell_angle_gamma   90.00000000
_symmetry_Int_Tables_number   1
_chemical_formula_structural   Ba2LaI7
_chemical_formula_sum   'Ba8 La4 I28'
_cell_volume   1974.48636935
_cell_formula_units_Z   4
loop_
 _symmetry_equiv_pos_site_id
 _symmetry_equiv_pos_as_xyz
  1  'x, y, z'
loop_
 _atom_site_type_symbol
 _atom_site_label
 _atom_site_symmetry_multiplicity
 _atom_site_fract_x
 _atom_site_fract_y
 _atom_site_fract_z
 _atom_site_occupancy
  Ba  Ba0  1  0.73920900  0.22464300  0.01623600  1
  Ba  Ba1  1  0.19177100  0.37755200  0.28168700  1
  Ba  Ba2  1  0.69177100  0.62244800  0.21831300  1
  Ba  Ba3  1  0.23920900  0.77535700  0.48376400  1
  Ba  Ba4  1  0.76079100  0.22464300  0.51623600  1
  Ba  Ba5  1  0.30822900  0.37755200  0.78168700  1
  Ba  Ba6  1  0.80822900  0.62244800  0.71831300  1
  Ba  Ba7  1  0.26079100  0.77535700  0.98376400  1
  La  La8  1  0.13783100  0.98841500  0.18375600  1
  La  La9  1  0.63783100  0.01158500  0.31624400  1
  La  La10  1  0.36216900  0.98841500  0.68375600  1
  La  La11  1  0.86216900  0.01158500  0.81624400  1
  I  I12  1  0.06680300  0.74548000  0.12271000  1
  I  I13  1  0.42522300  0.57844500  0.15204700  1
  I  I14  1  0.72709800  0.89292700  0.98906600  1
  I  I15  1  0.13483900  0.36193900  0.09907100  1
  I  I16  1  0.55491400  0.97423200  0.16057800  1
  I  I17  1  0.74414200  0.32920800  0.17198100  1
  I  I18  1  0.37277200  0.06781900  0.29295800  1
  I  I19  1  0.63483900  0.63806100  0.40092900  1
  I  I20  1  0.22709800  0.10707300  0.51093400  1
  I  I21  1  0.92522300  0.42155500  0.34795300  1
  I  I22  1  0.87277200  0.93218100  0.20704200  1
  I  I23  1  0.24414200  0.67079200  0.32801900  1
  I  I24  1  0.05491400  0.02576800  0.33942200  1
  I  I25  1  0.56680300  0.25452000  0.37729000  1
  I  I26  1  0.43319700  0.74548000  0.62271000  1
  I  I27  1  0.94508600  0.97423200  0.66057800  1
  I  I28  1  0.75585800  0.32920800  0.67198100  1
  I  I29  1  0.12722800  0.06781900  0.79295800  1
  I  I30  1  0.07477700  0.57844500  0.65204700  1
  I  I31  1  0.77290200  0.89292700  0.48906600  1
  I  I32  1  0.36516100  0.36193900  0.59907100  1
  I  I33  1  0.62722800  0.93218100  0.70704200  1
  I  I34  1  0.25585800  0.67079200  0.82801900  1
  I  I35  1  0.44508600  0.02576800  0.83942200  1
  I  I36  1  0.86516100  0.63806100  0.90092900  1
  I  I37  1  0.27290200  0.10707300  0.01093400  1
  I  I38  1  0.57477700  0.42155500  0.84795300  1
  I  I39  1  0.93319700  0.25452000  0.87729000  1
