# generated using pymatgen
data_GeWO4
_symmetry_space_group_name_H-M   'P 1'
_cell_length_a   7.12084600
_cell_length_b   7.67560900
_cell_length_c   14.78709865
_cell_angle_alpha   58.89448051
_cell_angle_beta   90.00000000
_cell_angle_gamma   90.00000000
_symmetry_Int_Tables_number   1
_chemical_formula_structural   GeWO4
_chemical_formula_sum   'Ge8 W8 O32'
_cell_volume   692.00848043
_cell_formula_units_Z   8
loop_
 _symmetry_equiv_pos_site_id
 _symmetry_equiv_pos_as_xyz
  1  'x, y, z'
loop_
 _atom_site_type_symbol
 _atom_site_label
 _atom_site_symmetry_multiplicity
 _atom_site_fract_x
 _atom_site_fract_y
 _atom_site_fract_z
 _atom_site_occupancy
  Ge  Ge0  1  0.03673500  0.59929000  0.81041500  1
  Ge  Ge1  1  0.24156100  0.97719200  0.86875000  1
  Ge  Ge2  1  0.74156100  0.02280800  0.63125000  1
  Ge  Ge3  1  0.53673500  0.40071000  0.68958500  1
  Ge  Ge4  1  0.46326500  0.59929000  0.31041500  1
  Ge  Ge5  1  0.25843900  0.97719200  0.36875000  1
  Ge  Ge6  1  0.75843900  0.02280800  0.13125000  1
  Ge  Ge7  1  0.96326500  0.40071000  0.18958500  1
  W  W8  1  0.82698300  0.99720300  0.92191400  1
  W  W9  1  0.55261700  0.43518200  0.91799700  1
  W  W10  1  0.05261700  0.56481800  0.58200300  1
  W  W11  1  0.32698300  0.00279700  0.57808600  1
  W  W12  1  0.67301700  0.99720300  0.42191400  1
  W  W13  1  0.94738300  0.43518200  0.41799700  1
  W  W14  1  0.44738300  0.56481800  0.08200300  1
  W  W15  1  0.17301700  0.00279700  0.07808600  1
  O  O16  1  0.63801500  0.81164700  0.97903100  1
  O  O17  1  0.72412500  0.19403300  0.97298000  1
  O  O18  1  0.37489300  0.60380900  0.93442800  1
  O  O19  1  0.08085100  0.13447800  0.91828700  1
  O  O20  1  0.98896300  0.86087500  0.87715700  1
  O  O21  1  0.72858800  0.61939900  0.83921600  1
  O  O22  1  0.44296400  0.40981800  0.81111500  1
  O  O23  1  0.71782300  0.17835500  0.79490000  1
  O  O24  1  0.21782300  0.82164500  0.70510000  1
  O  O25  1  0.94296400  0.59018200  0.68888500  1
  O  O26  1  0.22858800  0.38060100  0.66078400  1
  O  O27  1  0.48896300  0.13912500  0.62284300  1
  O  O28  1  0.58085100  0.86552200  0.58171300  1
  O  O29  1  0.22412500  0.80596700  0.52702000  1
  O  O30  1  0.87489300  0.39619100  0.56557200  1
  O  O31  1  0.13801500  0.18835300  0.52096900  1
  O  O32  1  0.86198500  0.81164700  0.47903100  1
  O  O33  1  0.12510700  0.60380900  0.43442800  1
  O  O34  1  0.77587500  0.19403300  0.47298000  1
  O  O35  1  0.41914900  0.13447800  0.41828700  1
  O  O36  1  0.51103700  0.86087500  0.37715700  1
  O  O37  1  0.77141200  0.61939900  0.33921600  1
  O  O38  1  0.05703600  0.40981800  0.31111500  1
  O  O39  1  0.78217700  0.17835500  0.29490000  1
  O  O40  1  0.28217700  0.82164500  0.20510000  1
  O  O41  1  0.55703600  0.59018200  0.18888500  1
  O  O42  1  0.27141200  0.38060100  0.16078400  1
  O  O43  1  0.01103700  0.13912500  0.12284300  1
  O  O44  1  0.91914900  0.86552200  0.08171300  1
  O  O45  1  0.62510700  0.39619100  0.06557200  1
  O  O46  1  0.27587500  0.80596700  0.02702000  1
  O  O47  1  0.36198500  0.18835300  0.02096900  1
