# generated using pymatgen
data_Na3Fe(BO3)2
_symmetry_space_group_name_H-M   'P 1'
_cell_length_a   9.57173300
_cell_length_b   5.55174400
_cell_length_c   11.52601236
_cell_angle_alpha   65.20747392
_cell_angle_beta   90.00000000
_cell_angle_gamma   90.00000000
_symmetry_Int_Tables_number   1
_chemical_formula_structural   Na3Fe(BO3)2
_chemical_formula_sum   'Na12 Fe4 B8 O24'
_cell_volume   556.03824590
_cell_formula_units_Z   4
loop_
 _symmetry_equiv_pos_site_id
 _symmetry_equiv_pos_as_xyz
  1  'x, y, z'
loop_
 _atom_site_type_symbol
 _atom_site_label
 _atom_site_symmetry_multiplicity
 _atom_site_fract_x
 _atom_site_fract_y
 _atom_site_fract_z
 _atom_site_occupancy
  Na  Na0  1  0.96787200  0.50090100  0.34471800  1
  Na  Na1  1  0.66039300  0.46024000  0.37509900  1
  Na  Na2  1  0.98868300  0.92443100  0.88774100  1
  Na  Na3  1  0.16039300  0.53976000  0.12490100  1
  Na  Na4  1  0.48868300  0.07556900  0.61225900  1
  Na  Na5  1  0.46787200  0.49909900  0.15528200  1
  Na  Na6  1  0.53212800  0.50090100  0.84471800  1
  Na  Na7  1  0.51131700  0.92443100  0.38774100  1
  Na  Na8  1  0.83960700  0.46024000  0.87509900  1
  Na  Na9  1  0.01131700  0.07556900  0.11225900  1
  Na  Na10  1  0.33960700  0.53976000  0.62490100  1
  Na  Na11  1  0.03212800  0.49909900  0.65528200  1
  Fe  Fe12  1  0.32096300  0.97997000  0.87482700  1
  Fe  Fe13  1  0.82096300  0.02003000  0.62517300  1
  Fe  Fe14  1  0.17903700  0.97997000  0.37482700  1
  Fe  Fe15  1  0.67903700  0.02003000  0.12517300  1
  B  B16  1  0.31181200  0.44899500  0.38198300  1
  B  B17  1  0.65263300  0.97741300  0.86756100  1
  B  B18  1  0.81181200  0.55100500  0.11801700  1
  B  B19  1  0.15263300  0.02258700  0.63243900  1
  B  B20  1  0.84736700  0.97741300  0.36756100  1
  B  B21  1  0.18818800  0.44899500  0.88198300  1
  B  B22  1  0.34736700  0.02258700  0.13243900  1
  B  B23  1  0.68818800  0.55100500  0.61801700  1
  O  O24  1  0.32458200  0.86683100  0.06683900  1
  O  O25  1  0.69652500  0.32591700  0.59224600  1
  O  O26  1  0.93618600  0.67504200  0.11338900  1
  O  O27  1  0.26319700  0.11159900  0.68211500  1
  O  O28  1  0.68830000  0.64551100  0.15029700  1
  O  O29  1  0.01541300  0.08948700  0.65251500  1
  O  O30  1  0.18830000  0.35448900  0.34970300  1
  O  O31  1  0.51541300  0.91051300  0.84748500  1
  O  O32  1  0.76319700  0.88840100  0.81788500  1
  O  O33  1  0.43618600  0.32495800  0.38661100  1
  O  O34  1  0.82458200  0.13316900  0.43316100  1
  O  O35  1  0.19652500  0.67408300  0.90775400  1
  O  O36  1  0.80347500  0.32591700  0.09224600  1
  O  O37  1  0.17541800  0.86683100  0.56683900  1
  O  O38  1  0.56381400  0.67504200  0.61338900  1
  O  O39  1  0.23680300  0.11159900  0.18211500  1
  O  O40  1  0.48458700  0.08948700  0.15251500  1
  O  O41  1  0.81170000  0.64551100  0.65029700  1
  O  O42  1  0.98458700  0.91051300  0.34748500  1
  O  O43  1  0.31170000  0.35448900  0.84970300  1
  O  O44  1  0.73680300  0.88840100  0.31788500  1
  O  O45  1  0.06381400  0.32495800  0.88661100  1
  O  O46  1  0.30347500  0.67408300  0.40775400  1
  O  O47  1  0.67541800  0.13316900  0.93316100  1
