# generated using pymatgen
data_Cr4P2O9
_symmetry_space_group_name_H-M   'P 1'
_cell_length_a   12.06953700
_cell_length_b   6.53635000
_cell_length_c   9.59937735
_cell_angle_alpha   74.95191186
_cell_angle_beta   90.00000000
_cell_angle_gamma   90.00000000
_symmetry_Int_Tables_number   1
_chemical_formula_structural   Cr4P2O9
_chemical_formula_sum   'Cr16 P8 O36'
_cell_volume   731.33257780
_cell_formula_units_Z   4
loop_
 _symmetry_equiv_pos_site_id
 _symmetry_equiv_pos_as_xyz
  1  'x, y, z'
loop_
 _atom_site_type_symbol
 _atom_site_label
 _atom_site_symmetry_multiplicity
 _atom_site_fract_x
 _atom_site_fract_y
 _atom_site_fract_z
 _atom_site_occupancy
  Cr  Cr0  1  0.38939700  0.92781900  0.88901600  1
  Cr  Cr1  1  0.11060300  0.92781900  0.38901600  1
  Cr  Cr2  1  0.61692900  0.77427100  0.75352600  1
  Cr  Cr3  1  0.39897200  0.81867000  0.53616700  1
  Cr  Cr4  1  0.88307100  0.77427100  0.25352600  1
  Cr  Cr5  1  0.10102800  0.81867000  0.03616700  1
  Cr  Cr6  1  0.86886700  0.54169500  0.69108500  1
  Cr  Cr7  1  0.36886700  0.45830500  0.80891500  1
  Cr  Cr8  1  0.63113300  0.54169500  0.19108500  1
  Cr  Cr9  1  0.13113300  0.45830500  0.30891500  1
  Cr  Cr10  1  0.89897200  0.18133000  0.96383300  1
  Cr  Cr11  1  0.11692900  0.22572900  0.74647400  1
  Cr  Cr12  1  0.60102800  0.18133000  0.46383300  1
  Cr  Cr13  1  0.38307100  0.22572900  0.24647400  1
  Cr  Cr14  1  0.88939700  0.07218100  0.61098400  1
  Cr  Cr15  1  0.61060300  0.07218100  0.11098400  1
  P  P16  1  0.82435900  0.70652800  0.92409200  1
  P  P17  1  0.12489400  0.76117200  0.68423700  1
  P  P18  1  0.67564100  0.70652800  0.42409200  1
  P  P19  1  0.37510600  0.76117200  0.18423700  1
  P  P20  1  0.62489400  0.23882800  0.81576300  1
  P  P21  1  0.32435900  0.29347200  0.57590800  1
  P  P22  1  0.87510600  0.23882800  0.31576300  1
  P  P23  1  0.17564100  0.29347200  0.07590800  1
  O  O24  1  0.11177400  0.88925300  0.80064400  1
  O  O25  1  0.80047800  0.81926500  0.75654500  1
  O  O26  1  0.21291900  0.87193600  0.57166100  1
  O  O27  1  0.44543500  0.75463800  0.75678000  1
  O  O28  1  0.60317800  0.84864100  0.49215700  1
  O  O29  1  0.70963900  0.65061000  0.99104800  1
  O  O30  1  0.38822600  0.88925300  0.30064400  1
  O  O31  1  0.01703800  0.77778600  0.58891500  1
  O  O32  1  0.69952200  0.81926500  0.25654500  1
  O  O33  1  0.28708100  0.87193600  0.07166100  1
  O  O34  1  0.05456500  0.75463800  0.25678000  1
  O  O35  1  0.89682200  0.84864100  0.99215700  1
  O  O36  1  0.79036100  0.65061000  0.49104800  1
  O  O37  1  0.89264800  0.51005900  0.91194100  1
  O  O38  1  0.48296200  0.77778600  0.08891500  1
  O  O39  1  0.15432600  0.53161100  0.75805300  1
  O  O40  1  0.65432600  0.46838900  0.74194700  1
  O  O41  1  0.39264800  0.48994100  0.58805900  1
  O  O42  1  0.60735200  0.51005900  0.41194100  1
  O  O43  1  0.34567400  0.53161100  0.25805300  1
  O  O44  1  0.84567400  0.46838900  0.24194700  1
  O  O45  1  0.51703800  0.22221400  0.91108500  1
  O  O46  1  0.10735200  0.48994100  0.08805900  1
  O  O47  1  0.20963900  0.34939000  0.50895200  1
  O  O48  1  0.10317800  0.15135900  0.00784300  1
  O  O49  1  0.94543500  0.24536200  0.74322000  1
  O  O50  1  0.71291900  0.12806400  0.92833900  1
  O  O51  1  0.30047800  0.18073500  0.74345500  1
  O  O52  1  0.98296200  0.22221400  0.41108500  1
  O  O53  1  0.61177400  0.11074700  0.69935600  1
  O  O54  1  0.29036100  0.34939000  0.00895200  1
  O  O55  1  0.39682200  0.15135900  0.50784300  1
  O  O56  1  0.55456500  0.24536200  0.24322000  1
  O  O57  1  0.78708100  0.12806400  0.42833900  1
  O  O58  1  0.19952200  0.18073500  0.24345500  1
  O  O59  1  0.88822600  0.11074700  0.19935600  1
