# generated using pymatgen
data_Tm2P4O13
_symmetry_space_group_name_H-M   'P 1'
_cell_length_a   9.40252944
_cell_length_b   9.40252944
_cell_length_c   8.54622500
_cell_angle_alpha   90.00000000
_cell_angle_beta   90.00000000
_cell_angle_gamma   136.27116556
_symmetry_Int_Tables_number   1
_chemical_formula_structural   Tm2P4O13
_chemical_formula_sum   'Tm4 P8 O26'
_cell_volume   522.27165749
_cell_formula_units_Z   2
loop_
 _symmetry_equiv_pos_site_id
 _symmetry_equiv_pos_as_xyz
  1  'x, y, z'
loop_
 _atom_site_type_symbol
 _atom_site_label
 _atom_site_symmetry_multiplicity
 _atom_site_fract_x
 _atom_site_fract_y
 _atom_site_fract_z
 _atom_site_occupancy
  Tm  Tm0  1  0.89305100  0.59880500  0.35210100  1
  Tm  Tm1  1  0.40119500  0.10694900  0.14789900  1
  Tm  Tm2  1  0.59880500  0.89305100  0.64789900  1
  Tm  Tm3  1  0.10694900  0.40119500  0.85210100  1
  P  P4  1  0.83538100  0.71948600  0.72439400  1
  P  P5  1  0.28051400  0.16461900  0.77560600  1
  P  P6  1  0.41547200  0.09502000  0.50218600  1
  P  P7  1  0.90498000  0.58452800  0.99781400  1
  P  P8  1  0.09502000  0.41547200  0.49781400  1
  P  P9  1  0.58452800  0.90498000  0.00218600  1
  P  P10  1  0.16461900  0.28051400  0.22439400  1
  P  P11  1  0.71948600  0.83538100  0.27560600  1
  O  O12  1  0.30457900  0.25666900  0.20266000  1
  O  O13  1  0.74333100  0.69542100  0.29734000  1
  O  O14  1  0.06161300  0.93838700  0.75000000  1
  O  O15  1  0.38498900  0.21454800  0.60872700  1
  O  O16  1  0.78545200  0.61501100  0.89127300  1
  O  O17  1  0.38813700  0.15855200  0.90045500  1
  O  O18  1  0.84144800  0.61186300  0.59954500  1
  O  O19  1  0.22046700  0.93034000  0.40121800  1
  O  O20  1  0.06966000  0.77953300  0.09878200  1
  O  O21  1  0.74031900  0.41790200  0.11593500  1
  O  O22  1  0.58209800  0.25968100  0.38406500  1
  O  O23  1  0.98456300  0.52652300  0.89126900  1
  O  O24  1  0.47347700  0.01543700  0.60873100  1
  O  O25  1  0.01543700  0.47347700  0.39126900  1
  O  O26  1  0.52652300  0.98456300  0.10873100  1
  O  O27  1  0.25968100  0.58209800  0.61593500  1
  O  O28  1  0.41790200  0.74031900  0.88406500  1
  O  O29  1  0.77953300  0.06966000  0.90121800  1
  O  O30  1  0.93034000  0.22046700  0.59878200  1
  O  O31  1  0.61186300  0.84144800  0.40045500  1
  O  O32  1  0.15855200  0.38813700  0.09954500  1
  O  O33  1  0.21454800  0.38498900  0.39127300  1
  O  O34  1  0.61501100  0.78545200  0.10872700  1
  O  O35  1  0.93838700  0.06161300  0.25000000  1
  O  O36  1  0.25666900  0.30457900  0.79734000  1
  O  O37  1  0.69542100  0.74333100  0.70266000  1
