# generated using pymatgen
data_MgFePt2
_symmetry_space_group_name_H-M   'P 1'
_cell_length_a   10.63139984
_cell_length_b   10.63139984
_cell_length_c   10.63139984
_cell_angle_alpha   126.32869886
_cell_angle_beta   117.96494747
_cell_angle_gamma   86.48280484
_symmetry_Int_Tables_number   1
_chemical_formula_structural   MgFePt2
_chemical_formula_sum   'Mg1 Fe1 Pt2'
_cell_volume   814.51440825
_cell_formula_units_Z   1
loop_
 _symmetry_equiv_pos_site_id
 _symmetry_equiv_pos_as_xyz
  1  'x, y, z'
loop_
 _atom_site_type_symbol
 _atom_site_label
 _atom_site_symmetry_multiplicity
 _atom_site_fract_x
 _atom_site_fract_y
 _atom_site_fract_z
 _atom_site_occupancy
  Mg  Mg0  1  0.00000000  0.00000000  0.00000000  1
  Fe  Fe1  1  0.00000000  0.50000000  0.50000000  1
  Pt  Pt2  1  0.00000000  0.26517500  0.26517500  1
  Pt  Pt3  1  0.00000000  0.73482500  0.73482500  1
