# generated using pymatgen
data_Li4Co3Ni5O16
_symmetry_space_group_name_H-M   'P 1'
_cell_length_a   5.64419784
_cell_length_b   5.64419784
_cell_length_c   9.38625247
_cell_angle_alpha   89.98427281
_cell_angle_beta   89.98427281
_cell_angle_gamma   60.06520857
_symmetry_Int_Tables_number   1
_chemical_formula_structural   Li4Co3Ni5O16
_chemical_formula_sum   'Li4 Co3 Ni5 O16'
_cell_volume   259.12677578
_cell_formula_units_Z   1
loop_
 _symmetry_equiv_pos_site_id
 _symmetry_equiv_pos_as_xyz
  1  'x, y, z'
loop_
 _atom_site_type_symbol
 _atom_site_label
 _atom_site_symmetry_multiplicity
 _atom_site_fract_x
 _atom_site_fract_y
 _atom_site_fract_z
 _atom_site_occupancy
  Li  Li0  1  0.33231500  0.33231500  0.89282800  1
  Li  Li1  1  0.99846400  0.99846400  0.99755600  1
  Li  Li2  1  0.00057200  0.00057200  0.49785300  1
  Li  Li3  1  0.66730800  0.66730800  0.39423100  1
  Co  Co4  1  0.16957000  0.66344700  0.21400000  1
  Co  Co5  1  0.66344700  0.16957000  0.21400000  1
  Co  Co6  1  0.83186100  0.83186100  0.71377600  1
  Ni  Ni7  1  0.33329900  0.33329900  0.49071500  1
  Ni  Ni8  1  0.16910100  0.16910100  0.21470600  1
  Ni  Ni9  1  0.66622400  0.66622400  0.99039600  1
  Ni  Ni10  1  0.33770400  0.83157300  0.71505600  1
  Ni  Ni11  1  0.83157300  0.33770400  0.71505600  1
  O  O12  1  0.15547600  0.68410900  0.60688600  1
  O  O13  1  0.48287300  0.48287300  0.32628100  1
  O  O14  1  0.33128000  0.33128000  0.11041800  1
  O  O15  1  0.00276800  0.00276800  0.31030000  1
  O  O16  1  0.00271300  0.00271300  0.80894500  1
  O  O17  1  0.68410900  0.15547600  0.60688600  1
  O  O18  1  0.03784500  0.48394800  0.32936900  1
  O  O19  1  0.48394800  0.03784500  0.32936900  1
  O  O20  1  0.84134500  0.84134500  0.10921000  1
  O  O21  1  0.15886400  0.15886400  0.60557100  1
  O  O22  1  0.52069500  0.96424200  0.82822700  1
  O  O23  1  0.96424200  0.52069500  0.82822700  1
  O  O24  1  0.66425700  0.66425700  0.61241500  1
  O  O25  1  0.31486600  0.83988700  0.10639500  1
  O  O26  1  0.51835600  0.51835600  0.83227500  1
  O  O27  1  0.83988700  0.31486600  0.10639500  1
