# generated using pymatgen
data_MgSiO3
_symmetry_space_group_name_H-M   'P 1'
_cell_length_a   10.05341496
_cell_length_b   10.05341496
_cell_length_c   10.05341496
_cell_angle_alpha   109.24155338
_cell_angle_beta   109.24155338
_cell_angle_gamma   109.93153810
_symmetry_Int_Tables_number   1
_chemical_formula_structural   MgSiO3
_chemical_formula_sum   'Mg16 Si16 O48'
_cell_volume   782.16412121
_cell_formula_units_Z   16
loop_
 _symmetry_equiv_pos_site_id
 _symmetry_equiv_pos_as_xyz
  1  'x, y, z'
loop_
 _atom_site_type_symbol
 _atom_site_label
 _atom_site_symmetry_multiplicity
 _atom_site_fract_x
 _atom_site_fract_y
 _atom_site_fract_z
 _atom_site_occupancy
  Mg  Mg0  1  0.00215400  0.50215300  0.50000000  1
  Mg  Mg1  1  0.75215300  0.75215300  0.00000000  1
  Mg  Mg2  1  0.12500000  0.37500000  0.25000000  1
  Mg  Mg3  1  0.48784200  0.62384500  0.39195300  1
  Mg  Mg4  1  0.01810800  0.65411000  0.89195300  1
  Mg  Mg5  1  0.34589000  0.23784200  0.36399800  1
  Mg  Mg6  1  0.37615500  0.76810800  0.86399800  1
  Mg  Mg7  1  0.12500000  0.87500000  0.25000000  1
  Mg  Mg8  1  0.62500000  0.87500000  0.75000000  1
  Mg  Mg9  1  0.87384500  0.98189200  0.63600200  1
  Mg  Mg10  1  0.90411000  0.51215800  0.13600200  1
  Mg  Mg11  1  0.23189200  0.09589000  0.60804700  1
  Mg  Mg12  1  0.76215800  0.12615500  0.10804700  1
  Mg  Mg13  1  0.49784700  0.99784600  0.50000000  1
  Mg  Mg14  1  0.12500000  0.87500000  0.75000000  1
  Mg  Mg15  1  0.24784700  0.24784700  0.00000000  1
  Si  Si16  1  0.85900800  0.74504900  0.36449800  1
  Si  Si17  1  0.62500000  0.37500000  0.25000000  1
  Si  Si18  1  0.74451000  0.60900800  0.61395900  1
  Si  Si19  1  0.62500000  0.87500000  0.25000000  1
  Si  Si20  1  0.75000000  0.25000000  0.50000000  1
  Si  Si21  1  0.25000000  0.75000000  0.50000000  1
  Si  Si22  1  0.62500000  0.37500000  0.75000000  1
  Si  Si23  1  0.99504900  0.13055100  0.38604100  1
  Si  Si24  1  0.86944900  0.25549000  0.86449800  1
  Si  Si25  1  0.12500000  0.37500000  0.75000000  1
  Si  Si26  1  0.38055100  0.49451000  0.63550200  1
  Si  Si27  1  0.25495100  0.61944900  0.11395900  1
  Si  Si28  1  0.00000000  0.00000000  0.00000000  1
  Si  Si29  1  0.50000000  0.50000000  0.00000000  1
  Si  Si30  1  0.50549000  0.14099200  0.88604100  1
  Si  Si31  1  0.39099200  0.00495100  0.13550200  1
  O  O32  1  0.71396800  0.79395300  0.36716300  1
  O  O33  1  0.71072800  0.75839300  0.62153600  1
  O  O34  1  0.80993100  0.55831100  0.33759200  1
  O  O35  1  0.74020300  0.30637100  0.36157300  1
  O  O36  1  0.09370600  0.56924300  0.35021700  1
  O  O37  1  0.44168900  0.77928200  0.25162000  1
  O  O38  1  0.72233800  0.55993100  0.75162000  1
  O  O39  1  0.93168200  0.64878000  0.66516100  1
  O  O40  1  0.98361900  0.26652100  0.33483900  1
  O  O41  1  0.69362900  0.05520200  0.43383200  1
  O  O42  1  0.62863100  0.49020300  0.93383200  1
  O  O43  1  0.21902600  0.74348900  0.64978300  1
  O  O44  1  0.99348900  0.84370600  0.02446300  1
  O  O45  1  0.43075700  0.78097400  0.52446300  1
  O  O46  1  0.94479800  0.37863100  0.63842700  1
  O  O47  1  0.82321100  0.40319600  0.86716300  1
  O  O48  1  0.33919200  0.46072800  0.45233600  1
  O  O49  1  0.24160700  0.86314400  0.95233600  1
  O  O50  1  0.73347900  0.06831800  0.71709800  1
  O  O51  1  0.89878000  0.73361900  0.21709800  1
  O  O52  1  0.22071800  0.47233800  0.66240800  1
  O  O53  1  0.13685600  0.08919200  0.37846400  1
  O  O54  1  0.04395300  0.17678900  0.57998500  1
  O  O55  1  0.65319600  0.28603200  0.07998500  1
  O  O56  1  0.20604700  0.57321100  0.92001500  1
  O  O57  1  0.59680400  0.46396800  0.42001500  1
  O  O58  1  0.11314400  0.66080800  0.12153600  1
  O  O59  1  0.02928200  0.27766200  0.83759200  1
  O  O60  1  0.51652100  0.68168200  0.78290200  1
  O  O61  1  0.35122000  0.01638100  0.28290200  1
  O  O62  1  0.00839300  0.88685600  0.54766400  1
  O  O63  1  0.91080800  0.28927200  0.04766400  1
  O  O64  1  0.42678900  0.34680400  0.63283700  1
  O  O65  1  0.30520200  0.37136900  0.86157300  1
  O  O66  1  0.25651100  0.90629400  0.47553700  1
  O  O67  1  0.81924300  0.96902600  0.97553700  1
  O  O68  1  0.03097400  0.00651100  0.85021700  1
  O  O69  1  0.55637100  0.69479800  0.06616800  1
  O  O70  1  0.62136900  0.25979700  0.56616800  1
  O  O71  1  0.26638100  0.48347900  0.16516100  1
  O  O72  1  0.31831800  0.10122000  0.83483900  1
  O  O73  1  0.52766200  0.19006900  0.74838000  1
  O  O74  1  0.80831100  0.97071800  0.24838000  1
  O  O75  1  0.15629400  0.18075700  0.14978300  1
  O  O76  1  0.50979700  0.44362900  0.13842700  1
  O  O77  1  0.44006900  0.19168900  0.16240800  1
  O  O78  1  0.53927200  0.99160700  0.87846400  1
  O  O79  1  0.53603200  0.95604700  0.13283700  1
