# generated using pymatgen
data_KBaHg2
_symmetry_space_group_name_H-M   'P 1'
_cell_length_a   13.77771119
_cell_length_b   13.77771119
_cell_length_c   13.77771119
_cell_angle_alpha   121.07925768
_cell_angle_beta   116.51542831
_cell_angle_gamma   92.13980217
_symmetry_Int_Tables_number   1
_chemical_formula_structural   KBaHg2
_chemical_formula_sum   'K1 Ba1 Hg2'
_cell_volume   1877.96918476
_cell_formula_units_Z   1
loop_
 _symmetry_equiv_pos_site_id
 _symmetry_equiv_pos_as_xyz
  1  'x, y, z'
loop_
 _atom_site_type_symbol
 _atom_site_label
 _atom_site_symmetry_multiplicity
 _atom_site_fract_x
 _atom_site_fract_y
 _atom_site_fract_z
 _atom_site_occupancy
  K  K0  1  0.00000000  0.00000000  0.00000000  1
  Ba  Ba1  1  0.50000000  0.00000000  0.50000000  1
  Hg  Hg2  1  0.75262800  0.00000000  0.75262800  1
  Hg  Hg3  1  0.24737200  0.00000000  0.24737200  1
