# generated using pymatgen
data_V3Bi2(PO4)6
_symmetry_space_group_name_H-M   'P 1'
_cell_length_a   8.81830767
_cell_length_b   8.81830767
_cell_length_c   8.81830796
_cell_angle_alpha   59.33321210
_cell_angle_beta   59.33321210
_cell_angle_gamma   59.33321502
_symmetry_Int_Tables_number   1
_chemical_formula_structural   V3Bi2(PO4)6
_chemical_formula_sum   'V3 Bi2 P6 O24'
_cell_volume   477.52676181
_cell_formula_units_Z   1
loop_
 _symmetry_equiv_pos_site_id
 _symmetry_equiv_pos_as_xyz
  1  'x, y, z'
loop_
 _atom_site_type_symbol
 _atom_site_label
 _atom_site_symmetry_multiplicity
 _atom_site_fract_x
 _atom_site_fract_y
 _atom_site_fract_z
 _atom_site_occupancy
  V  V0  1  0.64845000  0.64845000  0.64845000  1
  V  V1  1  0.85881000  0.85881000  0.85881000  1
  V  V2  1  0.34382400  0.34382400  0.34382400  1
  Bi  Bi3  1  0.02235600  0.02235600  0.02235600  1
  Bi  Bi4  1  0.49883500  0.49883500  0.49883500  1
  P  P5  1  0.24768800  0.53899500  0.94785000  1
  P  P6  1  0.94785000  0.24768800  0.53899500  1
  P  P7  1  0.53899500  0.94785000  0.24768800  1
  P  P8  1  0.47639200  0.03998000  0.73749300  1
  P  P9  1  0.03998000  0.73749300  0.47639200  1
  P  P10  1  0.73749300  0.47639200  0.03998000  1
  O  O11  1  0.12166200  0.29262000  0.49795800  1
  O  O12  1  0.49795800  0.12166200  0.29261900  1
  O  O13  1  0.29261900  0.49795800  0.12166200  1
  O  O14  1  0.07659700  0.72767800  0.94511500  1
  O  O15  1  0.41337300  0.59608700  0.76305900  1
  O  O16  1  0.22720800  0.38383900  0.94455400  1
  O  O17  1  0.94511500  0.07659700  0.72767800  1
  O  O18  1  0.76305900  0.41337300  0.59608700  1
  O  O19  1  0.59608700  0.76305900  0.41337300  1
  O  O20  1  0.63798700  0.01079500  0.78329100  1
  O  O21  1  0.29425800  0.05097100  0.90292000  1
  O  O22  1  0.01079500  0.78329100  0.63798700  1
  O  O23  1  0.94455400  0.22720800  0.38383900  1
  O  O24  1  0.72767800  0.94511500  0.07659700  1
  O  O25  1  0.38383900  0.94455400  0.22720800  1
  O  O26  1  0.45283300  0.22707900  0.56611400  1
  O  O27  1  0.22707900  0.56611400  0.45283300  1
  O  O28  1  0.05097100  0.90292000  0.29425800  1
  O  O29  1  0.78329100  0.63798700  0.01079500  1
  O  O30  1  0.56611400  0.45283300  0.22707900  1
  O  O31  1  0.90292000  0.29425800  0.05097100  1
  O  O32  1  0.67330300  0.51975600  0.88515900  1
  O  O33  1  0.51975600  0.88515900  0.67330300  1
  O  O34  1  0.88515900  0.67330300  0.51975600  1
