# generated using pymatgen
data_KRbAu2
_symmetry_space_group_name_H-M   'P 1'
_cell_length_a   12.92337245
_cell_length_b   12.92337245
_cell_length_c   12.92337245
_cell_angle_alpha   121.63848524
_cell_angle_beta   119.49739005
_cell_angle_gamma   89.02925989
_symmetry_Int_Tables_number   1
_chemical_formula_structural   KRbAu2
_chemical_formula_sum   'K1 Rb1 Au2'
_cell_volume   1512.19271594
_cell_formula_units_Z   1
loop_
 _symmetry_equiv_pos_site_id
 _symmetry_equiv_pos_as_xyz
  1  'x, y, z'
loop_
 _atom_site_type_symbol
 _atom_site_label
 _atom_site_symmetry_multiplicity
 _atom_site_fract_x
 _atom_site_fract_y
 _atom_site_fract_z
 _atom_site_occupancy
  K  K0  1  0.00000000  0.00000000  0.00000000  1
  Rb  Rb1  1  0.00000000  0.50000000  0.50000000  1
  Au  Au2  1  0.00000000  0.24455500  0.24455500  1
  Au  Au3  1  0.00000000  0.75544500  0.75544500  1
