# generated using pymatgen
data_Er4(B2O5)3
_symmetry_space_group_name_H-M   'P 1'
_cell_length_a   6.22025777
_cell_length_b   6.22025777
_cell_length_c   18.84042227
_cell_angle_alpha   83.95511884
_cell_angle_beta   83.95511884
_cell_angle_gamma   41.23724314
_symmetry_Int_Tables_number   1
_chemical_formula_structural   Er4(B2O5)3
_chemical_formula_sum   'Er8 B12 O30'
_cell_volume   477.46752292
_cell_formula_units_Z   2
loop_
 _symmetry_equiv_pos_site_id
 _symmetry_equiv_pos_as_xyz
  1  'x, y, z'
loop_
 _atom_site_type_symbol
 _atom_site_label
 _atom_site_symmetry_multiplicity
 _atom_site_fract_x
 _atom_site_fract_y
 _atom_site_fract_z
 _atom_site_occupancy
  Er  Er0  1  0.65285800  0.07219000  0.30247400  1
  Er  Er1  1  0.66650500  0.06809200  0.09894300  1
  Er  Er2  1  0.93190800  0.33349500  0.40105700  1
  Er  Er3  1  0.92781000  0.34714200  0.19752600  1
  Er  Er4  1  0.07219000  0.65285800  0.80247400  1
  Er  Er5  1  0.06809200  0.66650500  0.59894300  1
  Er  Er6  1  0.33349500  0.93190800  0.90105700  1
  Er  Er7  1  0.34714200  0.92781000  0.69752600  1
  B  B8  1  0.64021600  0.02144800  0.47441700  1
  B  B9  1  0.19670800  0.60864800  0.41278200  1
  B  B10  1  0.20444700  0.66031200  0.19428500  1
  B  B11  1  0.60864800  0.19670800  0.91278200  1
  B  B12  1  0.66031200  0.20444700  0.69428500  1
  B  B13  1  0.97855200  0.35978400  0.02558300  1
  B  B14  1  0.02144800  0.64021600  0.97441700  1
  B  B15  1  0.33968800  0.79555300  0.30571500  1
  B  B16  1  0.39135200  0.80329200  0.08721800  1
  B  B17  1  0.79555300  0.33968800  0.80571500  1
  B  B18  1  0.80329200  0.39135200  0.58721800  1
  B  B19  1  0.35978400  0.97855200  0.52558300  1
  O  O20  1  0.99382800  0.75136800  0.47946300  1
  O  O21  1  0.54255000  0.28876600  0.42980100  1
  O  O22  1  0.53452300  0.33623300  0.19666300  1
  O  O23  1  0.15992200  0.81216300  0.12149800  1
  O  O24  1  0.81216300  0.15992200  0.62149800  1
  O  O25  1  0.95135400  0.68476900  0.20373000  1
  O  O26  1  0.75136800  0.99382800  0.97946300  1
  O  O27  1  0.28876600  0.54255000  0.92980100  1
  O  O28  1  0.33623300  0.53452300  0.69666300  1
  O  O29  1  0.07661800  0.56016300  0.36166700  1
  O  O30  1  0.50488200  0.91211700  0.45054400  1
  O  O31  1  0.56016300  0.07661800  0.86166700  1
  O  O32  1  0.68476900  0.95135400  0.70373000  1
  O  O33  1  0.91211700  0.50488200  0.95054400  1
  O  O34  1  0.08788300  0.49511800  0.04945600  1
  O  O35  1  0.31523100  0.04864600  0.29627000  1
  O  O36  1  0.43983700  0.92338200  0.13833300  1
  O  O37  1  0.49511800  0.08788300  0.54945600  1
  O  O38  1  0.92338200  0.43983700  0.63833300  1
  O  O39  1  0.66376700  0.46547700  0.30333700  1
  O  O40  1  0.71123400  0.45745000  0.07019900  1
  O  O41  1  0.24863200  0.00617200  0.02053700  1
  O  O42  1  0.04864600  0.31523100  0.79627000  1
  O  O43  1  0.18783700  0.84007800  0.37850200  1
  O  O44  1  0.84007800  0.18783700  0.87850200  1
  O  O45  1  0.46547700  0.66376700  0.80333700  1
  O  O46  1  0.86856700  0.13143300  0.75000000  1
  O  O47  1  0.13143300  0.86856700  0.25000000  1
  O  O48  1  0.45745000  0.71123400  0.57019900  1
  O  O49  1  0.00617200  0.24863200  0.52053700  1
