# generated using pymatgen
data_Y2MgTl
_symmetry_space_group_name_H-M   'P 1'
_cell_length_a   13.07505811
_cell_length_b   13.07505811
_cell_length_c   13.07505811
_cell_angle_alpha   122.61694651
_cell_angle_beta   118.99593734
_cell_angle_gamma   88.63809213
_symmetry_Int_Tables_number   1
_chemical_formula_structural   Y2MgTl
_chemical_formula_sum   'Y2 Mg1 Tl1'
_cell_volume   1558.82600208
_cell_formula_units_Z   1
loop_
 _symmetry_equiv_pos_site_id
 _symmetry_equiv_pos_as_xyz
  1  'x, y, z'
loop_
 _atom_site_type_symbol
 _atom_site_label
 _atom_site_symmetry_multiplicity
 _atom_site_fract_x
 _atom_site_fract_y
 _atom_site_fract_z
 _atom_site_occupancy
  Y  Y0  1  0.00000000  0.26884800  0.26884800  1
  Y  Y1  1  0.00000000  0.73115200  0.73115200  1
  Mg  Mg2  1  0.00000000  0.00000000  0.00000000  1
  Tl  Tl3  1  0.00000000  0.50000000  0.50000000  1
