# generated using pymatgen
data_Y2TlHg
_symmetry_space_group_name_H-M   'P 1'
_cell_length_a   12.92331914
_cell_length_b   12.92331914
_cell_length_c   12.92331914
_cell_angle_alpha   124.20952459
_cell_angle_beta   120.09463050
_cell_angle_gamma   86.35062700
_symmetry_Int_Tables_number   1
_chemical_formula_structural   Y2TlHg
_chemical_formula_sum   'Y2 Tl1 Hg1'
_cell_volume   1470.71132224
_cell_formula_units_Z   1
loop_
 _symmetry_equiv_pos_site_id
 _symmetry_equiv_pos_as_xyz
  1  'x, y, z'
loop_
 _atom_site_type_symbol
 _atom_site_label
 _atom_site_symmetry_multiplicity
 _atom_site_fract_x
 _atom_site_fract_y
 _atom_site_fract_z
 _atom_site_occupancy
  Y  Y0  1  0.00000000  0.25883600  0.25883600  1
  Y  Y1  1  0.00000000  0.74116400  0.74116400  1
  Tl  Tl2  1  0.00000000  0.50000000  0.50000000  1
  Hg  Hg3  1  0.00000000  0.00000000  0.00000000  1
