# generated using pymatgen
data_Mn3TeO8
_symmetry_space_group_name_H-M   'P 1'
_cell_length_a   5.98073376
_cell_length_b   5.98073376
_cell_length_c   5.87447983
_cell_angle_alpha   64.29079720
_cell_angle_beta   64.29079720
_cell_angle_gamma   59.39906507
_symmetry_Int_Tables_number   1
_chemical_formula_structural   Mn3TeO8
_chemical_formula_sum   'Mn3 Te1 O8'
_cell_volume   156.69276722
_cell_formula_units_Z   1
loop_
 _symmetry_equiv_pos_site_id
 _symmetry_equiv_pos_as_xyz
  1  'x, y, z'
loop_
 _atom_site_type_symbol
 _atom_site_label
 _atom_site_symmetry_multiplicity
 _atom_site_fract_x
 _atom_site_fract_y
 _atom_site_fract_z
 _atom_site_occupancy
  Mn  Mn0  1  0.00000000  0.50000000  0.00000000  1
  Mn  Mn1  1  0.50000000  0.50000000  0.50000000  1
  Mn  Mn2  1  0.50000000  0.00000000  0.00000000  1
  Te  Te3  1  0.00000000  0.00000000  0.50000000  1
  O  O4  1  0.71197000  0.71197000  0.24026400  1
  O  O5  1  0.76250700  0.25759400  0.70937700  1
  O  O6  1  0.21739100  0.21739100  0.24900500  1
  O  O7  1  0.28803000  0.28803000  0.75973600  1
  O  O8  1  0.25759400  0.76250700  0.70937700  1
  O  O9  1  0.23749300  0.74240600  0.29062300  1
  O  O10  1  0.78260900  0.78260900  0.75099500  1
  O  O11  1  0.74240600  0.23749300  0.29062300  1
