# generated using pymatgen
data_Ga2WO6
_symmetry_space_group_name_H-M   'P 1'
_cell_length_a   9.53704641
_cell_length_b   9.53704641
_cell_length_c   5.03933211
_cell_angle_alpha   85.56576648
_cell_angle_beta   85.56576648
_cell_angle_gamma   83.29010550
_symmetry_Int_Tables_number   1
_chemical_formula_structural   Ga2WO6
_chemical_formula_sum   'Ga8 W4 O24'
_cell_volume   452.77127752
_cell_formula_units_Z   4
loop_
 _symmetry_equiv_pos_site_id
 _symmetry_equiv_pos_as_xyz
  1  'x, y, z'
loop_
 _atom_site_type_symbol
 _atom_site_label
 _atom_site_symmetry_multiplicity
 _atom_site_fract_x
 _atom_site_fract_y
 _atom_site_fract_z
 _atom_site_occupancy
  Ga  Ga0  1  0.15527400  0.84472600  0.75000000  1
  Ga  Ga1  1  0.69638100  0.30361900  0.75000000  1
  Ga  Ga2  1  0.94255500  0.79296700  0.29703200  1
  Ga  Ga3  1  0.79296700  0.94255500  0.79703200  1
  Ga  Ga4  1  0.20703300  0.05744500  0.20296800  1
  Ga  Ga5  1  0.05744500  0.20703300  0.70296800  1
  Ga  Ga6  1  0.30361900  0.69638100  0.25000000  1
  Ga  Ga7  1  0.84472600  0.15527400  0.25000000  1
  W  W8  1  0.49394100  0.84373700  0.61090800  1
  W  W9  1  0.15626300  0.50605900  0.88909200  1
  W  W10  1  0.84373700  0.49394100  0.11090800  1
  W  W11  1  0.50605900  0.15626300  0.38909200  1
  O  O12  1  0.85769000  0.96244900  0.12524700  1
  O  O13  1  0.55651000  0.95467500  0.29623300  1
  O  O14  1  0.26586800  0.89295200  0.41067500  1
  O  O15  1  0.47849600  0.68875300  0.42109900  1
  O  O16  1  0.31124700  0.52150400  0.07890100  1
  O  O17  1  0.10704800  0.73413200  0.08932500  1
  O  O18  1  0.96244900  0.85769000  0.62524700  1
  O  O19  1  0.19614500  0.64436100  0.60249000  1
  O  O20  1  0.64436100  0.19614500  0.10249000  1
  O  O21  1  0.18957500  0.33622800  0.73214300  1
  O  O22  1  0.33622800  0.18957500  0.23214300  1
  O  O23  1  0.04532500  0.44349000  0.20376700  1
  O  O24  1  0.95467500  0.55651000  0.79623300  1
  O  O25  1  0.66377200  0.81042500  0.76785700  1
  O  O26  1  0.81042500  0.66377200  0.26785700  1
  O  O27  1  0.35563900  0.80385500  0.89751000  1
  O  O28  1  0.80385500  0.35563900  0.39751000  1
  O  O29  1  0.03755100  0.14231000  0.37475300  1
  O  O30  1  0.89295200  0.26586800  0.91067500  1
  O  O31  1  0.68875300  0.47849600  0.92109900  1
  O  O32  1  0.52150400  0.31124700  0.57890100  1
  O  O33  1  0.73413200  0.10704800  0.58932500  1
  O  O34  1  0.44349000  0.04532500  0.70376700  1
  O  O35  1  0.14231000  0.03755100  0.87475300  1
