# generated using pymatgen
data_Mn2Cr3O12
_symmetry_space_group_name_H-M   'P 1'
_cell_length_a   9.05072900
_cell_length_b   9.19082900
_cell_length_c   12.36500700
_cell_angle_alpha   90.00000000
_cell_angle_beta   90.00000000
_cell_angle_gamma   90.00000000
_symmetry_Int_Tables_number   1
_chemical_formula_structural   Mn2Cr3O12
_chemical_formula_sum   'Mn8 Cr12 O48'
_cell_volume   1028.56706449
_cell_formula_units_Z   4
loop_
 _symmetry_equiv_pos_site_id
 _symmetry_equiv_pos_as_xyz
  1  'x, y, z'
loop_
 _atom_site_type_symbol
 _atom_site_label
 _atom_site_symmetry_multiplicity
 _atom_site_fract_x
 _atom_site_fract_y
 _atom_site_fract_z
 _atom_site_occupancy
  Mn  Mn0  1  0.24846700  0.96922400  0.11942900  1
  Mn  Mn1  1  0.75153300  0.46922400  0.11942900  1
  Mn  Mn2  1  0.74846700  0.96922400  0.38057100  1
  Mn  Mn3  1  0.25153300  0.46922400  0.38057100  1
  Mn  Mn4  1  0.25153300  0.03077600  0.61942900  1
  Mn  Mn5  1  0.74846700  0.53077600  0.61942900  1
  Mn  Mn6  1  0.24846700  0.53077600  0.88057100  1
  Mn  Mn7  1  0.75153300  0.03077600  0.88057100  1
  Cr  Cr8  1  0.47294200  0.25000000  0.00000000  1
  Cr  Cr9  1  0.52705800  0.75000000  0.00000000  1
  Cr  Cr10  1  0.09830000  0.60141800  0.14635200  1
  Cr  Cr11  1  0.90170000  0.10141800  0.14635200  1
  Cr  Cr12  1  0.40170000  0.10141800  0.35364800  1
  Cr  Cr13  1  0.59830000  0.60141800  0.35364800  1
  Cr  Cr14  1  0.02705800  0.75000000  0.50000000  1
  Cr  Cr15  1  0.97294200  0.25000000  0.50000000  1
  Cr  Cr16  1  0.40170000  0.39858200  0.64635200  1
  Cr  Cr17  1  0.59830000  0.89858200  0.64635200  1
  Cr  Cr18  1  0.09830000  0.89858200  0.85364800  1
  Cr  Cr19  1  0.90170000  0.39858200  0.85364800  1
  O  O20  1  0.14857300  0.55968300  0.02044000  1
  O  O21  1  0.85142700  0.05968300  0.02044000  1
  O  O22  1  0.57818400  0.36732300  0.07034000  1
  O  O23  1  0.42181600  0.86732300  0.07034000  1
  O  O24  1  0.36598800  0.16141700  0.08479500  1
  O  O25  1  0.63401200  0.66141700  0.08479500  1
  O  O26  1  0.08719000  0.09328700  0.16146400  1
  O  O27  1  0.91281000  0.59328700  0.16146400  1
  O  O28  1  0.14962700  0.76764600  0.17487900  1
  O  O29  1  0.85037300  0.26764600  0.17487900  1
  O  O30  1  0.82355700  0.98161000  0.23020300  1
  O  O31  1  0.17644300  0.48161000  0.23020300  1
  O  O32  1  0.32355700  0.98161000  0.26979700  1
  O  O33  1  0.67644300  0.48161000  0.26979700  1
  O  O34  1  0.64962700  0.76764600  0.32512100  1
  O  O35  1  0.35037300  0.26764600  0.32512100  1
  O  O36  1  0.41281000  0.59328700  0.33853600  1
  O  O37  1  0.58719000  0.09328700  0.33853600  1
  O  O38  1  0.13401200  0.66141700  0.41520500  1
  O  O39  1  0.86598800  0.16141700  0.41520500  1
  O  O40  1  0.07818400  0.36732300  0.42966000  1
  O  O41  1  0.92181600  0.86732300  0.42966000  1
  O  O42  1  0.64857300  0.55968300  0.47956000  1
  O  O43  1  0.35142700  0.05968300  0.47956000  1
  O  O44  1  0.35142700  0.44031700  0.52044000  1
  O  O45  1  0.64857300  0.94031700  0.52044000  1
  O  O46  1  0.07818400  0.13267700  0.57034000  1
  O  O47  1  0.92181600  0.63267700  0.57034000  1
  O  O48  1  0.13401200  0.83858300  0.58479500  1
  O  O49  1  0.86598800  0.33858300  0.58479500  1
  O  O50  1  0.41281000  0.90671300  0.66146400  1
  O  O51  1  0.58719000  0.40671300  0.66146400  1
  O  O52  1  0.35037300  0.23235400  0.67487900  1
  O  O53  1  0.64962700  0.73235400  0.67487900  1
  O  O54  1  0.32355700  0.51839000  0.73020300  1
  O  O55  1  0.67644300  0.01839000  0.73020300  1
  O  O56  1  0.17644300  0.01839000  0.76979700  1
  O  O57  1  0.82355700  0.51839000  0.76979700  1
  O  O58  1  0.14962700  0.73235400  0.82512100  1
  O  O59  1  0.85037300  0.23235400  0.82512100  1
  O  O60  1  0.08719000  0.40671300  0.83853600  1
  O  O61  1  0.91281000  0.90671300  0.83853600  1
  O  O62  1  0.36598800  0.33858300  0.91520500  1
  O  O63  1  0.63401200  0.83858300  0.91520500  1
  O  O64  1  0.42181600  0.63267700  0.92966000  1
  O  O65  1  0.57818400  0.13267700  0.92966000  1
  O  O66  1  0.14857300  0.94031700  0.97956000  1
  O  O67  1  0.85142700  0.44031700  0.97956000  1
