# generated using pymatgen
data_V3(WO6)2
_symmetry_space_group_name_H-M   'P 1'
_cell_length_a   9.41732200
_cell_length_b   9.32927100
_cell_length_c   16.15047290
_cell_angle_alpha   54.81661099
_cell_angle_beta   90.00000000
_cell_angle_gamma   90.00000000
_symmetry_Int_Tables_number   1
_chemical_formula_structural   V3(WO6)2
_chemical_formula_sum   'V12 W8 O48'
_cell_volume   1159.70689081
_cell_formula_units_Z   4
loop_
 _symmetry_equiv_pos_site_id
 _symmetry_equiv_pos_as_xyz
  1  'x, y, z'
loop_
 _atom_site_type_symbol
 _atom_site_label
 _atom_site_symmetry_multiplicity
 _atom_site_fract_x
 _atom_site_fract_y
 _atom_site_fract_z
 _atom_site_occupancy
  V  V0  1  0.74954400  0.53268100  0.49610000  1
  V  V1  1  0.61073500  0.25663800  0.85627200  1
  V  V2  1  0.89324200  0.97137600  0.14332700  1
  V  V3  1  0.11073500  0.74336200  0.64372800  1
  V  V4  1  0.39324200  0.02862400  0.35667300  1
  V  V5  1  0.24954400  0.46731900  0.00390000  1
  V  V6  1  0.75045600  0.53268100  0.99610000  1
  V  V7  1  0.60675800  0.97137600  0.64332700  1
  V  V8  1  0.88926500  0.25663800  0.35627200  1
  V  V9  1  0.10675800  0.02862400  0.85667300  1
  V  V10  1  0.38926500  0.74336200  0.14372800  1
  V  V11  1  0.25045600  0.46731900  0.50390000  1
  W  W12  1  0.97081200  0.36300400  0.88361400  1
  W  W13  1  0.47081200  0.63699600  0.61638600  1
  W  W14  1  0.03274400  0.87396700  0.38230800  1
  W  W15  1  0.53274400  0.12603300  0.11769200  1
  W  W16  1  0.46725600  0.87396700  0.88230800  1
  W  W17  1  0.96725600  0.12603300  0.61769200  1
  W  W18  1  0.52918800  0.36300400  0.38361400  1
  W  W19  1  0.02918800  0.63699600  0.11638600  1
  O  O20  1  0.15052500  0.65640100  0.42540200  1
  O  O21  1  0.08359800  0.21258400  0.86802300  1
  O  O22  1  0.34664300  0.48626400  0.58896600  1
  O  O23  1  0.41960800  0.93562300  0.14610700  1
  O  O24  1  0.63386800  0.56075100  0.57038800  1
  O  O25  1  0.80094700  0.30955600  0.84348800  1
  O  O26  1  0.55618900  0.19656900  0.97984800  1
  O  O27  1  0.99843900  0.92505900  0.25096300  1
  O  O28  1  0.70405100  0.99631000  0.16098400  1
  O  O29  1  0.86312600  0.71343300  0.42957900  1
  O  O30  1  0.51142100  0.44021200  0.75137500  1
  O  O31  1  0.01142100  0.55978800  0.74862500  1
  O  O32  1  0.94256700  0.17220400  0.02490100  1
  O  O33  1  0.44256700  0.82779600  0.47509900  1
  O  O34  1  0.36312600  0.28656700  0.07042100  1
  O  O35  1  0.20405100  0.00369000  0.33901600  1
  O  O36  1  0.05618900  0.80343100  0.52015200  1
  O  O37  1  0.49843900  0.07494100  0.24903700  1
  O  O38  1  0.30094700  0.69044400  0.65651200  1
  O  O39  1  0.13386800  0.43924900  0.92961200  1
  O  O40  1  0.84664300  0.51373600  0.91103400  1
  O  O41  1  0.58359800  0.78741600  0.63197700  1
  O  O42  1  0.91960800  0.06437700  0.35389300  1
  O  O43  1  0.65052500  0.34359900  0.07459800  1
  O  O44  1  0.34947500  0.65640100  0.92540200  1
  O  O45  1  0.08039200  0.93562300  0.64610700  1
  O  O46  1  0.41640200  0.21258400  0.36802300  1
  O  O47  1  0.15335700  0.48626400  0.08896600  1
  O  O48  1  0.86613200  0.56075100  0.07038800  1
  O  O49  1  0.69905300  0.30955600  0.34348800  1
  O  O50  1  0.50156100  0.92505900  0.75096300  1
  O  O51  1  0.94381100  0.19656900  0.47984800  1
  O  O52  1  0.79594900  0.99631000  0.66098400  1
  O  O53  1  0.63687400  0.71343300  0.92957900  1
  O  O54  1  0.55743300  0.17220400  0.52490100  1
  O  O55  1  0.05743300  0.82779600  0.97509900  1
  O  O56  1  0.98857900  0.44021200  0.25137500  1
  O  O57  1  0.48857900  0.55978800  0.24862500  1
  O  O58  1  0.13687400  0.28656700  0.57042100  1
  O  O59  1  0.29594900  0.00369000  0.83901600  1
  O  O60  1  0.00156100  0.07494100  0.74903700  1
  O  O61  1  0.44381100  0.80343100  0.02015200  1
  O  O62  1  0.19905300  0.69044400  0.15651200  1
  O  O63  1  0.36613200  0.43924900  0.42961200  1
  O  O64  1  0.58039200  0.06437700  0.85389300  1
  O  O65  1  0.65335700  0.51373600  0.41103400  1
  O  O66  1  0.91640200  0.78741600  0.13197700  1
  O  O67  1  0.84947500  0.34359900  0.57459800  1
