# generated using pymatgen
data_TaTiW2
_symmetry_space_group_name_H-M   'P 1'
_cell_length_a   11.26490718
_cell_length_b   11.26490718
_cell_length_c   11.26490718
_cell_angle_alpha   131.34427732
_cell_angle_beta   116.56141795
_cell_angle_gamma   83.81500980
_symmetry_Int_Tables_number   1
_chemical_formula_structural   TaTiW2
_chemical_formula_sum   'Ta1 Ti1 W2'
_cell_volume   921.69010375
_cell_formula_units_Z   1
loop_
 _symmetry_equiv_pos_site_id
 _symmetry_equiv_pos_as_xyz
  1  'x, y, z'
loop_
 _atom_site_type_symbol
 _atom_site_label
 _atom_site_symmetry_multiplicity
 _atom_site_fract_x
 _atom_site_fract_y
 _atom_site_fract_z
 _atom_site_occupancy
  Ta  Ta0  1  0.00000000  0.50000000  0.50000000  1
  Ti  Ti1  1  0.00000000  0.00000000  0.00000000  1
  W  W2  1  0.00000000  0.24844800  0.24844800  1
  W  W3  1  0.00000000  0.75155200  0.75155200  1
