# generated using pymatgen
data_MnH4(OF2)2
_symmetry_space_group_name_H-M   'P 1'
_cell_length_a   6.14242500
_cell_length_b   9.92805445
_cell_length_c   8.71401802
_cell_angle_alpha   80.84470968
_cell_angle_beta   90.00079361
_cell_angle_gamma   90.00000522
_symmetry_Int_Tables_number   1
_chemical_formula_structural   MnH4(OF2)2
_chemical_formula_sum   'Mn4 H16 O8 F16'
_cell_volume   524.63145620
_cell_formula_units_Z   4
loop_
 _symmetry_equiv_pos_site_id
 _symmetry_equiv_pos_as_xyz
  1  'x, y, z'
loop_
 _atom_site_type_symbol
 _atom_site_label
 _atom_site_symmetry_multiplicity
 _atom_site_fract_x
 _atom_site_fract_y
 _atom_site_fract_z
 _atom_site_occupancy
  Mn  Mn0  1  0.99764900  0.24998500  0.50008200  1
  Mn  Mn1  1  0.49763200  0.24996500  0.99977600  1
  Mn  Mn2  1  0.49764100  0.74995800  0.00003200  1
  Mn  Mn3  1  0.99762300  0.74994800  0.49999100  1
  H  H4  1  0.34726500  0.68251000  0.74883600  1
  H  H5  1  0.84738600  0.18248200  0.24900200  1
  H  H6  1  0.14820600  0.68237700  0.24884900  1
  H  H7  1  0.64832700  0.18245800  0.74890100  1
  H  H8  1  0.14829500  0.31762700  0.75115000  1
  H  H9  1  0.64815100  0.81763700  0.25103300  1
  H  H10  1  0.34742300  0.31760700  0.25105200  1
  H  H11  1  0.84732000  0.81750200  0.75104600  1
  H  H12  1  0.01806100  0.44965500  0.64983900  1
  H  H13  1  0.51809000  0.94966500  0.14978500  1
  H  H14  1  0.47724800  0.55059700  0.85033300  1
  H  H15  1  0.97720100  0.05056500  0.35040000  1
  H  H16  1  0.47715900  0.44945900  0.14977700  1
  H  H17  1  0.97716100  0.94938500  0.64963300  1
  H  H18  1  0.01803000  0.55032800  0.35019000  1
  H  H19  1  0.51800000  0.05035700  0.85033400  1
  O  O20  1  0.38853500  0.63447900  0.85663600  1
  O  O21  1  0.88847600  0.13446200  0.35673900  1
  O  O22  1  0.10612600  0.36547100  0.64353600  1
  O  O23  1  0.60613100  0.86548300  0.14343200  1
  O  O24  1  0.10607300  0.63451900  0.35645500  1
  O  O25  1  0.60643100  0.13444900  0.85651200  1
  O  O26  1  0.38879100  0.36546900  0.14332300  1
  O  O27  1  0.88844600  0.86552000  0.64325000  1
  F  F28  1  0.91724700  0.59834000  0.63676700  1
  F  F29  1  0.41778900  0.09840500  0.13699200  1
  F  F30  1  0.57823700  0.40161600  0.86331300  1
  F  F31  1  0.07770800  0.90154300  0.36313300  1
  F  F32  1  0.57796000  0.59836200  0.13688800  1
  F  F33  1  0.07777900  0.09840900  0.63691200  1
  F  F34  1  0.91737800  0.40162000  0.36319700  1
  F  F35  1  0.41755600  0.90155600  0.86319800  1
  F  F36  1  0.76977300  0.75304200  0.91141000  1
  F  F37  1  0.26975600  0.25289100  0.41145400  1
  F  F38  1  0.22557700  0.74746600  0.08846700  1
  F  F39  1  0.72577800  0.24735800  0.58848700  1
  F  F40  1  0.22547700  0.25268100  0.91136500  1
  F  F41  1  0.72568200  0.75262800  0.41150100  1
  F  F42  1  0.76949000  0.24712600  0.08839900  1
  F  F43  1  0.26985500  0.74703800  0.58859200  1
