# generated using pymatgen
data_Cr3(CoO6)2
_symmetry_space_group_name_H-M   'P 1'
_cell_length_a   8.94938900
_cell_length_b   9.03438800
_cell_length_c   12.58216700
_cell_angle_alpha   90.00000000
_cell_angle_beta   90.00000000
_cell_angle_gamma   90.00000000
_symmetry_Int_Tables_number   1
_chemical_formula_structural   Cr3(CoO6)2
_chemical_formula_sum   'Cr12 Co8 O48'
_cell_volume   1017.29654440
_cell_formula_units_Z   4
loop_
 _symmetry_equiv_pos_site_id
 _symmetry_equiv_pos_as_xyz
  1  'x, y, z'
loop_
 _atom_site_type_symbol
 _atom_site_label
 _atom_site_symmetry_multiplicity
 _atom_site_fract_x
 _atom_site_fract_y
 _atom_site_fract_z
 _atom_site_occupancy
  Cr  Cr0  1  0.25000000  0.96915700  0.00000000  1
  Cr  Cr1  1  0.75000000  0.03084300  0.00000000  1
  Cr  Cr2  1  0.60372500  0.60255200  0.14409000  1
  Cr  Cr3  1  0.10372500  0.39744800  0.14409000  1
  Cr  Cr4  1  0.10372500  0.89744800  0.35591000  1
  Cr  Cr5  1  0.60372500  0.10255200  0.35591000  1
  Cr  Cr6  1  0.75000000  0.53084300  0.50000000  1
  Cr  Cr7  1  0.25000000  0.46915700  0.50000000  1
  Cr  Cr8  1  0.39627500  0.89744800  0.64409000  1
  Cr  Cr9  1  0.89627500  0.10255200  0.64409000  1
  Cr  Cr10  1  0.89627500  0.60255200  0.85591000  1
  Cr  Cr11  1  0.39627500  0.39744800  0.85591000  1
  Co  Co12  1  0.97074100  0.74918900  0.12284600  1
  Co  Co13  1  0.47074100  0.25081100  0.12284600  1
  Co  Co14  1  0.47074100  0.75081100  0.37715400  1
  Co  Co15  1  0.97074100  0.24918900  0.37715400  1
  Co  Co16  1  0.02925900  0.75081100  0.62284600  1
  Co  Co17  1  0.52925900  0.24918900  0.62284600  1
  Co  Co18  1  0.52925900  0.74918900  0.87715400  1
  Co  Co19  1  0.02925900  0.25081100  0.87715400  1
  O  O20  1  0.55912200  0.65523300  0.02325800  1
  O  O21  1  0.05912200  0.34476700  0.02325800  1
  O  O22  1  0.36313500  0.07784700  0.07150700  1
  O  O23  1  0.86313500  0.92215300  0.07150700  1
  O  O24  1  0.15511900  0.86292200  0.08292700  1
  O  O25  1  0.65511900  0.13707800  0.08292700  1
  O  O26  1  0.08871100  0.58444100  0.15611200  1
  O  O27  1  0.58871100  0.41555900  0.15611200  1
  O  O28  1  0.77742600  0.65154900  0.17103300  1
  O  O29  1  0.27742600  0.34845100  0.17103300  1
  O  O30  1  0.48351200  0.67722600  0.22921100  1
  O  O31  1  0.98351200  0.32277400  0.22921100  1
  O  O32  1  0.98351200  0.82277400  0.27078900  1
  O  O33  1  0.48351200  0.17722600  0.27078900  1
  O  O34  1  0.77742600  0.15154900  0.32896700  1
  O  O35  1  0.27742600  0.84845100  0.32896700  1
  O  O36  1  0.58871100  0.91555900  0.34388800  1
  O  O37  1  0.08871100  0.08444100  0.34388800  1
  O  O38  1  0.65511900  0.63707800  0.41707300  1
  O  O39  1  0.15511900  0.36292200  0.41707300  1
  O  O40  1  0.36313500  0.57784700  0.42849300  1
  O  O41  1  0.86313500  0.42215300  0.42849300  1
  O  O42  1  0.55912200  0.15523300  0.47674200  1
  O  O43  1  0.05912200  0.84476700  0.47674200  1
  O  O44  1  0.44087800  0.84476700  0.52325800  1
  O  O45  1  0.94087800  0.15523300  0.52325800  1
  O  O46  1  0.13686500  0.57784700  0.57150700  1
  O  O47  1  0.63686500  0.42215300  0.57150700  1
  O  O48  1  0.84488100  0.63707800  0.58292700  1
  O  O49  1  0.34488100  0.36292200  0.58292700  1
  O  O50  1  0.91128900  0.91555900  0.65611200  1
  O  O51  1  0.41128900  0.08444100  0.65611200  1
  O  O52  1  0.22257400  0.84845100  0.67103300  1
  O  O53  1  0.72257400  0.15154900  0.67103300  1
  O  O54  1  0.51648800  0.82277400  0.72921100  1
  O  O55  1  0.01648800  0.17722600  0.72921100  1
  O  O56  1  0.01648800  0.67722600  0.77078900  1
  O  O57  1  0.51648800  0.32277400  0.77078900  1
  O  O58  1  0.72257400  0.65154900  0.82896700  1
  O  O59  1  0.22257400  0.34845100  0.82896700  1
  O  O60  1  0.41128900  0.58444100  0.84388800  1
  O  O61  1  0.91128900  0.41555900  0.84388800  1
  O  O62  1  0.34488100  0.86292200  0.91707300  1
  O  O63  1  0.84488100  0.13707800  0.91707300  1
  O  O64  1  0.63686500  0.92215300  0.92849300  1
  O  O65  1  0.13686500  0.07784700  0.92849300  1
  O  O66  1  0.94087800  0.65523300  0.97674200  1
  O  O67  1  0.44087800  0.34476700  0.97674200  1
