# generated using pymatgen
data_Tm2P4O13
_symmetry_space_group_name_H-M   'P 1'
_cell_length_a   6.84826241
_cell_length_b   6.84826241
_cell_length_c   12.89205682
_cell_angle_alpha   75.84092984
_cell_angle_beta   75.84092984
_cell_angle_gamma   58.97013062
_symmetry_Int_Tables_number   1
_chemical_formula_structural   Tm2P4O13
_chemical_formula_sum   'Tm4 P8 O26'
_cell_volume   497.22178356
_cell_formula_units_Z   2
loop_
 _symmetry_equiv_pos_site_id
 _symmetry_equiv_pos_as_xyz
  1  'x, y, z'
loop_
 _atom_site_type_symbol
 _atom_site_label
 _atom_site_symmetry_multiplicity
 _atom_site_fract_x
 _atom_site_fract_y
 _atom_site_fract_z
 _atom_site_occupancy
  Tm  Tm0  1  0.69234500  0.69694200  0.44944900  1
  Tm  Tm1  1  0.30305800  0.30765500  0.05055100  1
  Tm  Tm2  1  0.69694200  0.69234500  0.94944900  1
  Tm  Tm3  1  0.30765500  0.30305800  0.55055100  1
  P  P4  1  0.83698300  0.13865200  0.36704000  1
  P  P5  1  0.13865200  0.83698300  0.86704000  1
  P  P6  1  0.22651700  0.24058400  0.34011500  1
  P  P7  1  0.75941600  0.77348300  0.15988500  1
  P  P8  1  0.24058400  0.22651700  0.84011500  1
  P  P9  1  0.77348300  0.75941600  0.65988500  1
  P  P10  1  0.86134800  0.16301700  0.13296000  1
  P  P11  1  0.16301700  0.86134800  0.63296000  1
  O  O12  1  0.67074600  0.31744500  0.44201200  1
  O  O13  1  0.87563200  0.89752200  0.39742700  1
  O  O14  1  0.31744500  0.67074600  0.94201200  1
  O  O15  1  0.89745200  0.90904100  0.15291500  1
  O  O16  1  0.07403400  0.43955600  0.40662200  1
  O  O17  1  0.42610800  0.07581400  0.40525600  1
  O  O18  1  0.29537900  0.30659100  0.22203300  1
  O  O19  1  0.89752200  0.87563200  0.89742700  1
  O  O20  1  0.90904100  0.89745200  0.65291500  1
  O  O21  1  0.69340900  0.70462100  0.27796700  1
  O  O22  1  0.92418600  0.57389200  0.09474400  1
  O  O23  1  0.56044400  0.92596600  0.09337800  1
  O  O24  1  0.43955600  0.07403400  0.90662200  1
  O  O25  1  0.07581400  0.42610800  0.90525600  1
  O  O26  1  0.30659100  0.29537900  0.72203300  1
  O  O27  1  0.09095900  0.10254800  0.34708500  1
  O  O28  1  0.10247800  0.12436800  0.10257300  1
  O  O29  1  0.70462100  0.69340900  0.77796700  1
  O  O30  1  0.57389200  0.92418600  0.59474400  1
  O  O31  1  0.92596600  0.56044400  0.59337800  1
  O  O32  1  0.75186500  0.24813500  0.25000000  1
  O  O33  1  0.10254800  0.09095900  0.84708500  1
  O  O34  1  0.68255500  0.32925400  0.05798800  1
  O  O35  1  0.12436800  0.10247800  0.60257300  1
  O  O36  1  0.24813500  0.75186500  0.75000000  1
  O  O37  1  0.32925400  0.68255500  0.55798800  1
