# generated using pymatgen
data_Ti2Cu(PO4)3
_symmetry_space_group_name_H-M   'P 1'
_cell_length_a   8.65622388
_cell_length_b   8.65622388
_cell_length_c   8.65622362
_cell_angle_alpha   60.00301086
_cell_angle_beta   60.00301086
_cell_angle_gamma   60.00301231
_symmetry_Int_Tables_number   1
_chemical_formula_structural   Ti2Cu(PO4)3
_chemical_formula_sum   'Ti4 Cu2 P6 O24'
_cell_volume   458.66972973
_cell_formula_units_Z   2
loop_
 _symmetry_equiv_pos_site_id
 _symmetry_equiv_pos_as_xyz
  1  'x, y, z'
loop_
 _atom_site_type_symbol
 _atom_site_label
 _atom_site_symmetry_multiplicity
 _atom_site_fract_x
 _atom_site_fract_y
 _atom_site_fract_z
 _atom_site_occupancy
  Ti  Ti0  1  0.85833500  0.85833500  0.85833500  1
  Ti  Ti1  1  0.64166500  0.64166500  0.64166500  1
  Ti  Ti2  1  0.35833500  0.35833500  0.35833500  1
  Ti  Ti3  1  0.14166500  0.14166500  0.14166500  1
  Cu  Cu4  1  0.00000000  0.00000000  0.00000000  1
  Cu  Cu5  1  0.50000000  0.50000000  0.50000000  1
  P  P6  1  0.96098600  0.25000000  0.53901400  1
  P  P7  1  0.53901400  0.96098600  0.25000000  1
  P  P8  1  0.25000000  0.53901400  0.96098600  1
  P  P9  1  0.75000000  0.46098600  0.03901400  1
  P  P10  1  0.46098600  0.03901400  0.75000000  1
  P  P11  1  0.03901400  0.75000000  0.46098600  1
  O  O12  1  0.87435200  0.69698500  0.50034700  1
  O  O13  1  0.69698500  0.50034700  0.87435200  1
  O  O14  1  0.94204500  0.08333000  0.72880500  1
  O  O15  1  0.50034700  0.87435200  0.69698500  1
  O  O16  1  0.00034700  0.19698500  0.37435200  1
  O  O17  1  0.77119500  0.41667000  0.55795500  1
  O  O18  1  0.72880500  0.94204500  0.08333000  1
  O  O19  1  0.55795500  0.77119500  0.41667000  1
  O  O20  1  0.80301500  0.62564800  0.99965300  1
  O  O21  1  0.41667000  0.55795500  0.77119500  1
  O  O22  1  0.91667000  0.27119500  0.05795500  1
  O  O23  1  0.62564800  0.99965300  0.80301500  1
  O  O24  1  0.37435200  0.00034700  0.19698500  1
  O  O25  1  0.08333000  0.72880500  0.94204500  1
  O  O26  1  0.58333000  0.44204500  0.22880500  1
  O  O27  1  0.19698500  0.37435200  0.00034700  1
  O  O28  1  0.44204500  0.22880500  0.58333000  1
  O  O29  1  0.27119500  0.05795500  0.91667000  1
  O  O30  1  0.22880500  0.58333000  0.44204500  1
  O  O31  1  0.99965300  0.80301500  0.62564800  1
  O  O32  1  0.49965300  0.12564800  0.30301500  1
  O  O33  1  0.05795500  0.91667000  0.27119500  1
  O  O34  1  0.30301500  0.49965300  0.12564800  1
  O  O35  1  0.12564800  0.30301500  0.49965300  1
