# generated using pymatgen
data_BaLa2O4
_symmetry_space_group_name_H-M   'P 1'
_cell_length_a   6.41292253
_cell_length_b   6.41292253
_cell_length_c   23.54910870
_cell_angle_alpha   89.36634212
_cell_angle_beta   89.36634212
_cell_angle_gamma   61.14279097
_symmetry_Int_Tables_number   1
_chemical_formula_structural   BaLa2O4
_chemical_formula_sum   'Ba6 La12 O24'
_cell_volume   848.14104099
_cell_formula_units_Z   6
loop_
 _symmetry_equiv_pos_site_id
 _symmetry_equiv_pos_as_xyz
  1  'x, y, z'
loop_
 _atom_site_type_symbol
 _atom_site_label
 _atom_site_symmetry_multiplicity
 _atom_site_fract_x
 _atom_site_fract_y
 _atom_site_fract_z
 _atom_site_occupancy
  Ba  Ba0  1  0.44795400  0.22735300  0.65065100  1
  Ba  Ba1  1  0.22735300  0.44795400  0.15065100  1
  Ba  Ba2  1  0.11016500  0.88983500  0.75000000  1
  Ba  Ba3  1  0.88983500  0.11016500  0.25000000  1
  Ba  Ba4  1  0.55204600  0.77264700  0.34934900  1
  Ba  Ba5  1  0.77264700  0.55204600  0.84934900  1
  La  La6  1  0.44287100  0.21809900  0.80590100  1
  La  La7  1  0.21809900  0.44287100  0.30590100  1
  La  La8  1  0.44583600  0.22747300  0.94958000  1
  La  La9  1  0.22747300  0.44583600  0.44958000  1
  La  La10  1  0.10870900  0.88343600  0.92645100  1
  La  La11  1  0.88343600  0.10870900  0.42645100  1
  La  La12  1  0.89129100  0.11656400  0.07354900  1
  La  La13  1  0.11656400  0.89129100  0.57354900  1
  La  La14  1  0.77252700  0.55416400  0.55042000  1
  La  La15  1  0.55416400  0.77252700  0.05042000  1
  La  La16  1  0.78190100  0.55712900  0.69409900  1
  La  La17  1  0.55712900  0.78190100  0.19409900  1
  O  O18  1  0.21068900  0.07890300  0.00318800  1
  O  O19  1  0.07890300  0.21068900  0.50318800  1
  O  O20  1  0.38008000  0.96298300  0.87550800  1
  O  O21  1  0.96298300  0.38008000  0.37550800  1
  O  O22  1  0.30302300  0.10137400  0.25285800  1
  O  O23  1  0.10137400  0.30302300  0.75285800  1
  O  O24  1  0.19703100  0.52890800  0.87892100  1
  O  O25  1  0.52890800  0.19703100  0.37892100  1
  O  O26  1  0.14906000  0.76761400  0.37584600  1
  O  O27  1  0.76761400  0.14906000  0.87584600  1
  O  O28  1  0.51082700  0.48917300  0.75000000  1
  O  O29  1  0.50000000  0.50000000  0.50000000  1
  O  O30  1  0.50000000  0.50000000  0.00000000  1
  O  O31  1  0.48917300  0.51082700  0.25000000  1
  O  O32  1  0.23238600  0.85094000  0.12415400  1
  O  O33  1  0.85094000  0.23238600  0.62415400  1
  O  O34  1  0.47109200  0.80296900  0.62107900  1
  O  O35  1  0.80296900  0.47109200  0.12107900  1
  O  O36  1  0.69697700  0.89862600  0.74714200  1
  O  O37  1  0.89862600  0.69697700  0.24714200  1
  O  O38  1  0.03701700  0.61992000  0.62449200  1
  O  O39  1  0.61992000  0.03701700  0.12449200  1
  O  O40  1  0.78931100  0.92109700  0.99681200  1
  O  O41  1  0.92109700  0.78931100  0.49681200  1
