# generated using pymatgen
data_K3CuPCO7
_symmetry_space_group_name_H-M   'P 1'
_cell_length_a   7.28983300
_cell_length_b   5.52469900
_cell_length_c   9.54061039
_cell_angle_alpha   89.19339768
_cell_angle_beta   90.00000000
_cell_angle_gamma   90.00000000
_symmetry_Int_Tables_number   1
_chemical_formula_structural   K3CuPCO7
_chemical_formula_sum   'K6 Cu2 P2 C2 O14'
_cell_volume   384.20173780
_cell_formula_units_Z   2
loop_
 _symmetry_equiv_pos_site_id
 _symmetry_equiv_pos_as_xyz
  1  'x, y, z'
loop_
 _atom_site_type_symbol
 _atom_site_label
 _atom_site_symmetry_multiplicity
 _atom_site_fract_x
 _atom_site_fract_y
 _atom_site_fract_z
 _atom_site_occupancy
  K  K0  1  0.75000000  0.24117800  0.92178600  1
  K  K1  1  0.98447500  0.74868200  0.72022400  1
  K  K2  1  0.51552500  0.74868200  0.72022400  1
  K  K3  1  0.48447500  0.25131800  0.27977600  1
  K  K4  1  0.01552500  0.25131800  0.27977600  1
  K  K5  1  0.25000000  0.75882200  0.07821400  1
  Cu  Cu6  1  0.25000000  0.23404900  0.64085200  1
  Cu  Cu7  1  0.75000000  0.76595100  0.35914800  1
  P  P8  1  0.75000000  0.28780300  0.57499400  1
  P  P9  1  0.25000000  0.71219700  0.42500600  1
  C  C10  1  0.25000000  0.26738600  0.90901600  1
  C  C11  1  0.75000000  0.73261400  0.09098400  1
  O  O12  1  0.75000000  0.75331600  0.95594700  1
  O  O13  1  0.25000000  0.07356900  0.83056200  1
  O  O14  1  0.25000000  0.47491200  0.84509300  1
  O  O15  1  0.92232300  0.25012900  0.66957400  1
  O  O16  1  0.57767700  0.25012900  0.66957400  1
  O  O17  1  0.75000000  0.56035500  0.52228200  1
  O  O18  1  0.25000000  0.88218400  0.55275700  1
  O  O19  1  0.75000000  0.11781600  0.44724300  1
  O  O20  1  0.25000000  0.43964500  0.47771800  1
  O  O21  1  0.42232300  0.74987100  0.33042600  1
  O  O22  1  0.07767700  0.74987100  0.33042600  1
  O  O23  1  0.75000000  0.52508800  0.15490700  1
  O  O24  1  0.75000000  0.92643100  0.16943800  1
  O  O25  1  0.25000000  0.24668400  0.04405300  1
