# generated using pymatgen
data_Mg2ZnIr
_symmetry_space_group_name_H-M   'P 1'
_cell_length_a   11.03449839
_cell_length_b   11.03449839
_cell_length_c   11.03449839
_cell_angle_alpha   122.95793461
_cell_angle_beta   119.09038835
_cell_angle_gamma   88.26871948
_symmetry_Int_Tables_number   1
_chemical_formula_structural   Mg2ZnIr
_chemical_formula_sum   'Mg2 Zn1 Ir1'
_cell_volume   933.48911313
_cell_formula_units_Z   1
loop_
 _symmetry_equiv_pos_site_id
 _symmetry_equiv_pos_as_xyz
  1  'x, y, z'
loop_
 _atom_site_type_symbol
 _atom_site_label
 _atom_site_symmetry_multiplicity
 _atom_site_fract_x
 _atom_site_fract_y
 _atom_site_fract_z
 _atom_site_occupancy
  Mg  Mg0  1  0.00000000  0.26169100  0.26169100  1
  Mg  Mg1  1  0.00000000  0.73830900  0.73830900  1
  Zn  Zn2  1  0.00000000  0.00000000  0.00000000  1
  Ir  Ir3  1  0.00000000  0.50000000  0.50000000  1
