# generated using pymatgen
data_Sr3TeO6
_symmetry_space_group_name_H-M   'P 1'
_cell_length_a   11.91335203
_cell_length_b   11.91335203
_cell_length_c   11.91335203
_cell_angle_alpha   109.47122063
_cell_angle_beta   109.47122063
_cell_angle_gamma   109.47122063
_symmetry_Int_Tables_number   1
_chemical_formula_structural   Sr3TeO6
_chemical_formula_sum   'Sr24 Te8 O48'
_cell_volume   1301.60747502
_cell_formula_units_Z   8
loop_
 _symmetry_equiv_pos_site_id
 _symmetry_equiv_pos_as_xyz
  1  'x, y, z'
loop_
 _atom_site_type_symbol
 _atom_site_label
 _atom_site_symmetry_multiplicity
 _atom_site_fract_x
 _atom_site_fract_y
 _atom_site_fract_z
 _atom_site_occupancy
  Sr  Sr0  1  0.84611900  0.15212100  0.24872600  1
  Sr  Sr1  1  0.69399800  0.34611900  0.09739300  1
  Sr  Sr2  1  0.34787900  0.19399800  0.09660500  1
  Sr  Sr3  1  0.59739300  0.25127400  0.40339500  1
  Sr  Sr4  1  0.84787900  0.75127400  0.15388100  1
  Sr  Sr5  1  0.90260700  0.30600200  0.65388100  1
  Sr  Sr6  1  0.74872600  0.59660500  0.40260700  1
  Sr  Sr7  1  0.19399800  0.09660500  0.34787900  1
  Sr  Sr8  1  0.75127400  0.15388100  0.84787900  1
  Sr  Sr9  1  0.40339500  0.59739300  0.25127400  1
  Sr  Sr10  1  0.09660500  0.34787900  0.19399800  1
  Sr  Sr11  1  0.34611900  0.09739300  0.69399800  1
  Sr  Sr12  1  0.90339500  0.65212100  0.80600200  1
  Sr  Sr13  1  0.65388100  0.90260700  0.30600200  1
  Sr  Sr14  1  0.59660500  0.40260700  0.74872600  1
  Sr  Sr15  1  0.80600200  0.90339500  0.65212100  1
  Sr  Sr16  1  0.24872600  0.84611900  0.15212100  1
  Sr  Sr17  1  0.25127400  0.40339500  0.59739300  1
  Sr  Sr18  1  0.09739300  0.69399800  0.34611900  1
  Sr  Sr19  1  0.40260700  0.74872600  0.59660500  1
  Sr  Sr20  1  0.15212100  0.24872600  0.84611900  1
  Sr  Sr21  1  0.65212100  0.80600200  0.90339500  1
  Sr  Sr22  1  0.30600200  0.65388100  0.90260700  1
  Sr  Sr23  1  0.15388100  0.84787900  0.75127400  1
  Te  Te24  1  0.50000000  0.00000000  0.00000000  1
  Te  Te25  1  0.00000000  0.00000000  0.00000000  1
  Te  Te26  1  0.50000000  0.00000000  0.50000000  1
  Te  Te27  1  0.50000000  0.50000000  0.00000000  1
  Te  Te28  1  0.50000000  0.50000000  0.50000000  1
  Te  Te29  1  0.00000000  0.00000000  0.50000000  1
  Te  Te30  1  0.00000000  0.50000000  0.00000000  1
  Te  Te31  1  0.00000000  0.50000000  0.50000000  1
  O  O32  1  0.00963500  0.11386000  0.17038200  1
  O  O33  1  0.66638600  0.10974100  0.00126100  1
  O  O34  1  0.89151900  0.39025900  0.05664400  1
  O  O35  1  0.55664400  0.16638600  0.16512500  1
  O  O36  1  0.94335600  0.10848100  0.60974100  1
  O  O37  1  0.89577500  0.50963500  0.33925300  1
  O  O38  1  0.88614000  0.82961800  0.99036500  1
  O  O39  1  0.83925300  0.32961800  0.44347800  1
  O  O40  1  0.66074700  0.10422500  0.49036500  1
  O  O41  1  0.38614000  0.39577500  0.05652200  1
  O  O42  1  0.39577500  0.05652200  0.38614000  1
  O  O43  1  0.67038200  0.55652200  0.16074700  1
  O  O44  1  0.82961800  0.99036500  0.88614000  1
  O  O45  1  0.50126100  0.39151900  0.33487500  1
  O  O46  1  0.99873900  0.33361400  0.89025900  1
  O  O47  1  0.55652200  0.16074700  0.67038200  1
  O  O48  1  0.49036500  0.66074700  0.10422500  1
  O  O49  1  0.94347800  0.61386000  0.60422500  1
  O  O50  1  0.60974100  0.94335600  0.10848100  1
  O  O51  1  0.89025900  0.99873900  0.33361400  1
  O  O52  1  0.66512500  0.49873900  0.60848100  1
  O  O53  1  0.83487500  0.44335600  0.83361400  1
  O  O54  1  0.83361400  0.83487500  0.44335600  1
  O  O55  1  0.39151900  0.33487500  0.50126100  1
  O  O56  1  0.60848100  0.66512500  0.49873900  1
  O  O57  1  0.16638600  0.16512500  0.55664400  1
  O  O58  1  0.33487500  0.50126100  0.39151900  1
  O  O59  1  0.10974100  0.00126100  0.66638600  1
  O  O60  1  0.16512500  0.55664400  0.16638600  1
  O  O61  1  0.39025900  0.05664400  0.89151900  1
  O  O62  1  0.44347800  0.83925300  0.32961800  1
  O  O63  1  0.05652200  0.38614000  0.39577500  1
  O  O64  1  0.50963500  0.33925300  0.89577500  1
  O  O65  1  0.00126100  0.66638600  0.10974100  1
  O  O66  1  0.49873900  0.60848100  0.66512500  1
  O  O67  1  0.60422500  0.94347800  0.61386000  1
  O  O68  1  0.17038200  0.00963500  0.11386000  1
  O  O69  1  0.32961800  0.44347800  0.83925300  1
  O  O70  1  0.61386000  0.60422500  0.94347800  1
  O  O71  1  0.33925300  0.89577500  0.50963500  1
  O  O72  1  0.16074700  0.67038200  0.55652200  1
  O  O73  1  0.11386000  0.17038200  0.00963500  1
  O  O74  1  0.10422500  0.49036500  0.66074700  1
  O  O75  1  0.05664400  0.89151900  0.39025900  1
  O  O76  1  0.44335600  0.83361400  0.83487500  1
  O  O77  1  0.10848100  0.60974100  0.94335600  1
  O  O78  1  0.33361400  0.89025900  0.99873900  1
  O  O79  1  0.99036500  0.88614000  0.82961800  1
