# generated using pymatgen
data_V3Fe(PO4)6
_symmetry_space_group_name_H-M   'P 1'
_cell_length_a   8.75347552
_cell_length_b   8.75347552
_cell_length_c   8.75347558
_cell_angle_alpha   58.40212490
_cell_angle_beta   58.40212490
_cell_angle_gamma   58.40212078
_symmetry_Int_Tables_number   1
_chemical_formula_structural   V3Fe(PO4)6
_chemical_formula_sum   'V3 Fe1 P6 O24'
_cell_volume   456.92558079
_cell_formula_units_Z   1
loop_
 _symmetry_equiv_pos_site_id
 _symmetry_equiv_pos_as_xyz
  1  'x, y, z'
loop_
 _atom_site_type_symbol
 _atom_site_label
 _atom_site_symmetry_multiplicity
 _atom_site_fract_x
 _atom_site_fract_y
 _atom_site_fract_z
 _atom_site_occupancy
  V  V0  1  0.13988600  0.13988600  0.13988600  1
  V  V1  1  0.35919000  0.35919000  0.35919000  1
  V  V2  1  0.63896400  0.63896400  0.63896400  1
  Fe  Fe3  1  0.85933100  0.85933100  0.85933100  1
  P  P4  1  0.03238800  0.46706400  0.74993300  1
  P  P5  1  0.46706400  0.74993300  0.03238800  1
  P  P6  1  0.74993300  0.03238800  0.46706400  1
  P  P7  1  0.25035800  0.96878900  0.53138000  1
  P  P8  1  0.53138000  0.25035800  0.96878900  1
  P  P9  1  0.96878900  0.53138000  0.25035800  1
  O  O10  1  0.13899600  0.49469700  0.29014600  1
  O  O11  1  0.29014600  0.13899600  0.49469700  1
  O  O12  1  0.06349700  0.28177900  0.92665400  1
  O  O13  1  0.49469700  0.29014600  0.13899600  1
  O  O14  1  0.21625300  0.42675800  0.57628600  1
  O  O15  1  0.01590100  0.63445400  0.77265300  1
  O  O16  1  0.28177900  0.92665400  0.06349700  1
  O  O17  1  0.42675800  0.57628600  0.21625300  1
  O  O18  1  0.57628600  0.21625300  0.42675800  1
  O  O19  1  0.22508200  0.99589600  0.35527000  1
  O  O20  1  0.08297800  0.94244400  0.71285500  1
  O  O21  1  0.35527000  0.22508200  0.99589600  1
  O  O22  1  0.63445400  0.77265300  0.01590100  1
  O  O23  1  0.92665400  0.06349700  0.28177900  1
  O  O24  1  0.77265300  0.01590100  0.63445400  1
  O  O25  1  0.43264800  0.78656600  0.55559300  1
  O  O26  1  0.55559300  0.43264800  0.78656600  1
  O  O27  1  0.71285500  0.08297800  0.94244400  1
  O  O28  1  0.99589600  0.35527000  0.22508200  1
  O  O29  1  0.78656600  0.55559300  0.43264800  1
  O  O30  1  0.49444700  0.72247500  0.85838700  1
  O  O31  1  0.94244400  0.71285500  0.08297800  1
  O  O32  1  0.72247500  0.85838700  0.49444700  1
  O  O33  1  0.85838700  0.49444700  0.72247500  1
