# generated using pymatgen
data_Li2U(WO5)2
_symmetry_space_group_name_H-M   'P 1'
_cell_length_a   7.88290805
_cell_length_b   13.07081800
_cell_length_c   7.61636310
_cell_angle_alpha   90.00000000
_cell_angle_beta   90.01577622
_cell_angle_gamma   90.00000000
_symmetry_Int_Tables_number   1
_chemical_formula_structural   Li2U(WO5)2
_chemical_formula_sum   'Li8 U4 W8 O40'
_cell_volume   784.75998854
_cell_formula_units_Z   4
loop_
 _symmetry_equiv_pos_site_id
 _symmetry_equiv_pos_as_xyz
  1  'x, y, z'
loop_
 _atom_site_type_symbol
 _atom_site_label
 _atom_site_symmetry_multiplicity
 _atom_site_fract_x
 _atom_site_fract_y
 _atom_site_fract_z
 _atom_site_occupancy
  Li  Li0  1  0.31371800  0.00684200  0.99869700  1
  Li  Li1  1  0.31371800  0.99315800  0.49869700  1
  Li  Li2  1  0.49989200  0.98669400  0.24996600  1
  Li  Li3  1  0.49989200  0.01330600  0.74996600  1
  Li  Li4  1  0.68619300  0.00748100  0.50117100  1
  Li  Li5  1  0.68619300  0.99251900  0.00117100  1
  Li  Li6  1  0.85717100  0.49526300  0.98695200  1
  Li  Li7  1  0.85717100  0.50473700  0.48695200  1
  U  U8  1  0.99987900  0.01837600  0.24995300  1
  U  U9  1  0.99987900  0.98162400  0.74995300  1
  U  U10  1  0.49239700  0.52087100  0.24757000  1
  U  U11  1  0.49239700  0.47912900  0.74757000  1
  W  W12  1  0.02514200  0.25593400  0.00038200  1
  W  W13  1  0.02514200  0.74406600  0.50038200  1
  W  W14  1  0.47616700  0.24328400  0.49898300  1
  W  W15  1  0.47616700  0.75671600  0.99898300  1
  W  W16  1  0.52396600  0.24338300  0.99983500  1
  W  W17  1  0.52396600  0.75661700  0.49983500  1
  W  W18  1  0.97659500  0.25625600  0.49839100  1
  W  W19  1  0.97659500  0.74374400  0.99839100  1
  O  O20  1  0.00072100  0.20392900  0.24976000  1
  O  O21  1  0.00156300  0.26059900  0.74942500  1
  O  O22  1  0.00156300  0.73940100  0.24942500  1
  O  O23  1  0.00072100  0.79607100  0.74976000  1
  O  O24  1  0.00449900  0.09314900  0.97017000  1
  O  O25  1  0.00449900  0.90685100  0.47017000  1
  O  O26  1  0.99781400  0.38614300  0.04919800  1
  O  O27  1  0.99781400  0.61385700  0.54919800  1
  O  O28  1  0.24337000  0.01822900  0.24968400  1
  O  O29  1  0.24337000  0.98177100  0.74968400  1
  O  O30  1  0.24226900  0.24385800  0.49820700  1
  O  O31  1  0.24226900  0.75614200  0.99820700  1
  O  O32  1  0.25853900  0.24508800  0.00087400  1
  O  O33  1  0.25853900  0.75491200  0.50087400  1
  O  O34  1  0.26473600  0.52538100  0.24824800  1
  O  O35  1  0.26473600  0.47461900  0.74824800  1
  O  O36  1  0.49515900  0.10187300  0.54058300  1
  O  O37  1  0.49515900  0.89812700  0.04058300  1
  O  O38  1  0.49758300  0.39485300  0.46809800  1
  O  O39  1  0.49758300  0.60514700  0.96809800  1
  O  O40  1  0.50095800  0.22839300  0.24952000  1
  O  O41  1  0.49883900  0.71836700  0.24911900  1
  O  O42  1  0.50095800  0.77160700  0.74952000  1
  O  O43  1  0.49883900  0.28163300  0.74911900  1
  O  O44  1  0.50497100  0.39561300  0.02848700  1
  O  O45  1  0.50497100  0.60438700  0.52848700  1
  O  O46  1  0.50269900  0.10212000  0.95827400  1
  O  O47  1  0.50269900  0.89788000  0.45827400  1
  O  O48  1  0.72773800  0.47871000  0.74670200  1
  O  O49  1  0.72773800  0.52129000  0.24670200  1
  O  O50  1  0.74286700  0.24140600  0.50187900  1
  O  O51  1  0.74286700  0.75859400  0.00187900  1
  O  O52  1  0.75687000  0.24279200  0.99888500  1
  O  O53  1  0.75687000  0.75720800  0.49888500  1
  O  O54  1  0.75637700  0.01821400  0.25003300  1
  O  O55  1  0.75637700  0.98178600  0.75003300  1
  O  O56  1  0.98836900  0.38725900  0.44876000  1
  O  O57  1  0.98836900  0.61274100  0.94876000  1
  O  O58  1  0.99543500  0.09154500  0.52869300  1
  O  O59  1  0.99543500  0.90845500  0.02869300  1
