# generated using pymatgen
data_Cr3Sn2Sb3O16
_symmetry_space_group_name_H-M   'P 1'
_cell_length_a   6.12976629
_cell_length_b   6.12976629
_cell_length_c   9.47758800
_cell_angle_alpha   89.94910309
_cell_angle_beta   89.94910309
_cell_angle_gamma   60.27346800
_symmetry_Int_Tables_number   1
_chemical_formula_structural   Cr3Sn2Sb3O16
_chemical_formula_sum   'Cr3 Sn2 Sb3 O16'
_cell_volume   309.24752946
_cell_formula_units_Z   1
loop_
 _symmetry_equiv_pos_site_id
 _symmetry_equiv_pos_as_xyz
  1  'x, y, z'
loop_
 _atom_site_type_symbol
 _atom_site_label
 _atom_site_symmetry_multiplicity
 _atom_site_fract_x
 _atom_site_fract_y
 _atom_site_fract_z
 _atom_site_occupancy
  Cr  Cr0  1  0.33789200  0.83205800  0.78962100  1
  Cr  Cr1  1  0.83205800  0.33789200  0.78962100  1
  Cr  Cr2  1  0.17090300  0.17090300  0.28858400  1
  Sn  Sn3  1  0.65635200  0.65635200  0.52055500  1
  Sn  Sn4  1  0.32535300  0.32535300  0.99384300  1
  Sb  Sb5  1  0.83390400  0.83390400  0.78770800  1
  Sb  Sb6  1  0.66553000  0.17006300  0.28599600  1
  Sb  Sb7  1  0.17006300  0.66553000  0.28599600  1
  O  O8  1  0.32759100  0.83199000  0.39362900  1
  O  O9  1  0.51854100  0.51854100  0.67035700  1
  O  O10  1  0.67142300  0.67142300  0.89445200  1
  O  O11  1  0.99889400  0.99889400  0.69081100  1
  O  O12  1  0.00110800  0.00110800  0.18532900  1
  O  O13  1  0.83199000  0.32759100  0.39362900  1
  O  O14  1  0.52141700  0.96193800  0.66148100  1
  O  O15  1  0.96193800  0.52141700  0.66148100  1
  O  O16  1  0.15963900  0.15963900  0.89784800  1
  O  O17  1  0.83490300  0.83490300  0.39491600  1
  O  O18  1  0.04613100  0.48065000  0.16732700  1
  O  O19  1  0.48065000  0.04613100  0.16732700  1
  O  O20  1  0.33666300  0.33666300  0.39945200  1
  O  O21  1  0.16045500  0.67317400  0.90133900  1
  O  O22  1  0.48301000  0.48301000  0.16162600  1
  O  O23  1  0.67317400  0.16045500  0.90133900  1
