# generated using pymatgen
data_Al3P3H9C2NO13
_symmetry_space_group_name_H-M   'P 1'
_cell_length_a   17.58929300
_cell_length_b   8.78287000
_cell_length_c   10.39833236
_cell_angle_alpha   57.05118347
_cell_angle_beta   90.00000000
_cell_angle_gamma   90.00000000
_symmetry_Int_Tables_number   1
_chemical_formula_structural   Al3P3H9C2NO13
_chemical_formula_sum   'Al12 P12 H36 C8 N4 O52'
_cell_volume   1348.00541060
_cell_formula_units_Z   4
loop_
 _symmetry_equiv_pos_site_id
 _symmetry_equiv_pos_as_xyz
  1  'x, y, z'
loop_
 _atom_site_type_symbol
 _atom_site_label
 _atom_site_symmetry_multiplicity
 _atom_site_fract_x
 _atom_site_fract_y
 _atom_site_fract_z
 _atom_site_occupancy
  Al  Al0  1  0.20398200  0.26690600  0.79824300  1
  Al  Al1  1  0.38876300  0.47496100  0.66455300  1
  Al  Al2  1  0.33098700  0.82005200  0.19001600  1
  Al  Al3  1  0.88876300  0.52503900  0.83544700  1
  Al  Al4  1  0.70398200  0.73309400  0.70175700  1
  Al  Al5  1  0.16901300  0.82005200  0.69001600  1
  Al  Al6  1  0.83098700  0.17994800  0.30998400  1
  Al  Al7  1  0.29601800  0.26690600  0.29824300  1
  Al  Al8  1  0.11123700  0.47496100  0.16455300  1
  Al  Al9  1  0.66901300  0.17994800  0.80998400  1
  Al  Al10  1  0.61123700  0.52503900  0.33544700  1
  Al  Al11  1  0.79601800  0.73309400  0.20175700  1
  P  P12  1  0.57063100  0.52742700  0.63195400  1
  P  P13  1  0.07063100  0.47257300  0.86804600  1
  P  P14  1  0.83757100  0.75729200  0.49430700  1
  P  P15  1  0.28830100  0.82377800  0.47261300  1
  P  P16  1  0.78830100  0.17622200  0.02738700  1
  P  P17  1  0.33757100  0.24270800  0.00569300  1
  P  P18  1  0.66242900  0.75729200  0.99430700  1
  P  P19  1  0.21169900  0.82377800  0.97261300  1
  P  P20  1  0.71169900  0.17622200  0.52738700  1
  P  P21  1  0.16242900  0.24270800  0.50569300  1
  P  P22  1  0.92936900  0.52742700  0.13195400  1
  P  P23  1  0.42936900  0.47257300  0.36804600  1
  H  H24  1  0.05938700  0.57299600  0.47958600  1
  H  H25  1  0.12272600  0.75710200  0.36638300  1
  H  H26  1  0.04951800  0.77794300  0.47705000  1
  H  H27  1  0.97462500  0.04175000  0.08130100  1
  H  H28  1  0.07357700  0.03440900  0.12911700  1
  H  H29  1  0.50121100  0.94399300  0.26034800  1
  H  H30  1  0.00121100  0.05600700  0.23965200  1
  H  H31  1  0.57357700  0.96559100  0.37088300  1
  H  H32  1  0.44061300  0.57299600  0.97958600  1
  H  H33  1  0.47462500  0.95825000  0.41869900  1
  H  H34  1  0.54951800  0.22205700  0.02295000  1
  H  H35  1  0.37727400  0.75710200  0.86638300  1
  H  H36  1  0.62272600  0.24289800  0.13361700  1
  H  H37  1  0.45048200  0.77794300  0.97705000  1
  H  H38  1  0.52537500  0.04175000  0.58130100  1
  H  H39  1  0.55938700  0.42700400  0.02041400  1
  H  H40  1  0.42642300  0.03440900  0.62911700  1
  H  H41  1  0.99878900  0.94399300  0.76034800  1
  H  H42  1  0.49878900  0.05600700  0.73965200  1
  H  H43  1  0.92642300  0.96559100  0.87088300  1
  H  H44  1  0.02537500  0.95825000  0.91869900  1
  H  H45  1  0.95048200  0.22205700  0.52295000  1
  H  H46  1  0.87727400  0.24289800  0.63361700  1
  H  H47  1  0.94061300  0.42700400  0.52041400  1
  H  H48  1  0.97769200  0.26736600  0.78275400  1
  H  H49  1  0.71249600  0.65271500  0.40610700  1
  H  H50  1  0.95535300  0.75742700  0.31609700  1
  H  H51  1  0.47769200  0.73263400  0.71724600  1
  H  H52  1  0.78750400  0.65271500  0.90610700  1
  H  H53  1  0.54464700  0.75742700  0.81609700  1
  H  H54  1  0.45535300  0.24257300  0.18390300  1
  H  H55  1  0.21249600  0.34728500  0.09389300  1
  H  H56  1  0.52230800  0.26736600  0.28275400  1
  H  H57  1  0.04464700  0.24257300  0.68390300  1
  H  H58  1  0.28750400  0.34728500  0.59389300  1
  H  H59  1  0.02230800  0.73263400  0.21724600  1
  C  C60  1  0.06442900  0.72052300  0.40963100  1
  C  C61  1  0.01565500  0.99560500  0.17429500  1
  C  C62  1  0.51565500  0.00439500  0.32570500  1
  C  C63  1  0.43557100  0.72052300  0.90963100  1
  C  C64  1  0.56442900  0.27947700  0.09036900  1
  C  C65  1  0.48434500  0.99560500  0.67429500  1
  C  C66  1  0.98434500  0.00439500  0.82570500  1
  C  C67  1  0.93557100  0.27947700  0.59036900  1
  N  N68  1  0.01131800  0.79446000  0.27728000  1
  N  N69  1  0.48868200  0.79446000  0.77728000  1
  N  N70  1  0.51131800  0.20554000  0.22272000  1
  N  N71  1  0.98868200  0.20554000  0.72272000  1
  O  O72  1  0.58892000  0.32068400  0.73264600  1
  O  O73  1  0.29033700  0.36306100  0.68050200  1
  O  O74  1  0.71633000  0.23881700  0.92553300  1
  O  O75  1  0.25320500  0.27170900  0.95715900  1
  O  O76  1  0.58400300  0.59766300  0.46200400  1
  O  O77  1  0.85633600  0.29317800  0.93169100  1
  O  O78  1  0.12128200  0.36966400  0.82026800  1
  O  O79  1  0.39121300  0.36392400  0.86997500  1
  O  O80  1  0.84946500  0.71243900  0.37159400  1
  O  O81  1  0.98817700  0.44018000  0.83990600  1
  O  O82  1  0.48817700  0.55982000  0.66009400  1
  O  O83  1  0.27269600  0.79718300  0.33861200  1
  O  O84  1  0.80603200  0.97771400  0.08869500  1
  O  O85  1  0.89121300  0.63607600  0.63002500  1
  O  O86  1  0.62128200  0.63033600  0.67973200  1
  O  O87  1  0.35633600  0.70682200  0.56830900  1
  O  O88  1  0.75320500  0.72829100  0.54284100  1
  O  O89  1  0.36328500  0.04340600  0.07299600  1
  O  O90  1  0.21633000  0.76118300  0.57446700  1
  O  O91  1  0.79033700  0.63693900  0.81949800  1
  O  O92  1  0.08892000  0.67931600  0.76735400  1
  O  O93  1  0.91599700  0.59766300  0.96200400  1
  O  O94  1  0.86328500  0.95659400  0.42700400  1
  O  O95  1  0.65053500  0.71243900  0.87159400  1
  O  O96  1  0.30603200  0.02228600  0.41130500  1
  O  O97  1  0.77269600  0.20281700  0.16138800  1
  O  O98  1  0.22730400  0.79718300  0.83861200  1
  O  O99  1  0.69396800  0.97771400  0.58869500  1
  O  O100  1  0.34946500  0.28756100  0.12840600  1
  O  O101  1  0.13671500  0.04340600  0.57299600  1
  O  O102  1  0.08400300  0.40233700  0.03799600  1
  O  O103  1  0.91108000  0.32068400  0.23264600  1
  O  O104  1  0.20966300  0.36306100  0.18050200  1
  O  O105  1  0.78367000  0.23881700  0.42553300  1
  O  O106  1  0.63671500  0.95659400  0.92700400  1
  O  O107  1  0.24679500  0.27170900  0.45715900  1
  O  O108  1  0.64366400  0.29317800  0.43169100  1
  O  O109  1  0.37871800  0.36966400  0.32026800  1
  O  O110  1  0.10878700  0.36392400  0.36997500  1
  O  O111  1  0.19396800  0.02228600  0.91130500  1
  O  O112  1  0.72730400  0.20281700  0.66138800  1
  O  O113  1  0.51182300  0.44018000  0.33990600  1
  O  O114  1  0.01182300  0.55982000  0.16009400  1
  O  O115  1  0.15053500  0.28756100  0.62840600  1
  O  O116  1  0.60878700  0.63607600  0.13002500  1
  O  O117  1  0.87871800  0.63033600  0.17973200  1
  O  O118  1  0.14366400  0.70682200  0.06830900  1
  O  O119  1  0.41599700  0.40233700  0.53799600  1
  O  O120  1  0.74679500  0.72829100  0.04284100  1
  O  O121  1  0.28367000  0.76118300  0.07446700  1
  O  O122  1  0.70966300  0.63693900  0.31949800  1
  O  O123  1  0.41108000  0.67931600  0.26735400  1
