# generated using pymatgen
data_Li2V3SnO8
_symmetry_space_group_name_H-M   'P 1'
_cell_length_a   8.51052100
_cell_length_b   8.51052100
_cell_length_c   8.51052100
_cell_angle_alpha   90.00000000
_cell_angle_beta   90.00000000
_cell_angle_gamma   90.00000000
_symmetry_Int_Tables_number   1
_chemical_formula_structural   Li2V3SnO8
_chemical_formula_sum   'Li8 V12 Sn4 O32'
_cell_volume   616.40825055
_cell_formula_units_Z   4
loop_
 _symmetry_equiv_pos_site_id
 _symmetry_equiv_pos_as_xyz
  1  'x, y, z'
loop_
 _atom_site_type_symbol
 _atom_site_label
 _atom_site_symmetry_multiplicity
 _atom_site_fract_x
 _atom_site_fract_y
 _atom_site_fract_z
 _atom_site_occupancy
  Li  Li0  1  0.00369900  0.00369900  0.00369900  1
  Li  Li1  1  0.24630100  0.24630100  0.24630100  1
  Li  Li2  1  0.25369900  0.75369900  0.74630100  1
  Li  Li3  1  0.49630100  0.99630100  0.50369900  1
  Li  Li4  1  0.50369900  0.49630100  0.99630100  1
  Li  Li5  1  0.74630100  0.25369900  0.75369900  1
  Li  Li6  1  0.75369900  0.74630100  0.25369900  1
  Li  Li7  1  0.99630100  0.50369900  0.49630100  1
  V  V8  1  0.11184900  0.13815100  0.62500000  1
  V  V9  1  0.12500000  0.38815100  0.86184900  1
  V  V10  1  0.13815100  0.62500000  0.11184900  1
  V  V11  1  0.36184900  0.37500000  0.61184900  1
  V  V12  1  0.37500000  0.61184900  0.36184900  1
  V  V13  1  0.38815100  0.86184900  0.12500000  1
  V  V14  1  0.61184900  0.36184900  0.37500000  1
  V  V15  1  0.62500000  0.11184900  0.13815100  1
  V  V16  1  0.63815100  0.87500000  0.88815100  1
  V  V17  1  0.86184900  0.12500000  0.38815100  1
  V  V18  1  0.87500000  0.88815100  0.63815100  1
  V  V19  1  0.88815100  0.63815100  0.87500000  1
  Sn  Sn20  1  0.12500000  0.87500000  0.37500000  1
  Sn  Sn21  1  0.37500000  0.12500000  0.87500000  1
  Sn  Sn22  1  0.62500000  0.62500000  0.62500000  1
  Sn  Sn23  1  0.87500000  0.37500000  0.12500000  1
  O  O24  1  0.10362800  0.12138700  0.38828200  1
  O  O25  1  0.11171800  0.89637200  0.62138700  1
  O  O26  1  0.12026300  0.62026300  0.87973700  1
  O  O27  1  0.12861300  0.14637200  0.86171800  1
  O  O28  1  0.12138700  0.38828200  0.10362800  1
  O  O29  1  0.12973700  0.37026300  0.62973700  1
  O  O30  1  0.13828200  0.62861300  0.35362800  1
  O  O31  1  0.14637200  0.86171800  0.12861300  1
  O  O32  1  0.35362800  0.13828200  0.62861300  1
  O  O33  1  0.36171800  0.37138700  0.85362800  1
  O  O34  1  0.37026300  0.62973700  0.12973700  1
  O  O35  1  0.37861300  0.61171800  0.60362800  1
  O  O36  1  0.37138700  0.85362800  0.36171800  1
  O  O37  1  0.37973700  0.37973700  0.37973700  1
  O  O38  1  0.38828200  0.10362800  0.12138700  1
  O  O39  1  0.39637200  0.87861300  0.88828200  1
  O  O40  1  0.60362800  0.37861300  0.61171800  1
  O  O41  1  0.61171800  0.60362800  0.37861300  1
  O  O42  1  0.62026300  0.87973700  0.12026300  1
  O  O43  1  0.62861300  0.35362800  0.13828200  1
  O  O44  1  0.62138700  0.11171800  0.89637200  1
  O  O45  1  0.62973700  0.12973700  0.37026300  1
  O  O46  1  0.63828200  0.87138700  0.64637200  1
  O  O47  1  0.64637200  0.63828200  0.87138700  1
  O  O48  1  0.85362800  0.36171800  0.37138700  1
  O  O49  1  0.86171800  0.12861300  0.14637200  1
  O  O50  1  0.87026300  0.87026300  0.87026300  1
  O  O51  1  0.87861300  0.88828200  0.39637200  1
  O  O52  1  0.87138700  0.64637200  0.63828200  1
  O  O53  1  0.87973700  0.12026300  0.62026300  1
  O  O54  1  0.88828200  0.39637200  0.87861300  1
  O  O55  1  0.89637200  0.62138700  0.11171800  1
