# generated using pymatgen
data_V12O29
_symmetry_space_group_name_H-M   'P 1'
_cell_length_a   14.34338971
_cell_length_b   14.34338971
_cell_length_c   10.32680936
_cell_angle_alpha   77.77068477
_cell_angle_beta   77.77068477
_cell_angle_gamma   14.70484920
_symmetry_Int_Tables_number   1
_chemical_formula_structural   V12O29
_chemical_formula_sum   'V12 O29'
_cell_volume   526.85471703
_cell_formula_units_Z   1
loop_
 _symmetry_equiv_pos_site_id
 _symmetry_equiv_pos_as_xyz
  1  'x, y, z'
loop_
 _atom_site_type_symbol
 _atom_site_label
 _atom_site_symmetry_multiplicity
 _atom_site_fract_x
 _atom_site_fract_y
 _atom_site_fract_z
 _atom_site_occupancy
  V  V0  1  0.93750400  0.93750400  0.08623200  1
  V  V1  1  0.85122900  0.85122900  0.34316300  1
  V  V2  1  0.82150300  0.82150300  0.02664700  1
  V  V3  1  0.69753700  0.69753700  0.20738900  1
  V  V4  1  0.60792900  0.60792900  0.46785400  1
  V  V5  1  0.58627700  0.58627700  0.14429600  1
  V  V6  1  0.41372300  0.41372300  0.85570400  1
  V  V7  1  0.39207100  0.39207100  0.53214600  1
  V  V8  1  0.30246300  0.30246300  0.79261100  1
  V  V9  1  0.17849700  0.17849700  0.97335300  1
  V  V10  1  0.14877100  0.14877100  0.65683700  1
  V  V11  1  0.06249600  0.06249600  0.91376800  1
  O  O12  1  0.90069100  0.90069100  0.90262000  1
  O  O13  1  0.94159600  0.94159600  0.24060600  1
  O  O14  1  0.87541900  0.87541900  0.51492300  1
  O  O15  1  0.86154300  0.86154300  0.16103300  1
  O  O16  1  0.80682600  0.80682600  0.83985100  1
  O  O17  1  0.79395600  0.79395600  0.38804700  1
  O  O18  1  0.76350500  0.76350500  0.12229900  1
  O  O19  1  0.70157300  0.70157300  0.36136800  1
  O  O20  1  0.63091600  0.63091600  0.63544800  1
  O  O21  1  0.66656000  0.66656000  0.02471700  1
  O  O22  1  0.62334700  0.62334700  0.27858800  1
  O  O23  1  0.57108600  0.57108600  0.96103000  1
  O  O24  1  0.55057600  0.55057600  0.50251800  1
  O  O25  1  0.53280200  0.53280200  0.23362100  1
  O  O26  1  0.46719800  0.46719800  0.76637900  1
  O  O27  1  0.00000000  0.00000000  0.00000000  1
  O  O28  1  0.44942400  0.44942400  0.49748200  1
  O  O29  1  0.42891400  0.42891400  0.03897000  1
  O  O30  1  0.37665300  0.37665300  0.72141200  1
  O  O31  1  0.33344000  0.33344000  0.97528300  1
  O  O32  1  0.36908400  0.36908400  0.36455200  1
  O  O33  1  0.29842700  0.29842700  0.63863200  1
  O  O34  1  0.23649500  0.23649500  0.87770100  1
  O  O35  1  0.20604400  0.20604400  0.61195300  1
  O  O36  1  0.19317400  0.19317400  0.16014900  1
  O  O37  1  0.13845700  0.13845700  0.83896700  1
  O  O38  1  0.12458100  0.12458100  0.48507700  1
  O  O39  1  0.05840400  0.05840400  0.75939400  1
  O  O40  1  0.09930900  0.09930900  0.09738000  1
