# generated using pymatgen
data_MgCr3Se3(SO8)3
_symmetry_space_group_name_H-M   'P 1'
_cell_length_a   8.46373600
_cell_length_b   8.46702718
_cell_length_c   8.96349328
_cell_angle_alpha   90.26724018
_cell_angle_beta   117.40926890
_cell_angle_gamma   119.75160856
_symmetry_Int_Tables_number   1
_chemical_formula_structural   MgCr3Se3(SO8)3
_chemical_formula_sum   'Mg1 Cr3 Se3 S3 O24'
_cell_volume   471.88588838
_cell_formula_units_Z   1
loop_
 _symmetry_equiv_pos_site_id
 _symmetry_equiv_pos_as_xyz
  1  'x, y, z'
loop_
 _atom_site_type_symbol
 _atom_site_label
 _atom_site_symmetry_multiplicity
 _atom_site_fract_x
 _atom_site_fract_y
 _atom_site_fract_z
 _atom_site_occupancy
  Mg  Mg0  1  0.71016500  0.86844000  0.56313500  1
  Cr  Cr1  1  0.30377400  0.14640700  0.45063700  1
  Cr  Cr2  1  0.70329400  0.34659000  0.06812400  1
  Cr  Cr3  1  0.29264800  0.64784500  0.93016300  1
  Se  Se4  1  0.79014100  0.74459000  0.25512500  1
  Se  Se5  1  0.78883600  0.53643700  0.75023100  1
  Se  Se6  1  0.20598500  0.46192400  0.25273300  1
  S  S7  1  0.49254900  0.96342300  0.74849400  1
  S  S8  1  0.49936600  0.03784800  0.24899900  1
  S  S9  1  0.22346500  0.25915600  0.74981900  1
  O  O10  1  0.98792600  0.97341500  0.29983400  1
  O  O11  1  0.73083000  0.71042100  0.40779000  1
  O  O12  1  0.70963800  0.68142300  0.71166200  1
  O  O13  1  0.31905400  0.98070500  0.60529100  1
  O  O14  1  0.37199900  0.88606800  0.08051500  1
  O  O15  1  0.86806500  0.60228000  0.24011000  1
  O  O16  1  0.64963700  0.99197900  0.70650900  1
  O  O17  1  0.02010600  0.62676200  0.76023900  1
  O  O18  1  0.82977400  0.50945600  0.94596600  1
  O  O19  1  0.41597500  0.30647400  0.91904900  1
  O  O20  1  0.37962700  0.77014900  0.76408000  1
  O  O21  1  0.61896900  0.31988100  0.59373300  1
  O  O22  1  0.36831700  0.66979100  0.40433800  1
  O  O23  1  0.59237000  0.22749200  0.22062000  1
  O  O24  1  0.58740600  0.70148300  0.05762300  1
  O  O25  1  0.17779100  0.47327500  0.05616000  1
  O  O26  1  0.96393600  0.34628700  0.22783500  1
  O  O27  1  0.34084500  0.01286800  0.29750600  1
  O  O28  1  0.16891400  0.39771100  0.76324300  1
  O  O29  1  0.60104100  0.10500300  0.91708600  1
  O  O30  1  0.66937900  0.02637200  0.38868000  1
  O  O31  1  0.29459200  0.31610900  0.30222900  1
  O  O32  1  0.28016100  0.28674800  0.60931700  1
  O  O33  1  0.04342900  0.06519100  0.70313300  1
