# generated using pymatgen
data_Sr24Fe16O55
_symmetry_space_group_name_H-M   'P 1'
_cell_length_a   11.92926253
_cell_length_b   11.92926253
_cell_length_c   11.06873282
_cell_angle_alpha   76.58739133
_cell_angle_beta   76.58739133
_cell_angle_gamma   117.50833022
_symmetry_Int_Tables_number   1
_chemical_formula_structural   Sr24Fe16O55
_chemical_formula_sum   'Sr24 Fe16 O55'
_cell_volume   1249.60305650
_cell_formula_units_Z   1
loop_
 _symmetry_equiv_pos_site_id
 _symmetry_equiv_pos_as_xyz
  1  'x, y, z'
loop_
 _atom_site_type_symbol
 _atom_site_label
 _atom_site_symmetry_multiplicity
 _atom_site_fract_x
 _atom_site_fract_y
 _atom_site_fract_z
 _atom_site_occupancy
  Sr  Sr0  1  0.25908700  0.25908700  0.87047500  1
  Sr  Sr1  1  0.06840100  0.43494100  0.87447100  1
  Sr  Sr2  1  0.00012400  0.00012400  0.74076800  1
  Sr  Sr3  1  0.43494100  0.06840100  0.87447100  1
  Sr  Sr4  1  0.81708900  0.18328900  0.74876500  1
  Sr  Sr5  1  0.18328900  0.81708900  0.74876500  1
  Sr  Sr6  1  0.99987600  0.99987600  0.25923200  1
  Sr  Sr7  1  0.43297700  0.06729500  0.37462000  1
  Sr  Sr8  1  0.06729500  0.43297700  0.37462000  1
  Sr  Sr9  1  0.25147700  0.25147700  0.37423500  1
  Sr  Sr10  1  0.68254500  0.31745500  0.50000000  1
  Sr  Sr11  1  0.31745500  0.68254500  0.50000000  1
  Sr  Sr12  1  0.93270500  0.56702300  0.62538000  1
  Sr  Sr13  1  0.50000000  0.50000000  0.50000000  1
  Sr  Sr14  1  0.56702300  0.93270500  0.62538000  1
  Sr  Sr15  1  0.74852300  0.74852300  0.62576500  1
  Sr  Sr16  1  0.81671100  0.18291100  0.25123500  1
  Sr  Sr17  1  0.18291100  0.81671100  0.25123500  1
  Sr  Sr18  1  0.68105900  0.31894100  0.00000000  1
  Sr  Sr19  1  0.93159900  0.56505900  0.12552900  1
  Sr  Sr20  1  0.74091300  0.74091300  0.12952500  1
  Sr  Sr21  1  0.31894100  0.68105900  0.00000000  1
  Sr  Sr22  1  0.50000000  0.50000000  0.00000000  1
  Sr  Sr23  1  0.56505900  0.93159900  0.12552900  1
  Fe  Fe24  1  0.59780800  0.40323300  0.74941200  1
  Fe  Fe25  1  0.40323300  0.59780800  0.74941200  1
  Fe  Fe26  1  0.84739200  0.65438600  0.87517000  1
  Fe  Fe27  1  0.34606900  0.15278500  0.62589000  1
  Fe  Fe28  1  0.65438600  0.84739200  0.87517000  1
  Fe  Fe29  1  0.15278500  0.34606900  0.62589000  1
  Fe  Fe30  1  0.90233600  0.09766400  0.50000000  1
  Fe  Fe31  1  0.09766400  0.90233600  0.50000000  1
  Fe  Fe32  1  0.34561400  0.15260800  0.12483000  1
  Fe  Fe33  1  0.59676700  0.40219200  0.25058800  1
  Fe  Fe34  1  0.15260800  0.34561400  0.12483000  1
  Fe  Fe35  1  0.65393100  0.84721500  0.37411000  1
  Fe  Fe36  1  0.84721500  0.65393100  0.37411000  1
  Fe  Fe37  1  0.40219200  0.59676700  0.25058800  1
  Fe  Fe38  1  0.89462900  0.10537100  0.00000000  1
  Fe  Fe39  1  0.10537100  0.89462900  0.00000000  1
  O  O40  1  0.03059500  0.21069100  0.81908900  1
  O  O41  1  0.21069100  0.03059500  0.81908900  1
  O  O42  1  0.27923600  0.46999600  0.93696100  1
  O  O43  1  0.46999600  0.27923600  0.93696100  1
  O  O44  1  0.94682500  0.56182000  0.87620900  1
  O  O45  1  0.22056600  0.02918400  0.56255900  1
  O  O46  1  0.69350500  0.30623300  0.74907400  1
  O  O47  1  0.02918400  0.22056600  0.56255900  1
  O  O48  1  0.50007200  0.50007200  0.74976700  1
  O  O49  1  0.00000000  0.00000000  0.50000000  1
  O  O50  1  0.05370100  0.43950500  0.63001200  1
  O  O51  1  0.96946000  0.78975200  0.93964700  1
  O  O52  1  0.27917900  0.47026500  0.68799500  1
  O  O53  1  0.52905800  0.72060900  0.81182100  1
  O  O54  1  0.74889100  0.74889100  0.87425200  1
  O  O55  1  0.30623200  0.69350500  0.74907400  1
  O  O56  1  0.78975200  0.96946000  0.93964700  1
  O  O57  1  0.72060900  0.52905800  0.81182100  1
  O  O58  1  0.43950500  0.05370100  0.63001200  1
  O  O59  1  0.47026500  0.27917900  0.68799500  1
  O  O60  1  0.56182000  0.94682500  0.87620900  1
  O  O61  1  0.25116200  0.25116200  0.62316400  1
  O  O62  1  0.22013600  0.02897300  0.31266000  1
  O  O63  1  0.47142300  0.27953600  0.43705900  1
  O  O64  1  0.52857700  0.72046400  0.56294100  1
  O  O65  1  0.02897300  0.22013600  0.31266000  1
  O  O66  1  0.19416500  0.80583500  0.50000000  1
  O  O67  1  0.27953600  0.47142300  0.43705900  1
  O  O68  1  0.80583500  0.19416500  0.50000000  1
  O  O69  1  0.77986400  0.97102700  0.68734000  1
  O  O70  1  0.72046400  0.52857700  0.56294100  1
  O  O71  1  0.97102700  0.77986400  0.68734000  1
  O  O72  1  0.03054000  0.21024800  0.06035300  1
  O  O73  1  0.47094200  0.27939100  0.18817900  1
  O  O74  1  0.05317500  0.43818000  0.12379100  1
  O  O75  1  0.21024800  0.03054000  0.06035300  1
  O  O76  1  0.43818000  0.05317500  0.12379100  1
  O  O77  1  0.25110900  0.25110900  0.12574800  1
  O  O78  1  0.27939100  0.47094200  0.18817900  1
  O  O79  1  0.74883800  0.74883800  0.37683600  1
  O  O80  1  0.94629900  0.56049500  0.36998800  1
  O  O81  1  0.77943400  0.97081600  0.43744100  1
  O  O82  1  0.30649500  0.69376700  0.25092600  1
  O  O83  1  0.49992800  0.49992800  0.25023300  1
  O  O84  1  0.52973500  0.72082100  0.31200500  1
  O  O85  1  0.69376700  0.30649500  0.25092600  1
  O  O86  1  0.97081600  0.77943400  0.43744100  1
  O  O87  1  0.56049500  0.94629900  0.36998800  1
  O  O88  1  0.72082100  0.52973500  0.31200500  1
  O  O89  1  0.80141200  0.19858800  0.00000000  1
  O  O90  1  0.19858800  0.80141200  0.00000000  1
  O  O91  1  0.53000400  0.72076400  0.06303900  1
  O  O92  1  0.78930900  0.96940500  0.18091100  1
  O  O93  1  0.72076400  0.53000400  0.06303900  1
  O  O94  1  0.96940500  0.78931000  0.18091100  1
