# generated using pymatgen
data_La20S29O
_symmetry_space_group_name_H-M   'P 1'
_cell_length_a   15.05830768
_cell_length_b   15.05830768
_cell_length_c   15.05830768
_cell_angle_alpha   117.83968447
_cell_angle_beta   117.83968447
_cell_angle_gamma   93.78436283
_symmetry_Int_Tables_number   1
_chemical_formula_structural   La20S29O
_chemical_formula_sum   'La40 S58 O2'
_cell_volume   2487.39307681
_cell_formula_units_Z   2
loop_
 _symmetry_equiv_pos_site_id
 _symmetry_equiv_pos_as_xyz
  1  'x, y, z'
loop_
 _atom_site_type_symbol
 _atom_site_label
 _atom_site_symmetry_multiplicity
 _atom_site_fract_x
 _atom_site_fract_y
 _atom_site_fract_z
 _atom_site_occupancy
  La  La0  1  0.88834700  0.88428300  0.27602800  1
  La  La1  1  0.04600700  0.95011200  0.65390600  1
  La  La2  1  0.83515700  0.17763600  0.36681700  1
  La  La3  1  0.10894700  0.20376300  0.65441500  1
  La  La4  1  0.53165900  0.16484300  0.34247900  1
  La  La5  1  0.05072200  0.69234600  0.37647800  1
  La  La6  1  0.92763600  0.08515700  0.86681700  1
  La  La7  1  0.82236400  0.18918100  0.65752100  1
  La  La8  1  0.60789900  0.95399300  0.90410500  1
  La  La9  1  0.54934900  0.45453300  0.34558500  1
  La  La10  1  0.20065100  0.04623700  0.40518400  1
  La  La11  1  0.11571700  0.39174500  0.00406400  1
  La  La12  1  0.63428300  0.13834700  0.77602800  1
  La  La13  1  0.86165300  0.63768100  0.49593600  1
  La  La14  1  0.32575500  0.94927800  0.64162400  1
  La  La15  1  0.81081900  0.46834100  0.63318300  1
  La  La16  1  0.93918100  0.07236400  0.15752100  1
  La  La17  1  0.54546700  0.89105300  0.09481600  1
  La  La18  1  0.45379400  0.29988800  0.59589500  1
  La  La19  1  0.29620600  0.39210100  0.34609400  1
  La  La20  1  0.79623700  0.45065100  0.90518400  1
  La  La21  1  0.70399300  0.85789900  0.40410500  1
  La  La22  1  0.95376300  0.35894700  0.15441500  1
  La  La23  1  0.30765400  0.68413100  0.35837600  1
  La  La24  1  0.91484300  0.78165900  0.84247900  1
  La  La25  1  0.44234600  0.30072200  0.87647800  1
  La  La26  1  0.38768100  0.11165300  0.99593600  1
  La  La27  1  0.60825500  0.61231900  0.72397200  1
  La  La28  1  0.14174500  0.36571700  0.50406400  1
  La  La29  1  0.04988800  0.70379400  0.09589500  1
  La  La30  1  0.64105300  0.79546700  0.59481600  1
  La  La31  1  0.70011200  0.29600700  0.15390600  1
  La  La32  1  0.21834100  0.06081900  0.13318300  1
  La  La33  1  0.31586900  0.67424500  0.62352200  1
  La  La34  1  0.43413100  0.55765400  0.85837600  1
  La  La35  1  0.69927800  0.57575500  0.14162400  1
  La  La36  1  0.14210100  0.54620600  0.84609400  1
  La  La37  1  0.42424500  0.56586900  0.12352200  1
  La  La38  1  0.20453300  0.79934900  0.84558500  1
  La  La39  1  0.36231900  0.85825500  0.22397200  1
  S  S40  1  0.10722000  0.93792600  0.48284300  1
  S  S41  1  0.02864400  0.12500000  0.40364400  1
  S  S42  1  0.91909300  0.27950400  0.28802400  1
  S  S43  1  0.87679900  0.04296800  0.48396600  1
  S  S44  1  0.58838400  0.98132100  0.33295200  1
  S  S45  1  0.02950400  0.16909300  0.78802500  1
  S  S46  1  0.72049600  0.00852000  0.63958900  1
  S  S47  1  0.86875600  0.51124900  0.28446100  1
  S  S48  1  0.01867900  0.35163100  0.60706300  1
  S  S49  1  0.75000000  0.25000000  0.50000000  1
  S  S50  1  0.00000000  0.00000000  0.00000000  1
  S  S51  1  0.00543100  0.89836900  0.16704800  1
  S  S52  1  0.51300500  0.90625600  0.66136200  1
  S  S53  1  0.74456900  0.41161600  0.39293700  1
  S  S54  1  0.36893100  0.08090700  0.36041100  1
  S  S55  1  0.10163100  0.26867900  0.10706300  1
  S  S56  1  0.64836900  0.25543100  0.66704800  1
  S  S57  1  0.09374400  0.75510600  0.60674900  1
  S  S58  1  0.87500000  0.27864400  0.90364400  1
  S  S59  1  0.87500000  0.77506500  0.40006500  1
  S  S60  1  0.64278000  0.62562400  0.33070600  1
  S  S61  1  0.79296800  0.12679900  0.98396600  1
  S  S62  1  0.95703200  0.44099900  0.83383100  1
  S  S63  1  0.37562400  0.89278000  0.83070600  1
  S  S64  1  0.19099900  0.20703200  0.33383100  1
  S  S65  1  0.55900100  0.39283200  0.51603400  1
  S  S66  1  0.99148000  0.63106900  0.71197500  1
  S  S67  1  0.75852000  0.97049600  0.13958900  1
  S  S68  1  0.41570500  0.13124400  0.64249300  1
  S  S69  1  0.52506500  0.12500000  0.90006500  1
  S  S70  1  0.72135600  0.62500000  0.59635600  1
  S  S71  1  0.26124900  0.11875600  0.78446100  1
  S  S72  1  0.83090700  0.61893100  0.86041100  1
  S  S73  1  0.48875100  0.77321200  0.35750700  1
  S  S74  1  0.68792600  0.35722000  0.98284300  1
  S  S75  1  0.06207400  0.54491700  0.16929400  1
  S  S76  1  0.87320100  0.85716800  0.66616900  1
  S  S77  1  0.60716800  0.12320100  0.16616900  1
  S  S78  1  0.45508300  0.62437600  0.51715700  1
  S  S79  1  0.29491700  0.31207400  0.66929400  1
  S  S80  1  0.37500000  0.47493500  0.59993500  1
  S  S81  1  0.37500000  0.97135600  0.09635600  1
  S  S82  1  0.60164300  0.49489400  0.83863800  1
  S  S83  1  0.14835700  0.48699500  0.39325100  1
  S  S84  1  0.16161600  0.99456900  0.89293700  1
  S  S85  1  0.88124400  0.66570500  0.14249300  1
  S  S86  1  0.50510600  0.34374400  0.10674900  1
  S  S87  1  0.73132100  0.83838400  0.83295200  1
  S  S88  1  0.24489400  0.85164300  0.33863800  1
  S  S89  1  0.23699500  0.39835700  0.89325100  1
  S  S90  1  0.38106900  0.24148000  0.21197500  1
  S  S91  1  0.22678800  0.58429500  0.71553900  1
  S  S92  1  0.52321200  0.73875100  0.85750700  1
  S  S93  1  0.65625600  0.76300500  0.16136200  1
  S  S94  1  0.37437600  0.70508300  0.01715700  1
  S  S95  1  0.33429500  0.47678800  0.21553900  1
  S  S96  1  0.22493500  0.62500000  0.09993500  1
  S  S97  1  0.14283200  0.80900100  0.01603400  1
  O  O98  1  0.25000000  0.75000000  0.50000000  1
  O  O99  1  0.50000000  0.50000000  0.00000000  1
