# generated using pymatgen
data_Na3MnBSO7
_symmetry_space_group_name_H-M   'P 1'
_cell_length_a   5.32009649
_cell_length_b   9.12021403
_cell_length_c   13.90067501
_cell_angle_alpha   89.99933457
_cell_angle_beta   90.00301095
_cell_angle_gamma   89.42379555
_symmetry_Int_Tables_number   1
_chemical_formula_structural   Na3MnBSO7
_chemical_formula_sum   'Na12 Mn4 B4 S4 O28'
_cell_volume   674.43246313
_cell_formula_units_Z   4
loop_
 _symmetry_equiv_pos_site_id
 _symmetry_equiv_pos_as_xyz
  1  'x, y, z'
loop_
 _atom_site_type_symbol
 _atom_site_label
 _atom_site_symmetry_multiplicity
 _atom_site_fract_x
 _atom_site_fract_y
 _atom_site_fract_z
 _atom_site_occupancy
  Na  Na0  1  0.74556900  0.06292500  0.12499200  1
  Na  Na1  1  0.74557700  0.06296100  0.62500800  1
  Na  Na2  1  0.25445000  0.93706300  0.37499700  1
  Na  Na3  1  0.25445600  0.93705500  0.87499600  1
  Na  Na4  1  0.24389800  0.23181000  0.49529100  1
  Na  Na5  1  0.24405900  0.23179100  0.99530000  1
  Na  Na6  1  0.24390000  0.23181900  0.25470700  1
  Na  Na7  1  0.24399800  0.23176700  0.75470200  1
  Na  Na8  1  0.75616100  0.76817800  0.24528100  1
  Na  Na9  1  0.75600200  0.76824900  0.74529800  1
  Na  Na10  1  0.75615100  0.76820900  0.00471400  1
  Na  Na11  1  0.75597200  0.76822900  0.50470700  1
  Mn  Mn12  1  0.76559300  0.33883000  0.87503900  1
  Mn  Mn13  1  0.23411900  0.66110700  0.62497200  1
  Mn  Mn14  1  0.76532700  0.33897200  0.37498400  1
  Mn  Mn15  1  0.23471700  0.66112700  0.12495800  1
  B  B16  1  0.73593100  0.06298700  0.37499800  1
  B  B17  1  0.73600500  0.06301000  0.87500500  1
  B  B18  1  0.26405200  0.93697500  0.12500700  1
  B  B19  1  0.26400700  0.93699500  0.62500200  1
  S  S20  1  0.70848500  0.41861000  0.12499400  1
  S  S21  1  0.70839200  0.41863100  0.62500200  1
  S  S22  1  0.29153500  0.58135800  0.37501000  1
  S  S23  1  0.29164400  0.58137400  0.87499800  1
  O  O24  1  0.28641400  0.08598200  0.12500600  1
  O  O25  1  0.28646900  0.08599400  0.62500400  1
  O  O26  1  0.71354100  0.91398000  0.37499400  1
  O  O27  1  0.71351600  0.91401300  0.87500700  1
  O  O28  1  0.96839100  0.13482800  0.37500000  1
  O  O29  1  0.96853700  0.13478400  0.87501000  1
  O  O30  1  0.03158700  0.86512800  0.12500200  1
  O  O31  1  0.03147000  0.86523300  0.62499900  1
  O  O32  1  0.52412200  0.15747200  0.37499300  1
  O  O33  1  0.52426600  0.15751500  0.87500400  1
  O  O34  1  0.47593100  0.84254200  0.12500600  1
  O  O35  1  0.47570300  0.84247900  0.62500300  1
  O  O36  1  0.42904400  0.44491000  0.12501400  1
  O  O37  1  0.42897800  0.44492800  0.62500900  1
  O  O38  1  0.57095300  0.55505600  0.37498700  1
  O  O39  1  0.57105000  0.55509900  0.87499500  1
  O  O40  1  0.16233000  0.43672000  0.37500100  1
  O  O41  1  0.16249000  0.43671800  0.87501600  1
  O  O42  1  0.83761900  0.56327700  0.12500200  1
  O  O43  1  0.83753400  0.56329600  0.62498900  1
  O  O44  1  0.78054400  0.33084300  0.03857600  1
  O  O45  1  0.78048300  0.33087300  0.53857300  1
  O  O46  1  0.78063800  0.33083600  0.21140800  1
  O  O47  1  0.78060900  0.33083400  0.71139500  1
  O  O48  1  0.21938100  0.66914700  0.28859000  1
  O  O49  1  0.21939900  0.66917600  0.78861000  1
  O  O50  1  0.21946800  0.66915600  0.46141700  1
  O  O51  1  0.21953100  0.66914300  0.96142500  1
