# generated using pymatgen
data_Li5V3P8O29
_symmetry_space_group_name_H-M   'P 1'
_cell_length_a   9.83530016
_cell_length_b   9.83539712
_cell_length_c   13.99497160
_cell_angle_alpha   90.15542576
_cell_angle_beta   90.15300736
_cell_angle_gamma   59.87056248
_symmetry_Int_Tables_number   1
_chemical_formula_structural   Li5V3P8O29
_chemical_formula_sum   'Li10 V6 P16 O58'
_cell_volume   1170.87935323
_cell_formula_units_Z   2
loop_
 _symmetry_equiv_pos_site_id
 _symmetry_equiv_pos_as_xyz
  1  'x, y, z'
loop_
 _atom_site_type_symbol
 _atom_site_label
 _atom_site_symmetry_multiplicity
 _atom_site_fract_x
 _atom_site_fract_y
 _atom_site_fract_z
 _atom_site_occupancy
  Li  Li0  1  0.91513800  0.77455900  0.05841800  1
  Li  Li1  1  0.90521100  0.32286400  0.56292300  1
  Li  Li2  1  0.66880800  0.66819300  0.88252700  1
  Li  Li3  1  0.77659200  0.31584000  0.05776400  1
  Li  Li4  1  0.31132500  0.91347700  0.05794300  1
  Li  Li5  1  0.68121900  0.22341800  0.44399100  1
  Li  Li6  1  0.32348400  0.77097300  0.56263200  1
  Li  Li7  1  0.67839200  0.09444000  0.93689300  1
  Li  Li8  1  0.08857300  0.68261400  0.44153900  1
  Li  Li9  1  0.22725000  0.09415500  0.44177900  1
  V  V10  1  0.56512500  0.43252700  0.24958300  1
  V  V11  1  0.42639500  0.56617100  0.75383800  1
  V  V12  1  0.56959500  0.99518900  0.74403900  1
  V  V13  1  0.43289400  0.00102300  0.25125700  1
  V  V14  1  0.99898300  0.56713600  0.24735500  1
  V  V15  1  0.00240100  0.43288700  0.75356000  1
  P  P16  1  0.91050100  0.77229500  0.84289400  1
  P  P17  1  0.76957900  0.91367700  0.34071400  1
  P  P18  1  0.91181200  0.32126500  0.34252700  1
  P  P19  1  0.66486700  0.66682300  0.12646600  1
  P  P20  1  0.66425200  0.66319900  0.62747100  1
  P  P21  1  0.77105000  0.31987000  0.84139000  1
  P  P22  1  0.68150800  0.23054500  0.65863900  1
  P  P23  1  0.32099000  0.91052100  0.84183800  1
  P  P24  1  0.67907400  0.08759000  0.15733400  1
  P  P25  1  0.31934600  0.76783300  0.34242000  1
  P  P26  1  0.22988100  0.68412400  0.15784000  1
  P  P27  1  0.33128800  0.33610500  0.37249700  1
  P  P28  1  0.33691000  0.32758000  0.87238100  1
  P  P29  1  0.08585900  0.68104900  0.65861200  1
  P  P30  1  0.23059200  0.08832500  0.65883200  1
  P  P31  1  0.08585400  0.23030100  0.15921100  1
  O  O32  1  0.01148500  0.75796000  0.56661000  1
  O  O33  1  0.91490300  0.74523900  0.33751400  1
  O  O34  1  0.75761500  0.00483000  0.06627100  1
  O  O35  1  0.74623200  0.92155600  0.83997100  1
  O  O36  1  0.88600200  0.62841000  0.82482300  1
  O  O37  1  0.81310600  0.67195400  0.16404000  1
  O  O38  1  0.89749700  0.48052800  0.32363900  1
  O  O39  1  0.99369200  0.23814200  0.07359500  1
  O  O40  1  0.91280700  0.34278300  0.84088600  1
  O  O41  1  0.66403600  0.81218900  0.67258600  1
  O  O42  1  0.61755800  0.90498800  0.32248700  1
  O  O43  1  0.81497000  0.51410900  0.66783700  1
  O  O44  1  0.66748600  0.66077300  0.01907300  1
  O  O45  1  0.65850900  0.66635500  0.52105900  1
  O  O46  1  0.66927900  0.51243000  0.16726000  1
  O  O47  1  0.48668200  0.88996200  0.82744400  1
  O  O48  1  0.51322500  0.81222900  0.16528200  1
  O  O49  1  0.74523000  0.33723600  0.33783100  1
  O  O50  1  0.79054700  0.21160100  0.75027700  1
  O  O51  1  0.75613600  0.24719300  0.56901100  1
  O  O52  1  0.75326700  0.24512200  0.93053900  1
  O  O53  1  0.62099500  0.48565400  0.82559200  1
  O  O54  1  0.51290100  0.66703500  0.66965000  1
  O  O55  1  0.66333400  0.25433700  0.16246400  1
  O  O56  1  0.48021200  0.61665800  0.32120200  1
  O  O57  1  0.33661100  0.91491800  0.34128700  1
  O  O58  1  0.79283400  0.99392400  0.24529200  1
  O  O59  1  0.76237600  0.00605000  0.42609600  1
  O  O60  1  0.24315200  0.99729700  0.56885100  1
  O  O61  1  0.65815900  0.09006600  0.65982400  1
  O  O62  1  0.52471200  0.38521700  0.67923600  1
  O  O63  1  0.34378900  0.74116600  0.83304500  1
  O  O64  1  0.48655800  0.33159500  0.32870300  1
  O  O65  1  0.38269900  0.52200200  0.17800000  1
  O  O66  1  0.24288600  0.76571800  0.07294300  1
  O  O67  1  0.24773100  0.75207000  0.43307200  1
  O  O68  1  0.20787000  0.78684800  0.25389100  1
  O  O69  1  0.25556700  0.66051600  0.66462800  1
  O  O70  1  0.48575500  0.17884700  0.83151100  1
  O  O71  1  0.51933800  0.10296300  0.17582400  1
  O  O72  1  0.33992000  0.47658800  0.82596200  1
  O  O73  1  0.34160500  0.33576500  0.97812900  1
  O  O74  1  0.34083400  0.33475700  0.47881700  1
  O  O75  1  0.18749900  0.48821700  0.33207500  1
  O  O76  1  0.37707500  0.10264400  0.67487900  1
  O  O77  1  0.32700200  0.18761700  0.33371500  1
  O  O78  1  0.08467800  0.66341900  0.15880000  1
  O  O79  1  0.99967200  0.78895000  0.75065400  1
  O  O80  1  0.99557200  0.75887200  0.93350300  1
  O  O81  1  0.09511700  0.52228500  0.67432900  1
  O  O82  1  0.18597800  0.33574200  0.82881600  1
  O  O83  1  0.09532300  0.38190600  0.17701800  1
  O  O84  1  0.25452500  0.08497200  0.16218000  1
  O  O85  1  0.24544100  0.98932400  0.93275500  1
  O  O86  1  0.21205500  0.99849100  0.75055900  1
  O  O87  1  0.08029700  0.25076700  0.65931700  1
  O  O88  1  0.99637300  0.24279000  0.43342600  1
  O  O89  1  0.00579500  0.20683400  0.25454900  1
