# generated using pymatgen
data_Zr2MnOs
_symmetry_space_group_name_H-M   'P 1'
_cell_length_a   10.64293449
_cell_length_b   10.64293449
_cell_length_c   10.64293449
_cell_angle_alpha   125.97270241
_cell_angle_beta   118.93536684
_cell_angle_gamma   85.91579740
_symmetry_Int_Tables_number   1
_chemical_formula_structural   Zr2MnOs
_chemical_formula_sum   'Zr2 Mn1 Os1'
_cell_volume   814.33517990
_cell_formula_units_Z   1
loop_
 _symmetry_equiv_pos_site_id
 _symmetry_equiv_pos_as_xyz
  1  'x, y, z'
loop_
 _atom_site_type_symbol
 _atom_site_label
 _atom_site_symmetry_multiplicity
 _atom_site_fract_x
 _atom_site_fract_y
 _atom_site_fract_z
 _atom_site_occupancy
  Zr  Zr0  1  0.00000000  0.25864300  0.25864300  1
  Zr  Zr1  1  0.00000000  0.74135700  0.74135700  1
  Mn  Mn2  1  0.00000000  0.00000000  0.00000000  1
  Os  Os3  1  0.00000000  0.50000000  0.50000000  1
