# generated using pymatgen
data_Er2(WO4)3
_symmetry_space_group_name_H-M   'P 1'
_cell_length_a   6.90449988
_cell_length_b   6.90449988
_cell_length_c   11.36317763
_cell_angle_alpha   79.19029469
_cell_angle_beta   79.19029469
_cell_angle_gamma   112.14768405
_symmetry_Int_Tables_number   1
_chemical_formula_structural   Er2(WO4)3
_chemical_formula_sum   'Er4 W6 O24'
_cell_volume   472.56124609
_cell_formula_units_Z   2
loop_
 _symmetry_equiv_pos_site_id
 _symmetry_equiv_pos_as_xyz
  1  'x, y, z'
loop_
 _atom_site_type_symbol
 _atom_site_label
 _atom_site_symmetry_multiplicity
 _atom_site_fract_x
 _atom_site_fract_y
 _atom_site_fract_z
 _atom_site_occupancy
  Er  Er0  1  0.95713800  0.71242800  0.09254400  1
  Er  Er1  1  0.71242800  0.95713800  0.59254400  1
  Er  Er2  1  0.28757200  0.04286200  0.40745600  1
  Er  Er3  1  0.04286200  0.28757200  0.90745600  1
  W  W4  1  0.86831900  0.13168100  0.25000000  1
  W  W5  1  0.75411000  0.53947400  0.45035800  1
  W  W6  1  0.53947400  0.75411000  0.95035800  1
  W  W7  1  0.46052600  0.24589000  0.04964200  1
  W  W8  1  0.24589000  0.46052600  0.54964200  1
  W  W9  1  0.13168100  0.86831900  0.75000000  1
  O  O10  1  0.65870100  0.07856500  0.39484700  1
  O  O11  1  0.92143500  0.34129900  0.10515300  1
  O  O12  1  0.52773600  0.60405800  0.57600800  1
  O  O13  1  0.39594200  0.47226400  0.92399200  1
  O  O14  1  0.79042100  0.87018200  0.21957200  1
  O  O15  1  0.12981800  0.20957900  0.28042800  1
  O  O16  1  0.91950700  0.81979200  0.46184300  1
  O  O17  1  0.18020800  0.08049300  0.03815700  1
  O  O18  1  0.90544500  0.54840000  0.29722700  1
  O  O19  1  0.76788800  0.32923600  0.56208300  1
  O  O20  1  0.54840000  0.90544500  0.79722700  1
  O  O21  1  0.67076400  0.23211200  0.93791700  1
  O  O22  1  0.32923600  0.76788800  0.06208300  1
  O  O23  1  0.45160000  0.09455500  0.20277300  1
  O  O24  1  0.23211200  0.67076400  0.43791700  1
  O  O25  1  0.09455500  0.45160000  0.70277300  1
  O  O26  1  0.81979200  0.91950700  0.96184300  1
  O  O27  1  0.08049300  0.18020800  0.53815700  1
  O  O28  1  0.87018200  0.79042100  0.71957200  1
  O  O29  1  0.20957900  0.12981800  0.78042800  1
  O  O30  1  0.60405800  0.52773600  0.07600800  1
  O  O31  1  0.47226400  0.39594200  0.42399200  1
  O  O32  1  0.07856500  0.65870100  0.89484700  1
  O  O33  1  0.34129900  0.92143500  0.60515300  1
