# generated using pymatgen
data_Mg2ZnHg
_symmetry_space_group_name_H-M   'P 1'
_cell_length_a   11.88666244
_cell_length_b   11.88666244
_cell_length_c   11.88666244
_cell_angle_alpha   120.03153609
_cell_angle_beta   119.89878934
_cell_angle_gamma   90.06038895
_symmetry_Int_Tables_number   1
_chemical_formula_structural   Mg2ZnHg
_chemical_formula_sum   'Mg2 Zn1 Hg1'
_cell_volume   1188.20787547
_cell_formula_units_Z   1
loop_
 _symmetry_equiv_pos_site_id
 _symmetry_equiv_pos_as_xyz
  1  'x, y, z'
loop_
 _atom_site_type_symbol
 _atom_site_label
 _atom_site_symmetry_multiplicity
 _atom_site_fract_x
 _atom_site_fract_y
 _atom_site_fract_z
 _atom_site_occupancy
  Mg  Mg0  1  0.75115900  0.00000000  0.75115900  1
  Mg  Mg1  1  0.24884100  0.00000000  0.24884100  1
  Zn  Zn2  1  0.00000000  0.00000000  0.00000000  1
  Hg  Hg3  1  0.50000000  0.00000000  0.50000000  1
