# generated using pymatgen
data_Li2V3SnO8
_symmetry_space_group_name_H-M   'P 1'
_cell_length_a   8.56557802
_cell_length_b   8.65861102
_cell_length_c   8.60018400
_cell_angle_alpha   89.99963440
_cell_angle_beta   89.99841802
_cell_angle_gamma   90.00762586
_symmetry_Int_Tables_number   1
_chemical_formula_structural   Li2V3SnO8
_chemical_formula_sum   'Li8 V12 Sn4 O32'
_cell_volume   637.84131147
_cell_formula_units_Z   4
loop_
 _symmetry_equiv_pos_site_id
 _symmetry_equiv_pos_as_xyz
  1  'x, y, z'
loop_
 _atom_site_type_symbol
 _atom_site_label
 _atom_site_symmetry_multiplicity
 _atom_site_fract_x
 _atom_site_fract_y
 _atom_site_fract_z
 _atom_site_occupancy
  Li  Li0  1  0.00486700  0.00464600  0.00300800  1
  Li  Li1  1  0.24576700  0.24488400  0.24514500  1
  Li  Li2  1  0.25412800  0.75521100  0.74521800  1
  Li  Li3  1  0.49510000  0.99532100  0.50294800  1
  Li  Li4  1  0.50491600  0.49532400  0.99708600  1
  Li  Li5  1  0.74583000  0.25520400  0.75484200  1
  Li  Li6  1  0.75417400  0.74492600  0.25479500  1
  Li  Li7  1  0.99508400  0.50460000  0.49701300  1
  V  V8  1  0.11640400  0.13259500  0.62383900  1
  V  V9  1  0.12321300  0.38261200  0.86665200  1
  V  V10  1  0.13576300  0.62555700  0.11886800  1
  V  V11  1  0.36433100  0.37461400  0.61892200  1
  V  V12  1  0.37688400  0.61754600  0.36663100  1
  V  V13  1  0.38347000  0.86756400  0.12390600  1
  V  V14  1  0.61643300  0.36746900  0.37613400  1
  V  V15  1  0.62316500  0.11732400  0.13341200  1
  V  V16  1  0.63577900  0.87457800  0.88112600  1
  V  V17  1  0.86428800  0.12544800  0.38106800  1
  V  V18  1  0.87686000  0.88245800  0.63336100  1
  V  V19  1  0.88368800  0.63243800  0.87626300  1
  Sn  Sn20  1  0.12500500  0.87423500  0.37630500  1
  Sn  Sn21  1  0.37497700  0.12569300  0.87629900  1
  Sn  Sn22  1  0.62491600  0.62563600  0.62359000  1
  Sn  Sn23  1  0.87498700  0.37434100  0.12364600  1
  O  O24  1  0.10696100  0.11869000  0.39198600  1
  O  O25  1  0.11901900  0.89916000  0.61880400  1
  O  O26  1  0.10560900  0.62022500  0.87961600  1
  O  O27  1  0.12927200  0.14722400  0.85930900  1
  O  O28  1  0.11811900  0.38498200  0.10307900  1
  O  O29  1  0.13072700  0.36343000  0.62986400  1
  O  O30  1  0.13239900  0.63341100  0.35228300  1
  O  O31  1  0.15484000  0.86834700  0.13072900  1
  O  O32  1  0.34495900  0.13184400  0.63070300  1
  O  O33  1  0.36766600  0.36647300  0.85228900  1
  O  O34  1  0.36948000  0.63673500  0.12988200  1
  O  O35  1  0.38191400  0.61516300  0.60313900  1
  O  O36  1  0.37083000  0.85294200  0.35924200  1
  O  O37  1  0.39433100  0.37987400  0.37952300  1
  O  O38  1  0.38077800  0.10065400  0.11896100  1
  O  O39  1  0.39292600  0.88126500  0.89194600  1
  O  O40  1  0.60705900  0.38129600  0.60803500  1
  O  O41  1  0.61905700  0.60078300  0.38120600  1
  O  O42  1  0.60579000  0.87965200  0.12032100  1
  O  O43  1  0.62918700  0.35268100  0.14071500  1
  O  O44  1  0.61812700  0.11514300  0.89695000  1
  O  O45  1  0.63064500  0.13656700  0.37009400  1
  O  O46  1  0.63237000  0.86654400  0.64776700  1
  O  O47  1  0.65498200  0.63174700  0.86934100  1
  O  O48  1  0.84499100  0.36822500  0.36926800  1
  O  O49  1  0.86766300  0.13346900  0.14771200  1
  O  O50  1  0.86939400  0.86339800  0.87009400  1
  O  O51  1  0.88180000  0.88491000  0.39691300  1
  O  O52  1  0.87082900  0.64708700  0.64068000  1
  O  O53  1  0.89436800  0.12002200  0.62048000  1
  O  O54  1  0.88087900  0.39925200  0.88109200  1
  O  O55  1  0.89300400  0.61871600  0.10803700  1
