# generated using pymatgen
data_Na3FeBSO7
_symmetry_space_group_name_H-M   'P 1'
_cell_length_a   8.71296597
_cell_length_b   8.71360112
_cell_length_c   10.39945090
_cell_angle_alpha   107.39366405
_cell_angle_beta   107.41160474
_cell_angle_gamma   105.18224085
_symmetry_Int_Tables_number   1
_chemical_formula_structural   Na3FeBSO7
_chemical_formula_sum   'Na12 Fe4 B4 S4 O28'
_cell_volume   663.24047797
_cell_formula_units_Z   4
loop_
 _symmetry_equiv_pos_site_id
 _symmetry_equiv_pos_as_xyz
  1  'x, y, z'
loop_
 _atom_site_type_symbol
 _atom_site_label
 _atom_site_symmetry_multiplicity
 _atom_site_fract_x
 _atom_site_fract_y
 _atom_site_fract_z
 _atom_site_occupancy
  Na  Na0  1  0.53166200  0.28016900  0.06435400  1
  Na  Na1  1  0.02924900  0.78019300  0.06468800  1
  Na  Na2  1  0.96824200  0.21933600  0.93563900  1
  Na  Na3  1  0.47128100  0.72064000  0.93627900  1
  Na  Na4  1  0.73222100  0.74137700  0.23544500  1
  Na  Na5  1  0.23464500  0.24323700  0.23468500  1
  Na  Na6  1  0.49190800  0.98138200  0.23498100  1
  Na  Na7  1  0.99249100  0.48467100  0.23508900  1
  Na  Na8  1  0.00808500  0.51783400  0.76461300  1
  Na  Na9  1  0.50823300  0.01708200  0.76448000  1
  Na  Na10  1  0.76872900  0.75963800  0.76575200  1
  Na  Na11  1  0.26782100  0.25809500  0.76404500  1
  Fe  Fe12  1  0.42335600  0.67366300  0.33620800  1
  Fe  Fe13  1  0.07620400  0.82648800  0.66382700  1
  Fe  Fe14  1  0.92916000  0.17853900  0.33877200  1
  Fe  Fe15  1  0.57600000  0.32588600  0.66272300  1
  B  B16  1  0.77446300  0.02463200  0.06613100  1
  B  B17  1  0.27307200  0.52281300  0.06177300  1
  B  B18  1  0.72607600  0.47624200  0.93677600  1
  B  B19  1  0.22722900  0.97687900  0.93782800  1
  S  S20  1  0.69284900  0.44276700  0.41981000  1
  S  S21  1  0.19180600  0.94212800  0.41913900  1
  S  S22  1  0.80567800  0.05497800  0.57980900  1
  S  S23  1  0.30753300  0.55842000  0.57976400  1
  O  O24  1  0.31491700  0.06443800  0.08720300  1
  O  O25  1  0.81234600  0.56249300  0.08635100  1
  O  O26  1  0.18571700  0.43537300  0.91241600  1
  O  O27  1  0.68881300  0.93924100  0.91596300  1
  O  O28  1  0.92712500  0.17774900  0.13775600  1
  O  O29  1  0.42544700  0.67443800  0.13310400  1
  O  O30  1  0.57423700  0.32379000  0.86473700  1
  O  O31  1  0.07538400  0.82471300  0.86700300  1
  O  O32  1  0.71747300  0.96687400  0.16275400  1
  O  O33  1  0.21659200  0.46728500  0.16033500  1
  O  O34  1  0.78276200  0.53345200  0.83921700  1
  O  O35  1  0.28274200  0.03287200  0.83907700  1
  O  O36  1  0.56810200  0.31927600  0.45181600  1
  O  O37  1  0.06760300  0.81807600  0.45108700  1
  O  O38  1  0.92973800  0.17682000  0.54637700  1
  O  O39  1  0.43202700  0.68401500  0.54942100  1
  O  O40  1  0.66564500  0.91533500  0.43737800  1
  O  O41  1  0.16906400  0.41996100  0.43556200  1
  O  O42  1  0.83311400  0.58146000  0.56265500  1
  O  O43  1  0.33084200  0.08205100  0.56191800  1
  O  O44  1  0.59657700  0.52024300  0.33086600  1
  O  O45  1  0.09396600  0.01694400  0.32823000  1
  O  O46  1  0.76721000  0.34412000  0.32918100  1
  O  O47  1  0.26863500  0.84511500  0.32999600  1
  O  O48  1  0.73033900  0.15363900  0.66932800  1
  O  O49  1  0.22983000  0.65356700  0.66903300  1
  O  O50  1  0.90206700  0.97876000  0.67016600  1
  O  O51  1  0.40369400  0.48081100  0.66846100  1
