# generated using pymatgen
data_MgScIn2
_symmetry_space_group_name_H-M   'P 1'
_cell_length_a   11.93629632
_cell_length_b   11.93629632
_cell_length_c   11.93629632
_cell_angle_alpha   122.39302799
_cell_angle_beta   119.00717861
_cell_angle_gamma   88.81714504
_symmetry_Int_Tables_number   1
_chemical_formula_structural   MgScIn2
_chemical_formula_sum   'Mg1 Sc1 In2'
_cell_volume   1188.19174891
_cell_formula_units_Z   1
loop_
 _symmetry_equiv_pos_site_id
 _symmetry_equiv_pos_as_xyz
  1  'x, y, z'
loop_
 _atom_site_type_symbol
 _atom_site_label
 _atom_site_symmetry_multiplicity
 _atom_site_fract_x
 _atom_site_fract_y
 _atom_site_fract_z
 _atom_site_occupancy
  Mg  Mg0  1  0.00000000  0.00000000  0.00000000  1
  Sc  Sc1  1  0.00000000  0.50000000  0.50000000  1
  In  In2  1  0.00000000  0.24915900  0.24915900  1
  In  In3  1  0.00000000  0.75084100  0.75084100  1
