# generated using pymatgen
data_Li4V3Sn3(SbO8)2
_symmetry_space_group_name_H-M   'P 1'
_cell_length_a   6.24541040
_cell_length_b   6.13406107
_cell_length_c   10.28018817
_cell_angle_alpha   90.00817645
_cell_angle_beta   89.43896640
_cell_angle_gamma   119.40854007
_symmetry_Int_Tables_number   1
_chemical_formula_structural   Li4V3Sn3(SbO8)2
_chemical_formula_sum   'Li4 V3 Sn3 Sb2 O16'
_cell_volume   343.06101041
_cell_formula_units_Z   1
loop_
 _symmetry_equiv_pos_site_id
 _symmetry_equiv_pos_as_xyz
  1  'x, y, z'
loop_
 _atom_site_type_symbol
 _atom_site_label
 _atom_site_symmetry_multiplicity
 _atom_site_fract_x
 _atom_site_fract_y
 _atom_site_fract_z
 _atom_site_occupancy
  Li  Li0  1  0.34253300  0.67130600  0.89200200  1
  Li  Li1  1  0.97985700  0.98991700  0.99152400  1
  Li  Li2  1  0.98643500  0.99321500  0.50008100  1
  Li  Li3  1  0.66749300  0.33372400  0.39888500  1
  V  V4  1  0.65972800  0.82983500  0.21754600  1
  V  V5  1  0.82883500  0.65198600  0.71501400  1
  V  V6  1  0.82885600  0.17694900  0.71499700  1
  Sn  Sn7  1  0.16814200  0.83303000  0.21542200  1
  Sn  Sn8  1  0.16816200  0.33511200  0.21538700  1
  Sn  Sn9  1  0.32973800  0.16492200  0.71488100  1
  Sb  Sb10  1  0.33662800  0.66837100  0.49976200  1
  Sb  Sb11  1  0.67357200  0.33677000  0.99045100  1
  O  O12  1  0.14363200  0.83124200  0.60116700  1
  O  O13  1  0.03475400  0.51731300  0.34250100  1
  O  O14  1  0.33569900  0.66789300  0.10475900  1
  O  O15  1  0.99382100  0.99690700  0.31866200  1
  O  O16  1  0.99718300  0.99861400  0.81230600  1
  O  O17  1  0.14360900  0.31233300  0.60119600  1
  O  O18  1  0.49346500  0.97513300  0.32298400  1
  O  O19  1  0.49360000  0.51836300  0.32287700  1
  O  O20  1  0.30567200  0.15282100  0.09319100  1
  O  O21  1  0.71263800  0.85636200  0.62258900  1
  O  O22  1  0.52967100  0.49404800  0.82875300  1
  O  O23  1  0.52955600  0.03567800  0.82879800  1
  O  O24  1  0.65922500  0.32958300  0.60511000  1
  O  O25  1  0.84192200  0.69467400  0.10758800  1
  O  O26  1  0.97377800  0.48692500  0.82182800  1
  O  O27  1  0.84179500  0.14727600  0.10758000  1
