# generated using pymatgen
data_Li4MnV3(P2O7)4
_symmetry_space_group_name_H-M   'P 1'
_cell_length_a   9.59318342
_cell_length_b   9.63854490
_cell_length_c   7.16138384
_cell_angle_alpha   79.76081101
_cell_angle_beta   79.12051510
_cell_angle_gamma   119.11758348
_symmetry_Int_Tables_number   1
_chemical_formula_structural   Li4MnV3(P2O7)4
_chemical_formula_sum   'Li4 Mn1 V3 P8 O28'
_cell_volume   539.31226930
_cell_formula_units_Z   1
loop_
 _symmetry_equiv_pos_site_id
 _symmetry_equiv_pos_as_xyz
  1  'x, y, z'
loop_
 _atom_site_type_symbol
 _atom_site_label
 _atom_site_symmetry_multiplicity
 _atom_site_fract_x
 _atom_site_fract_y
 _atom_site_fract_z
 _atom_site_occupancy
  Li  Li0  1  0.06933600  0.43012500  0.32467100  1
  Li  Li1  1  0.31829200  0.18075900  0.67451400  1
  Li  Li2  1  0.56761100  0.92886600  0.32486100  1
  Li  Li3  1  0.82042000  0.68221900  0.67475300  1
  Mn  Mn4  1  0.25888000  0.25774000  0.26796100  1
  V  V5  1  0.75665300  0.75648000  0.27158500  1
  V  V6  1  0.49423800  0.99432500  0.72757500  1
  V  V7  1  0.99345800  0.49237700  0.72797400  1
  P  P8  1  0.34925900  0.52828300  0.52285100  1
  P  P9  1  0.85043000  0.02939000  0.52148800  1
  P  P10  1  0.67052300  0.45512700  0.08684000  1
  P  P11  1  0.17228700  0.95532600  0.08773100  1
  P  P12  1  0.29430200  0.58146000  0.91367400  1
  P  P13  1  0.79483700  0.07866900  0.91392000  1
  P  P14  1  0.21961100  0.89997100  0.48184200  1
  P  P15  1  0.72047700  0.40135000  0.47798400  1
  O  O16  1  0.19013800  0.12391700  0.08433300  1
  O  O17  1  0.01692400  0.19336400  0.39188200  1
  O  O18  1  0.20312700  0.04525100  0.50505300  1
  O  O19  1  0.27797200  0.48218000  0.11468600  1
  O  O20  1  0.48669400  0.31090100  0.14489100  1
  O  O21  1  0.33554000  0.37162100  0.48131600  1
  O  O22  1  0.19939300  0.54159900  0.50645400  1
  O  O23  1  0.70022800  0.04274900  0.50594000  1
  O  O24  1  0.55697300  0.23505600  0.60504400  1
  O  O25  1  0.05632200  0.73114300  0.60461900  1
  O  O26  1  0.62561100  0.05934800  0.91653400  1
  O  O27  1  0.12502000  0.56128700  0.91360800  1
  O  O28  1  0.34525500  0.49898900  0.75330400  1
  O  O29  1  0.75174800  0.40544700  0.24669500  1
  O  O30  1  0.25198900  0.90649500  0.24884500  1
  O  O31  1  0.68843400  0.62230700  0.08528100  1
  O  O32  1  0.51579500  0.69253400  0.39540700  1
  O  O33  1  0.70737500  0.55110300  0.49403200  1
  O  O34  1  0.87845600  0.41682900  0.51727700  1
  O  O35  1  0.37916400  0.91569600  0.51755500  1
  O  O36  1  0.93704100  0.26122700  0.85107300  1
  O  O37  1  0.43814200  0.76441800  0.84670600  1
  O  O38  1  0.27543300  0.97018100  0.88713200  1
  O  O39  1  0.77513100  0.47198800  0.88587900  1
  O  O40  1  0.77825600  0.97486100  0.11374200  1
  O  O41  1  0.98856900  0.81312100  0.14858700  1
  O  O42  1  0.83349400  0.87152400  0.48167300  1
  O  O43  1  0.84558600  0.99797300  0.75222500  1
