# generated using pymatgen
data_Mn12O7F17
_symmetry_space_group_name_H-M   'P 1'
_cell_length_a   4.79785100
_cell_length_b   5.82774328
_cell_length_c   15.76528726
_cell_angle_alpha   89.83738898
_cell_angle_beta   89.47784566
_cell_angle_gamma   88.99904761
_symmetry_Int_Tables_number   1
_chemical_formula_structural   Mn12O7F17
_chemical_formula_sum   'Mn12 O7 F17'
_cell_volume   440.72043448
_cell_formula_units_Z   1
loop_
 _symmetry_equiv_pos_site_id
 _symmetry_equiv_pos_as_xyz
  1  'x, y, z'
loop_
 _atom_site_type_symbol
 _atom_site_label
 _atom_site_symmetry_multiplicity
 _atom_site_fract_x
 _atom_site_fract_y
 _atom_site_fract_z
 _atom_site_occupancy
  Mn  Mn0  1  0.97470300  0.86479500  0.41306000  1
  Mn  Mn1  1  0.00890300  0.16144500  0.24551500  1
  Mn  Mn2  1  0.99929700  0.83427500  0.07361200  1
  Mn  Mn3  1  0.99036300  0.84669500  0.75384700  1
  Mn  Mn4  1  0.96572200  0.15680300  0.58061700  1
  Mn  Mn5  1  0.97644000  0.14745000  0.91398500  1
  Mn  Mn6  1  0.49690800  0.63775900  0.58565000  1
  Mn  Mn7  1  0.50761500  0.66775100  0.92672900  1
  Mn  Mn8  1  0.50941300  0.67839600  0.25391800  1
  Mn  Mn9  1  0.46057000  0.36199800  0.09112200  1
  Mn  Mn10  1  0.51613800  0.32906900  0.41710400  1
  Mn  Mn11  1  0.52625000  0.32419600  0.75003400  1
  O  O12  1  0.79525300  0.91402300  0.30386300  1
  O  O13  1  0.79528800  0.87885800  0.96978300  1
  O  O14  1  0.77327800  0.10579100  0.47393400  1
  O  O15  1  0.78520400  0.11151600  0.80563200  1
  O  O16  1  0.71240300  0.36653300  0.63961200  1
  O  O17  1  0.27857100  0.62048900  0.03091200  1
  O  O18  1  0.27276100  0.38494700  0.19791400  1
  F  F19  1  0.75925100  0.86781900  0.64383100  1
  F  F20  1  0.76310100  0.11571000  0.13349600  1
  F  F21  1  0.74177000  0.61856400  0.14350100  1
  F  F22  1  0.75734400  0.40095500  0.30637600  1
  F  F23  1  0.73312000  0.60763500  0.47224200  1
  F  F24  1  0.73326800  0.60739300  0.81552500  1
  F  F25  1  0.71545500  0.37652200  0.98537000  1
  F  F26  1  0.26581900  0.63145200  0.36632800  1
  F  F27  1  0.25615400  0.38628500  0.52467300  1
  F  F28  1  0.27921600  0.37169900  0.86079800  1
  F  F29  1  0.26605400  0.60555700  0.70298500  1
  F  F30  1  0.22797900  0.89540400  0.18189700  1
  F  F31  1  0.20980500  0.88178700  0.52603200  1
  F  F32  1  0.25214100  0.11857200  0.35310800  1
  F  F33  1  0.22406700  0.12701100  0.01835500  1
  F  F34  1  0.25431900  0.88207000  0.85515900  1
  F  F35  1  0.21605500  0.11277500  0.68347900  1
