# generated using pymatgen
data_Fe3Ni2Sb(PO4)6
_symmetry_space_group_name_H-M   'P 1'
_cell_length_a   8.50535811
_cell_length_b   8.50535811
_cell_length_c   8.50535763
_cell_angle_alpha   61.00848785
_cell_angle_beta   61.00848785
_cell_angle_gamma   61.00848251
_symmetry_Int_Tables_number   1
_chemical_formula_structural   Fe3Ni2Sb(PO4)6
_chemical_formula_sum   'Fe3 Ni2 Sb1 P6 O24'
_cell_volume   444.95623288
_cell_formula_units_Z   1
loop_
 _symmetry_equiv_pos_site_id
 _symmetry_equiv_pos_as_xyz
  1  'x, y, z'
loop_
 _atom_site_type_symbol
 _atom_site_label
 _atom_site_symmetry_multiplicity
 _atom_site_fract_x
 _atom_site_fract_y
 _atom_site_fract_z
 _atom_site_occupancy
  Fe  Fe0  1  0.14532400  0.14532400  0.14532400  1
  Fe  Fe1  1  0.35535000  0.35535000  0.35535000  1
  Fe  Fe2  1  0.64312700  0.64312700  0.64312700  1
  Ni  Ni3  1  0.00631100  0.00631100  0.00631100  1
  Ni  Ni4  1  0.49953400  0.49953400  0.49953400  1
  Sb  Sb5  1  0.85720900  0.85720900  0.85720900  1
  P  P6  1  0.45087800  0.74601500  0.04820700  1
  P  P7  1  0.74601500  0.04820700  0.45087800  1
  P  P8  1  0.04820700  0.45087800  0.74601500  1
  P  P9  1  0.95248000  0.54112900  0.25339300  1
  P  P10  1  0.25339300  0.95248000  0.54112900  1
  P  P11  1  0.54112900  0.25339300  0.95248000  1
  O  O12  1  0.50952600  0.31223700  0.11034700  1
  O  O13  1  0.11034700  0.50952600  0.31223700  1
  O  O14  1  0.25824200  0.90964000  0.05923000  1
  O  O15  1  0.31223700  0.11034700  0.50952600  1
  O  O16  1  0.61154300  0.81462700  0.01178200  1
  O  O17  1  0.44074100  0.59004700  0.24467100  1
  O  O18  1  0.90964000  0.05923000  0.25824200  1
  O  O19  1  0.59004700  0.24467100  0.44074100  1
  O  O20  1  0.99409500  0.39088100  0.17882700  1
  O  O21  1  0.24467100  0.44074100  0.59004700  1
  O  O22  1  0.93992100  0.74547200  0.08696100  1
  O  O23  1  0.17882700  0.99409500  0.39088100  1
  O  O24  1  0.81462700  0.01178200  0.61154300  1
  O  O25  1  0.05923000  0.25824200  0.90964000  1
  O  O26  1  0.75388200  0.56207400  0.40677400  1
  O  O27  1  0.01178200  0.61154300  0.81462700  1
  O  O28  1  0.40677400  0.75388200  0.56207400  1
  O  O29  1  0.08696100  0.93992100  0.74547200  1
  O  O30  1  0.56207400  0.40677400  0.75388200  1
  O  O31  1  0.39088100  0.17882700  0.99409500  1
  O  O32  1  0.68093900  0.88859200  0.49999400  1
  O  O33  1  0.74547200  0.08696100  0.93992100  1
  O  O34  1  0.88859200  0.49999400  0.68093900  1
  O  O35  1  0.49999400  0.68093900  0.88859200  1
