# generated using pymatgen
data_KRbNa2
_symmetry_space_group_name_H-M   'P 1'
_cell_length_a   15.37339632
_cell_length_b   15.37339632
_cell_length_c   15.37339632
_cell_angle_alpha   120.35642516
_cell_angle_beta   118.99995157
_cell_angle_gamma   90.56227909
_symmetry_Int_Tables_number   1
_chemical_formula_structural   KRbNa2
_chemical_formula_sum   'K1 Rb1 Na2'
_cell_volume   2581.09521699
_cell_formula_units_Z   1
loop_
 _symmetry_equiv_pos_site_id
 _symmetry_equiv_pos_as_xyz
  1  'x, y, z'
loop_
 _atom_site_type_symbol
 _atom_site_label
 _atom_site_symmetry_multiplicity
 _atom_site_fract_x
 _atom_site_fract_y
 _atom_site_fract_z
 _atom_site_occupancy
  K  K0  1  0.00000000  0.00000000  0.00000000  1
  Rb  Rb1  1  0.50000000  0.00000000  0.50000000  1
  Na  Na2  1  0.24879700  0.00000000  0.24879700  1
  Na  Na3  1  0.75120300  0.00000000  0.75120300  1
