# generated using pymatgen
data_Mn2V3Ni(PO4)6
_symmetry_space_group_name_H-M   'P 1'
_cell_length_a   8.59442848
_cell_length_b   8.59442848
_cell_length_c   8.59442878
_cell_angle_alpha   60.21837130
_cell_angle_beta   60.21837130
_cell_angle_gamma   60.21836878
_symmetry_Int_Tables_number   1
_chemical_formula_structural   Mn2V3Ni(PO4)6
_chemical_formula_sum   'Mn2 V3 Ni1 P6 O24'
_cell_volume   451.10531779
_cell_formula_units_Z   1
loop_
 _symmetry_equiv_pos_site_id
 _symmetry_equiv_pos_as_xyz
  1  'x, y, z'
loop_
 _atom_site_type_symbol
 _atom_site_label
 _atom_site_symmetry_multiplicity
 _atom_site_fract_x
 _atom_site_fract_y
 _atom_site_fract_z
 _atom_site_occupancy
  Mn  Mn0  1  0.99632000  0.99632000  0.99632000  1
  Mn  Mn1  1  0.49931400  0.49931400  0.49931400  1
  V  V2  1  0.35520400  0.35520400  0.35520400  1
  V  V3  1  0.14286700  0.14286700  0.14286700  1
  V  V4  1  0.64547200  0.64547200  0.64547200  1
  Ni  Ni5  1  0.85669900  0.85669900  0.85669900  1
  P  P6  1  0.45924200  0.75184500  0.04300700  1
  P  P7  1  0.75184500  0.04300700  0.45924200  1
  P  P8  1  0.04300700  0.45924200  0.75184500  1
  P  P9  1  0.95845000  0.54076300  0.25137500  1
  P  P10  1  0.25137500  0.95845000  0.54076300  1
  P  P11  1  0.54076300  0.25137500  0.95845000  1
  O  O12  1  0.69450400  0.87845700  0.49547900  1
  O  O13  1  0.87845700  0.49547900  0.69450400  1
  O  O14  1  0.49547900  0.69450400  0.87845700  1
  O  O15  1  0.26099900  0.91489800  0.05932800  1
  O  O16  1  0.61398800  0.80422600  0.01652400  1
  O  O17  1  0.43126700  0.58477300  0.23753200  1
  O  O18  1  0.91489800  0.05932800  0.26099900  1
  O  O19  1  0.58477300  0.23753200  0.43126700  1
  O  O20  1  0.99668700  0.37755100  0.19323600  1
  O  O21  1  0.23753200  0.43126700  0.58477300  1
  O  O22  1  0.94788800  0.73186700  0.09242100  1
  O  O23  1  0.19323600  0.99668700  0.37755100  1
  O  O24  1  0.80422600  0.01652400  0.61398800  1
  O  O25  1  0.05932800  0.26099900  0.91489800  1
  O  O26  1  0.76527700  0.55270400  0.41969900  1
  O  O27  1  0.01652400  0.61398800  0.80422600  1
  O  O28  1  0.41969900  0.76527700  0.55270400  1
  O  O29  1  0.09242100  0.94788800  0.73186700  1
  O  O30  1  0.55270400  0.41969900  0.76527700  1
  O  O31  1  0.37755100  0.19323600  0.99668700  1
  O  O32  1  0.73186700  0.09242100  0.94788800  1
  O  O33  1  0.49276500  0.32028400  0.11711300  1
  O  O34  1  0.11711300  0.49276500  0.32028400  1
  O  O35  1  0.32028400  0.11711300  0.49276500  1
