# generated using pymatgen
data_Sn3P6WO24
_symmetry_space_group_name_H-M   'P 1'
_cell_length_a   9.00402331
_cell_length_b   9.00402331
_cell_length_c   9.00402325
_cell_angle_alpha   58.29107194
_cell_angle_beta   58.29107194
_cell_angle_gamma   58.29106604
_symmetry_Int_Tables_number   1
_chemical_formula_structural   Sn3P6WO24
_chemical_formula_sum   'Sn3 P6 W1 O24'
_cell_volume   495.97013011
_cell_formula_units_Z   1
loop_
 _symmetry_equiv_pos_site_id
 _symmetry_equiv_pos_as_xyz
  1  'x, y, z'
loop_
 _atom_site_type_symbol
 _atom_site_label
 _atom_site_symmetry_multiplicity
 _atom_site_fract_x
 _atom_site_fract_y
 _atom_site_fract_z
 _atom_site_occupancy
  Sn  Sn0  1  0.14324800  0.14324800  0.14324800  1
  Sn  Sn1  1  0.35850300  0.35850300  0.35850300  1
  Sn  Sn2  1  0.64323800  0.64323800  0.64323800  1
  P  P3  1  0.74973900  0.03732100  0.46190200  1
  P  P4  1  0.03732100  0.46190200  0.74973900  1
  P  P5  1  0.46190200  0.74973900  0.03732100  1
  P  P6  1  0.53525700  0.25250100  0.96240100  1
  P  P7  1  0.96240100  0.53525700  0.25250100  1
  P  P8  1  0.25250100  0.96240100  0.53525700  1
  W  W9  1  0.85735000  0.85735000  0.85735000  1
  O  O10  1  0.26885600  0.13143400  0.51956800  1
  O  O11  1  0.51956800  0.26885600  0.13143400  1
  O  O12  1  0.92061300  0.05985700  0.28938600  1
  O  O13  1  0.13143400  0.51956800  0.26885600  1
  O  O14  1  0.57885100  0.21446700  0.45040500  1
  O  O15  1  0.78538400  0.99560300  0.63793600  1
  O  O16  1  0.05985700  0.28938600  0.92061300  1
  O  O17  1  0.21446700  0.45040500  0.57885100  1
  O  O18  1  0.45040500  0.57885100  0.21446700  1
  O  O19  1  0.37313500  0.21925600  0.98784900  1
  O  O20  1  0.71483500  0.07300800  0.93167000  1
  O  O21  1  0.98784900  0.37313500  0.21925600  1
  O  O22  1  0.99560300  0.63793600  0.78538400  1
  O  O23  1  0.28938600  0.92061300  0.05985700  1
  O  O24  1  0.63793600  0.78538400  0.99560300  1
  O  O25  1  0.56797800  0.41467400  0.78203400  1
  O  O26  1  0.78203400  0.56797800  0.41467400  1
  O  O27  1  0.93167000  0.71483500  0.07300800  1
  O  O28  1  0.21925600  0.98784900  0.37313500  1
  O  O29  1  0.41467400  0.78203400  0.56797800  1
  O  O30  1  0.87048100  0.48932100  0.72193500  1
  O  O31  1  0.07300800  0.93167000  0.71483500  1
  O  O32  1  0.48932100  0.72193500  0.87048100  1
  O  O33  1  0.72193500  0.87048100  0.48932100  1
