# generated using pymatgen
data_V3Cu(PO4)6
_symmetry_space_group_name_H-M   'P 1'
_cell_length_a   8.71864103
_cell_length_b   8.71864103
_cell_length_c   8.71864116
_cell_angle_alpha   58.43525890
_cell_angle_beta   58.43525890
_cell_angle_gamma   58.43526208
_symmetry_Int_Tables_number   1
_chemical_formula_structural   V3Cu(PO4)6
_chemical_formula_sum   'V3 Cu1 P6 O24'
_cell_volume   451.85078127
_cell_formula_units_Z   1
loop_
 _symmetry_equiv_pos_site_id
 _symmetry_equiv_pos_as_xyz
  1  'x, y, z'
loop_
 _atom_site_type_symbol
 _atom_site_label
 _atom_site_symmetry_multiplicity
 _atom_site_fract_x
 _atom_site_fract_y
 _atom_site_fract_z
 _atom_site_occupancy
  V  V0  1  0.86056200  0.86056200  0.86056200  1
  V  V1  1  0.64109500  0.64109500  0.64109500  1
  V  V2  1  0.36173500  0.36173500  0.36173500  1
  Cu  Cu3  1  0.14351400  0.14351400  0.14351400  1
  P  P4  1  0.25019600  0.53050300  0.96864700  1
  P  P5  1  0.96864700  0.25019600  0.53050300  1
  P  P6  1  0.53050300  0.96864700  0.25019600  1
  P  P7  1  0.46570300  0.03192900  0.75410500  1
  P  P8  1  0.03192900  0.75410500  0.46570300  1
  P  P9  1  0.75410500  0.46570300  0.03192900  1
  O  O10  1  0.71151700  0.50397700  0.86139100  1
  O  O11  1  0.50397700  0.86139100  0.71151700  1
  O  O12  1  0.07293500  0.71667500  0.93881000  1
  O  O13  1  0.86139100  0.71151700  0.50397700  1
  O  O14  1  0.42351400  0.57268200  0.78364700  1
  O  O15  1  0.23359900  0.36216000  0.97657900  1
  O  O16  1  0.93881000  0.07293500  0.71667500  1
  O  O17  1  0.78364700  0.42351400  0.57268200  1
  O  O18  1  0.57268200  0.78364700  0.42351400  1
  O  O19  1  0.64346200  0.00521100  0.77706600  1
  O  O20  1  0.28203900  0.05222300  0.92302800  1
  O  O21  1  0.00521100  0.77706600  0.64346200  1
  O  O22  1  0.97657900  0.23359900  0.36216000  1
  O  O23  1  0.71667500  0.93881000  0.07293500  1
  O  O24  1  0.36216000  0.97657900  0.23359900  1
  O  O25  1  0.44348700  0.21405700  0.56988500  1
  O  O26  1  0.21405700  0.56988500  0.44348700  1
  O  O27  1  0.05222300  0.92302800  0.28203900  1
  O  O28  1  0.77706600  0.64346200  0.00521100  1
  O  O29  1  0.56988500  0.44348700  0.21405700  1
  O  O30  1  0.14326800  0.27635900  0.50444100  1
  O  O31  1  0.92302800  0.28203900  0.05222300  1
  O  O32  1  0.50444100  0.14326800  0.27635900  1
  O  O33  1  0.27635900  0.50444100  0.14326800  1
