# generated using pymatgen
data_TlInPb2
_symmetry_space_group_name_H-M   'P 1'
_cell_length_a   13.14634144
_cell_length_b   13.14634144
_cell_length_c   13.14634144
_cell_angle_alpha   128.79962097
_cell_angle_beta   121.36411170
_cell_angle_gamma   81.54262776
_symmetry_Int_Tables_number   1
_chemical_formula_structural   TlInPb2
_chemical_formula_sum   'Tl1 In1 Pb2'
_cell_volume   1456.19309636
_cell_formula_units_Z   1
loop_
 _symmetry_equiv_pos_site_id
 _symmetry_equiv_pos_as_xyz
  1  'x, y, z'
loop_
 _atom_site_type_symbol
 _atom_site_label
 _atom_site_symmetry_multiplicity
 _atom_site_fract_x
 _atom_site_fract_y
 _atom_site_fract_z
 _atom_site_occupancy
  Tl  Tl0  1  0.00000000  0.50000000  0.50000000  1
  In  In1  1  0.00000000  0.00000000  0.00000000  1
  Pb  Pb2  1  0.00000000  0.24284100  0.24284100  1
  Pb  Pb3  1  0.00000000  0.75715900  0.75715900  1
