# generated using pymatgen
data_Zr2CoRu
_symmetry_space_group_name_H-M   'P 1'
_cell_length_a   12.46180899
_cell_length_b   12.46180899
_cell_length_c   12.46180899
_cell_angle_alpha   138.67308698
_cell_angle_beta   115.23863835
_cell_angle_gamma   79.78494075
_symmetry_Int_Tables_number   1
_chemical_formula_structural   Zr2CoRu
_chemical_formula_sum   'Zr2 Co1 Ru1'
_cell_volume   1122.42723380
_cell_formula_units_Z   1
loop_
 _symmetry_equiv_pos_site_id
 _symmetry_equiv_pos_as_xyz
  1  'x, y, z'
loop_
 _atom_site_type_symbol
 _atom_site_label
 _atom_site_symmetry_multiplicity
 _atom_site_fract_x
 _atom_site_fract_y
 _atom_site_fract_z
 _atom_site_occupancy
  Zr  Zr0  1  0.00000000  0.24480700  0.24480700  1
  Zr  Zr1  1  0.00000000  0.75519300  0.75519300  1
  Co  Co2  1  0.00000000  0.00000000  0.00000000  1
  Ru  Ru3  1  0.00000000  0.50000000  0.50000000  1
