# generated using pymatgen
data_Ti2(PO4)3
_symmetry_space_group_name_H-M   'P 1'
_cell_length_a   8.67705772
_cell_length_b   8.67705772
_cell_length_c   8.67705705
_cell_angle_alpha   60.27150759
_cell_angle_beta   60.27150759
_cell_angle_gamma   60.27150336
_symmetry_Int_Tables_number   1
_chemical_formula_structural   Ti2(PO4)3
_chemical_formula_sum   'Ti4 P6 O24'
_cell_volume   464.79670876
_cell_formula_units_Z   2
loop_
 _symmetry_equiv_pos_site_id
 _symmetry_equiv_pos_as_xyz
  1  'x, y, z'
loop_
 _atom_site_type_symbol
 _atom_site_label
 _atom_site_symmetry_multiplicity
 _atom_site_fract_x
 _atom_site_fract_y
 _atom_site_fract_z
 _atom_site_occupancy
  Ti  Ti0  1  0.36370700  0.36370700  0.36370700  1
  Ti  Ti1  1  0.63629300  0.63629300  0.63629300  1
  Ti  Ti2  1  0.86370700  0.86370700  0.86370700  1
  Ti  Ti3  1  0.13629300  0.13629300  0.13629300  1
  P  P4  1  0.75000000  0.03323000  0.46677000  1
  P  P5  1  0.96677000  0.53323000  0.25000000  1
  P  P6  1  0.53323000  0.25000000  0.96677000  1
  P  P7  1  0.46677000  0.75000000  0.03323000  1
  P  P8  1  0.03323000  0.46677000  0.75000000  1
  P  P9  1  0.25000000  0.96677000  0.53323000  1
  O  O10  1  0.91711000  0.05751100  0.28191400  1
  O  O11  1  0.71808600  0.08289000  0.94248900  1
  O  O12  1  0.99825200  0.63316700  0.79629300  1
  O  O13  1  0.86683300  0.50174800  0.70370700  1
  O  O14  1  0.58289000  0.21808600  0.44248900  1
  O  O15  1  0.78191400  0.55751100  0.41711000  1
  O  O16  1  0.94248900  0.71808600  0.08289000  1
  O  O17  1  0.20370700  0.00174800  0.36683300  1
  O  O18  1  0.49825200  0.29629300  0.13316700  1
  O  O19  1  0.29629300  0.13316700  0.49825200  1
  O  O20  1  0.36683300  0.20370700  0.00174800  1
  O  O21  1  0.55751100  0.41711000  0.78191400  1
  O  O22  1  0.44248900  0.58289000  0.21808600  1
  O  O23  1  0.63316700  0.79629300  0.99825200  1
  O  O24  1  0.70370700  0.86683300  0.50174800  1
  O  O25  1  0.79629300  0.99825200  0.63316700  1
  O  O26  1  0.50174800  0.70370700  0.86683300  1
  O  O27  1  0.05751100  0.28191400  0.91711000  1
  O  O28  1  0.21808600  0.44248900  0.58289000  1
  O  O29  1  0.41711000  0.78191400  0.55751100  1
  O  O30  1  0.13316700  0.49825200  0.29629300  1
  O  O31  1  0.00174800  0.36683300  0.20370700  1
  O  O32  1  0.28191400  0.91711000  0.05751100  1
  O  O33  1  0.08289000  0.94248900  0.71808600  1
