# generated using pymatgen
data_Y2CuPt
_symmetry_space_group_name_H-M   'P 1'
_cell_length_a   11.39395384
_cell_length_b   11.39395384
_cell_length_c   11.39395384
_cell_angle_alpha   125.35237907
_cell_angle_beta   118.05038757
_cell_angle_gamma   87.19990899
_symmetry_Int_Tables_number   1
_chemical_formula_structural   Y2CuPt
_chemical_formula_sum   'Y2 Cu1 Pt1'
_cell_volume   1012.22523854
_cell_formula_units_Z   1
loop_
 _symmetry_equiv_pos_site_id
 _symmetry_equiv_pos_as_xyz
  1  'x, y, z'
loop_
 _atom_site_type_symbol
 _atom_site_label
 _atom_site_symmetry_multiplicity
 _atom_site_fract_x
 _atom_site_fract_y
 _atom_site_fract_z
 _atom_site_occupancy
  Y  Y0  1  0.00000000  0.26189900  0.26189900  1
  Y  Y1  1  0.00000000  0.73810100  0.73810100  1
  Cu  Cu2  1  0.00000000  0.00000000  0.00000000  1
  Pt  Pt3  1  0.00000000  0.50000000  0.50000000  1
