# generated using pymatgen
data_Li2TiV3O8
_symmetry_space_group_name_H-M   'P 1'
_cell_length_a   8.35635057
_cell_length_b   8.35124814
_cell_length_c   8.35860053
_cell_angle_alpha   90.01189528
_cell_angle_beta   89.96113630
_cell_angle_gamma   89.98312971
_symmetry_Int_Tables_number   1
_chemical_formula_structural   Li2TiV3O8
_chemical_formula_sum   'Li8 Ti4 V12 O32'
_cell_volume   583.31276587
_cell_formula_units_Z   4
loop_
 _symmetry_equiv_pos_site_id
 _symmetry_equiv_pos_as_xyz
  1  'x, y, z'
loop_
 _atom_site_type_symbol
 _atom_site_label
 _atom_site_symmetry_multiplicity
 _atom_site_fract_x
 _atom_site_fract_y
 _atom_site_fract_z
 _atom_site_occupancy
  Li  Li0  1  0.99911000  0.00034600  0.00087900  1
  Li  Li1  1  0.24586700  0.24873900  0.24712100  1
  Li  Li2  1  0.25413300  0.75149100  0.74712800  1
  Li  Li3  1  0.50094200  0.99946000  0.50090000  1
  Li  Li4  1  0.49902800  0.49960700  0.99940100  1
  Li  Li5  1  0.74592400  0.25144800  0.75277000  1
  Li  Li6  1  0.75394200  0.74868600  0.25275000  1
  Li  Li7  1  0.00105000  0.50035500  0.49928000  1
  Ti  Ti8  1  0.12895300  0.87044500  0.37111300  1
  Ti  Ti9  1  0.37095200  0.12947300  0.87096700  1
  Ti  Ti10  1  0.62907800  0.62948200  0.62897800  1
  Ti  Ti11  1  0.87100600  0.37050200  0.12901400  1
  V  V12  1  0.11766500  0.12525300  0.62104100  1
  V  V13  1  0.12033200  0.38170000  0.87376900  1
  V  V14  1  0.12556400  0.62076300  0.11680300  1
  V  V15  1  0.37451100  0.37927900  0.61693400  1
  V  V16  1  0.37974800  0.61837800  0.37367900  1
  V  V17  1  0.38236700  0.87468100  0.12105800  1
  V  V18  1  0.61759900  0.37473300  0.37891900  1
  V  V19  1  0.62015200  0.11824700  0.12627900  1
  V  V20  1  0.62562100  0.87925900  0.88313700  1
  V  V21  1  0.87431200  0.12065800  0.38311100  1
  V  V22  1  0.87977300  0.88168500  0.62627300  1
  V  V23  1  0.88232400  0.62535700  0.87894000  1
  O  O24  1  0.11271700  0.11227100  0.38552700  1
  O  O25  1  0.11510200  0.88678800  0.61278400  1
  O  O26  1  0.11952600  0.61906600  0.88018700  1
  O  O27  1  0.13624900  0.13892400  0.86310900  1
  O  O28  1  0.11197400  0.38527500  0.11164500  1
  O  O29  1  0.13693400  0.36321600  0.63647000  1
  O  O30  1  0.13736400  0.63642900  0.35968800  1
  O  O31  1  0.13939100  0.86286800  0.13635200  1
  O  O32  1  0.36071800  0.13710400  0.63639400  1
  O  O33  1  0.36264100  0.36351600  0.85973400  1
  O  O34  1  0.36313400  0.63672400  0.13642900  1
  O  O35  1  0.38807300  0.61480800  0.61170900  1
  O  O36  1  0.36376900  0.86106300  0.36304300  1
  O  O37  1  0.38058700  0.38096500  0.38020400  1
  O  O38  1  0.38481200  0.11322900  0.11283500  1
  O  O39  1  0.38726100  0.88765000  0.88551700  1
  O  O40  1  0.61283100  0.38768100  0.61440900  1
  O  O41  1  0.61517600  0.61314400  0.38712400  1
  O  O42  1  0.61927600  0.88092900  0.11980300  1
  O  O43  1  0.63615100  0.36108200  0.13700800  1
  O  O44  1  0.61209600  0.11473300  0.88828900  1
  O  O45  1  0.63669600  0.13687600  0.36352600  1
  O  O46  1  0.63757400  0.86365000  0.64027900  1
  O  O47  1  0.63924500  0.63725000  0.86354900  1
  O  O48  1  0.86067200  0.36280700  0.36360000  1
  O  O49  1  0.86239100  0.13638600  0.14018500  1
  O  O50  1  0.86317600  0.86319600  0.86363100  1
  O  O51  1  0.88794100  0.88525100  0.38832400  1
  O  O52  1  0.86384100  0.63896500  0.63694500  1
  O  O53  1  0.88061400  0.11904900  0.61989300  1
  O  O54  1  0.88495900  0.38687800  0.88719700  1
  O  O55  1  0.88715400  0.61234000  0.11450900  1
