# generated using pymatgen
data_V3Fe3(TeO8)2
_symmetry_space_group_name_H-M   'P 1'
_cell_length_a   5.96007000
_cell_length_b   5.99678027
_cell_length_c   10.49733289
_cell_angle_alpha   89.45471317
_cell_angle_beta   89.41145615
_cell_angle_gamma   60.54697209
_symmetry_Int_Tables_number   1
_chemical_formula_structural   V3Fe3(TeO8)2
_chemical_formula_sum   'V3 Fe3 Te2 O16'
_cell_volume   326.67647676
_cell_formula_units_Z   1
loop_
 _symmetry_equiv_pos_site_id
 _symmetry_equiv_pos_as_xyz
  1  'x, y, z'
loop_
 _atom_site_type_symbol
 _atom_site_label
 _atom_site_symmetry_multiplicity
 _atom_site_fract_x
 _atom_site_fract_y
 _atom_site_fract_z
 _atom_site_occupancy
  V  V0  1  0.81682500  0.35733000  0.75652300  1
  V  V1  1  0.11682200  0.21011500  0.30388100  1
  V  V2  1  0.64505900  0.15455000  0.26642700  1
  Fe  Fe3  1  0.33286500  0.83825200  0.78679500  1
  Fe  Fe4  1  0.82657300  0.83517000  0.78651700  1
  Fe  Fe5  1  0.18188300  0.66338400  0.30069500  1
  Te  Te6  1  0.64028300  0.72469000  0.50674900  1
  Te  Te7  1  0.32971100  0.33419000  0.97708200  1
  O  O8  1  0.33126800  0.85557600  0.39656300  1
  O  O9  1  0.52030500  0.95796600  0.65864200  1
  O  O10  1  0.67579600  0.63914900  0.87334500  1
  O  O11  1  0.99137800  0.01652300  0.70278900  1
  O  O12  1  0.00217000  0.00966100  0.20977200  1
  O  O13  1  0.82364400  0.85871600  0.40005000  1
  O  O14  1  0.53260500  0.49217800  0.67035400  1
  O  O15  1  0.96694700  0.49820200  0.66935800  1
  O  O16  1  0.16854800  0.65590400  0.88031100  1
  O  O17  1  0.85949200  0.31255500  0.40294600  1
  O  O18  1  0.02992400  0.47359700  0.20420700  1
  O  O19  1  0.50955600  0.45972100  0.19712800  1
  O  O20  1  0.35326800  0.29657900  0.38574800  1
  O  O21  1  0.17227400  0.16784400  0.88857500  1
  O  O22  1  0.51736600  0.02071300  0.17182000  1
  O  O23  1  0.65524000  0.16743300  0.88800500  1
