# generated using pymatgen
data_Na2NiPCO7
_symmetry_space_group_name_H-M   'P 1'
_cell_length_a   5.17586700
_cell_length_b   10.98620183
_cell_length_c   11.10304925
_cell_angle_alpha   73.43428192
_cell_angle_beta   88.97569568
_cell_angle_gamma   88.82380048
_symmetry_Int_Tables_number   1
_chemical_formula_structural   Na2NiPCO7
_chemical_formula_sum   'Na8 Ni4 P4 C4 O28'
_cell_volume   604.97348543
_cell_formula_units_Z   4
loop_
 _symmetry_equiv_pos_site_id
 _symmetry_equiv_pos_as_xyz
  1  'x, y, z'
loop_
 _atom_site_type_symbol
 _atom_site_label
 _atom_site_symmetry_multiplicity
 _atom_site_fract_x
 _atom_site_fract_y
 _atom_site_fract_z
 _atom_site_occupancy
  Na  Na0  1  0.24995100  0.89946400  0.87230000  1
  Na  Na1  1  0.75004900  0.10053600  0.12770000  1
  Na  Na2  1  0.75415700  0.37954100  0.86444000  1
  Na  Na3  1  0.21996900  0.06351900  0.34869900  1
  Na  Na4  1  0.78003100  0.93648100  0.65130100  1
  Na  Na5  1  0.24776100  0.38442500  0.37660000  1
  Na  Na6  1  0.24584300  0.62045900  0.13556000  1
  Na  Na7  1  0.75223900  0.61557500  0.62340000  1
  Ni  Ni8  1  0.77801000  0.79668400  0.04716900  1
  Ni  Ni9  1  0.22199000  0.20331600  0.95283100  1
  Ni  Ni10  1  0.78216200  0.29499500  0.55013900  1
  Ni  Ni11  1  0.21783800  0.70500500  0.44986100  1
  P  P12  1  0.71668400  0.08809000  0.83638600  1
  P  P13  1  0.28331600  0.91191000  0.16361400  1
  P  P14  1  0.72442100  0.58568800  0.33532500  1
  P  P15  1  0.27557900  0.41431200  0.66467500  1
  C  C16  1  0.28548500  0.83504600  0.59611100  1
  C  C17  1  0.28658700  0.33875900  0.08864100  1
  C  C18  1  0.71341300  0.66124100  0.91135900  1
  C  C19  1  0.71451500  0.16495400  0.40388900  1
  O  O20  1  0.78397200  0.94338400  0.87477100  1
  O  O21  1  0.13371000  0.83976300  0.08632500  1
  O  O22  1  0.42350900  0.10388500  0.86604500  1
  O  O23  1  0.57649100  0.89611500  0.13395500  1
  O  O24  1  0.86629000  0.16023700  0.91367500  1
  O  O25  1  0.20168300  0.36996400  0.80533700  1
  O  O26  1  0.22620700  0.86653600  0.30546200  1
  O  O27  1  0.21602800  0.05661600  0.12522900  1
  O  O28  1  0.47840300  0.28975800  0.03795300  1
  O  O29  1  0.47351100  0.78720200  0.54296400  1
  O  O30  1  0.05426600  0.81403700  0.56353700  1
  O  O31  1  0.06104500  0.30739200  0.05649600  1
  O  O32  1  0.67153800  0.09826900  0.33057100  1
  O  O33  1  0.68497800  0.59432700  0.83897400  1
  O  O34  1  0.32846200  0.90173100  0.66942900  1
  O  O35  1  0.31502200  0.40567300  0.16102600  1
  O  O36  1  0.93895500  0.69260800  0.94350400  1
  O  O37  1  0.94573400  0.18596300  0.43646300  1
  O  O38  1  0.52648900  0.21279800  0.45703600  1
  O  O39  1  0.52159700  0.71024200  0.96204700  1
  O  O40  1  0.77379300  0.13346400  0.69453800  1
  O  O41  1  0.79831700  0.63003600  0.19466300  1
  O  O42  1  0.79536900  0.44204700  0.38198000  1
  O  O43  1  0.13546700  0.33934700  0.58743600  1
  O  O44  1  0.42709600  0.60316900  0.35328900  1
  O  O45  1  0.57290400  0.39683100  0.64671100  1
  O  O46  1  0.86453300  0.66065300  0.41256400  1
  O  O47  1  0.20463100  0.55795300  0.61802000  1
