# generated using pymatgen
data_NaHg2Au
_symmetry_space_group_name_H-M   'P 1'
_cell_length_a   11.93272542
_cell_length_b   11.93272542
_cell_length_c   11.93272542
_cell_angle_alpha   122.79915235
_cell_angle_beta   118.95096473
_cell_angle_gamma   88.52408690
_symmetry_Int_Tables_number   1
_chemical_formula_structural   NaHg2Au
_chemical_formula_sum   'Na1 Hg2 Au1'
_cell_volume   1183.40190274
_cell_formula_units_Z   1
loop_
 _symmetry_equiv_pos_site_id
 _symmetry_equiv_pos_as_xyz
  1  'x, y, z'
loop_
 _atom_site_type_symbol
 _atom_site_label
 _atom_site_symmetry_multiplicity
 _atom_site_fract_x
 _atom_site_fract_y
 _atom_site_fract_z
 _atom_site_occupancy
  Na  Na0  1  0.00000000  0.00000000  0.00000000  1
  Hg  Hg1  1  0.00000000  0.25809200  0.25809200  1
  Hg  Hg2  1  0.00000000  0.74190800  0.74190800  1
  Au  Au3  1  0.00000000  0.50000000  0.50000000  1
