# generated using pymatgen
data_NaMnPCO7
_symmetry_space_group_name_H-M   'P 1'
_cell_length_a   6.24815300
_cell_length_b   5.24620400
_cell_length_c   18.36314849
_cell_angle_alpha   87.52387383
_cell_angle_beta   90.00000000
_cell_angle_gamma   90.00000000
_symmetry_Int_Tables_number   1
_chemical_formula_structural   NaMnPCO7
_chemical_formula_sum   'Na4 Mn4 P4 C4 O28'
_cell_volume   601.36519654
_cell_formula_units_Z   4
loop_
 _symmetry_equiv_pos_site_id
 _symmetry_equiv_pos_as_xyz
  1  'x, y, z'
loop_
 _atom_site_type_symbol
 _atom_site_label
 _atom_site_symmetry_multiplicity
 _atom_site_fract_x
 _atom_site_fract_y
 _atom_site_fract_z
 _atom_site_occupancy
  Na  Na0  1  0.97204700  0.75866200  0.88065700  1
  Na  Na1  1  0.47204700  0.24133800  0.61934300  1
  Na  Na2  1  0.52795300  0.75866200  0.38065700  1
  Na  Na3  1  0.02795300  0.24133800  0.11934300  1
  Mn  Mn4  1  0.26669300  0.21698200  0.82767200  1
  Mn  Mn5  1  0.76669300  0.78301800  0.67232800  1
  Mn  Mn6  1  0.23330700  0.21698200  0.32767200  1
  Mn  Mn7  1  0.73330700  0.78301800  0.17232800  1
  P  P8  1  0.76019600  0.27753900  0.78257600  1
  P  P9  1  0.26019600  0.72246100  0.71742400  1
  P  P10  1  0.73980400  0.27753900  0.28257600  1
  P  P11  1  0.23980400  0.72246100  0.21742400  1
  C  C12  1  0.25457700  0.27400900  0.95786900  1
  C  C13  1  0.75457700  0.72599100  0.54213100  1
  C  C14  1  0.24542300  0.27400900  0.45786900  1
  C  C15  1  0.74542300  0.72599100  0.04213100  1
  O  O16  1  0.75196600  0.69379900  0.97640900  1
  O  O17  1  0.25790600  0.05088600  0.92715700  1
  O  O18  1  0.25761100  0.46145600  0.90660300  1
  O  O19  1  0.95406400  0.20815500  0.83269900  1
  O  O20  1  0.56966000  0.21431300  0.83381200  1
  O  O21  1  0.76764200  0.56776700  0.76165200  1
  O  O22  1  0.25290500  0.87428900  0.78695900  1
  O  O23  1  0.75290500  0.12571100  0.71304100  1
  O  O24  1  0.26764200  0.43223300  0.73834800  1
  O  O25  1  0.45406400  0.79184500  0.66730100  1
  O  O26  1  0.06966000  0.78568700  0.66618800  1
  O  O27  1  0.75761100  0.53854400  0.59339700  1
  O  O28  1  0.75790600  0.94911400  0.57284300  1
  O  O29  1  0.25196600  0.30620100  0.52359100  1
  O  O30  1  0.74803400  0.69379900  0.47640900  1
  O  O31  1  0.24209400  0.05088600  0.42715700  1
  O  O32  1  0.24238900  0.46145600  0.40660300  1
  O  O33  1  0.93034000  0.21431300  0.33381200  1
  O  O34  1  0.54593600  0.20815500  0.33269900  1
  O  O35  1  0.73235800  0.56776700  0.26165200  1
  O  O36  1  0.24709500  0.87428900  0.28695900  1
  O  O37  1  0.74709500  0.12571100  0.21304100  1
  O  O38  1  0.23235800  0.43223300  0.23834800  1
  O  O39  1  0.43034000  0.78568700  0.16618800  1
  O  O40  1  0.04593600  0.79184500  0.16730100  1
  O  O41  1  0.74238900  0.53854400  0.09339700  1
  O  O42  1  0.74209400  0.94911400  0.07284300  1
  O  O43  1  0.24803400  0.30620100  0.02359100  1
