# generated using pymatgen
data_Na3Ni2P2(CO7)2
_symmetry_space_group_name_H-M   'P 1'
_cell_length_a   6.48676000
_cell_length_b   8.91187800
_cell_length_c   10.26454828
_cell_angle_alpha   88.39276306
_cell_angle_beta   90.00000000
_cell_angle_gamma   90.00000000
_symmetry_Int_Tables_number   1
_chemical_formula_structural   Na3Ni2P2(CO7)2
_chemical_formula_sum   'Na6 Ni4 P4 C4 O28'
_cell_volume   593.15201562
_cell_formula_units_Z   2
loop_
 _symmetry_equiv_pos_site_id
 _symmetry_equiv_pos_as_xyz
  1  'x, y, z'
loop_
 _atom_site_type_symbol
 _atom_site_label
 _atom_site_symmetry_multiplicity
 _atom_site_fract_x
 _atom_site_fract_y
 _atom_site_fract_z
 _atom_site_occupancy
  Na  Na0  1  0.21605700  0.74650700  0.87703200  1
  Na  Na1  1  0.78394300  0.74650700  0.37703200  1
  Na  Na2  1  0.73637800  0.25049300  0.62009600  1
  Na  Na3  1  0.26401500  0.24865900  0.62204800  1
  Na  Na4  1  0.73598500  0.24865900  0.12204800  1
  Na  Na5  1  0.26362200  0.25049300  0.12009600  1
  Ni  Ni6  1  0.49951800  0.65600600  0.60769600  1
  Ni  Ni7  1  0.50048200  0.65600600  0.10769600  1
  Ni  Ni8  1  0.99809600  0.34872500  0.89097600  1
  Ni  Ni9  1  0.00190400  0.34872500  0.39097600  1
  P  P10  1  0.00135300  0.57647300  0.64183000  1
  P  P11  1  0.99864700  0.57647300  0.14183000  1
  P  P12  1  0.49863200  0.42818400  0.85898200  1
  P  P13  1  0.50136800  0.42818400  0.35898200  1
  C  C14  1  0.50344500  0.92564900  0.64435600  1
  C  C15  1  0.49655500  0.92564900  0.14435600  1
  C  C16  1  0.99772000  0.07763100  0.85836600  1
  C  C17  1  0.00228000  0.07763100  0.35836600  1
  O  O18  1  0.99903100  0.93999000  0.83952500  1
  O  O19  1  0.00096900  0.93999000  0.33952500  1
  O  O20  1  0.51012400  0.86801600  0.52973300  1
  O  O21  1  0.48987600  0.86801600  0.02973300  1
  O  O22  1  0.49704400  0.82395700  0.73790800  1
  O  O23  1  0.50295600  0.82395700  0.23790800  1
  O  O24  1  0.18908600  0.67746800  0.61099700  1
  O  O25  1  0.81375700  0.67282200  0.60113700  1
  O  O26  1  0.18624300  0.67282200  0.10113700  1
  O  O27  1  0.81091400  0.67746800  0.11099700  1
  O  O28  1  0.49143900  0.57702200  0.93023500  1
  O  O29  1  0.50856100  0.57702200  0.43023500  1
  O  O30  1  0.00323900  0.53650400  0.79062600  1
  O  O31  1  0.99676100  0.53650400  0.29062600  1
  O  O32  1  0.49928700  0.46027000  0.70802600  1
  O  O33  1  0.50071300  0.46027000  0.20802600  1
  O  O34  1  0.00404200  0.42528000  0.57030100  1
  O  O35  1  0.99595800  0.42528000  0.07030100  1
  O  O36  1  0.68645800  0.32893300  0.89695900  1
  O  O37  1  0.31187000  0.32568800  0.89475800  1
  O  O38  1  0.68813000  0.32568800  0.39475800  1
  O  O39  1  0.31354200  0.32893300  0.39695900  1
  O  O40  1  0.99681600  0.17872500  0.76274900  1
  O  O41  1  0.00318400  0.17872500  0.26274900  1
  O  O42  1  0.99793500  0.13678300  0.97314800  1
  O  O43  1  0.00206500  0.13678300  0.47314800  1
  O  O44  1  0.50193800  0.06492900  0.66302300  1
  O  O45  1  0.49806200  0.06492900  0.16302300  1
