# generated using pymatgen
data_Na2MnO2
_symmetry_space_group_name_H-M   'P 1'
_cell_length_a   5.47800100
_cell_length_b   8.74701900
_cell_length_c   15.42969992
_cell_angle_alpha   56.29377340
_cell_angle_beta   90.00000000
_cell_angle_gamma   90.00000000
_symmetry_Int_Tables_number   1
_chemical_formula_structural   Na2MnO2
_chemical_formula_sum   'Na16 Mn8 O16'
_cell_volume   615.04593818
_cell_formula_units_Z   8
loop_
 _symmetry_equiv_pos_site_id
 _symmetry_equiv_pos_as_xyz
  1  'x, y, z'
loop_
 _atom_site_type_symbol
 _atom_site_label
 _atom_site_symmetry_multiplicity
 _atom_site_fract_x
 _atom_site_fract_y
 _atom_site_fract_z
 _atom_site_occupancy
  Na  Na0  1  0.99102500  0.64323000  0.73602200  1
  Na  Na1  1  0.42841300  0.60041200  0.86492500  1
  Na  Na2  1  0.91027400  0.86460000  0.45655700  1
  Na  Na3  1  0.99252000  0.09131000  0.19308300  1
  Na  Na4  1  0.49252000  0.90869000  0.30691700  1
  Na  Na5  1  0.41027400  0.13540000  0.04344300  1
  Na  Na6  1  0.92841300  0.39958800  0.63507500  1
  Na  Na7  1  0.49102500  0.35677000  0.76397800  1
  Na  Na8  1  0.50897500  0.64323000  0.23602200  1
  Na  Na9  1  0.07158700  0.60041200  0.36492500  1
  Na  Na10  1  0.58972600  0.86460000  0.95655700  1
  Na  Na11  1  0.50748000  0.09131000  0.69308300  1
  Na  Na12  1  0.00748000  0.90869000  0.80691700  1
  Na  Na13  1  0.08972600  0.13540000  0.54344300  1
  Na  Na14  1  0.57158700  0.39958800  0.13507500  1
  Na  Na15  1  0.00897500  0.35677000  0.26397800  1
  Mn  Mn16  1  0.49520700  0.85085500  0.61167900  1
  Mn  Mn17  1  0.95606300  0.37413300  0.97089300  1
  Mn  Mn18  1  0.45606300  0.62586700  0.52910700  1
  Mn  Mn19  1  0.99520700  0.14914500  0.88832100  1
  Mn  Mn20  1  0.00479300  0.85085500  0.11167900  1
  Mn  Mn21  1  0.54393700  0.37413300  0.47089300  1
  Mn  Mn22  1  0.04393700  0.62586700  0.02910700  1
  Mn  Mn23  1  0.50479300  0.14914500  0.38832100  1
  O  O24  1  0.19269300  0.37463900  0.08073100  1
  O  O25  1  0.73519600  0.13587300  0.29215100  1
  O  O26  1  0.32614400  0.88910900  0.46986200  1
  O  O27  1  0.69851100  0.63251600  0.63330000  1
  O  O28  1  0.19851100  0.36748400  0.86670000  1
  O  O29  1  0.82614400  0.11089100  0.03013800  1
  O  O30  1  0.30730700  0.37463900  0.58073100  1
  O  O31  1  0.23519600  0.86412700  0.20784900  1
  O  O32  1  0.76480400  0.13587300  0.79215100  1
  O  O33  1  0.69269300  0.62536100  0.41926900  1
  O  O34  1  0.17385600  0.88910900  0.96986200  1
  O  O35  1  0.80148900  0.63251600  0.13330000  1
  O  O36  1  0.30148900  0.36748400  0.36670000  1
  O  O37  1  0.67385600  0.11089100  0.53013800  1
  O  O38  1  0.26480400  0.86412700  0.70784900  1
  O  O39  1  0.80730700  0.62536100  0.91926900  1
