# generated using pymatgen
data_Ba2ZnAg
_symmetry_space_group_name_H-M   'P 1'
_cell_length_a   13.36206988
_cell_length_b   13.36206988
_cell_length_c   13.36206988
_cell_angle_alpha   121.15066041
_cell_angle_beta   118.63745891
_cell_angle_gamma   90.19732735
_symmetry_Int_Tables_number   1
_chemical_formula_structural   Ba2ZnAg
_chemical_formula_sum   'Ba2 Zn1 Ag1'
_cell_volume   1688.64429188
_cell_formula_units_Z   1
loop_
 _symmetry_equiv_pos_site_id
 _symmetry_equiv_pos_as_xyz
  1  'x, y, z'
loop_
 _atom_site_type_symbol
 _atom_site_label
 _atom_site_symmetry_multiplicity
 _atom_site_fract_x
 _atom_site_fract_y
 _atom_site_fract_z
 _atom_site_occupancy
  Ba  Ba0  1  0.74200700  0.00000000  0.74200700  1
  Ba  Ba1  1  0.25799300  0.00000000  0.25799300  1
  Zn  Zn2  1  0.00000000  0.00000000  0.00000000  1
  Ag  Ag3  1  0.50000000  0.00000000  0.50000000  1
