# generated using pymatgen
data_Li2Mn3CrO8
_symmetry_space_group_name_H-M   'P 1'
_cell_length_a   8.25171923
_cell_length_b   8.23568148
_cell_length_c   8.24037006
_cell_angle_alpha   89.98713321
_cell_angle_beta   89.99955745
_cell_angle_gamma   89.91387059
_symmetry_Int_Tables_number   1
_chemical_formula_structural   Li2Mn3CrO8
_chemical_formula_sum   'Li8 Mn12 Cr4 O32'
_cell_volume   560.00279884
_cell_formula_units_Z   4
loop_
 _symmetry_equiv_pos_site_id
 _symmetry_equiv_pos_as_xyz
  1  'x, y, z'
loop_
 _atom_site_type_symbol
 _atom_site_label
 _atom_site_symmetry_multiplicity
 _atom_site_fract_x
 _atom_site_fract_y
 _atom_site_fract_z
 _atom_site_occupancy
  Li  Li0  1  0.00185800  0.00244900  0.99924900  1
  Li  Li1  1  0.24834500  0.25093100  0.24781000  1
  Li  Li2  1  0.25190900  0.74961600  0.74729700  1
  Li  Li3  1  0.49792100  0.99691800  0.50003600  1
  Li  Li4  1  0.50167500  0.49751600  0.00032000  1
  Li  Li5  1  0.74848900  0.24960700  0.75232500  1
  Li  Li6  1  0.75192200  0.75014100  0.25278900  1
  Li  Li7  1  0.99791800  0.50267500  0.50021400  1
  Mn  Mn8  1  0.12381200  0.12945100  0.62370600  1
  Mn  Mn9  1  0.12479800  0.37911000  0.87062700  1
  Mn  Mn10  1  0.12606100  0.62602900  0.12062000  1
  Mn  Mn11  1  0.37390800  0.37413200  0.62066000  1
  Mn  Mn12  1  0.37517800  0.62093800  0.37066400  1
  Mn  Mn13  1  0.37629400  0.87068300  0.12391500  1
  Mn  Mn14  1  0.62385700  0.37047300  0.37625800  1
  Mn  Mn15  1  0.62474200  0.12094300  0.12943400  1
  Mn  Mn16  1  0.62627700  0.87396900  0.87933000  1
  Mn  Mn17  1  0.87349500  0.12580600  0.37935600  1
  Mn  Mn18  1  0.87528100  0.87910500  0.62933800  1
  Mn  Mn19  1  0.87624600  0.62936500  0.87608500  1
  Cr  Cr20  1  0.12496000  0.87581100  0.37410600  1
  Cr  Cr21  1  0.37502700  0.12436300  0.87416600  1
  Cr  Cr22  1  0.62533000  0.62422100  0.62593700  1
  Cr  Cr23  1  0.87461600  0.37571500  0.12594300  1
  O  O24  1  0.10916200  0.11656500  0.38892100  1
  O  O25  1  0.11078700  0.89319200  0.61438200  1
  O  O26  1  0.11175300  0.61494900  0.88485900  1
  O  O27  1  0.13524900  0.14335700  0.85823900  1
  O  O28  1  0.11454100  0.39128900  0.10633900  1
  O  O29  1  0.13826000  0.36525800  0.63496000  1
  O  O30  1  0.13949400  0.63555100  0.35668100  1
  O  O31  1  0.14074700  0.86080600  0.13319400  1
  O  O32  1  0.35937000  0.13940200  0.63324200  1
  O  O33  1  0.36030900  0.36468200  0.85669100  1
  O  O34  1  0.36172800  0.63489900  0.13518200  1
  O  O35  1  0.38544800  0.60872800  0.60644600  1
  O  O36  1  0.36483900  0.85667000  0.35839600  1
  O  O37  1  0.38835900  0.38525600  0.38503600  1
  O  O38  1  0.38955800  0.10709100  0.11461100  1
  O  O39  1  0.39072300  0.88363600  0.88913700  1
  O  O40  1  0.60940800  0.38325300  0.61098800  1
  O  O41  1  0.61088900  0.60672500  0.38574500  1
  O  O42  1  0.61176000  0.88490000  0.11507600  1
  O  O43  1  0.63480200  0.35681700  0.14188500  1
  O  O44  1  0.61485700  0.10868800  0.89361600  1
  O  O45  1  0.63794100  0.13471200  0.36504700  1
  O  O46  1  0.63977800  0.86448600  0.64327100  1
  O  O47  1  0.64073700  0.63933200  0.86676200  1
  O  O48  1  0.85922600  0.36046600  0.36665500  1
  O  O49  1  0.85985500  0.13523700  0.14309900  1
  O  O50  1  0.86182600  0.86509400  0.86479900  1
  O  O51  1  0.88524900  0.89122600  0.39366500  1
  O  O52  1  0.86513600  0.64327600  0.64169500  1
  O  O53  1  0.88838100  0.11490800  0.61505200  1
  O  O54  1  0.88933900  0.39313200  0.88549100  1
  O  O55  1  0.89057100  0.61659000  0.11079000  1
