# generated using pymatgen
data_NbV3Cr2(PO4)6
_symmetry_space_group_name_H-M   'P 1'
_cell_length_a   8.65703681
_cell_length_b   8.64989356
_cell_length_c   8.64989346
_cell_angle_alpha   59.99999553
_cell_angle_beta   60.02728816
_cell_angle_gamma   60.02729159
_symmetry_Int_Tables_number   1
_chemical_formula_structural   NbV3Cr2(PO4)6
_chemical_formula_sum   'Nb1 V3 Cr2 P6 O24'
_cell_volume   458.19968933
_cell_formula_units_Z   1
loop_
 _symmetry_equiv_pos_site_id
 _symmetry_equiv_pos_as_xyz
  1  'x, y, z'
loop_
 _atom_site_type_symbol
 _atom_site_label
 _atom_site_symmetry_multiplicity
 _atom_site_fract_x
 _atom_site_fract_y
 _atom_site_fract_z
 _atom_site_occupancy
  Nb  Nb0  1  0.57088700  0.14303800  0.14303800  1
  V  V1  1  0.07110700  0.64296400  0.64296400  1
  V  V2  1  0.43356500  0.85547900  0.85547900  1
  V  V3  1  0.93058600  0.35647100  0.35647100  1
  Cr  Cr4  1  0.00981500  0.99672800  0.99672800  1
  Cr  Cr5  1  0.50131100  0.49956300  0.49956300  1
  P  P6  1  0.24268000  0.25286000  0.54923400  1
  P  P7  1  0.24268000  0.95522600  0.25286000  1
  P  P8  1  0.24268000  0.54923400  0.95522600  1
  P  P9  1  0.75185500  0.46444900  0.04107600  1
  P  P10  1  0.75185500  0.04107600  0.74262000  1
  P  P11  1  0.75185500  0.74262000  0.46444900  1
  O  O12  1  0.06857200  0.11671000  0.30806100  1
  O  O13  1  0.06857200  0.50665700  0.11671000  1
  O  O14  1  0.06857200  0.30806100  0.50665700  1
  O  O15  1  0.23668000  0.08581300  0.73932800  1
  O  O16  1  0.42492900  0.19116700  0.38577500  1
  O  O17  1  0.26629900  0.41480900  0.55812800  1
  O  O18  1  0.23668000  0.93817900  0.08581300  1
  O  O19  1  0.26629900  0.76076200  0.41480900  1
  O  O20  1  0.57110600  0.61852000  0.00385800  1
  O  O21  1  0.26629900  0.55812800  0.76076200  1
  O  O22  1  0.76550300  0.26517900  0.06072000  1
  O  O23  1  0.57110600  0.00385800  0.80651500  1
  O  O24  1  0.42492900  0.99812900  0.19116700  1
  O  O25  1  0.23668000  0.73932800  0.93817900  1
  O  O26  1  0.73532900  0.44194400  0.23886400  1
  O  O27  1  0.42492900  0.38577500  0.99812900  1
  O  O28  1  0.73532900  0.23886400  0.58386300  1
  O  O29  1  0.76550300  0.06072000  0.90859800  1
  O  O30  1  0.73532900  0.58386300  0.44194400  1
  O  O31  1  0.57110600  0.80651500  0.61852000  1
  O  O32  1  0.76550300  0.90859800  0.26517900  1
  O  O33  1  0.93129200  0.69113300  0.49663200  1
  O  O34  1  0.93129200  0.49663200  0.88094400  1
  O  O35  1  0.93129200  0.88094400  0.69113300  1
