# generated using pymatgen
data_Ca2MgGa
_symmetry_space_group_name_H-M   'P 1'
_cell_length_a   12.76103555
_cell_length_b   12.76103555
_cell_length_c   12.76103555
_cell_angle_alpha   120.68673342
_cell_angle_beta   119.66530500
_cell_angle_gamma   89.69768349
_symmetry_Int_Tables_number   1
_chemical_formula_structural   Ca2MgGa
_chemical_formula_sum   'Ca2 Mg1 Ga1'
_cell_volume   1465.33119760
_cell_formula_units_Z   1
loop_
 _symmetry_equiv_pos_site_id
 _symmetry_equiv_pos_as_xyz
  1  'x, y, z'
loop_
 _atom_site_type_symbol
 _atom_site_label
 _atom_site_symmetry_multiplicity
 _atom_site_fract_x
 _atom_site_fract_y
 _atom_site_fract_z
 _atom_site_occupancy
  Ca  Ca0  1  0.00000000  0.27344200  0.27344200  1
  Ca  Ca1  1  0.00000000  0.72655800  0.72655800  1
  Mg  Mg2  1  0.00000000  0.00000000  0.00000000  1
  Ga  Ga3  1  0.00000000  0.50000000  0.50000000  1
