# generated using pymatgen
data_Mn3CrFe2(PO4)6
_symmetry_space_group_name_H-M   'P 1'
_cell_length_a   8.48920539
_cell_length_b   8.48920539
_cell_length_c   8.48920614
_cell_angle_alpha   61.01302669
_cell_angle_beta   61.01302669
_cell_angle_gamma   61.01302842
_symmetry_Int_Tables_number   1
_chemical_formula_structural   Mn3CrFe2(PO4)6
_chemical_formula_sum   'Mn3 Cr1 Fe2 P6 O24'
_cell_volume   442.46997267
_cell_formula_units_Z   1
loop_
 _symmetry_equiv_pos_site_id
 _symmetry_equiv_pos_as_xyz
  1  'x, y, z'
loop_
 _atom_site_type_symbol
 _atom_site_label
 _atom_site_symmetry_multiplicity
 _atom_site_fract_x
 _atom_site_fract_y
 _atom_site_fract_z
 _atom_site_occupancy
  Mn  Mn0  1  0.85472300  0.85472300  0.85472300  1
  Mn  Mn1  1  0.64193100  0.64193100  0.64193100  1
  Mn  Mn2  1  0.35766800  0.35766800  0.35766800  1
  Cr  Cr3  1  0.14229900  0.14229900  0.14229900  1
  Fe  Fe4  1  0.99848500  0.99848500  0.99848500  1
  Fe  Fe5  1  0.49900200  0.49900200  0.49900200  1
  P  P6  1  0.54532700  0.95979500  0.25187600  1
  P  P7  1  0.25187600  0.54532700  0.95979500  1
  P  P8  1  0.95979500  0.25187600  0.54532700  1
  P  P9  1  0.04091300  0.75002700  0.45303700  1
  P  P10  1  0.75002700  0.45303700  0.04091300  1
  P  P11  1  0.45303700  0.04091300  0.75002700  1
  O  O12  1  0.49245500  0.88195300  0.68488800  1
  O  O13  1  0.88195300  0.68488800  0.49245500  1
  O  O14  1  0.74922200  0.94103500  0.09733800  1
  O  O15  1  0.68488800  0.49245500  0.88195300  1
  O  O16  1  0.39143600  0.99449400  0.18428500  1
  O  O17  1  0.55764800  0.75960400  0.41399800  1
  O  O18  1  0.09733800  0.74922200  0.94103500  1
  O  O19  1  0.41399800  0.55764800  0.75960400  1
  O  O20  1  0.01220700  0.81703800  0.60321800  1
  O  O21  1  0.75960400  0.41399800  0.55764800  1
  O  O22  1  0.05463500  0.91045900  0.25035700  1
  O  O23  1  0.81703800  0.60321800  0.01220700  1
  O  O24  1  0.18428500  0.39143600  0.99449400  1
  O  O25  1  0.94103500  0.09733800  0.74922200  1
  O  O26  1  0.24050100  0.58974200  0.43600700  1
  O  O27  1  0.99449400  0.18428500  0.39143600  1
  O  O28  1  0.58974200  0.43600700  0.24050100  1
  O  O29  1  0.91045900  0.25035700  0.05463500  1
  O  O30  1  0.43600700  0.24050100  0.58974200  1
  O  O31  1  0.60321800  0.01220700  0.81703800  1
  O  O32  1  0.31482100  0.50998700  0.11758700  1
  O  O33  1  0.25035700  0.05463500  0.91045900  1
  O  O34  1  0.11758700  0.31482100  0.50998700  1
  O  O35  1  0.50998700  0.11758700  0.31482100  1
