# generated using pymatgen
data_Ti2BeZn
_symmetry_space_group_name_H-M   'P 1'
_cell_length_a   10.58985831
_cell_length_b   10.58985831
_cell_length_c   10.58985831
_cell_angle_alpha   119.88669104
_cell_angle_beta   119.51910251
_cell_angle_gamma   90.51566498
_symmetry_Int_Tables_number   1
_chemical_formula_structural   Ti2BeZn
_chemical_formula_sum   'Ti2 Be1 Zn1'
_cell_volume   843.48391475
_cell_formula_units_Z   1
loop_
 _symmetry_equiv_pos_site_id
 _symmetry_equiv_pos_as_xyz
  1  'x, y, z'
loop_
 _atom_site_type_symbol
 _atom_site_label
 _atom_site_symmetry_multiplicity
 _atom_site_fract_x
 _atom_site_fract_y
 _atom_site_fract_z
 _atom_site_occupancy
  Ti  Ti0  1  0.00000000  0.23833600  0.23833600  1
  Ti  Ti1  1  0.00000000  0.76166400  0.76166400  1
  Be  Be2  1  0.00000000  0.00000000  0.00000000  1
  Zn  Zn3  1  0.00000000  0.50000000  0.50000000  1
