# generated using pymatgen
data_ScInHg2
_symmetry_space_group_name_H-M   'P 1'
_cell_length_a   12.10871625
_cell_length_b   12.10871625
_cell_length_c   12.10871625
_cell_angle_alpha   124.32488980
_cell_angle_beta   118.55168104
_cell_angle_gamma   87.60226692
_symmetry_Int_Tables_number   1
_chemical_formula_structural   ScInHg2
_chemical_formula_sum   'Sc1 In1 Hg2'
_cell_volume   1222.82727286
_cell_formula_units_Z   1
loop_
 _symmetry_equiv_pos_site_id
 _symmetry_equiv_pos_as_xyz
  1  'x, y, z'
loop_
 _atom_site_type_symbol
 _atom_site_label
 _atom_site_symmetry_multiplicity
 _atom_site_fract_x
 _atom_site_fract_y
 _atom_site_fract_z
 _atom_site_occupancy
  Sc  Sc0  1  0.00000000  0.00000000  0.00000000  1
  In  In1  1  0.00000000  0.50000000  0.50000000  1
  Hg  Hg2  1  0.00000000  0.24895600  0.24895600  1
  Hg  Hg3  1  0.00000000  0.75104400  0.75104400  1
