# generated using pymatgen
data_Fe3P6WO24
_symmetry_space_group_name_H-M   'P 1'
_cell_length_a   8.95292215
_cell_length_b   8.95292241
_cell_length_c   8.95292232
_cell_angle_alpha   58.36571571
_cell_angle_beta   58.36571970
_cell_angle_gamma   58.36571677
_symmetry_Int_Tables_number   1
_chemical_formula_structural   Fe3P6WO24
_chemical_formula_sum   'Fe3 P6 W1 O24'
_cell_volume   488.44891092
_cell_formula_units_Z   1
loop_
 _symmetry_equiv_pos_site_id
 _symmetry_equiv_pos_as_xyz
  1  'x, y, z'
loop_
 _atom_site_type_symbol
 _atom_site_label
 _atom_site_symmetry_multiplicity
 _atom_site_fract_x
 _atom_site_fract_y
 _atom_site_fract_z
 _atom_site_occupancy
  Fe  Fe0  1  0.14392800  0.14392800  0.14392800  1
  Fe  Fe1  1  0.35825100  0.35825100  0.35825100  1
  Fe  Fe2  1  0.64168100  0.64168100  0.64168100  1
  P  P3  1  0.03414300  0.75276300  0.46034100  1
  P  P4  1  0.46034100  0.03414300  0.75276300  1
  P  P5  1  0.75276300  0.46034100  0.03414300  1
  P  P6  1  0.25417800  0.52934500  0.96774200  1
  P  P7  1  0.52934500  0.96774200  0.25417800  1
  P  P8  1  0.96774200  0.25417800  0.52934500  1
  W  W9  1  0.85799300  0.85799300  0.85799300  1
  O  O10  1  0.13851400  0.26895200  0.51160300  1
  O  O11  1  0.26895200  0.51160300  0.13851400  1
  O  O12  1  0.06032300  0.92275900  0.28638500  1
  O  O13  1  0.51160300  0.13851400  0.26895200  1
  O  O14  1  0.20782700  0.57812300  0.44778400  1
  O  O15  1  0.99391300  0.78957600  0.63559200  1
  O  O16  1  0.28638500  0.06032300  0.92275900  1
  O  O17  1  0.44778400  0.20782700  0.57812300  1
  O  O18  1  0.57812300  0.44778400  0.20782700  1
  O  O19  1  0.22365600  0.36528600  0.99149100  1
  O  O20  1  0.07618600  0.71234400  0.93047700  1
  O  O21  1  0.36528600  0.99149100  0.22365600  1
  O  O22  1  0.63559200  0.99391300  0.78957600  1
  O  O23  1  0.92275900  0.28638500  0.06032300  1
  O  O24  1  0.78957600  0.63559200  0.99391300  1
  O  O25  1  0.42262800  0.56215500  0.79317400  1
  O  O26  1  0.56215500  0.79317400  0.42262800  1
  O  O27  1  0.71234400  0.93047700  0.07618600  1
  O  O28  1  0.99149100  0.22365600  0.36528600  1
  O  O29  1  0.79317400  0.42262800  0.56215500  1
  O  O30  1  0.49368700  0.86467500  0.72252500  1
  O  O31  1  0.93047700  0.07618600  0.71234400  1
  O  O32  1  0.72252500  0.49368700  0.86467500  1
  O  O33  1  0.86467500  0.72252500  0.49368700  1
