# generated using pymatgen
data_MnBe2Os
_symmetry_space_group_name_H-M   'P 1'
_cell_length_a   9.34701009
_cell_length_b   9.34701009
_cell_length_c   9.34701009
_cell_angle_alpha   121.65757634
_cell_angle_beta   118.52330292
_cell_angle_gamma   89.86491443
_symmetry_Int_Tables_number   1
_chemical_formula_structural   MnBe2Os
_chemical_formula_sum   'Mn1 Be2 Os1'
_cell_volume   576.10303805
_cell_formula_units_Z   1
loop_
 _symmetry_equiv_pos_site_id
 _symmetry_equiv_pos_as_xyz
  1  'x, y, z'
loop_
 _atom_site_type_symbol
 _atom_site_label
 _atom_site_symmetry_multiplicity
 _atom_site_fract_x
 _atom_site_fract_y
 _atom_site_fract_z
 _atom_site_occupancy
  Mn  Mn0  1  0.00000000  0.00000000  0.00000000  1
  Be  Be1  1  0.00000000  0.26571500  0.26571500  1
  Be  Be2  1  0.00000000  0.73428500  0.73428500  1
  Os  Os3  1  0.00000000  0.50000000  0.50000000  1
