# generated using pymatgen
data_CdGaPd2
_symmetry_space_group_name_H-M   'P 1'
_cell_length_a   10.83530113
_cell_length_b   10.83530113
_cell_length_c   10.83530113
_cell_angle_alpha   124.88327070
_cell_angle_beta   118.41959565
_cell_angle_gamma   87.25841609
_symmetry_Int_Tables_number   1
_chemical_formula_structural   CdGaPd2
_chemical_formula_sum   'Cd1 Ga1 Pd2'
_cell_volume   872.26761423
_cell_formula_units_Z   1
loop_
 _symmetry_equiv_pos_site_id
 _symmetry_equiv_pos_as_xyz
  1  'x, y, z'
loop_
 _atom_site_type_symbol
 _atom_site_label
 _atom_site_symmetry_multiplicity
 _atom_site_fract_x
 _atom_site_fract_y
 _atom_site_fract_z
 _atom_site_occupancy
  Cd  Cd0  1  0.00000000  0.50000000  0.50000000  1
  Ga  Ga1  1  0.00000000  0.00000000  0.00000000  1
  Pd  Pd2  1  0.00000000  0.23120400  0.23120400  1
  Pd  Pd3  1  0.00000000  0.76879600  0.76879600  1
