# generated using pymatgen
data_Li2Mn3CuO8
_symmetry_space_group_name_H-M   'P 1'
_cell_length_a   8.22703400
_cell_length_b   8.31499300
_cell_length_c   8.35940600
_cell_angle_alpha   90.00000000
_cell_angle_beta   90.00000000
_cell_angle_gamma   90.00000000
_symmetry_Int_Tables_number   1
_chemical_formula_structural   Li2Mn3CuO8
_chemical_formula_sum   'Li8 Mn12 Cu4 O32'
_cell_volume   571.84798962
_cell_formula_units_Z   4
loop_
 _symmetry_equiv_pos_site_id
 _symmetry_equiv_pos_as_xyz
  1  'x, y, z'
loop_
 _atom_site_type_symbol
 _atom_site_label
 _atom_site_symmetry_multiplicity
 _atom_site_fract_x
 _atom_site_fract_y
 _atom_site_fract_z
 _atom_site_occupancy
  Li  Li0  1  0.62422500  0.37777900  0.87678800  1
  Li  Li1  1  0.75446500  0.25362600  0.24705300  1
  Li  Li2  1  0.74553500  0.74637400  0.74705300  1
  Li  Li3  1  0.87577500  0.62222100  0.37678800  1
  Li  Li4  1  0.12422500  0.12222100  0.12321200  1
  Li  Li5  1  0.25446500  0.24637400  0.75294700  1
  Li  Li6  1  0.24553500  0.75362600  0.25294700  1
  Li  Li7  1  0.37577500  0.87777900  0.62321200  1
  Mn  Mn8  1  0.62521000  0.12197700  0.62364200  1
  Mn  Mn9  1  0.62576700  0.87939600  0.37507100  1
  Mn  Mn10  1  0.62643600  0.62671100  0.12244700  1
  Mn  Mn11  1  0.87356400  0.37328900  0.62244700  1
  Mn  Mn12  1  0.87423300  0.12060400  0.87507100  1
  Mn  Mn13  1  0.87479000  0.87802300  0.12364200  1
  Mn  Mn14  1  0.12521000  0.37802300  0.37635800  1
  Mn  Mn15  1  0.12576700  0.62060400  0.62492900  1
  Mn  Mn16  1  0.12643600  0.87328900  0.87755300  1
  Mn  Mn17  1  0.37356400  0.12671100  0.37755300  1
  Mn  Mn18  1  0.37423300  0.37939600  0.12492900  1
  Mn  Mn19  1  0.37479000  0.62197700  0.87635800  1
  Cu  Cu20  1  0.48761400  0.00807500  0.99525900  1
  Cu  Cu21  1  0.01238600  0.99192500  0.49525900  1
  Cu  Cu22  1  0.98761400  0.49192500  0.00474100  1
  Cu  Cu23  1  0.51238600  0.50807500  0.50474100  1
  O  O24  1  0.60738100  0.62813700  0.89436800  1
  O  O25  1  0.61077900  0.40096500  0.12665300  1
  O  O26  1  0.61668600  0.11521700  0.38859400  1
  O  O27  1  0.63038200  0.89350800  0.60048100  1
  O  O28  1  0.62344200  0.64892400  0.35725400  1
  O  O29  1  0.63752400  0.86580600  0.13664900  1
  O  O30  1  0.63905700  0.12304700  0.85256000  1
  O  O31  1  0.64500000  0.35902000  0.62736800  1
  O  O32  1  0.85500000  0.64098000  0.12736800  1
  O  O33  1  0.86094300  0.87695300  0.35256000  1
  O  O34  1  0.86247600  0.13419400  0.63664900  1
  O  O35  1  0.87655800  0.35107600  0.85725400  1
  O  O36  1  0.86961800  0.10649200  0.10048100  1
  O  O37  1  0.88331400  0.88478300  0.88859400  1
  O  O38  1  0.88922100  0.59903500  0.62665300  1
  O  O39  1  0.89261900  0.37186300  0.39436800  1
  O  O40  1  0.10738100  0.87186300  0.10563200  1
  O  O41  1  0.11077900  0.09903500  0.87334700  1
  O  O42  1  0.11668600  0.38478300  0.61140600  1
  O  O43  1  0.13038200  0.60649200  0.39951900  1
  O  O44  1  0.12344200  0.85107600  0.64274600  1
  O  O45  1  0.13752400  0.63419400  0.86335100  1
  O  O46  1  0.13905700  0.37695300  0.14744000  1
  O  O47  1  0.14500000  0.14098000  0.37263200  1
  O  O48  1  0.35500000  0.85902000  0.87263200  1
  O  O49  1  0.36094300  0.62304700  0.64744000  1
  O  O50  1  0.36247600  0.36580600  0.36335100  1
  O  O51  1  0.37655800  0.14892400  0.14274600  1
  O  O52  1  0.36961800  0.39350800  0.89951900  1
  O  O53  1  0.38331400  0.61521700  0.11140600  1
  O  O54  1  0.38922100  0.90096500  0.37334700  1
  O  O55  1  0.39261900  0.12813700  0.60563200  1
