# generated using pymatgen
data_Fe10OF19
_symmetry_space_group_name_H-M   'P 1'
_cell_length_a   17.41728522
_cell_length_b   17.41728522
_cell_length_c   3.27023000
_cell_angle_alpha   90.00000000
_cell_angle_beta   90.00000000
_cell_angle_gamma   157.47468840
_symmetry_Int_Tables_number   1
_chemical_formula_structural   Fe10OF19
_chemical_formula_sum   'Fe10 O1 F19'
_cell_volume   380.05091725
_cell_formula_units_Z   1
loop_
 _symmetry_equiv_pos_site_id
 _symmetry_equiv_pos_as_xyz
  1  'x, y, z'
loop_
 _atom_site_type_symbol
 _atom_site_label
 _atom_site_symmetry_multiplicity
 _atom_site_fract_x
 _atom_site_fract_y
 _atom_site_fract_z
 _atom_site_occupancy
  Fe  Fe0  1  0.98801900  0.98801900  0.00000000  1
  Fe  Fe1  1  0.52828500  0.52828500  0.50000000  1
  Fe  Fe2  1  0.59887800  0.39924100  0.00000000  1
  Fe  Fe3  1  0.10016900  0.90009600  0.50000000  1
  Fe  Fe4  1  0.70008300  0.29988600  0.50000000  1
  Fe  Fe5  1  0.19990200  0.79988400  0.00000000  1
  Fe  Fe6  1  0.79988400  0.19990200  0.00000000  1
  Fe  Fe7  1  0.90009600  0.10016900  0.50000000  1
  Fe  Fe8  1  0.29988600  0.70008300  0.50000000  1
  Fe  Fe9  1  0.39924100  0.59887800  0.00000000  1
  O  O10  1  0.68576000  0.68576000  0.00000000  1
  F  F11  1  0.30611300  0.30611300  0.00000000  1
  F  F12  1  0.89744000  0.69712900  0.00000000  1
  F  F13  1  0.55135700  0.43384400  0.50000000  1
  F  F14  1  0.04709000  0.96586800  0.50000000  1
  F  F15  1  0.64082400  0.36039500  0.50000000  1
  F  F16  1  0.30243800  0.10014900  0.00000000  1
  F  F17  1  0.90089600  0.50067100  0.00000000  1
  F  F18  1  0.49905700  0.09893800  0.00000000  1
  F  F19  1  0.15873900  0.83893400  0.50000000  1
  F  F20  1  0.75975200  0.24016000  0.50000000  1
  F  F21  1  0.24016000  0.75975200  0.50000000  1
  F  F22  1  0.83893400  0.15873900  0.50000000  1
  F  F23  1  0.50067100  0.90089600  0.00000000  1
  F  F24  1  0.09893800  0.49905700  0.00000000  1
  F  F25  1  0.69712900  0.89744000  0.00000000  1
  F  F26  1  0.36039500  0.64082400  0.50000000  1
  F  F27  1  0.96586800  0.04709000  0.50000000  1
  F  F28  1  0.43384400  0.55135700  0.50000000  1
  F  F29  1  0.10014900  0.30243800  0.00000000  1
