# generated using pymatgen
data_K(WO3)3
_symmetry_space_group_name_H-M   'P 1'
_cell_length_a   7.51019778
_cell_length_b   7.51019778
_cell_length_c   7.74336100
_cell_angle_alpha   90.00000000
_cell_angle_beta   90.00000000
_cell_angle_gamma   119.99999805
_symmetry_Int_Tables_number   1
_chemical_formula_structural   K(WO3)3
_chemical_formula_sum   'K2 W6 O18'
_cell_volume   378.23602901
_cell_formula_units_Z   2
loop_
 _symmetry_equiv_pos_site_id
 _symmetry_equiv_pos_as_xyz
  1  'x, y, z'
loop_
 _atom_site_type_symbol
 _atom_site_label
 _atom_site_symmetry_multiplicity
 _atom_site_fract_x
 _atom_site_fract_y
 _atom_site_fract_z
 _atom_site_occupancy
  K  K0  1  0.00000000  0.00000000  0.26719500  1
  K  K1  1  0.00000000  0.00000000  0.76719500  1
  W  W2  1  0.00002300  0.50001100  0.50016900  1
  W  W3  1  0.99997700  0.49998900  0.00016900  1
  W  W4  1  0.49998900  0.50001100  0.50016900  1
  W  W5  1  0.50001100  0.49998900  0.00016900  1
  W  W6  1  0.50001100  0.00002300  0.00016900  1
  W  W7  1  0.49998900  0.99997700  0.50016900  1
  O  O8  1  0.01343800  0.50671900  0.75023600  1
  O  O9  1  0.20955600  0.79044400  0.00793500  1
  O  O10  1  0.20956100  0.79043900  0.49183400  1
  O  O11  1  0.20956100  0.41912200  0.49183400  1
  O  O12  1  0.49328100  0.98656200  0.75023600  1
  O  O13  1  0.20955600  0.41911200  0.00793500  1
  O  O14  1  0.58088800  0.79044400  0.00793500  1
  O  O15  1  0.58087800  0.79043900  0.49183400  1
  O  O16  1  0.49328100  0.50671900  0.75023600  1
  O  O17  1  0.50671900  0.49328100  0.25023600  1
  O  O18  1  0.41912200  0.20956100  0.99183400  1
  O  O19  1  0.41911200  0.20955600  0.50793400  1
  O  O20  1  0.79044400  0.58088800  0.50793400  1
  O  O21  1  0.50671900  0.01343800  0.25023600  1
  O  O22  1  0.79043900  0.58087800  0.99183400  1
  O  O23  1  0.79043900  0.20956100  0.99183400  1
  O  O24  1  0.79044400  0.20955600  0.50793400  1
  O  O25  1  0.98656200  0.49328100  0.25023600  1
