# generated using pymatgen
data_TiMnO4
_symmetry_space_group_name_H-M   'P 1'
_cell_length_a   3.78243660
_cell_length_b   3.78244205
_cell_length_c   9.54131888
_cell_angle_alpha   90.00007058
_cell_angle_beta   90.00003338
_cell_angle_gamma   89.99997849
_symmetry_Int_Tables_number   1
_chemical_formula_structural   TiMnO4
_chemical_formula_sum   'Ti2 Mn2 O8'
_cell_volume   136.50619190
_cell_formula_units_Z   2
loop_
 _symmetry_equiv_pos_site_id
 _symmetry_equiv_pos_as_xyz
  1  'x, y, z'
loop_
 _atom_site_type_symbol
 _atom_site_label
 _atom_site_symmetry_multiplicity
 _atom_site_fract_x
 _atom_site_fract_y
 _atom_site_fract_z
 _atom_site_occupancy
  Ti  Ti0  1  0.50000000  0.00000000  0.75000500  1
  Ti  Ti1  1  0.99999900  0.50000200  0.24999300  1
  Mn  Mn2  1  0.50000000  0.49999400  0.50000100  1
  Mn  Mn3  1  0.00000500  0.00000000  0.00000500  1
  O  O4  1  0.49999800  0.99999900  0.95932900  1
  O  O5  1  0.00000400  0.50000000  0.45931200  1
  O  O6  1  0.50000000  0.99999900  0.54068800  1
  O  O7  1  0.99999900  0.50000300  0.04066900  1
  O  O8  1  0.99999900  0.00000100  0.79902400  1
  O  O9  1  0.49999900  0.50000200  0.29899100  1
  O  O10  1  0.00000000  0.00000000  0.20097600  1
  O  O11  1  0.49999800  0.50000000  0.70100700  1
