# generated using pymatgen
data_Hf2N2O
_symmetry_space_group_name_H-M   'P 1'
_cell_length_a   8.73213371
_cell_length_b   8.72729372
_cell_length_c   8.74173071
_cell_angle_alpha   109.57079423
_cell_angle_beta   109.52522919
_cell_angle_gamma   109.34299758
_symmetry_Int_Tables_number   1
_chemical_formula_structural   Hf2N2O
_chemical_formula_sum   'Hf16 N16 O8'
_cell_volume   512.67019371
_cell_formula_units_Z   8
loop_
 _symmetry_equiv_pos_site_id
 _symmetry_equiv_pos_as_xyz
  1  'x, y, z'
loop_
 _atom_site_type_symbol
 _atom_site_label
 _atom_site_symmetry_multiplicity
 _atom_site_fract_x
 _atom_site_fract_y
 _atom_site_fract_z
 _atom_site_occupancy
  Hf  Hf0  1  0.96061800  0.24289800  0.21908200  1
  Hf  Hf1  1  0.50668700  0.00323800  0.99513000  1
  Hf  Hf2  1  0.70572500  0.45507900  0.24355200  1
  Hf  Hf3  1  0.78183800  0.03109000  0.75170900  1
  Hf  Hf4  1  0.75534000  0.78733200  0.03314000  1
  Hf  Hf5  1  0.75621300  0.28567200  0.53939200  1
  Hf  Hf6  1  0.99808500  0.50455000  0.98846300  1
  Hf  Hf7  1  0.01708200  0.00919700  0.51080400  1
  Hf  Hf8  1  0.49055500  0.50558900  0.50299100  1
  Hf  Hf9  1  0.46857400  0.25260000  0.72018900  1
  Hf  Hf10  1  0.52458600  0.74058200  0.28673600  1
  Hf  Hf11  1  0.25144700  0.21781600  0.96090500  1
  Hf  Hf12  1  0.25365800  0.71827100  0.46740700  1
  Hf  Hf13  1  0.21003600  0.95980000  0.25155700  1
  Hf  Hf14  1  0.28465100  0.53511300  0.74397800  1
  Hf  Hf15  1  0.03889900  0.75381300  0.78599600  1
  N  N16  1  0.73893600  0.22936200  0.27494900  1
  N  N17  1  0.45591100  0.46539700  0.22874300  1
  N  N18  1  0.72742500  0.25716800  0.76922700  1
  N  N19  1  0.00989000  0.04464500  0.27519400  1
  N  N20  1  0.27125000  0.73379400  0.22295600  1
  N  N21  1  0.22584400  0.45594500  0.46341000  1
  N  N22  1  0.98664200  0.95357700  0.72773700  1
  N  N23  1  0.50984400  0.23689700  0.96673600  1
  N  N24  1  0.54551500  0.53371900  0.77142000  1
  N  N25  1  0.95752600  0.72930100  0.98966000  1
  N  N26  1  0.22413800  0.27418400  0.74132500  1
  N  N27  1  0.53530500  0.77377800  0.54514200  1
  N  N28  1  0.03094900  0.48556700  0.75712700  1
  N  N29  1  0.72658400  0.98702800  0.95366200  1
  N  N30  1  0.26415200  0.77720400  0.73243300  1
  N  N31  1  0.24052000  0.96898900  0.51098300  1
  O  O32  1  0.75779500  0.02995300  0.48085200  1
  O  O33  1  0.27521700  0.01277300  0.05005300  1
  O  O34  1  0.96081000  0.51350400  0.23601100  1
  O  O35  1  0.77108200  0.72436000  0.25978300  1
  O  O36  1  0.46679100  0.22705700  0.44780800  1
  O  O37  1  0.04776800  0.27608600  0.01893500  1
  O  O38  1  0.77160600  0.54236300  0.53533000  1
  O  O39  1  0.49450700  0.76471000  0.03949500  1
