# generated using pymatgen
data_Hf2N2O
_symmetry_space_group_name_H-M   'P 1'
_cell_length_a   14.39928104
_cell_length_b   14.39928104
_cell_length_c   14.39928104
_cell_angle_alpha   154.22856705
_cell_angle_beta   154.22856705
_cell_angle_gamma   36.76747182
_symmetry_Int_Tables_number   1
_chemical_formula_structural   Hf2N2O
_chemical_formula_sum   'Hf16 N16 O8'
_cell_volume   563.59908470
_cell_formula_units_Z   8
loop_
 _symmetry_equiv_pos_site_id
 _symmetry_equiv_pos_as_xyz
  1  'x, y, z'
loop_
 _atom_site_type_symbol
 _atom_site_label
 _atom_site_symmetry_multiplicity
 _atom_site_fract_x
 _atom_site_fract_y
 _atom_site_fract_z
 _atom_site_occupancy
  Hf  Hf0  1  0.87500000  0.12500000  0.75000000  1
  Hf  Hf1  1  0.37500000  0.12500000  0.25000000  1
  Hf  Hf2  1  0.87500000  0.62500000  0.75000000  1
  Hf  Hf3  1  0.20756100  0.45852900  0.25096800  1
  Hf  Hf4  1  0.54147100  0.79243900  0.74903200  1
  Hf  Hf5  1  0.41832200  0.91832200  0.50000000  1
  Hf  Hf6  1  0.04340800  0.79243900  0.25096800  1
  Hf  Hf7  1  0.66832200  0.66832200  0.00000000  1
  Hf  Hf8  1  0.20756100  0.95659200  0.74903200  1
  Hf  Hf9  1  0.87500000  0.12500000  0.25000000  1
  Hf  Hf10  1  0.54243900  0.29340800  0.75096800  1
  Hf  Hf11  1  0.08167800  0.58167800  0.50000000  1
  Hf  Hf12  1  0.33167800  0.33167800  0.00000000  1
  Hf  Hf13  1  0.20852900  0.45756100  0.75096800  1
  Hf  Hf14  1  0.70659200  0.45756100  0.24903200  1
  Hf  Hf15  1  0.54243900  0.79147100  0.24903200  1
  N  N16  1  0.12603600  0.36254200  0.23650600  1
  N  N17  1  0.28778100  0.55360300  0.26582200  1
  N  N18  1  0.97804100  0.71221900  0.26582200  1
  N  N19  1  0.44639700  0.71221900  0.73417800  1
  N  N20  1  0.11046900  0.87396400  0.23650600  1
  N  N21  1  0.63745800  0.87396400  0.76349400  1
  N  N22  1  0.28778100  0.02195900  0.73417800  1
  N  N23  1  0.62396400  0.36046900  0.73650600  1
  N  N24  1  0.12603600  0.88953100  0.76349400  1
  N  N25  1  0.46221900  0.22804100  0.76582200  1
  N  N26  1  0.11254200  0.37603600  0.73650600  1
  N  N27  1  0.30360300  0.53778100  0.76582200  1
  N  N28  1  0.77195900  0.53778100  0.23417800  1
  N  N29  1  0.63953100  0.37603600  0.26349400  1
  N  N30  1  0.46221900  0.69639700  0.23417800  1
  N  N31  1  0.62396400  0.88745800  0.26349400  1
  O  O32  1  0.79948000  0.59172800  0.79224800  1
  O  O33  1  0.34172800  0.04948000  0.29224800  1
  O  O34  1  0.75723300  0.04948000  0.70775200  1
  O  O35  1  0.79948000  0.00723300  0.20775200  1
  O  O36  1  0.95052000  0.24276700  0.29224800  1
  O  O37  1  0.99276700  0.20052000  0.79224800  1
  O  O38  1  0.40827200  0.20052000  0.20775200  1
  O  O39  1  0.95052000  0.65827200  0.70775200  1
