# generated using pymatgen
data_Li4Cr5SbO12
_symmetry_space_group_name_H-M   'P 1'
_cell_length_a   5.24010506
_cell_length_b   21.03479321
_cell_length_c   5.24196438
_cell_angle_alpha   93.99128303
_cell_angle_beta   119.98813227
_cell_angle_gamma   81.99454535
_symmetry_Int_Tables_number   1
_chemical_formula_structural   Li4Cr5SbO12
_chemical_formula_sum   'Li8 Cr10 Sb2 O24'
_cell_volume   495.56636754
_cell_formula_units_Z   2
loop_
 _symmetry_equiv_pos_site_id
 _symmetry_equiv_pos_as_xyz
  1  'x, y, z'
loop_
 _atom_site_type_symbol
 _atom_site_label
 _atom_site_symmetry_multiplicity
 _atom_site_fract_x
 _atom_site_fract_y
 _atom_site_fract_z
 _atom_site_occupancy
  Li  Li0  1  0.10904300  0.35392600  0.66301400  1
  Li  Li1  1  0.10918800  0.85394600  0.66284200  1
  Li  Li2  1  0.55368000  0.14605800  0.66278500  1
  Li  Li3  1  0.55399800  0.64607600  0.66305200  1
  Li  Li4  1  0.44609600  0.35383700  0.33642600  1
  Li  Li5  1  0.44628500  0.85386000  0.33660200  1
  Li  Li6  1  0.89030900  0.14614700  0.33656700  1
  Li  Li7  1  0.89038500  0.64616100  0.33649200  1
  Cr  Cr8  1  0.83787200  0.25003900  0.67570200  1
  Cr  Cr9  1  0.83788000  0.74996900  0.67573500  1
  Cr  Cr10  1  0.33470700  0.99999300  0.66946300  1
  Cr  Cr11  1  0.33453200  0.49999000  0.66907400  1
  Cr  Cr12  1  0.66501800  0.99999100  0.33009900  1
  Cr  Cr13  1  0.49964200  0.24999500  0.99942200  1
  Cr  Cr14  1  0.49983000  0.75000000  0.99944900  1
  Cr  Cr15  1  0.16267700  0.25001100  0.32533300  1
  Cr  Cr16  1  0.16270000  0.74999000  0.32537000  1
  Cr  Cr17  1  0.66516700  0.49999700  0.33047400  1
  Sb  Sb18  1  0.99989100  0.00001100  0.99983300  1
  Sb  Sb19  1  0.99989400  0.50000200  0.99979900  1
  O  O20  1  0.15015200  0.30233300  0.00101500  1
  O  O21  1  0.15025400  0.80230700  0.00102100  1
  O  O22  1  0.85079000  0.19769200  0.00100600  1
  O  O23  1  0.85089700  0.69767000  0.00102300  1
  O  O24  1  0.30426000  0.04793100  0.99977400  1
  O  O25  1  0.30358000  0.54806500  0.99979500  1
  O  O26  1  0.69622500  0.45193200  0.99981000  1
  O  O27  1  0.69548200  0.95206800  0.99976600  1
  O  O28  1  0.97266800  0.05007900  0.33284100  1
  O  O29  1  0.97256300  0.55022600  0.33228600  1
  O  O30  1  0.35967400  0.44977300  0.33225600  1
  O  O31  1  0.36013100  0.94992100  0.33283800  1
  O  O32  1  0.63962400  0.05006600  0.66669800  1
  O  O33  1  0.64015400  0.55020700  0.66739400  1
  O  O34  1  0.02720000  0.44979200  0.66740900  1
  O  O35  1  0.02704300  0.94993200  0.66671700  1
  O  O36  1  0.19587500  0.19844700  0.65482200  1
  O  O37  1  0.19595000  0.69842100  0.65486500  1
  O  O38  1  0.45892800  0.30158300  0.65485000  1
  O  O39  1  0.45898200  0.80155100  0.65483900  1
  O  O40  1  0.54038700  0.19853500  0.34536600  1
  O  O41  1  0.54045300  0.69850100  0.34536800  1
  O  O42  1  0.80492100  0.30149800  0.34533900  1
  O  O43  1  0.80501000  0.80147200  0.34536900  1
