# generated using pymatgen
data_Na5Cr2P(CO4)4
_symmetry_space_group_name_H-M   'P 1'
_cell_length_a   9.88716397
_cell_length_b   9.87910707
_cell_length_c   9.80412939
_cell_angle_alpha   60.30498320
_cell_angle_beta   60.22321361
_cell_angle_gamma   59.47180319
_symmetry_Int_Tables_number   1
_chemical_formula_structural   Na5Cr2P(CO4)4
_chemical_formula_sum   'Na10 Cr4 P2 C8 O32'
_cell_volume   677.06122359
_cell_formula_units_Z   2
loop_
 _symmetry_equiv_pos_site_id
 _symmetry_equiv_pos_as_xyz
  1  'x, y, z'
loop_
 _atom_site_type_symbol
 _atom_site_label
 _atom_site_symmetry_multiplicity
 _atom_site_fract_x
 _atom_site_fract_y
 _atom_site_fract_z
 _atom_site_occupancy
  Na  Na0  1  0.83337100  0.41074200  0.57261900  1
  Na  Na1  1  0.06726900  0.67847800  0.41582500  1
  Na  Na2  1  0.67847800  0.06726900  0.83842700  1
  Na  Na3  1  0.06673300  0.67738100  0.83925800  1
  Na  Na4  1  0.83417500  0.41157300  0.18273100  1
  Na  Na5  1  0.41074200  0.83337100  0.18326700  1
  Na  Na6  1  0.41157300  0.83417500  0.57152200  1
  Na  Na7  1  0.67175400  0.67175400  0.82824600  1
  Na  Na8  1  0.67738100  0.06673300  0.41662900  1
  Na  Na9  1  0.42175400  0.42175400  0.57824600  1
  Cr  Cr10  1  0.75250100  0.24727000  0.00068300  1
  Cr  Cr11  1  0.24931700  0.25045400  0.49749900  1
  Cr  Cr12  1  0.24727000  0.75250100  0.99954600  1
  Cr  Cr13  1  0.25045400  0.24931700  0.00273000  1
  P  P14  1  0.87344100  0.87344100  0.62655900  1
  P  P15  1  0.62344100  0.62344100  0.37655900  1
  C  C16  1  0.46610500  0.11277300  0.20954200  1
  C  C17  1  0.11277300  0.46610500  0.21158000  1
  C  C18  1  0.46302600  0.46292700  0.21400300  1
  C  C19  1  0.46292700  0.46302600  0.86004300  1
  C  C20  1  0.04045800  0.03842000  0.78389500  1
  C  C21  1  0.03842000  0.04045800  0.13722700  1
  C  C22  1  0.38995700  0.03599700  0.78707300  1
  C  C23  1  0.03599700  0.38995700  0.78697400  1
  O  O24  1  0.89487100  0.15510700  0.80844000  1
  O  O25  1  0.10673200  0.35198500  0.35567900  1
  O  O26  1  0.35198500  0.10673200  0.18560300  1
  O  O27  1  0.06024200  0.39387300  0.64233900  1
  O  O28  1  0.10841800  0.44156000  0.09489300  1
  O  O29  1  0.80736900  0.80711800  0.56352100  1
  O  O30  1  0.80711800  0.80736900  0.82199200  1
  O  O31  1  0.11708100  0.60535700  0.18568000  1
  O  O32  1  0.60535700  0.11708100  0.09188200  1
  O  O33  1  0.34693600  0.43795800  0.35681700  1
  O  O34  1  0.43795800  0.34693600  0.85829000  1
  O  O35  1  0.79971000  0.06579100  0.56705800  1
  O  O36  1  0.06579100  0.79971000  0.56744100  1
  O  O37  1  0.06439700  0.89432100  0.89801500  1
  O  O38  1  0.89432100  0.06439700  0.14326800  1
  O  O39  1  0.34645400  0.60766100  0.85612700  1
  O  O40  1  0.15510700  0.89487100  0.14158200  1
  O  O41  1  0.60606400  0.43737700  0.85832000  1
  O  O42  1  0.43737700  0.60606400  0.09823900  1
  O  O43  1  0.68647900  0.42800800  0.44263100  1
  O  O44  1  0.42800800  0.68647900  0.44288200  1
  O  O45  1  0.06432000  0.15811800  0.13291900  1
  O  O46  1  0.15811800  0.06432000  0.64464300  1
  O  O47  1  0.89318300  0.39171000  0.90306400  1
  O  O48  1  0.39171000  0.89318300  0.81204200  1
  O  O49  1  0.68255900  0.68294200  0.18420900  1
  O  O50  1  0.68294200  0.68255900  0.45029000  1
  O  O51  1  0.39387300  0.06024200  0.90354600  1
  O  O52  1  0.44156000  0.10841800  0.35512900  1
  O  O53  1  0.39168000  0.15176100  0.64393600  1
  O  O54  1  0.15176100  0.39168000  0.81262300  1
  O  O55  1  0.60766100  0.34645400  0.18975800  1
