# generated using pymatgen
data_GaSnRu2
_symmetry_space_group_name_H-M   'P 1'
_cell_length_a   10.80536635
_cell_length_b   10.80536635
_cell_length_c   10.80536635
_cell_angle_alpha   125.03409485
_cell_angle_beta   118.48372417
_cell_angle_gamma   87.07820271
_symmetry_Int_Tables_number   1
_chemical_formula_structural   GaSnRu2
_chemical_formula_sum   'Ga1 Sn1 Ru2'
_cell_volume   863.35638908
_cell_formula_units_Z   1
loop_
 _symmetry_equiv_pos_site_id
 _symmetry_equiv_pos_as_xyz
  1  'x, y, z'
loop_
 _atom_site_type_symbol
 _atom_site_label
 _atom_site_symmetry_multiplicity
 _atom_site_fract_x
 _atom_site_fract_y
 _atom_site_fract_z
 _atom_site_occupancy
  Ga  Ga0  1  0.00000000  0.00000000  0.00000000  1
  Sn  Sn1  1  0.00000000  0.50000000  0.50000000  1
  Ru  Ru2  1  0.00000000  0.24613100  0.24613100  1
  Ru  Ru3  1  0.00000000  0.75386900  0.75386900  1
