# generated using pymatgen
data_KV5Co(H8O11)2
_symmetry_space_group_name_H-M   'P 1'
_cell_length_a   8.88515900
_cell_length_b   10.80879726
_cell_length_c   11.20751984
_cell_angle_alpha   65.99263932
_cell_angle_beta   75.40209904
_cell_angle_gamma   71.05185106
_symmetry_Int_Tables_number   1
_chemical_formula_structural   KV5Co(H8O11)2
_chemical_formula_sum   'K2 V10 Co2 H32 O44'
_cell_volume   920.95469737
_cell_formula_units_Z   2
loop_
 _symmetry_equiv_pos_site_id
 _symmetry_equiv_pos_as_xyz
  1  'x, y, z'
loop_
 _atom_site_type_symbol
 _atom_site_label
 _atom_site_symmetry_multiplicity
 _atom_site_fract_x
 _atom_site_fract_y
 _atom_site_fract_z
 _atom_site_occupancy
  K  K0  1  0.32016500  0.91586400  0.77994400  1
  K  K1  1  0.67983500  0.08413600  0.22005600  1
  V  V2  1  0.38424300  0.78357700  0.44863100  1
  V  V3  1  0.69674700  0.73394700  0.24551700  1
  V  V4  1  0.35069400  0.55582000  0.72576700  1
  V  V5  1  0.67328200  0.50371700  0.52243100  1
  V  V6  1  0.36602000  0.72506400  0.19715700  1
  V  V7  1  0.63398000  0.27493600  0.80284300  1
  V  V8  1  0.32671800  0.49628300  0.47756900  1
  V  V9  1  0.64930600  0.44418000  0.27423300  1
  V  V10  1  0.30325300  0.26605300  0.75448300  1
  V  V11  1  0.61575700  0.21642300  0.55136900  1
  Co  Co12  1  0.77465800  0.72817800  0.79298300  1
  Co  Co13  1  0.22534200  0.27182200  0.20701700  1
  H  H14  1  0.64822400  0.98901200  0.81684700  1
  H  H15  1  0.95216000  0.89234800  0.83773000  1
  H  H16  1  0.94745100  0.93657700  0.65562700  1
  H  H17  1  0.60817700  0.87103200  0.95876100  1
  H  H18  1  0.97247900  0.70824000  0.95720300  1
  H  H19  1  0.96117700  0.84073900  0.57573300  1
  H  H20  1  0.67490000  0.89928600  0.55847100  1
  H  H21  1  0.60705600  0.76250900  0.60127500  1
  H  H22  1  0.56437800  0.60066400  0.99906500  1
  H  H23  1  0.91566700  0.75655600  0.41863600  1
  H  H24  1  0.57686200  0.55378700  0.87708900  1
  H  H25  1  0.06740800  0.98450200  0.11761500  1
  H  H26  1  0.86393900  0.49562600  0.71171200  1
  H  H27  1  0.05329400  0.83160300  0.36468000  1
  H  H28  1  0.98434400  0.48675100  0.24879000  1
  H  H29  1  0.87434800  0.59732400  0.03674900  1
  H  H30  1  0.12565200  0.40267600  0.96325100  1
  H  H31  1  0.01565600  0.51324900  0.75121000  1
  H  H32  1  0.94670600  0.16839700  0.63532000  1
  H  H33  1  0.13606100  0.50437400  0.28828800  1
  H  H34  1  0.93259200  0.01549800  0.88238500  1
  H  H35  1  0.42313800  0.44621300  0.12291100  1
  H  H36  1  0.08433300  0.24344400  0.58136400  1
  H  H37  1  0.43562200  0.39933600  0.00093500  1
  H  H38  1  0.39294400  0.23749100  0.39872500  1
  H  H39  1  0.32510000  0.10071400  0.44152900  1
  H  H40  1  0.03882300  0.15926100  0.42426700  1
  H  H41  1  0.02752100  0.29176000  0.04279700  1
  H  H42  1  0.39182300  0.12896800  0.04123900  1
  H  H43  1  0.05254900  0.06342300  0.34437300  1
  H  H44  1  0.04784000  0.10765200  0.16227000  1
  H  H45  1  0.35177600  0.01098800  0.18315300  1
  O  O46  1  0.00923200  0.93086500  0.87179100  1
  O  O47  1  0.64173700  0.89129800  0.86236400  1
  O  O48  1  0.94318900  0.84379300  0.66597400  1
  O  O49  1  0.92139800  0.64692600  0.94569600  1
  O  O50  1  0.94263200  0.84057700  0.41141200  1
  O  O51  1  0.63553000  0.82444700  0.63355900  1
  O  O52  1  0.29253600  0.90572900  0.51208800  1
  O  O53  1  0.59580000  0.62550700  0.90168200  1
  O  O54  1  0.56133600  0.84189800  0.34537300  1
  O  O55  1  0.90460300  0.55974700  0.73064000  1
  O  O56  1  0.82886800  0.82276500  0.16223500  1
  O  O57  1  0.26287600  0.67594600  0.78996000  1
  O  O58  1  0.27868900  0.83712800  0.30411400  1
  O  O59  1  0.52177700  0.64706900  0.58970800  1
  O  O60  1  0.54436100  0.80029600  0.13052200  1
  O  O61  1  0.79288200  0.61298100  0.41436500  1
  O  O62  1  0.26076600  0.63768100  0.55360500  1
  O  O63  1  0.50585200  0.44117800  0.83768200  1
  O  O64  1  0.25685400  0.80828600  0.07805600  1
  O  O65  1  0.51466500  0.59550200  0.38119200  1
  O  O66  1  0.76310600  0.40596600  0.66608600  1
  O  O67  1  0.78190900  0.56524600  0.20429300  1
  O  O68  1  0.21809100  0.43475400  0.79570700  1
  O  O69  1  0.23689400  0.59403400  0.33391400  1
  O  O70  1  0.48533500  0.40449800  0.61880800  1
  O  O71  1  0.74314600  0.19171400  0.92194400  1
  O  O72  1  0.49414800  0.55882200  0.16231800  1
  O  O73  1  0.73923400  0.36231900  0.44639500  1
  O  O74  1  0.20711800  0.38701900  0.58563500  1
  O  O75  1  0.45563900  0.19970400  0.86947800  1
  O  O76  1  0.47822300  0.35293100  0.41029200  1
  O  O77  1  0.72131100  0.16287200  0.69588600  1
  O  O78  1  0.73712400  0.32405400  0.21004000  1
  O  O79  1  0.17113200  0.17723500  0.83776500  1
  O  O80  1  0.09539700  0.44025300  0.26936000  1
  O  O81  1  0.43866400  0.15810200  0.65462700  1
  O  O82  1  0.40420000  0.37449300  0.09831800  1
  O  O83  1  0.70746400  0.09427100  0.48791200  1
  O  O84  1  0.36447000  0.17555300  0.36644100  1
  O  O85  1  0.05736800  0.15942300  0.58858800  1
  O  O86  1  0.07860200  0.35307400  0.05430400  1
  O  O87  1  0.05681100  0.15620700  0.33402600  1
  O  O88  1  0.35826300  0.10870200  0.13763600  1
  O  O89  1  0.99076800  0.06913500  0.12820900  1
