# generated using pymatgen
data_VOF
_symmetry_space_group_name_H-M   'P 1'
_cell_length_a   3.10456200
_cell_length_b   4.74847300
_cell_length_c   18.89640919
_cell_angle_alpha   89.97970616
_cell_angle_beta   90.00000000
_cell_angle_gamma   90.00000000
_symmetry_Int_Tables_number   1
_chemical_formula_structural   VOF
_chemical_formula_sum   'V8 O8 F8'
_cell_volume   278.56950195
_cell_formula_units_Z   8
loop_
 _symmetry_equiv_pos_site_id
 _symmetry_equiv_pos_as_xyz
  1  'x, y, z'
loop_
 _atom_site_type_symbol
 _atom_site_label
 _atom_site_symmetry_multiplicity
 _atom_site_fract_x
 _atom_site_fract_y
 _atom_site_fract_z
 _atom_site_occupancy
  V  V0  1  0.00000000  0.96266500  0.12480300  1
  V  V1  1  0.00000000  0.03733500  0.87519700  1
  V  V2  1  0.00000000  0.96558900  0.37477100  1
  V  V3  1  0.00000000  0.03441100  0.62522900  1
  V  V4  1  0.50000000  0.50000000  0.00000000  1
  V  V5  1  0.50000000  0.59005100  0.74954000  1
  V  V6  1  0.50000000  0.40994900  0.25046000  1
  V  V7  1  0.50000000  0.50000000  0.50000000  1
  O  O8  1  0.50000000  0.77849300  0.07511700  1
  O  O9  1  0.50000000  0.84397700  0.82642900  1
  O  O10  1  0.00000000  0.74801900  0.69837700  1
  O  O11  1  0.00000000  0.68561100  0.44960500  1
  O  O12  1  0.00000000  0.25198100  0.30162300  1
  O  O13  1  0.00000000  0.31438900  0.55039500  1
  O  O14  1  0.50000000  0.22150700  0.92488300  1
  O  O15  1  0.50000000  0.15602300  0.17357100  1
  F  F16  1  0.50000000  0.76276900  0.32385700  1
  F  F17  1  0.50000000  0.82629700  0.57607700  1
  F  F18  1  0.00000000  0.70904800  0.95153600  1
  F  F19  1  0.00000000  0.65393300  0.20417500  1
  F  F20  1  0.00000000  0.29095200  0.04846400  1
  F  F21  1  0.00000000  0.34606700  0.79582500  1
  F  F22  1  0.50000000  0.17370300  0.42392300  1
  F  F23  1  0.50000000  0.23723100  0.67614300  1
