# generated using pymatgen
data_Ti3NbCo2(PO4)6
_symmetry_space_group_name_H-M   'P 1'
_cell_length_a   8.59385935
_cell_length_b   8.59385935
_cell_length_c   8.59385860
_cell_angle_alpha   61.29454617
_cell_angle_beta   61.29454617
_cell_angle_gamma   61.29454664
_symmetry_Int_Tables_number   1
_chemical_formula_structural   Ti3NbCo2(PO4)6
_chemical_formula_sum   'Ti3 Nb1 Co2 P6 O24'
_cell_volume   461.85708724
_cell_formula_units_Z   1
loop_
 _symmetry_equiv_pos_site_id
 _symmetry_equiv_pos_as_xyz
  1  'x, y, z'
loop_
 _atom_site_type_symbol
 _atom_site_label
 _atom_site_symmetry_multiplicity
 _atom_site_fract_x
 _atom_site_fract_y
 _atom_site_fract_z
 _atom_site_occupancy
  Ti  Ti0  1  0.14026500  0.14026500  0.14026500  1
  Ti  Ti1  1  0.35982600  0.35982600  0.35982600  1
  Ti  Ti2  1  0.64174000  0.64174000  0.64174000  1
  Nb  Nb3  1  0.85973100  0.85973100  0.85973100  1
  Co  Co4  1  0.00515000  0.00515000  0.00515000  1
  Co  Co5  1  0.49826100  0.49826100  0.49826100  1
  P  P6  1  0.45488200  0.74878700  0.04233700  1
  P  P7  1  0.74878700  0.04233700  0.45488200  1
  P  P8  1  0.95959200  0.53498500  0.25591100  1
  P  P9  1  0.25591100  0.95959200  0.53498500  1
  P  P10  1  0.53498500  0.25591100  0.95959200  1
  P  P11  1  0.04233700  0.45488200  0.74878700  1
  O  O12  1  0.49576000  0.31636400  0.11970300  1
  O  O13  1  0.11970300  0.49576000  0.31636400  1
  O  O14  1  0.26488600  0.91074100  0.05711500  1
  O  O15  1  0.31636400  0.11970300  0.49576000  1
  O  O16  1  0.61350300  0.81287500  0.00499500  1
  O  O17  1  0.44089700  0.58891300  0.23376400  1
  O  O18  1  0.91074100  0.05711500  0.26488600  1
  O  O19  1  0.58891300  0.23376400  0.44089700  1
  O  O20  1  0.00006200  0.37785300  0.18961900  1
  O  O21  1  0.23376400  0.44089700  0.58891300  1
  O  O22  1  0.94438200  0.72931900  0.09437500  1
  O  O23  1  0.18961900  0.00006200  0.37785300  1
  O  O24  1  0.81287500  0.00499500  0.61350300  1
  O  O25  1  0.05711500  0.26488600  0.91074100  1
  O  O26  1  0.76688200  0.55314700  0.41460100  1
  O  O27  1  0.00499500  0.61350300  0.81287500  1
  O  O28  1  0.41460100  0.76688200  0.55314700  1
  O  O29  1  0.09437500  0.94438200  0.72931900  1
  O  O30  1  0.55314700  0.41460100  0.76688200  1
  O  O31  1  0.37785300  0.18961900  0.00006200  1
  O  O32  1  0.68865800  0.87990100  0.50021900  1
  O  O33  1  0.72931900  0.09437500  0.94438200  1
  O  O34  1  0.87990100  0.50021900  0.68865800  1
  O  O35  1  0.50021900  0.68865800  0.87990100  1
