# generated using pymatgen
data_Cr2Fe3Co(PO4)6
_symmetry_space_group_name_H-M   'P 1'
_cell_length_a   8.36256289
_cell_length_b   8.36256289
_cell_length_c   8.36256327
_cell_angle_alpha   61.68307120
_cell_angle_beta   61.68307120
_cell_angle_gamma   61.68307430
_symmetry_Int_Tables_number   1
_chemical_formula_structural   Cr2Fe3Co(PO4)6
_chemical_formula_sum   'Cr2 Fe3 Co1 P6 O24'
_cell_volume   429.12951402
_cell_formula_units_Z   1
loop_
 _symmetry_equiv_pos_site_id
 _symmetry_equiv_pos_as_xyz
  1  'x, y, z'
loop_
 _atom_site_type_symbol
 _atom_site_label
 _atom_site_symmetry_multiplicity
 _atom_site_fract_x
 _atom_site_fract_y
 _atom_site_fract_z
 _atom_site_occupancy
  Cr  Cr0  1  0.00010600  0.00010600  0.00010600  1
  Cr  Cr1  1  0.49941000  0.49941000  0.49941000  1
  Fe  Fe2  1  0.14505500  0.14505500  0.14505500  1
  Fe  Fe3  1  0.35340200  0.35340200  0.35340200  1
  Fe  Fe4  1  0.64636700  0.64636700  0.64636700  1
  Co  Co5  1  0.85966100  0.85966100  0.85966100  1
  P  P6  1  0.75007500  0.04515200  0.45995400  1
  P  P7  1  0.04515200  0.45995400  0.75007500  1
  P  P8  1  0.45995400  0.75007500  0.04515200  1
  P  P9  1  0.54895000  0.24626800  0.94963800  1
  P  P10  1  0.94963800  0.54895000  0.24626800  1
  P  P11  1  0.24626800  0.94963800  0.54895000  1
  O  O12  1  0.31545400  0.10653800  0.51146100  1
  O  O13  1  0.51146100  0.31545400  0.10653800  1
  O  O14  1  0.90663500  0.05732500  0.25402000  1
  O  O15  1  0.10653800  0.51146100  0.31545400  1
  O  O16  1  0.81662300  0.00848600  0.61775600  1
  O  O17  1  0.59480400  0.25120800  0.43873700  1
  O  O18  1  0.05732500  0.25402000  0.90663500  1
  O  O19  1  0.25120800  0.43873700  0.59480400  1
  O  O20  1  0.39342500  0.17396700  0.99266200  1
  O  O21  1  0.43873700  0.59480400  0.25120800  1
  O  O22  1  0.75338800  0.08697200  0.93730300  1
  O  O23  1  0.99266200  0.39342500  0.17396700  1
  O  O24  1  0.00848600  0.61775600  0.81662300  1
  O  O25  1  0.25402000  0.90663500  0.05732500  1
  O  O26  1  0.56522700  0.40230500  0.74672100  1
  O  O27  1  0.61775600  0.81662300  0.00848600  1
  O  O28  1  0.74672100  0.56522700  0.40230500  1
  O  O29  1  0.93730300  0.75338800  0.08697200  1
  O  O30  1  0.40230500  0.74672100  0.56522700  1
  O  O31  1  0.17396700  0.99266200  0.39342500  1
  O  O32  1  0.89428600  0.49750300  0.67315600  1
  O  O33  1  0.08697200  0.93730300  0.75338800  1
  O  O34  1  0.49750300  0.67315600  0.89428600  1
  O  O35  1  0.67315600  0.89428600  0.49750300  1
