# generated using pymatgen
data_CaGeO3
_symmetry_space_group_name_H-M   'P 1'
_cell_length_a   7.01354428
_cell_length_b   7.01354428
_cell_length_c   10.99971611
_cell_angle_alpha   71.99172610
_cell_angle_beta   71.99172610
_cell_angle_gamma   60.20347937
_symmetry_Int_Tables_number   1
_chemical_formula_structural   CaGeO3
_chemical_formula_sum   'Ca6 Ge6 O18'
_cell_volume   438.53840448
_cell_formula_units_Z   6
loop_
 _symmetry_equiv_pos_site_id
 _symmetry_equiv_pos_as_xyz
  1  'x, y, z'
loop_
 _atom_site_type_symbol
 _atom_site_label
 _atom_site_symmetry_multiplicity
 _atom_site_fract_x
 _atom_site_fract_y
 _atom_site_fract_z
 _atom_site_occupancy
  Ca  Ca0  1  0.00000000  0.50000000  0.50000000  1
  Ca  Ca1  1  0.32873500  0.84529100  0.50063500  1
  Ca  Ca2  1  0.15470900  0.67126500  0.99936500  1
  Ca  Ca3  1  0.84529100  0.32873500  0.00063500  1
  Ca  Ca4  1  0.67126500  0.15470900  0.49936500  1
  Ca  Ca5  1  0.50000000  0.00000000  0.00000000  1
  Ge  Ge6  1  0.58088600  0.68712600  0.75486500  1
  Ge  Ge7  1  0.85220400  0.14779600  0.75000000  1
  Ge  Ge8  1  0.68712600  0.58088600  0.25486500  1
  Ge  Ge9  1  0.31287400  0.41911400  0.74513500  1
  Ge  Ge10  1  0.14779600  0.85220400  0.25000000  1
  Ge  Ge11  1  0.41911400  0.31287400  0.24513500  1
  O  O12  1  0.63165800  0.83201900  0.60014000  1
  O  O13  1  0.52919700  0.72113600  0.91344800  1
  O  O14  1  0.82767500  0.41807100  0.75192600  1
  O  O15  1  0.83201900  0.63165800  0.10014000  1
  O  O16  1  0.72113600  0.52919700  0.41344800  1
  O  O17  1  0.99716100  0.10953000  0.59456800  1
  O  O18  1  0.33563700  0.66436300  0.75000000  1
  O  O19  1  0.89047000  0.00283900  0.90543200  1
  O  O20  1  0.41807100  0.82767500  0.25192600  1
  O  O21  1  0.58192900  0.17232500  0.74807400  1
  O  O22  1  0.10953000  0.99716100  0.09456800  1
  O  O23  1  0.66436300  0.33563700  0.25000000  1
  O  O24  1  0.00283900  0.89047000  0.40543200  1
  O  O25  1  0.27886400  0.47080300  0.58655200  1
  O  O26  1  0.16798100  0.36834200  0.89986000  1
  O  O27  1  0.17232500  0.58192900  0.24807400  1
  O  O28  1  0.47080300  0.27886400  0.08655200  1
  O  O29  1  0.36834200  0.16798100  0.39986000  1
