# generated using pymatgen
data_Li2V3SnO8
_symmetry_space_group_name_H-M   'P 1'
_cell_length_a   5.87579617
_cell_length_b   5.86836702
_cell_length_c   9.91510087
_cell_angle_alpha   90.10877057
_cell_angle_beta   89.94568392
_cell_angle_gamma   119.95817436
_symmetry_Int_Tables_number   1
_chemical_formula_structural   Li2V3SnO8
_chemical_formula_sum   'Li4 V6 Sn2 O16'
_cell_volume   296.20600592
_cell_formula_units_Z   2
loop_
 _symmetry_equiv_pos_site_id
 _symmetry_equiv_pos_as_xyz
  1  'x, y, z'
loop_
 _atom_site_type_symbol
 _atom_site_label
 _atom_site_symmetry_multiplicity
 _atom_site_fract_x
 _atom_site_fract_y
 _atom_site_fract_z
 _atom_site_occupancy
  Li  Li0  1  0.33320300  0.66902000  0.89490000  1
  Li  Li1  1  0.00134800  0.99721800  0.99192000  1
  Li  Li2  1  0.99865200  0.99587000  0.49192000  1
  Li  Li3  1  0.66679700  0.33581700  0.39490000  1
  V  V4  1  0.17664100  0.82468200  0.21539100  1
  V  V5  1  0.64729000  0.82358500  0.21346300  1
  V  V6  1  0.35271000  0.17629400  0.71346300  1
  V  V7  1  0.82420500  0.17685800  0.71342800  1
  V  V8  1  0.17579500  0.35265300  0.21342800  1
  V  V9  1  0.82335900  0.64804100  0.71539100  1
  Sn  Sn10  1  0.33393000  0.66639200  0.49428400  1
  Sn  Sn11  1  0.66607000  0.33246100  0.99428400  1
  O  O12  1  0.16127500  0.83928200  0.60481400  1
  O  O13  1  0.03381300  0.51709400  0.34036100  1
  O  O14  1  0.33200200  0.66835200  0.09676100  1
  O  O15  1  0.00048100  0.99997700  0.30315500  1
  O  O16  1  0.99951900  0.99949600  0.80315500  1
  O  O17  1  0.16058200  0.31957900  0.60341800  1
  O  O18  1  0.48462600  0.96770600  0.33979300  1
  O  O19  1  0.48277300  0.51634900  0.33877300  1
  O  O20  1  0.31990500  0.16009600  0.10345800  1
  O  O21  1  0.68009500  0.84019200  0.60345800  1
  O  O22  1  0.51537400  0.48308000  0.83979300  1
  O  O23  1  0.51722700  0.03357600  0.83877300  1
  O  O24  1  0.66799800  0.33635000  0.59676100  1
  O  O25  1  0.83872500  0.67800700  0.10481400  1
  O  O26  1  0.96618700  0.48328100  0.84036100  1
  O  O27  1  0.83941800  0.15899600  0.10341800  1
