# generated using pymatgen
data_MnFe3Sn2(PO4)6
_symmetry_space_group_name_H-M   'P 1'
_cell_length_a   8.68988570
_cell_length_b   8.68988570
_cell_length_c   8.68988550
_cell_angle_alpha   60.48216904
_cell_angle_beta   60.48216904
_cell_angle_gamma   60.48216660
_symmetry_Int_Tables_number   1
_chemical_formula_structural   MnFe3Sn2(PO4)6
_chemical_formula_sum   'Mn1 Fe3 Sn2 P6 O24'
_cell_volume   469.06671380
_cell_formula_units_Z   1
loop_
 _symmetry_equiv_pos_site_id
 _symmetry_equiv_pos_as_xyz
  1  'x, y, z'
loop_
 _atom_site_type_symbol
 _atom_site_label
 _atom_site_symmetry_multiplicity
 _atom_site_fract_x
 _atom_site_fract_y
 _atom_site_fract_z
 _atom_site_occupancy
  Mn  Mn0  1  0.15319700  0.15319700  0.15319700  1
  Fe  Fe1  1  0.84868000  0.84868000  0.84868000  1
  Fe  Fe2  1  0.64878700  0.64878700  0.64878700  1
  Fe  Fe3  1  0.35081300  0.35081300  0.35081300  1
  Sn  Sn4  1  0.00109100  0.00109100  0.00109100  1
  Sn  Sn5  1  0.50116000  0.50116000  0.50116000  1
  P  P6  1  0.55221200  0.95315100  0.25021900  1
  P  P7  1  0.25022000  0.55221200  0.95315100  1
  P  P8  1  0.04259700  0.74711800  0.45319800  1
  P  P9  1  0.74711800  0.45319800  0.04259700  1
  P  P10  1  0.45319800  0.04259700  0.74711800  1
  P  P11  1  0.95315100  0.25022000  0.55221200  1
  O  O12  1  0.50176500  0.89289700  0.67341100  1
  O  O13  1  0.89289700  0.67341100  0.50176500  1
  O  O14  1  0.75378900  0.93881600  0.09048600  1
  O  O15  1  0.67341100  0.50176500  0.89289700  1
  O  O16  1  0.40949800  0.97877000  0.18149000  1
  O  O17  1  0.58016900  0.75631800  0.40790200  1
  O  O18  1  0.09048600  0.75378900  0.93881600  1
  O  O19  1  0.40790200  0.58016900  0.75631800  1
  O  O20  1  0.00289400  0.81874100  0.60353700  1
  O  O21  1  0.75631800  0.40790200  0.58016900  1
  O  O22  1  0.05475900  0.90429200  0.25385000  1
  O  O23  1  0.81874100  0.60353700  0.00289400  1
  O  O24  1  0.18149000  0.40949800  0.97877000  1
  O  O25  1  0.93881600  0.09048600  0.75378900  1
  O  O26  1  0.24024000  0.59081300  0.43361500  1
  O  O27  1  0.97877000  0.18149000  0.40949800  1
  O  O28  1  0.59081300  0.43361500  0.24024000  1
  O  O29  1  0.90429200  0.25385000  0.05475900  1
  O  O30  1  0.43361500  0.24024000  0.59081300  1
  O  O31  1  0.60353700  0.00289400  0.81874100  1
  O  O32  1  0.31268800  0.50556900  0.11146300  1
  O  O33  1  0.25385000  0.05475900  0.90429200  1
  O  O34  1  0.11146300  0.31268800  0.50556900  1
  O  O35  1  0.50556900  0.11146300  0.31268800  1
