# generated using pymatgen
data_AlFeTc2
_symmetry_space_group_name_H-M   'P 1'
_cell_length_a   11.24070714
_cell_length_b   11.24070714
_cell_length_c   11.24070714
_cell_angle_alpha   130.43776380
_cell_angle_beta   118.13314583
_cell_angle_gamma   83.09959776
_symmetry_Int_Tables_number   1
_chemical_formula_structural   AlFeTc2
_chemical_formula_sum   'Al1 Fe1 Tc2'
_cell_volume   916.08056682
_cell_formula_units_Z   1
loop_
 _symmetry_equiv_pos_site_id
 _symmetry_equiv_pos_as_xyz
  1  'x, y, z'
loop_
 _atom_site_type_symbol
 _atom_site_label
 _atom_site_symmetry_multiplicity
 _atom_site_fract_x
 _atom_site_fract_y
 _atom_site_fract_z
 _atom_site_occupancy
  Al  Al0  1  0.00000000  0.00000000  0.00000000  1
  Fe  Fe1  1  0.00000000  0.50000000  0.50000000  1
  Tc  Tc2  1  0.00000000  0.25627100  0.25627100  1
  Tc  Tc3  1  0.00000000  0.74372900  0.74372900  1
