# generated using pymatgen
data_Fe3NiSn2(PO4)6
_symmetry_space_group_name_H-M   'P 1'
_cell_length_a   8.64600033
_cell_length_b   8.64600101
_cell_length_c   8.64600089
_cell_angle_alpha   60.34647765
_cell_angle_beta   60.34648002
_cell_angle_gamma   60.34647312
_symmetry_Int_Tables_number   1
_chemical_formula_structural   Fe3NiSn2(PO4)6
_chemical_formula_sum   'Fe3 Ni1 Sn2 P6 O24'
_cell_volume   460.59752784
_cell_formula_units_Z   1
loop_
 _symmetry_equiv_pos_site_id
 _symmetry_equiv_pos_as_xyz
  1  'x, y, z'
loop_
 _atom_site_type_symbol
 _atom_site_label
 _atom_site_symmetry_multiplicity
 _atom_site_fract_x
 _atom_site_fract_y
 _atom_site_fract_z
 _atom_site_occupancy
  Fe  Fe0  1  0.14957300  0.14957300  0.14957300  1
  Fe  Fe1  1  0.35212700  0.35212700  0.35212700  1
  Fe  Fe2  1  0.64859100  0.64859100  0.64859100  1
  Ni  Ni3  1  0.85250900  0.85250900  0.85250900  1
  Sn  Sn4  1  0.99909000  0.99909000  0.99909000  1
  Sn  Sn5  1  0.49919100  0.49919100  0.49919100  1
  P  P6  1  0.75047300  0.45585200  0.04158100  1
  P  P7  1  0.25009000  0.54630200  0.95783300  1
  P  P8  1  0.54630200  0.95783300  0.25009000  1
  P  P9  1  0.95783300  0.25009000  0.54630200  1
  P  P10  1  0.04158100  0.75047300  0.45585200  1
  P  P11  1  0.45585200  0.04158100  0.75047300  1
  O  O12  1  0.11147800  0.31595400  0.50476700  1
  O  O13  1  0.31595400  0.50476700  0.11147800  1
  O  O14  1  0.05732400  0.91189800  0.25147400  1
  O  O15  1  0.50476700  0.11147800  0.31595400  1
  O  O16  1  0.01190500  0.81644400  0.60235300  1
  O  O17  1  0.23962100  0.59071000  0.42925500  1
  O  O18  1  0.25147400  0.05732400  0.91189800  1
  O  O19  1  0.42925500  0.23962100  0.59071000  1
  O  O20  1  0.18307900  0.39348700  0.99507900  1
  O  O21  1  0.59071000  0.42925500  0.23962100  1
  O  O22  1  0.09043400  0.74644100  0.94264200  1
  O  O23  1  0.39348700  0.99507900  0.18307900  1
  O  O24  1  0.60235300  0.01190500  0.81644400  1
  O  O25  1  0.91189800  0.25147400  0.05732400  1
  O  O26  1  0.40999100  0.56441100  0.76130400  1
  O  O27  1  0.81644400  0.60235300  0.01190500  1
  O  O28  1  0.56441100  0.76130400  0.40999100  1
  O  O29  1  0.74644100  0.94264200  0.09043400  1
  O  O30  1  0.76130400  0.40999100  0.56441100  1
  O  O31  1  0.99507900  0.18307900  0.39348700  1
  O  O32  1  0.49221900  0.88729300  0.68722600  1
  O  O33  1  0.94264200  0.09043400  0.74644100  1
  O  O34  1  0.68722600  0.49221900  0.88729300  1
  O  O35  1  0.88729300  0.68722600  0.49221900  1
