# generated using pymatgen
data_Rb
_symmetry_space_group_name_H-M   'P 1'
_cell_length_a   12.42723973
_cell_length_b   9.20356217
_cell_length_c   9.06210622
_cell_angle_alpha   85.73994247
_cell_angle_beta   47.60801863
_cell_angle_gamma   46.65203890
_symmetry_Int_Tables_number   1
_chemical_formula_structural   Rb
_chemical_formula_sum   Rb4
_cell_volume   384.35047134
_cell_formula_units_Z   4
loop_
 _symmetry_equiv_pos_site_id
 _symmetry_equiv_pos_as_xyz
  1  'x, y, z'
loop_
 _atom_site_type_symbol
 _atom_site_label
 _atom_site_symmetry_multiplicity
 _atom_site_fract_x
 _atom_site_fract_y
 _atom_site_fract_z
 _atom_site_occupancy
  Rb  Rb0  1  0.13251200  0.86748800  0.13251200  1
  Rb  Rb1  1  0.11748800  0.38251200  0.11748800  1
  Rb  Rb2  1  0.86748800  0.13251200  0.86748800  1
  Rb  Rb3  1  0.38251200  0.11748800  0.38251200  1
