# generated using pymatgen
data_NbCrRe2
_symmetry_space_group_name_H-M   'P 1'
_cell_length_a   10.58465795
_cell_length_b   10.58465795
_cell_length_c   10.58465795
_cell_angle_alpha   125.59174960
_cell_angle_beta   118.01973815
_cell_angle_gamma   87.03180615
_symmetry_Int_Tables_number   1
_chemical_formula_structural   NbCrRe2
_chemical_formula_sum   'Nb1 Cr1 Re2'
_cell_volume   809.69817643
_cell_formula_units_Z   1
loop_
 _symmetry_equiv_pos_site_id
 _symmetry_equiv_pos_as_xyz
  1  'x, y, z'
loop_
 _atom_site_type_symbol
 _atom_site_label
 _atom_site_symmetry_multiplicity
 _atom_site_fract_x
 _atom_site_fract_y
 _atom_site_fract_z
 _atom_site_occupancy
  Nb  Nb0  1  0.00000000  0.50000000  0.50000000  1
  Cr  Cr1  1  0.00000000  0.00000000  0.00000000  1
  Re  Re2  1  0.00000000  0.26605800  0.26605800  1
  Re  Re3  1  0.00000000  0.73394200  0.73394200  1
