# generated using pymatgen
data_Ti2N2O
_symmetry_space_group_name_H-M   'P 1'
_cell_length_a   8.21563948
_cell_length_b   8.21920047
_cell_length_c   8.22801003
_cell_angle_alpha   109.59115909
_cell_angle_beta   109.43630073
_cell_angle_gamma   109.31135288
_symmetry_Int_Tables_number   1
_chemical_formula_structural   Ti2N2O
_chemical_formula_sum   'Ti16 N16 O8'
_cell_volume   428.09725732
_cell_formula_units_Z   8
loop_
 _symmetry_equiv_pos_site_id
 _symmetry_equiv_pos_as_xyz
  1  'x, y, z'
loop_
 _atom_site_type_symbol
 _atom_site_label
 _atom_site_symmetry_multiplicity
 _atom_site_fract_x
 _atom_site_fract_y
 _atom_site_fract_z
 _atom_site_occupancy
  Ti  Ti0  1  0.78507100  0.24703100  0.04243300  1
  Ti  Ti1  1  0.99048700  0.98981300  0.00040500  1
  Ti  Ti2  1  0.48642900  0.99187800  0.49869600  1
  Ti  Ti3  1  0.49082200  0.48489300  0.98840000  1
  Ti  Ti4  1  0.54112100  0.29141900  0.24290900  1
  Ti  Ti5  1  0.95358500  0.20354100  0.75126200  1
  Ti  Ti6  1  0.75112200  0.45148200  0.71419900  1
  Ti  Ti7  1  0.75769700  0.97173000  0.20400600  1
  Ti  Ti8  1  0.29193200  0.25633800  0.54957300  1
  Ti  Ti9  1  0.71000700  0.75347100  0.46279800  1
  Ti  Ti10  1  0.24400900  0.03903000  0.78548100  1
  Ti  Ti11  1  0.26686100  0.54965900  0.29712100  1
  Ti  Ti12  1  0.01612100  0.50502900  0.51212100  1
  Ti  Ti13  1  0.04485800  0.79567900  0.24993500  1
  Ti  Ti14  1  0.45655100  0.70579300  0.74568300  1
  Ti  Ti15  1  0.19697200  0.73717000  0.95153200  1
  N  N16  1  0.76403700  0.22481000  0.27458100  1
  N  N17  1  0.45224000  0.49062100  0.22746900  1
  N  N18  1  0.03836000  0.04863900  0.27319800  1
  N  N19  1  0.72653000  0.23667400  0.77389300  1
  N  N20  1  0.95898900  0.94938300  0.72393800  1
  N  N21  1  0.22456700  0.45083100  0.48780000  1
  N  N22  1  0.54035900  0.26628400  0.99036000  1
  N  N23  1  0.27605600  0.76643700  0.22491900  1
  N  N24  1  0.95190200  0.72663100  0.95853200  1
  N  N25  1  0.54962600  0.50718800  0.77587100  1
  N  N26  1  0.51378700  0.77925000  0.55192500  1
  N  N27  1  0.22421000  0.27896600  0.76757000  1
  N  N28  1  0.01135600  0.45947800  0.73384400  1
  N  N29  1  0.72790500  0.96240200  0.95039100  1
  N  N30  1  0.26618700  0.99157700  0.54018500  1
  N  N31  1  0.23363300  0.77411800  0.72735900  1
  O  O32  1  0.73587700  0.00710300  0.45969100  1
  O  O33  1  0.27817400  0.04692300  0.05454500  1
  O  O34  1  0.98851200  0.54089600  0.26292000  1
  O  O35  1  0.77633900  0.72960600  0.23934500  1
  O  O36  1  0.49369000  0.22595600  0.44856500  1
  O  O37  1  0.04819800  0.27685000  0.03967600  1
  O  O38  1  0.77112000  0.54665000  0.50513900  1
  O  O39  1  0.46470600  0.73877000  0.01173100  1
