# generated using pymatgen
data_Zr2N2O
_symmetry_space_group_name_H-M   'P 1'
_cell_length_a   8.87085900
_cell_length_b   8.87714677
_cell_length_c   8.86589466
_cell_angle_alpha   109.27898385
_cell_angle_beta   109.40271592
_cell_angle_gamma   109.59069063
_symmetry_Int_Tables_number   1
_chemical_formula_structural   Zr2N2O
_chemical_formula_sum   'Zr16 N16 O8'
_cell_volume   538.38405146
_cell_formula_units_Z   8
loop_
 _symmetry_equiv_pos_site_id
 _symmetry_equiv_pos_as_xyz
  1  'x, y, z'
loop_
 _atom_site_type_symbol
 _atom_site_label
 _atom_site_symmetry_multiplicity
 _atom_site_fract_x
 _atom_site_fract_y
 _atom_site_fract_z
 _atom_site_occupancy
  Zr  Zr0  1  0.75200600  0.96750800  0.20686600  1
  Zr  Zr1  1  0.03047900  0.77594300  0.24405500  1
  Zr  Zr2  1  0.99615800  0.98892100  0.99021200  1
  Zr  Zr3  1  0.52927800  0.27974900  0.25354400  1
  Zr  Zr4  1  0.50235800  0.50295300  0.00333600  1
  Zr  Zr5  1  0.48909500  0.99130600  0.48882400  1
  Zr  Zr6  1  0.25925200  0.54208800  0.29009300  1
  Zr  Zr7  1  0.29756200  0.26647700  0.54763000  1
  Zr  Zr8  1  0.71231600  0.74661100  0.46087800  1
  Zr  Zr9  1  0.78564000  0.25105600  0.04437600  1
  Zr  Zr10  1  0.20547900  0.74701700  0.95958300  1
  Zr  Zr11  1  0.74957800  0.46103800  0.71497100  1
  Zr  Zr12  1  0.01030700  0.49952500  0.50103600  1
  Zr  Zr13  1  0.97295900  0.21631100  0.75013700  1
  Zr  Zr14  1  0.46525500  0.71553600  0.74388900  1
  Zr  Zr15  1  0.24075200  0.02822400  0.78739700  1
  N  N16  1  0.73202900  0.96928100  0.96152900  1
  N  N17  1  0.75753900  0.22635100  0.27386400  1
  N  N18  1  0.45289700  0.48272600  0.22519900  1
  N  N19  1  0.77114300  0.73381300  0.24094900  1
  N  N20  1  0.49321500  0.22942800  0.46032900  1
  N  N21  1  0.22860600  0.27107200  0.76372900  1
  N  N22  1  0.98709300  0.53182700  0.25744700  1
  N  N23  1  0.51226500  0.77630100  0.54488500  1
  N  N24  1  0.95365000  0.72946400  0.96785900  1
  N  N25  1  0.54792000  0.51471300  0.77801300  1
  N  N26  1  0.22531100  0.45058500  0.48541400  1
  N  N27  1  0.27893000  0.76756700  0.22889500  1
  N  N28  1  0.96252800  0.95104100  0.72671400  1
  N  N29  1  0.23975500  0.77265400  0.72494100  1
  N  N30  1  0.00629400  0.46374700  0.73749200  1
  N  N31  1  0.27193300  0.03737400  0.04291900  1
  O  O32  1  0.53890600  0.26444200  0.98474200  1
  O  O33  1  0.73907200  0.01592000  0.46985100  1
  O  O34  1  0.04090000  0.27299300  0.02732000  1
  O  O35  1  0.72480800  0.23507400  0.77430200  1
  O  O36  1  0.77247800  0.54875600  0.51547000  1
  O  O37  1  0.03658400  0.04724600  0.27594500  1
  O  O38  1  0.46592700  0.73883000  0.01376200  1
  O  O39  1  0.26174500  0.98853300  0.53160400  1
