# generated using pymatgen
data_Zr2N2O
_symmetry_space_group_name_H-M   'P 1'
_cell_length_a   8.88208361
_cell_length_b   8.86510848
_cell_length_c   8.87993628
_cell_angle_alpha   109.51957249
_cell_angle_beta   109.42971548
_cell_angle_gamma   109.43299831
_symmetry_Int_Tables_number   1
_chemical_formula_structural   Zr2N2O
_chemical_formula_sum   'Zr16 N16 O8'
_cell_volume   538.46150938
_cell_formula_units_Z   8
loop_
 _symmetry_equiv_pos_site_id
 _symmetry_equiv_pos_as_xyz
  1  'x, y, z'
loop_
 _atom_site_type_symbol
 _atom_site_label
 _atom_site_symmetry_multiplicity
 _atom_site_fract_x
 _atom_site_fract_y
 _atom_site_fract_z
 _atom_site_occupancy
  Zr  Zr0  1  0.49892600  0.99646300  0.99861000  1
  Zr  Zr1  1  0.95582300  0.24754400  0.21681600  1
  Zr  Zr2  1  0.78009300  0.03184700  0.75351600  1
  Zr  Zr3  1  0.70839600  0.46842700  0.25231200  1
  Zr  Zr4  1  0.75685000  0.28785600  0.54002900  1
  Zr  Zr5  1  0.75014100  0.78007600  0.03163000  1
  Zr  Zr6  1  0.46445900  0.25041200  0.71194100  1
  Zr  Zr7  1  0.01042500  0.99893800  0.51012600  1
  Zr  Zr8  1  0.49074900  0.50586700  0.50208700  1
  Zr  Zr9  1  0.99797500  0.50537800  0.98894800  1
  Zr  Zr10  1  0.53221200  0.74203900  0.28646100  1
  Zr  Zr11  1  0.25458900  0.71824100  0.46600000  1
  Zr  Zr12  1  0.24629500  0.21420800  0.96340100  1
  Zr  Zr13  1  0.21339300  0.95405100  0.24309000  1
  Zr  Zr14  1  0.28211200  0.53079600  0.74154000  1
  Zr  Zr15  1  0.04644200  0.76175500  0.79296400  1
  N  N16  1  0.74036000  0.23044500  0.27453400  1
  N  N17  1  0.27828800  0.01566500  0.04933700  1
  N  N18  1  0.77379500  0.72682300  0.26048100  1
  N  N19  1  0.45592900  0.46396400  0.22756000  1
  N  N20  1  0.72630000  0.25869400  0.77340700  1
  N  N21  1  0.22550900  0.45055700  0.46180900  1
  N  N22  1  0.27234200  0.73563000  0.22251900  1
  N  N23  1  0.98322400  0.95203700  0.72428500  1
  N  N24  1  0.95760200  0.72996500  0.99328600  1
  N  N25  1  0.54509000  0.53497600  0.77159700  1
  N  N26  1  0.53438500  0.77253900  0.54320400  1
  N  N27  1  0.22778400  0.27192200  0.74245300  1
  N  N28  1  0.02976700  0.48610600  0.75752400  1
  N  N29  1  0.73012000  0.98886800  0.95778200  1
  N  N30  1  0.23851000  0.96888000  0.50861800  1
  N  N31  1  0.26596400  0.77607500  0.73017600  1
  O  O32  1  0.76043400  0.03518500  0.48539200  1
  O  O33  1  0.96475800  0.50695100  0.23515000  1
  O  O34  1  0.46970500  0.23074600  0.45696800  1
  O  O35  1  0.04754900  0.27511700  0.01543700  1
  O  O36  1  0.48898400  0.76467500  0.03582100  1
  O  O37  1  0.01183200  0.04879700  0.27478200  1
  O  O38  1  0.77021000  0.54219900  0.53189900  1
  O  O39  1  0.51268000  0.23928800  0.96650800  1
