# generated using pymatgen
data_LaTa2NO5
_symmetry_space_group_name_H-M   'P 1'
_cell_length_a   11.31642600
_cell_length_b   5.53326800
_cell_length_c   7.72976517
_cell_angle_alpha   89.88278832
_cell_angle_beta   90.00000000
_cell_angle_gamma   90.00000000
_symmetry_Int_Tables_number   1
_chemical_formula_structural   LaTa2NO5
_chemical_formula_sum   'La4 Ta8 N4 O20'
_cell_volume   484.01228524
_cell_formula_units_Z   4
loop_
 _symmetry_equiv_pos_site_id
 _symmetry_equiv_pos_as_xyz
  1  'x, y, z'
loop_
 _atom_site_type_symbol
 _atom_site_label
 _atom_site_symmetry_multiplicity
 _atom_site_fract_x
 _atom_site_fract_y
 _atom_site_fract_z
 _atom_site_occupancy
  La  La0  1  0.03592500  0.79735300  0.50029700  1
  La  La1  1  0.45592300  0.29558700  0.99837100  1
  La  La2  1  0.53592500  0.20264700  0.49970300  1
  La  La3  1  0.95592300  0.70441300  0.00162900  1
  Ta  Ta4  1  0.14940500  0.28828100  0.75618400  1
  Ta  Ta5  1  0.14203400  0.29393700  0.24736700  1
  Ta  Ta6  1  0.35340400  0.79718100  0.75250900  1
  Ta  Ta7  1  0.35951500  0.78177000  0.24645300  1
  Ta  Ta8  1  0.64203400  0.70606300  0.75263300  1
  Ta  Ta9  1  0.64940500  0.71171900  0.24381600  1
  Ta  Ta10  1  0.85340400  0.20281900  0.24749100  1
  Ta  Ta11  1  0.85951400  0.21823000  0.75354700  1
  N  N12  1  0.29110700  0.12331400  0.80379100  1
  N  N13  1  0.35606700  0.70066100  0.00061900  1
  N  N14  1  0.79110700  0.87668600  0.19620900  1
  N  N15  1  0.85606700  0.29933900  0.99938100  1
  O  O16  1  0.02392600  0.02583700  0.78323000  1
  O  O17  1  0.02686700  0.02308000  0.21617900  1
  O  O18  1  0.12234500  0.39974900  0.00123600  1
  O  O19  1  0.14229900  0.20500000  0.49915700  1
  O  O20  1  0.21145100  0.61710000  0.30890400  1
  O  O21  1  0.20931600  0.61941500  0.69117100  1
  O  O22  1  0.28676700  0.11961800  0.19887400  1
  O  O23  1  0.37991100  0.89878400  0.49939000  1
  O  O24  1  0.47256400  0.51245100  0.28792700  1
  O  O25  1  0.48117400  0.52130200  0.71315400  1
  O  O26  1  0.52686700  0.97692000  0.78382100  1
  O  O27  1  0.52392600  0.97416300  0.21677000  1
  O  O28  1  0.62234500  0.60025100  0.99876400  1
  O  O29  1  0.64229900  0.79500000  0.50084300  1
  O  O30  1  0.70931600  0.38058500  0.30882900  1
  O  O31  1  0.71145100  0.38290000  0.69109600  1
  O  O32  1  0.78676700  0.88038200  0.80112600  1
  O  O33  1  0.87991100  0.10121600  0.50061000  1
  O  O34  1  0.98117400  0.47869800  0.28684600  1
  O  O35  1  0.97256400  0.48754900  0.71207300  1
