# generated using pymatgen
data_BaNb3NO7
_symmetry_space_group_name_H-M   'P 1'
_cell_length_a   10.79420589
_cell_length_b   10.79420589
_cell_length_c   9.12912202
_cell_angle_alpha   89.50859623
_cell_angle_beta   89.50859623
_cell_angle_gamma   20.75472550
_symmetry_Int_Tables_number   1
_chemical_formula_structural   BaNb3NO7
_chemical_formula_sum   'Ba2 Nb6 N2 O14'
_cell_volume   376.91949001
_cell_formula_units_Z   2
loop_
 _symmetry_equiv_pos_site_id
 _symmetry_equiv_pos_as_xyz
  1  'x, y, z'
loop_
 _atom_site_type_symbol
 _atom_site_label
 _atom_site_symmetry_multiplicity
 _atom_site_fract_x
 _atom_site_fract_y
 _atom_site_fract_z
 _atom_site_occupancy
  Ba  Ba0  1  0.00892400  0.00892400  0.24951700  1
  Ba  Ba1  1  0.97918600  0.97918600  0.75629300  1
  Nb  Nb2  1  0.36796500  0.36796500  0.05125500  1
  Nb  Nb3  1  0.75905700  0.75905700  0.24349800  1
  Nb  Nb4  1  0.36533100  0.36533100  0.44347600  1
  Nb  Nb5  1  0.63173900  0.63173900  0.55372200  1
  Nb  Nb6  1  0.24136300  0.24136300  0.75556200  1
  Nb  Nb7  1  0.63061200  0.63061200  0.93689800  1
  N  N8  1  0.29613800  0.29613800  0.90320500  1
  N  N9  1  0.43707700  0.43707700  0.93526800  1
  O  O10  1  0.56601100  0.56601100  0.06869500  1
  O  O11  1  0.84394000  0.84394000  0.10456500  1
  O  O12  1  0.70152100  0.70152100  0.09218400  1
  O  O13  1  0.28214900  0.28214900  0.25760100  1
  O  O14  1  0.41758100  0.41758100  0.25876900  1
  O  O15  1  0.70184800  0.70184800  0.40374800  1
  O  O16  1  0.84476900  0.84476900  0.40714300  1
  O  O17  1  0.56375200  0.56375200  0.43237500  1
  O  O18  1  0.43282500  0.43282500  0.56726500  1
  O  O19  1  0.14716900  0.14716900  0.58233800  1
  O  O20  1  0.29445900  0.29445900  0.58670600  1
  O  O21  1  0.70782700  0.70782700  0.74725000  1
  O  O22  1  0.58066500  0.58066500  0.75091300  1
  O  O23  1  0.15072200  0.15072200  0.90738700  1
