# generated using pymatgen
data_P8W3O29
_symmetry_space_group_name_H-M   'P 1'
_cell_length_a   9.93452609
_cell_length_b   9.93452609
_cell_length_c   13.81262700
_cell_angle_alpha   90.00000000
_cell_angle_beta   90.00000000
_cell_angle_gamma   120.00000063
_symmetry_Int_Tables_number   1
_chemical_formula_structural   P8W3O29
_chemical_formula_sum   'P16 W6 O58'
_cell_volume   1180.59576991
_cell_formula_units_Z   2
loop_
 _symmetry_equiv_pos_site_id
 _symmetry_equiv_pos_as_xyz
  1  'x, y, z'
loop_
 _atom_site_type_symbol
 _atom_site_label
 _atom_site_symmetry_multiplicity
 _atom_site_fract_x
 _atom_site_fract_y
 _atom_site_fract_z
 _atom_site_occupancy
  P  P0  1  0.07757500  0.30767300  0.34764500  1
  P  P1  1  0.23009900  0.30767300  0.84764500  1
  P  P2  1  0.07757500  0.76990100  0.84764500  1
  P  P3  1  0.33333300  0.66666700  0.12115000  1
  P  P4  1  0.33333300  0.66666700  0.62115000  1
  P  P5  1  0.23009900  0.92242500  0.34764500  1
  P  P6  1  0.30767300  0.07757500  0.15235500  1
  P  P7  1  0.69232700  0.76990100  0.34764500  1
  P  P8  1  0.30767300  0.23009900  0.65235500  1
  P  P9  1  0.69232700  0.92242500  0.84764500  1
  P  P10  1  0.76990100  0.07757500  0.65235500  1
  P  P11  1  0.66666700  0.33333300  0.87885000  1
  P  P12  1  0.66666700  0.33333300  0.37885000  1
  P  P13  1  0.92242500  0.23009900  0.15235500  1
  P  P14  1  0.76990100  0.69232700  0.15235500  1
  P  P15  1  0.92242500  0.69232700  0.65235500  1
  W  W16  1  0.00000000  0.43035800  0.75000000  1
  W  W17  1  0.00000000  0.56964200  0.25000000  1
  W  W18  1  0.43035800  0.43035800  0.25000000  1
  W  W19  1  0.56964200  0.56964200  0.75000000  1
  W  W20  1  0.43035800  0.00000000  0.75000000  1
  W  W21  1  0.56964200  0.00000000  0.25000000  1
  O  O22  1  0.00000000  0.20830300  0.25000000  1
  O  O23  1  0.00449900  0.23773700  0.06386600  1
  O  O24  1  0.09193200  0.34332100  0.83441900  1
  O  O25  1  0.20830300  0.20830300  0.75000000  1
  O  O26  1  0.23323900  0.23773700  0.56386600  1
  O  O27  1  0.25138800  0.34332100  0.33441900  1
  O  O28  1  0.09149600  0.47163300  0.32571000  1
  O  O29  1  0.18637000  0.52376700  0.67059000  1
  O  O30  1  0.09149600  0.61986300  0.82571000  1
  O  O31  1  0.00449900  0.76676100  0.56386600  1
  O  O32  1  0.00000000  0.79169700  0.75000000  1
  O  O33  1  0.09193200  0.74861200  0.33441900  1
  O  O34  1  0.33739600  0.52376700  0.17059000  1
  O  O35  1  0.38013700  0.47163300  0.82571000  1
  O  O36  1  0.18637000  0.66260400  0.17059000  1
  O  O37  1  0.33333300  0.66666700  0.01538700  1
  O  O38  1  0.33333300  0.66666700  0.51538700  1
  O  O39  1  0.33739600  0.81363000  0.67059000  1
  O  O40  1  0.52836700  0.61986300  0.32571000  1
  O  O41  1  0.47623300  0.66260400  0.67059000  1
  O  O42  1  0.25138800  0.90806800  0.83441900  1
  O  O43  1  0.20830300  0.00000000  0.25000000  1
  O  O44  1  0.23323900  0.99550100  0.06386600  1
  O  O45  1  0.23773700  0.00449900  0.43613400  1
  O  O46  1  0.38013700  0.90850400  0.32571000  1
  O  O47  1  0.47623300  0.81363000  0.17059000  1
  O  O48  1  0.34332100  0.09193200  0.66558100  1
  O  O49  1  0.52836700  0.90850400  0.82571000  1
  O  O50  1  0.65667900  0.74861200  0.83441900  1
  O  O51  1  0.23773700  0.23323900  0.93613400  1
  O  O52  1  0.76226300  0.76676100  0.06386600  1
  O  O53  1  0.79169700  0.79169700  0.25000000  1
  O  O54  1  0.34332100  0.25138800  0.16558100  1
  O  O55  1  0.47163300  0.09149600  0.17429000  1
  O  O56  1  0.65667900  0.90806800  0.33441900  1
  O  O57  1  0.52376700  0.18637000  0.82941000  1
  O  O58  1  0.61986300  0.09149600  0.67429000  1
  O  O59  1  0.76226300  0.99550100  0.56386600  1
  O  O60  1  0.76676100  0.00449900  0.93613400  1
  O  O61  1  0.79169700  0.00000000  0.75000000  1
  O  O62  1  0.74861200  0.09193200  0.16558100  1
  O  O63  1  0.52376700  0.33739600  0.32941000  1
  O  O64  1  0.47163300  0.38013700  0.67429000  1
  O  O65  1  0.66260400  0.18637000  0.32941000  1
  O  O66  1  0.66666700  0.33333300  0.98461300  1
  O  O67  1  0.66666700  0.33333300  0.48461300  1
  O  O68  1  0.81363000  0.33739600  0.82941000  1
  O  O69  1  0.61986300  0.52836700  0.17429000  1
  O  O70  1  0.66260400  0.47623300  0.82941000  1
  O  O71  1  0.90806800  0.25138800  0.66558100  1
  O  O72  1  0.99550100  0.23323900  0.43613400  1
  O  O73  1  0.90850400  0.38013700  0.17429000  1
  O  O74  1  0.81363000  0.47623300  0.32941000  1
  O  O75  1  0.90850400  0.52836700  0.67429000  1
  O  O76  1  0.74861200  0.65667900  0.66558100  1
  O  O77  1  0.76676100  0.76226300  0.43613400  1
  O  O78  1  0.90806800  0.65667900  0.16558100  1
  O  O79  1  0.99550100  0.76226300  0.93613400  1
