# generated using pymatgen
data_Ba2Ti6N2O11
_symmetry_space_group_name_H-M   'P 1'
_cell_length_a   8.00733093
_cell_length_b   8.00733093
_cell_length_c   9.27685703
_cell_angle_alpha   82.40058656
_cell_angle_beta   82.40058656
_cell_angle_gamma   28.27434338
_symmetry_Int_Tables_number   1
_chemical_formula_structural   Ba2Ti6N2O11
_chemical_formula_sum   'Ba2 Ti6 N2 O11'
_cell_volume   279.12423482
_cell_formula_units_Z   1
loop_
 _symmetry_equiv_pos_site_id
 _symmetry_equiv_pos_as_xyz
  1  'x, y, z'
loop_
 _atom_site_type_symbol
 _atom_site_label
 _atom_site_symmetry_multiplicity
 _atom_site_fract_x
 _atom_site_fract_y
 _atom_site_fract_z
 _atom_site_occupancy
  Ba  Ba0  1  0.54801600  0.54801600  0.22510000  1
  Ba  Ba1  1  0.44839900  0.44839900  0.76403900  1
  Ti  Ti2  1  0.11408800  0.11408800  0.90580900  1
  Ti  Ti3  1  0.17051200  0.17051200  0.56077200  1
  Ti  Ti4  1  0.23904100  0.23904100  0.22847900  1
  Ti  Ti5  1  0.75037100  0.75037100  0.77990500  1
  Ti  Ti6  1  0.83149200  0.83149200  0.44034700  1
  Ti  Ti7  1  0.88361200  0.88361200  0.08783100  1
  N  N8  1  0.63958300  0.63958300  0.88920500  1
  N  N9  1  0.99752800  0.99752800  0.99965300  1
  O  O10  1  0.07420800  0.07420800  0.69681000  1
  O  O11  1  0.13163800  0.13163800  0.38303600  1
  O  O12  1  0.16741600  0.16741600  0.09204800  1
  O  O13  1  0.70212300  0.70212300  0.57147100  1
  O  O14  1  0.75605400  0.75605400  0.24606900  1
  O  O15  1  0.24321100  0.24321100  0.75019300  1
  O  O16  1  0.29786200  0.29786200  0.42938100  1
  O  O17  1  0.35763000  0.35763000  0.11667100  1
  O  O18  1  0.83172300  0.83172300  0.91104600  1
  O  O19  1  0.87478100  0.87478100  0.60865900  1
  O  O20  1  0.92494000  0.92494000  0.29583900  1
