# generated using pymatgen
data_BaNb3NO7
_symmetry_space_group_name_H-M   'P 1'
_cell_length_a   10.75650234
_cell_length_b   10.75650234
_cell_length_c   9.11065692
_cell_angle_alpha   89.33842789
_cell_angle_beta   89.33842789
_cell_angle_gamma   20.86445307
_symmetry_Int_Tables_number   1
_chemical_formula_structural   BaNb3NO7
_chemical_formula_sum   'Ba2 Nb6 N2 O14'
_cell_volume   375.40930262
_cell_formula_units_Z   2
loop_
 _symmetry_equiv_pos_site_id
 _symmetry_equiv_pos_as_xyz
  1  'x, y, z'
loop_
 _atom_site_type_symbol
 _atom_site_label
 _atom_site_symmetry_multiplicity
 _atom_site_fract_x
 _atom_site_fract_y
 _atom_site_fract_z
 _atom_site_occupancy
  Ba  Ba0  1  0.98685500  0.98685500  0.75283900  1
  Ba  Ba1  1  0.02126700  0.02126700  0.24803300  1
  Nb  Nb2  1  0.64047600  0.64047600  0.95245900  1
  Nb  Nb3  1  0.24428400  0.24428400  0.75458100  1
  Nb  Nb4  1  0.63531700  0.63531700  0.56043900  1
  Nb  Nb5  1  0.36937200  0.36937200  0.43629500  1
  Nb  Nb6  1  0.76263500  0.76263500  0.24935200  1
  Nb  Nb7  1  0.36955300  0.36955300  0.07107800  1
  N  N8  1  0.29746800  0.29746800  0.25321500  1
  N  N9  1  0.70516400  0.70516400  0.09520400  1
  O  O10  1  0.43678600  0.43678600  0.93660900  1
  O  O11  1  0.15743200  0.15743200  0.89948300  1
  O  O12  1  0.30055000  0.30055000  0.90517900  1
  O  O13  1  0.71700900  0.71700900  0.74932300  1
  O  O14  1  0.58373900  0.58373900  0.74362100  1
  O  O15  1  0.30111600  0.30111600  0.59764900  1
  O  O16  1  0.15760200  0.15760200  0.59316800  1
  O  O17  1  0.43741700  0.43741700  0.56317600  1
  O  O18  1  0.57070900  0.57070900  0.42954600  1
  O  O19  1  0.85485700  0.85485700  0.41454600  1
  O  O20  1  0.70830000  0.70830000  0.41515900  1
  O  O21  1  0.42745300  0.42745300  0.24814300  1
  O  O22  1  0.85154000  0.85154000  0.08700900  1
  O  O23  1  0.56794600  0.56794600  0.06919900  1
