# generated using pymatgen
data_Cr4OF11
_symmetry_space_group_name_H-M   'P 1'
_cell_length_a   5.06494076
_cell_length_b   5.33361746
_cell_length_c   16.90602164
_cell_angle_alpha   91.03389967
_cell_angle_beta   97.96394963
_cell_angle_gamma   62.08000428
_symmetry_Int_Tables_number   1
_chemical_formula_structural   Cr4OF11
_chemical_formula_sum   'Cr8 O2 F22'
_cell_volume   399.08259406
_cell_formula_units_Z   2
loop_
 _symmetry_equiv_pos_site_id
 _symmetry_equiv_pos_as_xyz
  1  'x, y, z'
loop_
 _atom_site_type_symbol
 _atom_site_label
 _atom_site_symmetry_multiplicity
 _atom_site_fract_x
 _atom_site_fract_y
 _atom_site_fract_z
 _atom_site_occupancy
  Cr  Cr0  1  0.74384300  0.61493900  0.12899700  1
  Cr  Cr1  1  0.75615700  0.13506100  0.62100300  1
  Cr  Cr2  1  0.50192800  0.75330800  0.74961400  1
  Cr  Cr3  1  0.50792300  0.25992500  0.24731000  1
  Cr  Cr4  1  0.25000000  0.87500000  0.37500000  1
  Cr  Cr5  1  0.25000000  0.37500000  0.87500000  1
  Cr  Cr6  1  0.99207700  0.49007500  0.50269000  1
  Cr  Cr7  1  0.99807200  0.99669200  0.00038600  1
  O  O8  1  0.68627600  0.46772500  0.21814800  1
  O  O9  1  0.81372400  0.28227500  0.53185200  1
  F  F10  1  0.81395900  0.77882700  0.03491400  1
  F  F11  1  0.74329300  0.93703900  0.18695400  1
  F  F12  1  0.75670700  0.81296100  0.56304600  1
  F  F13  1  0.75181900  0.31222700  0.06250300  1
  F  F14  1  0.68604100  0.97117300  0.71508600  1
  F  F15  1  0.68516200  0.65886600  0.40865000  1
  F  F16  1  0.81436300  0.59240000  0.84258800  1
  F  F17  1  0.81483800  0.09113400  0.34135000  1
  F  F18  1  0.31466300  0.84163100  0.09304600  1
  F  F19  1  0.74818100  0.43777300  0.68749700  1
  F  F20  1  0.25739200  0.56128100  0.31190200  1
  F  F21  1  0.68563700  0.15760000  0.90741200  1
  F  F22  1  0.18533700  0.90836900  0.65695400  1
  F  F23  1  0.18307900  0.40827700  0.15676200  1
  F  F24  1  0.18109900  0.71322200  0.46764400  1
  F  F25  1  0.31406800  0.53309500  0.78146000  1
  F  F26  1  0.31692100  0.34172300  0.59323800  1
  F  F27  1  0.31890100  0.03677700  0.28235600  1
  F  F28  1  0.24483900  0.68769600  0.93737300  1
  F  F29  1  0.24260800  0.18871900  0.43809800  1
  F  F30  1  0.25516100  0.06230400  0.81262700  1
  F  F31  1  0.18593200  0.21690500  0.96854000  1
