# generated using pymatgen
data_Al2O3
_symmetry_space_group_name_H-M   'P 1'
_cell_length_a   7.77391168
_cell_length_b   7.77391168
_cell_length_c   7.77391168
_cell_angle_alpha   109.47122063
_cell_angle_beta   109.47122063
_cell_angle_gamma   109.47122063
_symmetry_Int_Tables_number   1
_chemical_formula_structural   Al2O3
_chemical_formula_sum   'Al16 O24'
_cell_volume   361.65703356
_cell_formula_units_Z   8
loop_
 _symmetry_equiv_pos_site_id
 _symmetry_equiv_pos_as_xyz
  1  'x, y, z'
loop_
 _atom_site_type_symbol
 _atom_site_label
 _atom_site_symmetry_multiplicity
 _atom_site_fract_x
 _atom_site_fract_y
 _atom_site_fract_z
 _atom_site_occupancy
  Al  Al0  1  0.50000000  0.00000000  0.00000000  1
  Al  Al1  1  0.96224200  0.25000000  0.21224200  1
  Al  Al2  1  0.78775800  0.03775800  0.75000000  1
  Al  Al3  1  0.71224200  0.46224200  0.25000000  1
  Al  Al4  1  0.75000000  0.78775800  0.03775800  1
  Al  Al5  1  0.75000000  0.28775800  0.53775800  1
  Al  Al6  1  0.46224200  0.25000000  0.71224200  1
  Al  Al7  1  0.00000000  0.50000000  0.00000000  1
  Al  Al8  1  0.50000000  0.50000000  0.50000000  1
  Al  Al9  1  0.00000000  0.00000000  0.50000000  1
  Al  Al10  1  0.53775800  0.75000000  0.28775800  1
  Al  Al11  1  0.25000000  0.71224200  0.46224200  1
  Al  Al12  1  0.25000000  0.21224200  0.96224200  1
  Al  Al13  1  0.28775800  0.53775800  0.75000000  1
  Al  Al14  1  0.21224200  0.96224200  0.25000000  1
  Al  Al15  1  0.03775800  0.75000000  0.78775800  1
  O  O16  1  0.77086600  0.04603200  0.49743600  1
  O  O17  1  0.72913400  0.22657000  0.27516600  1
  O  O18  1  0.27343000  0.00256400  0.04859600  1
  O  O19  1  0.95396800  0.50256400  0.22913400  1
  O  O20  1  0.45396800  0.22483400  0.45140400  1
  O  O21  1  0.77343000  0.72483400  0.27086600  1
  O  O22  1  0.04859600  0.27343000  0.00256400  1
  O  O23  1  0.45140400  0.45396800  0.22483400  1
  O  O24  1  0.72483400  0.27086600  0.77343000  1
  O  O25  1  0.77516600  0.54859600  0.54603200  1
  O  O26  1  0.00256400  0.04859600  0.27343000  1
  O  O27  1  0.49743600  0.77086600  0.04603200  1
  O  O28  1  0.99743600  0.95140400  0.72657000  1
  O  O29  1  0.22483400  0.45140400  0.45396800  1
  O  O30  1  0.27516600  0.72913400  0.22657000  1
  O  O31  1  0.50256400  0.22913400  0.95396800  1
  O  O32  1  0.54859600  0.54603200  0.77516600  1
  O  O33  1  0.95140400  0.72657000  0.99743600  1
  O  O34  1  0.54603200  0.77516600  0.54859600  1
  O  O35  1  0.22657000  0.27516600  0.72913400  1
  O  O36  1  0.04603200  0.49743600  0.77086600  1
  O  O37  1  0.72657000  0.99743600  0.95140400  1
  O  O38  1  0.22913400  0.95396800  0.50256400  1
  O  O39  1  0.27086600  0.77343000  0.72483400  1
