# generated using pymatgen
data_Mn2OF3
_symmetry_space_group_name_H-M   'P 1'
_cell_length_a   10.27272386
_cell_length_b   10.27272386
_cell_length_c   4.87083405
_cell_angle_alpha   87.78170397
_cell_angle_beta   87.78170397
_cell_angle_gamma   35.84071807
_symmetry_Int_Tables_number   1
_chemical_formula_structural   Mn2OF3
_chemical_formula_sum   'Mn8 O4 F12'
_cell_volume   300.72322205
_cell_formula_units_Z   4
loop_
 _symmetry_equiv_pos_site_id
 _symmetry_equiv_pos_as_xyz
  1  'x, y, z'
loop_
 _atom_site_type_symbol
 _atom_site_label
 _atom_site_symmetry_multiplicity
 _atom_site_fract_x
 _atom_site_fract_y
 _atom_site_fract_z
 _atom_site_occupancy
  Mn  Mn0  1  0.87109800  0.37949500  0.50037600  1
  Mn  Mn1  1  0.37949500  0.87109800  0.50037600  1
  Mn  Mn2  1  0.12890200  0.62050500  0.49962400  1
  Mn  Mn3  1  0.62050500  0.12890200  0.49962400  1
  Mn  Mn4  1  0.50000000  0.50000000  0.00000000  1
  Mn  Mn5  1  0.24108900  0.24108900  0.03508200  1
  Mn  Mn6  1  0.00000000  0.00000000  0.00000000  1
  Mn  Mn7  1  0.75891100  0.75891100  0.96491800  1
  O  O8  1  0.58224100  0.58224100  0.67412900  1
  O  O9  1  0.83328500  0.83328500  0.66930100  1
  O  O10  1  0.16671500  0.16671500  0.33069900  1
  O  O11  1  0.41775900  0.41775900  0.32587100  1
  F  F12  1  0.94902200  0.44996300  0.79684600  1
  F  F13  1  0.44996300  0.94902200  0.79684600  1
  F  F14  1  0.69820400  0.20020900  0.79656600  1
  F  F15  1  0.20020900  0.69820400  0.79656600  1
  F  F16  1  0.07460400  0.07460400  0.69914300  1
  F  F17  1  0.32078400  0.32078400  0.71372400  1
  F  F18  1  0.92539600  0.92539600  0.30085700  1
  F  F19  1  0.67921600  0.67921600  0.28627600  1
  F  F20  1  0.55003700  0.05097800  0.20315400  1
  F  F21  1  0.30179600  0.79979100  0.20343400  1
  F  F22  1  0.05097800  0.55003700  0.20315400  1
  F  F23  1  0.79979100  0.30179600  0.20343400  1
