# generated using pymatgen
data_V2(OF)3
_symmetry_space_group_name_H-M   'P 1'
_cell_length_a   5.19115400
_cell_length_b   5.22055614
_cell_length_c   13.23392128
_cell_angle_alpha   89.01025479
_cell_angle_beta   89.39202367
_cell_angle_gamma   60.62313385
_symmetry_Int_Tables_number   1
_chemical_formula_structural   V2(OF)3
_chemical_formula_sum   'V6 O9 F9'
_cell_volume   312.48317142
_cell_formula_units_Z   3
loop_
 _symmetry_equiv_pos_site_id
 _symmetry_equiv_pos_as_xyz
  1  'x, y, z'
loop_
 _atom_site_type_symbol
 _atom_site_label
 _atom_site_symmetry_multiplicity
 _atom_site_fract_x
 _atom_site_fract_y
 _atom_site_fract_z
 _atom_site_occupancy
  V  V0  1  0.95923600  0.03476700  0.48757100  1
  V  V1  1  0.96060000  0.01180900  0.99938600  1
  V  V2  1  0.35933300  0.34400600  0.82664600  1
  V  V3  1  0.68429400  0.70811600  0.66735800  1
  V  V4  1  0.28338500  0.36330400  0.32752300  1
  V  V5  1  0.63348400  0.68076200  0.15725300  1
  O  O6  1  0.58550900  0.98641900  0.74845100  1
  O  O7  1  0.67187600  0.08915300  0.41939100  1
  O  O8  1  0.68633000  0.22735300  0.91772600  1
  O  O9  1  0.00093000  0.57325700  0.25143700  1
  O  O10  1  0.91140900  0.75322700  0.58572400  1
  O  O11  1  0.43201700  0.55998900  0.75099700  1
  O  O12  1  0.08911800  0.23547800  0.42323400  1
  O  O13  1  0.77395700  0.90781600  0.08131200  1
  O  O14  1  0.34533800  0.75501600  0.08271000  1
  F  F15  1  0.99539400  0.41080600  0.75117700  1
  F  F16  1  0.93047000  0.32584000  0.08262800  1
  F  F17  1  0.75600700  0.32360100  0.58693100  1
  F  F18  1  0.41504400  0.99131800  0.25505700  1
  F  F19  1  0.25060600  0.08239000  0.91885000  1
  F  F20  1  0.59139400  0.40536700  0.25100200  1
  F  F21  1  0.25198000  0.67123900  0.42064200  1
  F  F22  1  0.08716100  0.66028200  0.91946900  1
  F  F23  1  0.34512800  0.89868600  0.58752500  1
