# generated using pymatgen
data_HfMgZn2
_symmetry_space_group_name_H-M   'P 1'
_cell_length_a   11.21118668
_cell_length_b   11.21118668
_cell_length_c   11.21118668
_cell_angle_alpha   120.24653307
_cell_angle_beta   119.84737560
_cell_angle_gamma   89.91904001
_symmetry_Int_Tables_number   1
_chemical_formula_structural   HfMgZn2
_chemical_formula_sum   'Hf1 Mg1 Zn2'
_cell_volume   995.69047231
_cell_formula_units_Z   1
loop_
 _symmetry_equiv_pos_site_id
 _symmetry_equiv_pos_as_xyz
  1  'x, y, z'
loop_
 _atom_site_type_symbol
 _atom_site_label
 _atom_site_symmetry_multiplicity
 _atom_site_fract_x
 _atom_site_fract_y
 _atom_site_fract_z
 _atom_site_occupancy
  Hf  Hf0  1  0.00000000  0.50000000  0.50000000  1
  Mg  Mg1  1  0.00000000  0.00000000  0.00000000  1
  Zn  Zn2  1  0.00000000  0.25173900  0.25173900  1
  Zn  Zn3  1  0.00000000  0.74826100  0.74826100  1
