# generated using pymatgen
data_Mn6OF11
_symmetry_space_group_name_H-M   'P 1'
_cell_length_a   4.96780700
_cell_length_b   5.88859069
_cell_length_c   16.17940519
_cell_angle_alpha   89.66809499
_cell_angle_beta   89.81596298
_cell_angle_gamma   89.85955755
_symmetry_Int_Tables_number   1
_chemical_formula_structural   Mn6OF11
_chemical_formula_sum   'Mn12 O2 F22'
_cell_volume   473.29053828
_cell_formula_units_Z   2
loop_
 _symmetry_equiv_pos_site_id
 _symmetry_equiv_pos_as_xyz
  1  'x, y, z'
loop_
 _atom_site_type_symbol
 _atom_site_label
 _atom_site_symmetry_multiplicity
 _atom_site_fract_x
 _atom_site_fract_y
 _atom_site_fract_z
 _atom_site_occupancy
  Mn  Mn0  1  0.98248100  0.16381200  0.59093100  1
  Mn  Mn1  1  0.97608500  0.85463800  0.75317800  1
  Mn  Mn2  1  0.99564500  0.15060500  0.91186400  1
  Mn  Mn3  1  0.99953800  0.17248900  0.24923900  1
  Mn  Mn4  1  0.99874600  0.83129500  0.41810500  1
  Mn  Mn5  1  0.99982100  0.82711600  0.08160500  1
  Mn  Mn6  1  0.49665900  0.32760800  0.41971900  1
  Mn  Mn7  1  0.49345200  0.33255500  0.07823800  1
  Mn  Mn8  1  0.52257100  0.31687500  0.74685100  1
  Mn  Mn9  1  0.51496700  0.68438600  0.90703800  1
  Mn  Mn10  1  0.49649200  0.66947400  0.58669800  1
  Mn  Mn11  1  0.50071500  0.66893700  0.25008600  1
  O  O12  1  0.78397000  0.09250800  0.69873700  1
  O  O13  1  0.79715300  0.90256100  0.85847700  1
  F  F14  1  0.76770400  0.10467500  0.35991400  1
  F  F15  1  0.77895000  0.10951800  0.02281000  1
  F  F16  1  0.76276300  0.89470800  0.52708900  1
  F  F17  1  0.77153900  0.89563500  0.19185800  1
  F  F18  1  0.72848600  0.39680200  0.86078200  1
  F  F19  1  0.73442300  0.59790600  0.69431800  1
  F  F20  1  0.73178400  0.39468500  0.52810700  1
  F  F21  1  0.73129800  0.60314400  0.35997400  1
  F  F22  1  0.72741700  0.39520600  0.18988600  1
  F  F23  1  0.71920500  0.61021200  0.02309000  1
  F  F24  1  0.25450000  0.38559500  0.96582300  1
  F  F25  1  0.25766700  0.62879900  0.80003900  1
  F  F26  1  0.27780500  0.38237900  0.63981800  1
  F  F27  1  0.27365000  0.60923100  0.47546000  1
  F  F28  1  0.26685800  0.60137300  0.14009900  1
  F  F29  1  0.26936100  0.39465900  0.30878000  1
  F  F30  1  0.24836200  0.12258800  0.81161300  1
  F  F31  1  0.21968000  0.10797200  0.48071100  1
  F  F32  1  0.21274000  0.87592000  0.64881400  1
  F  F33  1  0.24429600  0.89318900  0.97329100  1
  F  F34  1  0.23218000  0.10361400  0.13892500  1
  F  F35  1  0.23104100  0.89733100  0.30803300  1
