# generated using pymatgen
data_ScGePd2
_symmetry_space_group_name_H-M   'P 1'
_cell_length_a   10.84696128
_cell_length_b   10.84696128
_cell_length_c   10.84696128
_cell_angle_alpha   128.87703751
_cell_angle_beta   117.81059806
_cell_angle_gamma   84.59464479
_symmetry_Int_Tables_number   1
_chemical_formula_structural   ScGePd2
_chemical_formula_sum   'Sc1 Ge1 Pd2'
_cell_volume   841.41389938
_cell_formula_units_Z   1
loop_
 _symmetry_equiv_pos_site_id
 _symmetry_equiv_pos_as_xyz
  1  'x, y, z'
loop_
 _atom_site_type_symbol
 _atom_site_label
 _atom_site_symmetry_multiplicity
 _atom_site_fract_x
 _atom_site_fract_y
 _atom_site_fract_z
 _atom_site_occupancy
  Sc  Sc0  1  0.00000000  0.00000000  0.00000000  1
  Ge  Ge1  1  0.00000000  0.50000000  0.50000000  1
  Pd  Pd2  1  0.00000000  0.24429500  0.24429500  1
  Pd  Pd3  1  0.00000000  0.75570500  0.75570500  1
