# generated using pymatgen
data_MnVP2(O4F)2
_symmetry_space_group_name_H-M   'P 1'
_cell_length_a   7.03656170
_cell_length_b   7.55290575
_cell_length_c   7.37279031
_cell_angle_alpha   91.97087778
_cell_angle_beta   115.31281071
_cell_angle_gamma   89.06769043
_symmetry_Int_Tables_number   1
_chemical_formula_structural   MnVP2(O4F)2
_chemical_formula_sum   'Mn2 V2 P4 O16 F4'
_cell_volume   354.00628970
_cell_formula_units_Z   2
loop_
 _symmetry_equiv_pos_site_id
 _symmetry_equiv_pos_as_xyz
  1  'x, y, z'
loop_
 _atom_site_type_symbol
 _atom_site_label
 _atom_site_symmetry_multiplicity
 _atom_site_fract_x
 _atom_site_fract_y
 _atom_site_fract_z
 _atom_site_occupancy
  Mn  Mn0  1  0.49994700  0.00006200  0.49998600  1
  Mn  Mn1  1  0.00012100  0.49992100  0.50014800  1
  V  V2  1  0.50003400  0.50001900  0.00005100  1
  V  V3  1  0.99996500  0.99995000  0.99993300  1
  P  P4  1  0.27115800  0.84497000  0.75218600  1
  P  P5  1  0.77115500  0.34498100  0.75219300  1
  P  P6  1  0.72889000  0.15500700  0.24783900  1
  P  P7  1  0.22880500  0.65503700  0.24777800  1
  O  O8  1  0.19887300  0.93700200  0.90568100  1
  O  O9  1  0.69891500  0.43697600  0.90573300  1
  O  O10  1  0.80109600  0.06300600  0.09429000  1
  O  O11  1  0.30113200  0.56298200  0.09432700  1
  O  O12  1  0.58715500  0.24086800  0.59348300  1
  O  O13  1  0.08716600  0.74068500  0.59367400  1
  O  O14  1  0.41274300  0.75938700  0.40624700  1
  O  O15  1  0.91289000  0.25912300  0.40652900  1
  O  O16  1  0.35016100  0.99368300  0.66688100  1
  O  O17  1  0.85021800  0.49370200  0.66694000  1
  O  O18  1  0.64979600  0.00633100  0.33309400  1
  O  O19  1  0.14981900  0.50634600  0.33311400  1
  O  O20  1  0.54212700  0.28091900  0.12671300  1
  O  O21  1  0.04190600  0.78073200  0.12645400  1
  O  O22  1  0.45804300  0.71926000  0.87349400  1
  O  O23  1  0.95795500  0.21910800  0.87330500  1
  F  F24  1  0.21169000  0.09434900  0.23218000  1
  F  F25  1  0.71182200  0.59435800  0.23218400  1
  F  F26  1  0.78822400  0.90557000  0.76772700  1
  F  F27  1  0.28819600  0.40566600  0.76783700  1
