# generated using pymatgen
data_TcGe2Rh
_symmetry_space_group_name_H-M   'P 1'
_cell_length_a   10.01270654
_cell_length_b   10.01270654
_cell_length_c   10.01270654
_cell_angle_alpha   124.38911330
_cell_angle_beta   117.66786929
_cell_angle_gamma   88.32926639
_symmetry_Int_Tables_number   1
_chemical_formula_structural   TcGe2Rh
_chemical_formula_sum   'Tc1 Ge2 Rh1'
_cell_volume   695.33123660
_cell_formula_units_Z   1
loop_
 _symmetry_equiv_pos_site_id
 _symmetry_equiv_pos_as_xyz
  1  'x, y, z'
loop_
 _atom_site_type_symbol
 _atom_site_label
 _atom_site_symmetry_multiplicity
 _atom_site_fract_x
 _atom_site_fract_y
 _atom_site_fract_z
 _atom_site_occupancy
  Tc  Tc0  1  0.00000000  0.00000000  0.00000000  1
  Ge  Ge1  1  0.00000000  0.25325800  0.25325800  1
  Ge  Ge2  1  0.00000000  0.74674200  0.74674200  1
  Rh  Rh3  1  0.00000000  0.50000000  0.50000000  1
