# generated using pymatgen
data_Li6MnV3(PO4)6
_symmetry_space_group_name_H-M   'P 1'
_cell_length_a   9.83390068
_cell_length_b   9.74830516
_cell_length_c   9.74419705
_cell_angle_alpha   85.79070940
_cell_angle_beta   94.32440154
_cell_angle_gamma   95.12225603
_symmetry_Int_Tables_number   1
_chemical_formula_structural   Li6MnV3(PO4)6
_chemical_formula_sum   'Li12 Mn2 V6 P12 O48'
_cell_volume   925.64473244
_cell_formula_units_Z   2
loop_
 _symmetry_equiv_pos_site_id
 _symmetry_equiv_pos_as_xyz
  1  'x, y, z'
loop_
 _atom_site_type_symbol
 _atom_site_label
 _atom_site_symmetry_multiplicity
 _atom_site_fract_x
 _atom_site_fract_y
 _atom_site_fract_z
 _atom_site_occupancy
  Li  Li0  1  0.01582500  0.50898000  0.23976400  1
  Li  Li1  1  0.99675200  0.26013000  0.38970600  1
  Li  Li2  1  0.21753900  0.56347200  0.47067700  1
  Li  Li3  1  0.23139700  0.73216800  0.17530700  1
  Li  Li4  1  0.25397900  0.98965000  0.61129600  1
  Li  Li5  1  0.37777100  0.74674800  0.81276500  1
  Li  Li6  1  0.50692500  0.01310300  0.75734300  1
  Li  Li7  1  0.56097400  0.22117900  0.53556900  1
  Li  Li8  1  0.69964100  0.92151100  0.97675900  1
  Li  Li9  1  0.73444600  0.23745000  0.81925200  1
  Li  Li10  1  0.75271100  0.37797700  0.19307200  1
  Li  Li11  1  0.92253800  0.69508700  0.01486500  1
  Mn  Mn12  1  0.47389600  0.46739600  0.99659500  1
  Mn  Mn13  1  0.97265500  0.74813800  0.71775400  1
  V  V14  1  0.03588200  0.25121100  0.78759100  1
  V  V15  1  0.24590900  0.24488700  0.00215100  1
  V  V16  1  0.24964900  0.03601600  0.21249100  1
  V  V17  1  0.53616500  0.53611600  0.50014700  1
  V  V18  1  0.74844900  0.95981700  0.28839300  1
  V  V19  1  0.74483400  0.74964800  0.49558600  1
  P  P20  1  0.05336500  0.82251800  0.39913900  1
  P  P21  1  0.17345700  0.94404700  0.90370500  1
  P  P22  1  0.15789900  0.55225200  0.92844700  1
  P  P23  1  0.31627700  0.33893100  0.30571200  1
  P  P24  1  0.34203000  0.32039200  0.70055000  1
  P  P25  1  0.44054200  0.84151800  0.42781100  1
  P  P26  1  0.55423700  0.14996400  0.07412600  1
  P  P27  1  0.65219500  0.68016800  0.80250500  1
  P  P28  1  0.67978800  0.65213200  0.19377400  1
  P  P29  1  0.83953500  0.44494700  0.57188300  1
  P  P30  1  0.81868800  0.05456100  0.59359900  1
  P  P31  1  0.94361700  0.17283600  0.09923100  1
  O  O32  1  0.03204800  0.87112800  0.87194500  1
  O  O33  1  0.09446900  0.82901200  0.55357200  1
  O  O34  1  0.09896200  0.60778600  0.78883100  1
  O  O35  1  0.10965800  0.95908200  0.32415300  1
  O  O36  1  0.09971400  0.69491300  0.33710500  1
  O  O37  1  0.12596200  0.38675500  0.92803800  1
  O  O38  1  0.09386900  0.59888400  0.05543700  1
  O  O39  1  0.10425400  0.15950400  0.12387100  1
  O  O40  1  0.16389800  0.10625700  0.87452300  1
  O  O41  1  0.18385800  0.31558800  0.66961700  1
  O  O42  1  0.21013400  0.91113600  0.06040000  1
  O  O43  1  0.18991900  0.39927100  0.35365700  1
  O  O44  1  0.28472000  0.91005800  0.81276600  1
  O  O45  1  0.31369200  0.59116000  0.93764700  1
  O  O46  1  0.31317500  0.17912000  0.33793500  1
  O  O47  1  0.32229400  0.37010400  0.14515300  1
  O  O48  1  0.36718100  0.89111400  0.28929800  1
  O  O49  1  0.40714400  0.91238300  0.55211900  1
  O  O50  1  0.37315200  0.32684800  0.86407700  1
  O  O51  1  0.40119800  0.45860500  0.63184800  1
  O  O52  1  0.40547100  0.68069100  0.44116800  1
  O  O53  1  0.40346600  0.19287400  0.65634400  1
  O  O54  1  0.39184500  0.12416000  0.07865600  1
  O  O55  1  0.45375200  0.40004100  0.37451600  1
  O  O56  1  0.57402400  0.80066500  0.83995400  1
  O  O57  1  0.54059200  0.59867700  0.13038700  1
  O  O58  1  0.59949100  0.53595200  0.85672800  1
  O  O59  1  0.60211900  0.87037000  0.41258400  1
  O  O60  1  0.62414400  0.67319300  0.63679800  1
  O  O61  1  0.59920500  0.09380100  0.94230200  1
  O  O62  1  0.59559700  0.30550400  0.08064700  1
  O  O63  1  0.61183500  0.07367300  0.20721800  1
  O  O64  1  0.66896200  0.62188100  0.35652800  1
  O  O65  1  0.70114300  0.81043800  0.15768300  1
  O  O66  1  0.67934000  0.40703000  0.56162400  1
  O  O67  1  0.69395600  0.10692700  0.65424100  1
  O  O68  1  0.80474800  0.70612400  0.84577100  1
  O  O69  1  0.81957100  0.89401700  0.62027300  1
  O  O70  1  0.80205200  0.57947200  0.15483700  1
  O  O71  1  0.82094500  0.09070600  0.43431200  1
  O  O72  1  0.86579000  0.60763800  0.58159700  1
  O  O73  1  0.89066400  0.82567800  0.37281900  1
  O  O74  1  0.89213400  0.37362700  0.71160300  1
  O  O75  1  0.90725400  0.20136400  0.94210800  1
  O  O76  1  0.90612200  0.40649100  0.44652200  1
  O  O77  1  0.86954400  0.03222400  0.14251700  1
  O  O78  1  0.91488000  0.28847500  0.18779500  1
  O  O79  1  0.95528300  0.11745200  0.66291600  1
