# generated using pymatgen
data_Na4Ni7O16
_symmetry_space_group_name_H-M   'P 1'
_cell_length_a   7.09734000
_cell_length_b   7.14160964
_cell_length_c   7.51376525
_cell_angle_alpha   68.71668353
_cell_angle_beta   77.42330780
_cell_angle_gamma   63.50404840
_symmetry_Int_Tables_number   1
_chemical_formula_structural   Na4Ni7O16
_chemical_formula_sum   'Na4 Ni7 O16'
_cell_volume   316.88553229
_cell_formula_units_Z   1
loop_
 _symmetry_equiv_pos_site_id
 _symmetry_equiv_pos_as_xyz
  1  'x, y, z'
loop_
 _atom_site_type_symbol
 _atom_site_label
 _atom_site_symmetry_multiplicity
 _atom_site_fract_x
 _atom_site_fract_y
 _atom_site_fract_z
 _atom_site_occupancy
  Na  Na0  1  0.03731800  0.45979500  0.66851300  1
  Na  Na1  1  0.59820600  0.89681700  0.18669400  1
  Na  Na2  1  0.38227700  0.63258700  0.11920700  1
  Na  Na3  1  0.16232400  0.34762600  0.10269900  1
  Ni  Ni4  1  0.00062200  0.00434200  0.99698100  1
  Ni  Ni5  1  0.62400100  0.37156300  0.87527900  1
  Ni  Ni6  1  0.25258300  0.75508500  0.74342400  1
  Ni  Ni7  1  0.87217000  0.11989400  0.62708400  1
  Ni  Ni8  1  0.50083100  0.49463800  0.50447100  1
  Ni  Ni9  1  0.12467200  0.87583700  0.37501500  1
  Ni  Ni10  1  0.74999500  0.24442900  0.25320800  1
  O  O11  1  0.10585200  0.72247400  0.97948300  1
  O  O12  1  0.86709300  0.30363900  0.99360800  1
  O  O13  1  0.51054900  0.67214300  0.82811400  1
  O  O14  1  0.00526000  0.82558600  0.62868100  1
  O  O15  1  0.75642900  0.07190400  0.88135500  1
  O  O16  1  0.37226700  0.45410200  0.76312900  1
  O  O17  1  0.74729800  0.41317700  0.62342100  1
  O  O18  1  0.37403200  0.79671800  0.48500400  1
  O  O19  1  0.88448700  0.94673000  0.25208300  1
  O  O20  1  0.11629900  0.05566200  0.74028100  1
  O  O21  1  0.62890400  0.19662400  0.50706600  1
  O  O22  1  0.24667200  0.57494200  0.41188800  1
  O  O23  1  0.65189900  0.52445300  0.27193600  1
  O  O24  1  0.22212600  0.97151800  0.12043300  1
  O  O25  1  0.99164800  0.17138000  0.37429200  1
  O  O26  1  0.52593200  0.28528600  0.12964200  1
