# generated using pymatgen
data_Mn3O5F
_symmetry_space_group_name_H-M   'P 1'
_cell_length_a   5.44549800
_cell_length_b   5.44901478
_cell_length_c   7.09839408
_cell_angle_alpha   72.81664317
_cell_angle_beta   72.74781064
_cell_angle_gamma   72.28404634
_symmetry_Int_Tables_number   1
_chemical_formula_structural   Mn3O5F
_chemical_formula_sum   'Mn6 O10 F2'
_cell_volume   186.67481525
_cell_formula_units_Z   2
loop_
 _symmetry_equiv_pos_site_id
 _symmetry_equiv_pos_as_xyz
  1  'x, y, z'
loop_
 _atom_site_type_symbol
 _atom_site_label
 _atom_site_symmetry_multiplicity
 _atom_site_fract_x
 _atom_site_fract_y
 _atom_site_fract_z
 _atom_site_occupancy
  Mn  Mn0  1  0.31691100  0.33174000  0.17459200  1
  Mn  Mn1  1  0.65787900  0.66790800  0.33184400  1
  Mn  Mn2  1  0.33956600  0.34916000  0.66698700  1
  Mn  Mn3  1  0.66901400  0.68413000  0.82928600  1
  Mn  Mn4  1  0.99199800  0.99474000  0.48933000  1
  Mn  Mn5  1  0.01939200  0.97839400  0.00938200  1
  O  O6  1  0.35309900  0.97219800  0.33555400  1
  O  O7  1  0.02831500  0.64598800  0.66508500  1
  O  O8  1  0.43369900  0.43236800  0.37214800  1
  O  O9  1  0.77176600  0.76897800  0.03799500  1
  O  O10  1  0.89156600  0.89381600  0.29836500  1
  O  O11  1  0.23313000  0.22932300  0.96275600  1
  O  O12  1  0.57112900  0.56795900  0.62836200  1
  O  O13  1  0.63963500  0.03569900  0.66376400  1
  O  O14  1  0.96508400  0.35865500  0.33675000  1
  O  O15  1  0.31252100  0.68590800  0.99981300  1
  F  F16  1  0.10205100  0.10468000  0.69896400  1
  F  F17  1  0.70324500  0.29835400  0.99902200  1
