# generated using pymatgen
data_Na6Ti2O7
_symmetry_space_group_name_H-M   'P 1'
_cell_length_a   5.97287072
_cell_length_b   5.97287072
_cell_length_c   12.48096246
_cell_angle_alpha   79.63890870
_cell_angle_beta   79.63890870
_cell_angle_gamma   94.38679658
_symmetry_Int_Tables_number   1
_chemical_formula_structural   Na6Ti2O7
_chemical_formula_sum   'Na12 Ti4 O14'
_cell_volume   428.12411166
_cell_formula_units_Z   2
loop_
 _symmetry_equiv_pos_site_id
 _symmetry_equiv_pos_as_xyz
  1  'x, y, z'
loop_
 _atom_site_type_symbol
 _atom_site_label
 _atom_site_symmetry_multiplicity
 _atom_site_fract_x
 _atom_site_fract_y
 _atom_site_fract_z
 _atom_site_occupancy
  Na  Na0  1  0.75921800  0.04948900  0.58125900  1
  Na  Na1  1  0.48911800  0.04875600  0.86565700  1
  Na  Na2  1  0.50000000  0.50000000  0.50000000  1
  Na  Na3  1  0.43553900  0.56446100  0.75000000  1
  Na  Na4  1  0.04948900  0.75921800  0.08125900  1
  Na  Na5  1  0.04875600  0.48911800  0.36565700  1
  Na  Na6  1  0.95124400  0.51088200  0.63434300  1
  Na  Na7  1  0.95051100  0.24078200  0.91874100  1
  Na  Na8  1  0.56446100  0.43553900  0.25000000  1
  Na  Na9  1  0.51088200  0.95124400  0.13434300  1
  Na  Na10  1  0.24078200  0.95051100  0.41874100  1
  Na  Na11  1  0.50000000  0.50000000  0.00000000  1
  Ti  Ti12  1  0.92704300  0.76457300  0.86044300  1
  Ti  Ti13  1  0.23542700  0.07295700  0.63955700  1
  Ti  Ti14  1  0.76457300  0.92704300  0.36044300  1
  Ti  Ti15  1  0.07295700  0.23542700  0.13955700  1
  O  O16  1  0.20149300  0.69611100  0.89253200  1
  O  O17  1  0.69611100  0.20149300  0.39253200  1
  O  O18  1  0.47414700  0.22994600  0.67708800  1
  O  O19  1  0.74864300  0.84727600  0.97855000  1
  O  O20  1  0.96249300  0.03750700  0.75000000  1
  O  O21  1  0.15272400  0.25135700  0.52145000  1
  O  O22  1  0.22994600  0.47414700  0.17708800  1
  O  O23  1  0.77005400  0.52585300  0.82291200  1
  O  O24  1  0.84727600  0.74864300  0.47855000  1
  O  O25  1  0.03750700  0.96249300  0.25000000  1
  O  O26  1  0.25135700  0.15272400  0.02145000  1
  O  O27  1  0.52585300  0.77005400  0.32291200  1
  O  O28  1  0.30388900  0.79850700  0.60746800  1
  O  O29  1  0.79850700  0.30388900  0.10746800  1
