# generated using pymatgen
data_VO2
_symmetry_space_group_name_H-M   'P 1'
_cell_length_a   5.95650306
_cell_length_b   8.64513208
_cell_length_c   3.77790300
_cell_angle_alpha   89.99979242
_cell_angle_beta   90.00140539
_cell_angle_gamma   90.01582134
_symmetry_Int_Tables_number   1
_chemical_formula_structural   VO2
_chemical_formula_sum   'V4 O8'
_cell_volume   194.54218451
_cell_formula_units_Z   4
loop_
 _symmetry_equiv_pos_site_id
 _symmetry_equiv_pos_as_xyz
  1  'x, y, z'
loop_
 _atom_site_type_symbol
 _atom_site_label
 _atom_site_symmetry_multiplicity
 _atom_site_fract_x
 _atom_site_fract_y
 _atom_site_fract_z
 _atom_site_occupancy
  V  V0  1  0.20986100  0.63451800  0.50032500  1
  V  V1  1  0.29011800  0.36548000  0.00032300  1
  V  V2  1  0.70979800  0.86551800  0.49967000  1
  V  V3  1  0.79017900  0.13444900  0.99968600  1
  O  O4  1  0.17501600  0.57312600  0.00032100  1
  O  O5  1  0.41425700  0.77364600  0.50003600  1
  O  O6  1  0.08568800  0.22634500  0.00005700  1
  O  O7  1  0.32500200  0.42694000  0.50033000  1
  O  O8  1  0.67499400  0.92693700  0.99966400  1
  O  O9  1  0.91429800  0.72632000  0.49994600  1
  O  O10  1  0.58579900  0.27362900  0.99996800  1
  O  O11  1  0.82499000  0.07309200  0.49967400  1
