# generated using pymatgen
data_Ti3CrNi2(PO4)6
_symmetry_space_group_name_H-M   'P 1'
_cell_length_a   8.50409655
_cell_length_b   8.50409655
_cell_length_c   8.50409653
_cell_angle_alpha   60.83299633
_cell_angle_beta   60.83299633
_cell_angle_gamma   60.83299830
_symmetry_Int_Tables_number   1
_chemical_formula_structural   Ti3CrNi2(PO4)6
_chemical_formula_sum   'Ti3 Cr1 Ni2 P6 O24'
_cell_volume   443.04900918
_cell_formula_units_Z   1
loop_
 _symmetry_equiv_pos_site_id
 _symmetry_equiv_pos_as_xyz
  1  'x, y, z'
loop_
 _atom_site_type_symbol
 _atom_site_label
 _atom_site_symmetry_multiplicity
 _atom_site_fract_x
 _atom_site_fract_y
 _atom_site_fract_z
 _atom_site_occupancy
  Ti  Ti0  1  0.14312200  0.14312200  0.14312200  1
  Ti  Ti1  1  0.35554200  0.35554200  0.35554200  1
  Ti  Ti2  1  0.64407700  0.64407700  0.64407700  1
  Cr  Cr3  1  0.85900500  0.85900500  0.85900500  1
  Ni  Ni4  1  0.00008800  0.00008800  0.00008800  1
  Ni  Ni5  1  0.49887900  0.49887900  0.49887900  1
  P  P6  1  0.54529600  0.24895800  0.95428000  1
  P  P7  1  0.95428000  0.54529600  0.24895800  1
  P  P8  1  0.24895800  0.95428000  0.54529600  1
  P  P9  1  0.75068600  0.04432800  0.45841400  1
  P  P10  1  0.04432800  0.45841400  0.75068600  1
  P  P11  1  0.45841400  0.75068600  0.04432800  1
  O  O12  1  0.31727400  0.11389700  0.49961700  1
  O  O13  1  0.49961700  0.31727400  0.11389700  1
  O  O14  1  0.91073600  0.05534800  0.25925600  1
  O  O15  1  0.11389700  0.49961700  0.31727400  1
  O  O16  1  0.81370500  0.00731300  0.61467600  1
  O  O17  1  0.58809700  0.24177400  0.43968000  1
  O  O18  1  0.05534800  0.25925600  0.91073600  1
  O  O19  1  0.24177400  0.43968000  0.58809700  1
  O  O20  1  0.38460100  0.18338700  0.99817900  1
  O  O21  1  0.43968000  0.58809700  0.24177400  1
  O  O22  1  0.74218800  0.08959700  0.94366800  1
  O  O23  1  0.99817900  0.38460100  0.18338700  1
  O  O24  1  0.00731300  0.61467600  0.81370500  1
  O  O25  1  0.25925600  0.91073600  0.05534800  1
  O  O26  1  0.55635200  0.41189000  0.75784200  1
  O  O27  1  0.61467600  0.81370500  0.00731300  1
  O  O28  1  0.75784200  0.55635200  0.41189000  1
  O  O29  1  0.94366800  0.74218800  0.08959700  1
  O  O30  1  0.41189000  0.75784200  0.55635200  1
  O  O31  1  0.18338700  0.99817900  0.38460100  1
  O  O32  1  0.88288000  0.50176600  0.68360100  1
  O  O33  1  0.08959700  0.94366800  0.74218800  1
  O  O34  1  0.50176600  0.68360100  0.88288000  1
  O  O35  1  0.68360100  0.88288000  0.50176600  1
