# generated using pymatgen
data_Ca2TlSn
_symmetry_space_group_name_H-M   'P 1'
_cell_length_a   13.15009736
_cell_length_b   13.15009736
_cell_length_c   13.15009736
_cell_angle_alpha   123.72515799
_cell_angle_beta   118.69486627
_cell_angle_gamma   87.97390959
_symmetry_Int_Tables_number   1
_chemical_formula_structural   Ca2TlSn
_chemical_formula_sum   'Ca2 Tl1 Sn1'
_cell_volume   1573.49466881
_cell_formula_units_Z   1
loop_
 _symmetry_equiv_pos_site_id
 _symmetry_equiv_pos_as_xyz
  1  'x, y, z'
loop_
 _atom_site_type_symbol
 _atom_site_label
 _atom_site_symmetry_multiplicity
 _atom_site_fract_x
 _atom_site_fract_y
 _atom_site_fract_z
 _atom_site_occupancy
  Ca  Ca0  1  0.00000000  0.24382700  0.24382700  1
  Ca  Ca1  1  0.00000000  0.75617300  0.75617300  1
  Tl  Tl2  1  0.00000000  0.50000000  0.50000000  1
  Sn  Sn3  1  0.00000000  0.00000000  0.00000000  1
