# generated using pymatgen
data_Mn6OF11
_symmetry_space_group_name_H-M   'P 1'
_cell_length_a   16.24890000
_cell_length_b   4.94820700
_cell_length_c   7.54458580
_cell_angle_alpha   50.87882742
_cell_angle_beta   90.00000000
_cell_angle_gamma   90.00000000
_symmetry_Int_Tables_number   1
_chemical_formula_structural   Mn6OF11
_chemical_formula_sum   'Mn12 O2 F22'
_cell_volume   470.61357154
_cell_formula_units_Z   2
loop_
 _symmetry_equiv_pos_site_id
 _symmetry_equiv_pos_as_xyz
  1  'x, y, z'
loop_
 _atom_site_type_symbol
 _atom_site_label
 _atom_site_symmetry_multiplicity
 _atom_site_fract_x
 _atom_site_fract_y
 _atom_site_fract_z
 _atom_site_occupancy
  Mn  Mn0  1  0.83139700  0.82918600  0.16605100  1
  Mn  Mn1  1  0.65463000  0.14107000  0.83518200  1
  Mn  Mn2  1  0.49819200  0.84575700  0.16023300  1
  Mn  Mn3  1  0.17029800  0.81433400  0.17495100  1
  Mn  Mn4  1  0.00066200  0.17517200  0.82956700  1
  Mn  Mn5  1  0.33493100  0.17657900  0.83004300  1
  Mn  Mn6  1  0.99933800  0.17517200  0.32956700  1
  Mn  Mn7  1  0.34537000  0.14107000  0.33518200  1
  Mn  Mn8  1  0.66506900  0.17657900  0.33004300  1
  Mn  Mn9  1  0.50180800  0.84575700  0.66023300  1
  Mn  Mn10  1  0.82970200  0.81433400  0.67495100  1
  Mn  Mn11  1  0.16860300  0.82918600  0.66605100  1
  O  O12  1  0.54608300  0.89041300  0.88959200  1
  O  O13  1  0.45391700  0.89041300  0.38959200  1
  F  F14  1  0.72199400  0.66208500  0.10116500  1
  F  F15  1  0.05795800  0.66694800  0.10473500  1
  F  F16  1  0.38963700  0.66896300  0.12074600  1
  F  F17  1  0.89153700  0.87065100  0.89413600  1
  F  F18  1  0.22643900  0.88345500  0.88994300  1
  F  F19  1  0.55738800  0.35667000  0.39371300  1
  F  F20  1  0.72235600  0.12800600  0.60695700  1
  F  F21  1  0.88842200  0.33316600  0.39670600  1
  F  F22  1  0.06048000  0.13055900  0.60227100  1
  F  F23  1  0.23236900  0.32495900  0.38744300  1
  F  F24  1  0.39306700  0.10202800  0.61656400  1
  F  F25  1  0.61036300  0.66896300  0.62074600  1
  F  F26  1  0.77356100  0.88345500  0.38994300  1
  F  F27  1  0.94204200  0.66694800  0.60473500  1
  F  F28  1  0.27800600  0.66208500  0.60116500  1
  F  F29  1  0.10846300  0.87065100  0.39413600  1
  F  F30  1  0.60693300  0.10202800  0.11656400  1
  F  F31  1  0.93952000  0.13055900  0.10227100  1
  F  F32  1  0.76763100  0.32495900  0.88744300  1
  F  F33  1  0.44261200  0.35667000  0.89371300  1
  F  F34  1  0.27764400  0.12800600  0.10695700  1
  F  F35  1  0.11157800  0.33316600  0.89670600  1
