# generated using pymatgen
data_Fe5O3F7
_symmetry_space_group_name_H-M   'P 1'
_cell_length_a   4.81066000
_cell_length_b   4.81974652
_cell_length_c   15.57649993
_cell_angle_alpha   90.13187246
_cell_angle_beta   90.22685532
_cell_angle_gamma   91.02119701
_symmetry_Int_Tables_number   1
_chemical_formula_structural   Fe5O3F7
_chemical_formula_sum   'Fe10 O6 F14'
_cell_volume   361.09803799
_cell_formula_units_Z   2
loop_
 _symmetry_equiv_pos_site_id
 _symmetry_equiv_pos_as_xyz
  1  'x, y, z'
loop_
 _atom_site_type_symbol
 _atom_site_label
 _atom_site_symmetry_multiplicity
 _atom_site_fract_x
 _atom_site_fract_y
 _atom_site_fract_z
 _atom_site_occupancy
  Fe  Fe0  1  0.95888600  0.02770900  0.99607300  1
  Fe  Fe1  1  0.00289900  0.99460600  0.80000900  1
  Fe  Fe2  1  0.02173100  0.02268900  0.59950400  1
  Fe  Fe3  1  0.02154000  0.02555000  0.40028000  1
  Fe  Fe4  1  0.04481900  0.97244800  0.20455100  1
  Fe  Fe5  1  0.53962600  0.52575000  0.90636800  1
  Fe  Fe6  1  0.48661400  0.48836300  0.49875800  1
  Fe  Fe7  1  0.47535100  0.47430800  0.70185800  1
  Fe  Fe8  1  0.47744900  0.48653200  0.29408500  1
  Fe  Fe9  1  0.49951400  0.50199200  0.10132800  1
  O  O10  1  0.17805900  0.17584600  0.70300700  1
  O  O11  1  0.18724800  0.19076100  0.50094600  1
  O  O12  1  0.18822800  0.17934700  0.29997600  1
  O  O13  1  0.30849600  0.69202300  0.19054900  1
  O  O14  1  0.67742500  0.33310800  0.00344000  1
  O  O15  1  0.80966600  0.81113700  0.89145400  1
  F  F16  1  0.21360100  0.21549900  0.89279100  1
  F  F17  1  0.19809800  0.19584400  0.10302400  1
  F  F18  1  0.29972000  0.71225300  0.00006200  1
  F  F19  1  0.30442100  0.69910000  0.80742100  1
  F  F20  1  0.28866400  0.70576800  0.60132800  1
  F  F21  1  0.28655000  0.70949600  0.39948400  1
  F  F22  1  0.70453100  0.30119300  0.80656600  1
  F  F23  1  0.70489200  0.28937300  0.60086100  1
  F  F24  1  0.70688400  0.29172900  0.39787100  1
  F  F25  1  0.71357100  0.28665800  0.19106200  1
  F  F26  1  0.79908000  0.80173400  0.50024500  1
  F  F27  1  0.79364000  0.79082200  0.69874000  1
  F  F28  1  0.80359100  0.80405300  0.10690400  1
  F  F29  1  0.80520600  0.79430800  0.30145500  1
