# generated using pymatgen
data_V6O7F5
_symmetry_space_group_name_H-M   'P 1'
_cell_length_a   4.67792400
_cell_length_b   5.61981519
_cell_length_c   7.79968955
_cell_angle_alpha   86.37055979
_cell_angle_beta   89.72425569
_cell_angle_gamma   89.96276671
_symmetry_Int_Tables_number   1
_chemical_formula_structural   V6O7F5
_chemical_formula_sum   'V6 O7 F5'
_cell_volume   204.63293430
_cell_formula_units_Z   1
loop_
 _symmetry_equiv_pos_site_id
 _symmetry_equiv_pos_as_xyz
  1  'x, y, z'
loop_
 _atom_site_type_symbol
 _atom_site_label
 _atom_site_symmetry_multiplicity
 _atom_site_fract_x
 _atom_site_fract_y
 _atom_site_fract_z
 _atom_site_occupancy
  V  V0  1  0.54304100  0.17358200  0.34145000  1
  V  V1  1  0.48765000  0.50007500  0.99996300  1
  V  V2  1  0.51572800  0.82105500  0.65789700  1
  V  V3  1  0.97711500  0.66181900  0.31640100  1
  V  V4  1  0.97499400  0.35362600  0.68069800  1
  V  V5  1  0.99054200  0.99671200  0.01406400  1
  O  O6  1  0.80880200  0.62695100  0.56224200  1
  O  O7  1  0.80809400  0.29690400  0.89890500  1
  O  O8  1  0.79538900  0.96989200  0.23115300  1
  O  O9  1  0.69307000  0.46655700  0.22580000  1
  O  O10  1  0.71199300  0.13328100  0.57705600  1
  O  O11  1  0.29555000  0.53141400  0.75761300  1
  O  O12  1  0.19679100  0.70703000  0.09335700  1
  F  F13  1  0.69790500  0.79620000  0.89515400  1
  F  F14  1  0.30063100  0.86932000  0.43009900  1
  F  F15  1  0.30016200  0.19957500  0.11277600  1
  F  F16  1  0.20465500  0.03332300  0.77303900  1
  F  F17  1  0.19788400  0.36268300  0.43233200  1
