# generated using pymatgen
data_Mn6OF11
_symmetry_space_group_name_H-M   'P 1'
_cell_length_a   4.96169400
_cell_length_b   5.89098087
_cell_length_c   16.23566291
_cell_angle_alpha   90.25899542
_cell_angle_beta   90.33274495
_cell_angle_gamma   90.82647750
_symmetry_Int_Tables_number   1
_chemical_formula_structural   Mn6OF11
_chemical_formula_sum   'Mn12 O2 F22'
_cell_volume   474.49375694
_cell_formula_units_Z   2
loop_
 _symmetry_equiv_pos_site_id
 _symmetry_equiv_pos_as_xyz
  1  'x, y, z'
loop_
 _atom_site_type_symbol
 _atom_site_label
 _atom_site_symmetry_multiplicity
 _atom_site_fract_x
 _atom_site_fract_y
 _atom_site_fract_z
 _atom_site_occupancy
  Mn  Mn0  1  0.00597200  0.83286100  0.25212600  1
  Mn  Mn1  1  0.02814700  0.18343900  0.41619400  1
  Mn  Mn2  1  0.97185300  0.81656100  0.58380600  1
  Mn  Mn3  1  0.00692200  0.82853900  0.91538300  1
  Mn  Mn4  1  0.99307800  0.17146100  0.08461700  1
  Mn  Mn5  1  0.99402800  0.16713900  0.74787400  1
  Mn  Mn6  1  0.49756100  0.66731700  0.08445800  1
  Mn  Mn7  1  0.51238800  0.66836600  0.74329400  1
  Mn  Mn8  1  0.49059200  0.64762100  0.41465000  1
  Mn  Mn9  1  0.50940800  0.35237900  0.58535000  1
  Mn  Mn10  1  0.48761200  0.33163400  0.25670600  1
  Mn  Mn11  1  0.50243900  0.33268300  0.91554200  1
  O  O12  1  0.29251100  0.41073400  0.36571700  1
  O  O13  1  0.70748900  0.58926600  0.63428300  1
  F  F14  1  0.24254800  0.89724300  0.36344300  1
  F  F15  1  0.22933500  0.89499000  0.02664200  1
  F  F16  1  0.21056600  0.88333200  0.69181900  1
  F  F17  1  0.23980100  0.12480500  0.53336500  1
  F  F18  1  0.23308700  0.10467800  0.19321900  1
  F  F19  1  0.22650600  0.10878100  0.85778100  1
  F  F20  1  0.27040000  0.61536200  0.52164100  1
  F  F21  1  0.26564100  0.60576600  0.19322900  1
  F  F22  1  0.26668900  0.39451700  0.02475900  1
  F  F23  1  0.28079200  0.61063900  0.85400200  1
  F  F24  1  0.27133200  0.37983100  0.68743800  1
  F  F25  1  0.72960000  0.38463800  0.47835900  1
  F  F26  1  0.72866800  0.62016900  0.31256200  1
  F  F27  1  0.71920800  0.38936100  0.14599800  1
  F  F28  1  0.73435900  0.39423400  0.80677100  1
  F  F29  1  0.73331100  0.60548300  0.97524100  1
  F  F30  1  0.76019900  0.87519500  0.46663500  1
  F  F31  1  0.77349400  0.89121900  0.14221900  1
  F  F32  1  0.78943400  0.11666800  0.30818100  1
  F  F33  1  0.75745200  0.10275700  0.63655700  1
  F  F34  1  0.76691300  0.89532200  0.80678100  1
  F  F35  1  0.77066500  0.10501000  0.97335800  1
