# generated using pymatgen
data_V6O5F19
_symmetry_space_group_name_H-M   'P 1'
_cell_length_a   5.33867000
_cell_length_b   5.48393893
_cell_length_c   14.81947971
_cell_angle_alpha   100.59683911
_cell_angle_beta   90.02610104
_cell_angle_gamma   90.87188160
_symmetry_Int_Tables_number   1
_chemical_formula_structural   V6O5F19
_chemical_formula_sum   'V6 O5 F19'
_cell_volume   426.41788736
_cell_formula_units_Z   1
loop_
 _symmetry_equiv_pos_site_id
 _symmetry_equiv_pos_as_xyz
  1  'x, y, z'
loop_
 _atom_site_type_symbol
 _atom_site_label
 _atom_site_symmetry_multiplicity
 _atom_site_fract_x
 _atom_site_fract_y
 _atom_site_fract_z
 _atom_site_occupancy
  V  V0  1  0.96588300  0.03681200  0.99670500  1
  V  V1  1  0.55804600  0.80430400  0.66075000  1
  V  V2  1  0.99113300  0.64968200  0.33266700  1
  V  V3  1  0.46019300  0.53362900  0.00334100  1
  V  V4  1  0.05438300  0.35629900  0.67236900  1
  V  V5  1  0.47437500  0.12505700  0.33611700  1
  O  O6  1  0.29454100  0.89490200  0.35631400  1
  O  O7  1  0.23104900  0.72519700  0.01843200  1
  O  O8  1  0.78848200  0.26123700  0.98158500  1
  O  O9  1  0.28595300  0.56374900  0.68792700  1
  O  O10  1  0.78561400  0.60224600  0.64196400  1
  F  F11  1  0.20269700  0.37774100  0.35864000  1
  F  F12  1  0.27292800  0.24268500  0.02872500  1
  F  F13  1  0.70583300  0.45014100  0.30956300  1
  F  F14  1  0.09238600  0.93734700  0.88540600  1
  F  F15  1  0.40207800  0.77229600  0.55316700  1
  F  F16  1  0.09541200  0.59421000  0.21761400  1
  F  F17  1  0.56306100  0.89475700  0.78166300  1
  F  F18  1  0.92752300  0.75041800  0.45050100  1
  F  F19  1  0.59672800  0.57198600  0.11442900  1
  F  F20  1  0.20777600  0.08102500  0.69318700  1
  F  F21  1  0.71144500  0.09121700  0.64419600  1
  F  F22  1  0.77928000  0.94035600  0.30797000  1
  F  F23  1  0.43705300  0.40609900  0.88450000  1
  F  F24  1  0.05663800  0.26323900  0.55153300  1
  F  F25  1  0.42070600  0.11664100  0.21794100  1
  F  F26  1  0.90117800  0.40593100  0.78023700  1
  F  F27  1  0.59232700  0.25309800  0.44663700  1
  F  F28  1  0.92963900  0.03032200  0.11524900  1
  F  F29  1  0.71565600  0.76737500  0.97066900  1
