# generated using pymatgen
data_Mg2InPd
_symmetry_space_group_name_H-M   'P 1'
_cell_length_a   11.67130465
_cell_length_b   11.67130465
_cell_length_c   11.67130465
_cell_angle_alpha   122.80491484
_cell_angle_beta   118.99058591
_cell_angle_gamma   88.48456653
_symmetry_Int_Tables_number   1
_chemical_formula_structural   Mg2InPd
_chemical_formula_sum   'Mg2 In1 Pd1'
_cell_volume   1106.93628548
_cell_formula_units_Z   1
loop_
 _symmetry_equiv_pos_site_id
 _symmetry_equiv_pos_as_xyz
  1  'x, y, z'
loop_
 _atom_site_type_symbol
 _atom_site_label
 _atom_site_symmetry_multiplicity
 _atom_site_fract_x
 _atom_site_fract_y
 _atom_site_fract_z
 _atom_site_occupancy
  Mg  Mg0  1  0.00000000  0.22131600  0.22131600  1
  Mg  Mg1  1  0.00000000  0.77868400  0.77868400  1
  In  In2  1  0.00000000  0.50000000  0.50000000  1
  Pd  Pd3  1  0.00000000  0.00000000  0.00000000  1
