# generated using pymatgen
data_Sm2TeO6
_symmetry_space_group_name_H-M   'P 1'
_cell_length_a   9.28465107
_cell_length_b   9.28465107
_cell_length_c   5.36946900
_cell_angle_alpha   90.00000000
_cell_angle_beta   90.00000000
_cell_angle_gamma   120.00000762
_symmetry_Int_Tables_number   1
_chemical_formula_structural   Sm2TeO6
_chemical_formula_sum   'Sm6 Te3 O18'
_cell_volume   400.86035953
_cell_formula_units_Z   3
loop_
 _symmetry_equiv_pos_site_id
 _symmetry_equiv_pos_as_xyz
  1  'x, y, z'
loop_
 _atom_site_type_symbol
 _atom_site_label
 _atom_site_symmetry_multiplicity
 _atom_site_fract_x
 _atom_site_fract_y
 _atom_site_fract_z
 _atom_site_occupancy
  Sm  Sm0  1  0.00000000  0.61394300  0.50000000  1
  Sm  Sm1  1  0.00000000  0.27637500  0.00000000  1
  Sm  Sm2  1  0.38605700  0.38605700  0.50000000  1
  Sm  Sm3  1  0.27637500  0.00000000  0.00000000  1
  Sm  Sm4  1  0.72362500  0.72362500  0.00000000  1
  Sm  Sm5  1  0.61394300  0.00000000  0.50000000  1
  Te  Te6  1  0.33333300  0.66666700  0.99890700  1
  Te  Te7  1  0.00000000  0.00000000  0.50000000  1
  Te  Te8  1  0.66666700  0.33333300  0.00109300  1
  O  O9  1  0.07187600  0.87612500  0.29201900  1
  O  O10  1  0.22701000  0.75942100  0.78866400  1
  O  O11  1  0.13691800  0.54300900  0.20881200  1
  O  O12  1  0.40609100  0.86308200  0.20881200  1
  O  O13  1  0.24057900  0.46758900  0.78866400  1
  O  O14  1  0.12387500  0.19575100  0.29201900  1
  O  O15  1  0.19575100  0.12387500  0.70798100  1
  O  O16  1  0.53241100  0.77299000  0.78866400  1
  O  O17  1  0.45699100  0.59390900  0.20881200  1
  O  O18  1  0.80424900  0.92812400  0.29201900  1
  O  O19  1  0.46758900  0.24057900  0.21133600  1
  O  O20  1  0.59390900  0.45699100  0.79118800  1
  O  O21  1  0.54300900  0.13691800  0.79118800  1
  O  O22  1  0.77299000  0.53241100  0.21133600  1
  O  O23  1  0.92812400  0.80424900  0.70798100  1
  O  O24  1  0.75942100  0.22701000  0.21133600  1
  O  O25  1  0.86308200  0.40609100  0.79118800  1
  O  O26  1  0.87612500  0.07187600  0.70798100  1
