# generated using pymatgen
data_Ce(WO4)2
_symmetry_space_group_name_H-M   'P 1'
_cell_length_a   9.76076000
_cell_length_b   10.35073500
_cell_length_c   14.55356900
_cell_angle_alpha   90.00000000
_cell_angle_beta   90.00000000
_cell_angle_gamma   90.00000000
_symmetry_Int_Tables_number   1
_chemical_formula_structural   Ce(WO4)2
_chemical_formula_sum   'Ce8 W16 O64'
_cell_volume   1470.36221409
_cell_formula_units_Z   8
loop_
 _symmetry_equiv_pos_site_id
 _symmetry_equiv_pos_as_xyz
  1  'x, y, z'
loop_
 _atom_site_type_symbol
 _atom_site_label
 _atom_site_symmetry_multiplicity
 _atom_site_fract_x
 _atom_site_fract_y
 _atom_site_fract_z
 _atom_site_occupancy
  Ce  Ce0  1  0.22676900  0.96532000  0.11203800  1
  Ce  Ce1  1  0.27323100  0.96532000  0.61203800  1
  Ce  Ce2  1  0.72676900  0.53468000  0.11203800  1
  Ce  Ce3  1  0.77323100  0.53468000  0.61203800  1
  Ce  Ce4  1  0.27323100  0.46532000  0.88796200  1
  Ce  Ce5  1  0.22676900  0.46532000  0.38796200  1
  Ce  Ce6  1  0.77323100  0.03468000  0.88796200  1
  Ce  Ce7  1  0.72676900  0.03468000  0.38796200  1
  W  W8  1  0.81512800  0.89631100  0.14828800  1
  W  W9  1  0.68487200  0.89631100  0.64828800  1
  W  W10  1  0.99343200  0.77387200  0.44128800  1
  W  W11  1  0.50656800  0.77387200  0.94128800  1
  W  W12  1  0.49343200  0.72612800  0.44128800  1
  W  W13  1  0.00656800  0.72612800  0.94128800  1
  W  W14  1  0.31512800  0.60368900  0.14828800  1
  W  W15  1  0.18487200  0.60368900  0.64828800  1
  W  W16  1  0.81512800  0.39631100  0.35171200  1
  W  W17  1  0.68487200  0.39631100  0.85171200  1
  W  W18  1  0.99343200  0.27387200  0.05871200  1
  W  W19  1  0.50656800  0.27387200  0.55871200  1
  W  W20  1  0.49343200  0.22612800  0.05871200  1
  W  W21  1  0.00656800  0.22612800  0.55871200  1
  W  W22  1  0.18487200  0.10368900  0.85171200  1
  W  W23  1  0.31512800  0.10368900  0.35171200  1
  O  O24  1  0.23650500  0.99146900  0.27191900  1
  O  O25  1  0.26349500  0.99146900  0.77191900  1
  O  O26  1  0.75066300  0.92646200  0.03348100  1
  O  O27  1  0.74933700  0.92646200  0.53348100  1
  O  O28  1  0.99989000  0.91626700  0.14938200  1
  O  O29  1  0.50011000  0.91626700  0.64938200  1
  O  O30  1  0.90754800  0.89311600  0.36689700  1
  O  O31  1  0.59245200  0.89311600  0.86689700  1
  O  O32  1  0.08491100  0.85381600  0.53310500  1
  O  O33  1  0.41508900  0.85381600  0.03310500  1
  O  O34  1  0.37170100  0.83703700  0.49158700  1
  O  O35  1  0.12829900  0.83703700  0.99158700  1
  O  O36  1  0.88968600  0.82669800  0.87637600  1
  O  O37  1  0.61031400  0.82669800  0.37637600  1
  O  O38  1  0.26355600  0.76593700  0.17970200  1
  O  O39  1  0.23644400  0.76593700  0.67970200  1
  O  O40  1  0.76355600  0.73406300  0.17970200  1
  O  O41  1  0.73644400  0.73406300  0.67970200  1
  O  O42  1  0.11031400  0.67330200  0.37637600  1
  O  O43  1  0.38968600  0.67330200  0.87637600  1
  O  O44  1  0.62829900  0.66296300  0.99158700  1
  O  O45  1  0.87170100  0.66296300  0.49158700  1
  O  O46  1  0.91508900  0.64618400  0.03310500  1
  O  O47  1  0.58491100  0.64618400  0.53310500  1
  O  O48  1  0.40754800  0.60688400  0.36689700  1
  O  O49  1  0.09245200  0.60688400  0.86689700  1
  O  O50  1  0.49989000  0.58373300  0.14938200  1
  O  O51  1  0.00011000  0.58373300  0.64938200  1
  O  O52  1  0.25066300  0.57353800  0.03348100  1
  O  O53  1  0.24933700  0.57353800  0.53348100  1
  O  O54  1  0.73650500  0.50853100  0.27191900  1
  O  O55  1  0.76349500  0.50853100  0.77191900  1
  O  O56  1  0.26349500  0.49146900  0.72808100  1
  O  O57  1  0.23650500  0.49146900  0.22808100  1
  O  O58  1  0.75066300  0.42646200  0.46651900  1
  O  O59  1  0.74933700  0.42646200  0.96651900  1
  O  O60  1  0.50011000  0.41626700  0.85061800  1
  O  O61  1  0.99989000  0.41626700  0.35061800  1
  O  O62  1  0.90754800  0.39311600  0.13310300  1
  O  O63  1  0.59245200  0.39311600  0.63310300  1
  O  O64  1  0.41508900  0.35381600  0.46689500  1
  O  O65  1  0.08491100  0.35381600  0.96689500  1
  O  O66  1  0.37170100  0.33703700  0.00841300  1
  O  O67  1  0.12829900  0.33703700  0.50841300  1
  O  O68  1  0.61031400  0.32669800  0.12362400  1
  O  O69  1  0.88968600  0.32669800  0.62362400  1
  O  O70  1  0.26355600  0.26593700  0.32029800  1
  O  O71  1  0.23644400  0.26593700  0.82029800  1
  O  O72  1  0.76355600  0.23406300  0.32029800  1
  O  O73  1  0.73644400  0.23406300  0.82029800  1
  O  O74  1  0.38968600  0.17330200  0.62362400  1
  O  O75  1  0.11031400  0.17330200  0.12362400  1
  O  O76  1  0.87170100  0.16296300  0.00841300  1
  O  O77  1  0.62829900  0.16296300  0.50841300  1
  O  O78  1  0.58491100  0.14618400  0.96689500  1
  O  O79  1  0.91508900  0.14618400  0.46689500  1
  O  O80  1  0.40754800  0.10688400  0.13310300  1
  O  O81  1  0.09245200  0.10688400  0.63310300  1
  O  O82  1  0.00011000  0.08373300  0.85061800  1
  O  O83  1  0.49989000  0.08373300  0.35061800  1
  O  O84  1  0.24933700  0.07353800  0.96651900  1
  O  O85  1  0.25066300  0.07353800  0.46651900  1
  O  O86  1  0.76349500  0.00853100  0.72808100  1
  O  O87  1  0.73650500  0.00853100  0.22808100  1
