# generated using pymatgen
data_V3(O2F)2
_symmetry_space_group_name_H-M   'P 1'
_cell_length_a   4.70797300
_cell_length_b   4.71327400
_cell_length_c   9.03428100
_cell_angle_alpha   90.00000000
_cell_angle_beta   90.00000000
_cell_angle_gamma   90.00000000
_symmetry_Int_Tables_number   1
_chemical_formula_structural   V3(O2F)2
_chemical_formula_sum   'V6 O8 F4'
_cell_volume   200.47039485
_cell_formula_units_Z   2
loop_
 _symmetry_equiv_pos_site_id
 _symmetry_equiv_pos_as_xyz
  1  'x, y, z'
loop_
 _atom_site_type_symbol
 _atom_site_label
 _atom_site_symmetry_multiplicity
 _atom_site_fract_x
 _atom_site_fract_y
 _atom_site_fract_z
 _atom_site_occupancy
  V  V0  1  0.98773500  0.71353500  0.84610200  1
  V  V1  1  0.98773500  0.71353500  0.15389800  1
  V  V2  1  0.02012500  0.74772300  0.50000000  1
  V  V3  1  0.52012500  0.25227700  0.00000000  1
  V  V4  1  0.48773500  0.28646500  0.65389800  1
  V  V5  1  0.48773500  0.28646500  0.34610200  1
  O  O6  1  0.20767400  0.52967700  0.00000000  1
  O  O7  1  0.19703500  0.55989800  0.32834700  1
  O  O8  1  0.19703500  0.55989800  0.67165300  1
  O  O9  1  0.69703500  0.44010200  0.82834700  1
  O  O10  1  0.69703500  0.44010200  0.17165300  1
  O  O11  1  0.70767400  0.47032300  0.50000000  1
  O  O12  1  0.30188800  0.05945700  0.50000000  1
  O  O13  1  0.80188800  0.94054300  0.00000000  1
  F  F14  1  0.30054300  0.04694800  0.82973300  1
  F  F15  1  0.30054300  0.04694800  0.17026700  1
  F  F16  1  0.80054300  0.95305200  0.67026700  1
  F  F17  1  0.80054300  0.95305200  0.32973300  1
