# generated using pymatgen
data_Fe5O3F7
_symmetry_space_group_name_H-M   'P 1'
_cell_length_a   4.78456862
_cell_length_b   4.78361809
_cell_length_c   15.72762556
_cell_angle_alpha   89.83781461
_cell_angle_beta   90.05519869
_cell_angle_gamma   90.45244547
_symmetry_Int_Tables_number   1
_chemical_formula_structural   Fe5O3F7
_chemical_formula_sum   'Fe10 O6 F14'
_cell_volume   359.95397606
_cell_formula_units_Z   2
loop_
 _symmetry_equiv_pos_site_id
 _symmetry_equiv_pos_as_xyz
  1  'x, y, z'
loop_
 _atom_site_type_symbol
 _atom_site_label
 _atom_site_symmetry_multiplicity
 _atom_site_fract_x
 _atom_site_fract_y
 _atom_site_fract_z
 _atom_site_occupancy
  Fe  Fe0  1  0.97219000  0.96215100  0.99334900  1
  Fe  Fe1  1  0.02804100  0.02343300  0.19809100  1
  Fe  Fe2  1  0.01610600  0.01156000  0.40116300  1
  Fe  Fe3  1  0.02683000  0.01939500  0.60656600  1
  Fe  Fe4  1  0.02332600  0.97414400  0.79991000  1
  Fe  Fe5  1  0.50479000  0.49808300  0.10164700  1
  Fe  Fe6  1  0.47790500  0.47231000  0.49814100  1
  Fe  Fe7  1  0.47887200  0.47506900  0.30072100  1
  Fe  Fe8  1  0.46565200  0.51757000  0.69376200  1
  Fe  Fe9  1  0.48099500  0.53152400  0.90607100  1
  O  O10  1  0.19933000  0.80018400  0.70676400  1
  O  O11  1  0.19465700  0.79512300  0.89337200  1
  O  O12  1  0.32633600  0.31848900  0.19848800  1
  O  O13  1  0.31747400  0.31326000  0.39989500  1
  O  O14  1  0.31539000  0.31701400  0.59970400  1
  O  O15  1  0.67221300  0.66819300  0.00244800  1
  F  F16  1  0.20201900  0.78557000  0.09815600  1
  F  F17  1  0.21738200  0.79925000  0.30016600  1
  F  F18  1  0.21179400  0.79724100  0.49939900  1
  F  F19  1  0.28683400  0.28967100  0.99970000  1
  F  F20  1  0.30336200  0.30460600  0.80028900  1
  F  F21  1  0.71120000  0.70286700  0.20105900  1
  F  F22  1  0.69956200  0.69363600  0.40068700  1
  F  F23  1  0.70073800  0.70619800  0.59945600  1
  F  F24  1  0.69090400  0.69436200  0.79983200  1
  F  F25  1  0.79170400  0.19474800  0.09666200  1
  F  F26  1  0.80193900  0.21030200  0.50250800  1
  F  F27  1  0.80482000  0.20920100  0.30168600  1
  F  F28  1  0.78454800  0.20250100  0.88973100  1
  F  F29  1  0.79308500  0.21234700  0.71058000  1
