# generated using pymatgen
data_NaInPd2
_symmetry_space_group_name_H-M   'P 1'
_cell_length_a   11.25068744
_cell_length_b   11.25068744
_cell_length_c   11.25068744
_cell_angle_alpha   123.82166501
_cell_angle_beta   118.76909954
_cell_angle_gamma   87.82849776
_symmetry_Int_Tables_number   1
_chemical_formula_structural   NaInPd2
_chemical_formula_sum   'Na1 In1 Pd2'
_cell_volume   983.98195214
_cell_formula_units_Z   1
loop_
 _symmetry_equiv_pos_site_id
 _symmetry_equiv_pos_as_xyz
  1  'x, y, z'
loop_
 _atom_site_type_symbol
 _atom_site_label
 _atom_site_symmetry_multiplicity
 _atom_site_fract_x
 _atom_site_fract_y
 _atom_site_fract_z
 _atom_site_occupancy
  Na  Na0  1  0.00000000  0.00000000  0.00000000  1
  In  In1  1  0.00000000  0.50000000  0.50000000  1
  Pd  Pd2  1  0.00000000  0.26207700  0.26207700  1
  Pd  Pd3  1  0.00000000  0.73792300  0.73792300  1
