# generated using pymatgen
data_Gd2(WO4)3
_symmetry_space_group_name_H-M   'P 1'
_cell_length_a   10.37139400
_cell_length_b   10.25675200
_cell_length_c   17.51438989
_cell_angle_alpha   54.54677529
_cell_angle_beta   90.00000000
_cell_angle_gamma   90.00000000
_symmetry_Int_Tables_number   1
_chemical_formula_structural   Gd2(WO4)3
_chemical_formula_sum   'Gd8 W12 O48'
_cell_volume   1517.68175923
_cell_formula_units_Z   4
loop_
 _symmetry_equiv_pos_site_id
 _symmetry_equiv_pos_as_xyz
  1  'x, y, z'
loop_
 _atom_site_type_symbol
 _atom_site_label
 _atom_site_symmetry_multiplicity
 _atom_site_fract_x
 _atom_site_fract_y
 _atom_site_fract_z
 _atom_site_occupancy
  Gd  Gd0  1  0.97061600  0.63344100  0.11858700  1
  Gd  Gd1  1  0.03372700  0.13777600  0.61807700  1
  Gd  Gd2  1  0.53372700  0.86222400  0.88192300  1
  Gd  Gd3  1  0.47061600  0.36655900  0.38141300  1
  Gd  Gd4  1  0.52938400  0.63344100  0.61858700  1
  Gd  Gd5  1  0.46627300  0.13777600  0.11807700  1
  Gd  Gd6  1  0.96627300  0.86222400  0.38192300  1
  Gd  Gd7  1  0.02938400  0.36655900  0.88141300  1
  W  W8  1  0.74875500  0.47409300  0.49993300  1
  W  W9  1  0.61958900  0.75339600  0.14330300  1
  W  W10  1  0.87990300  0.03534800  0.85731200  1
  W  W11  1  0.37990300  0.96465200  0.64268800  1
  W  W12  1  0.11958900  0.24660400  0.35669700  1
  W  W13  1  0.24875500  0.52590700  0.00006700  1
  W  W14  1  0.75124500  0.47409300  0.99993300  1
  W  W15  1  0.88041100  0.75339600  0.64330300  1
  W  W16  1  0.62009700  0.03534800  0.35731200  1
  W  W17  1  0.12009700  0.96465200  0.14268800  1
  W  W18  1  0.38041100  0.24660400  0.85669700  1
  W  W19  1  0.25124500  0.52590700  0.50006700  1
  O  O20  1  0.09893000  0.80023200  0.13221100  1
  O  O21  1  0.34287400  0.50393200  0.41997800  1
  O  O22  1  0.17638100  0.33651000  0.58802800  1
  O  O23  1  0.41013300  0.06651600  0.86279400  1
  O  O24  1  0.87256700  0.32372100  0.56441800  1
  O  O25  1  0.78931300  0.70086900  0.16620800  1
  O  O26  1  0.71198900  0.02497100  0.83237900  1
  O  O27  1  0.64271300  0.41446000  0.44323000  1
  O  O28  1  0.98094300  0.06717100  0.76347600  1
  O  O29  1  0.52256600  0.58958300  0.23557600  1
  O  O30  1  0.57811800  0.78810800  0.03251300  1
  O  O31  1  0.92597300  0.85040500  0.96615600  1
  O  O32  1  0.42597300  0.14959500  0.53384400  1
  O  O33  1  0.07811800  0.21189200  0.46748700  1
  O  O34  1  0.02256600  0.41041700  0.26442400  1
  O  O35  1  0.48094300  0.93282900  0.73652400  1
  O  O36  1  0.14271300  0.58554000  0.05677000  1
  O  O37  1  0.21198900  0.97502900  0.66762100  1
  O  O38  1  0.28931300  0.29913100  0.33379200  1
  O  O39  1  0.37256700  0.67627900  0.93558200  1
  O  O40  1  0.84287400  0.49606800  0.08002200  1
  O  O41  1  0.91013300  0.93348400  0.63720600  1
  O  O42  1  0.67638100  0.66349000  0.91197200  1
  O  O43  1  0.59893000  0.19976800  0.36778900  1
  O  O44  1  0.40107000  0.80023200  0.63221100  1
  O  O45  1  0.32361900  0.33651000  0.08802800  1
  O  O46  1  0.08986700  0.06651600  0.36279400  1
  O  O47  1  0.15712600  0.50393200  0.91997800  1
  O  O48  1  0.62743300  0.32372100  0.06441800  1
  O  O49  1  0.71068700  0.70086900  0.66620800  1
  O  O50  1  0.78801100  0.02497100  0.33237900  1
  O  O51  1  0.85728700  0.41446000  0.94323000  1
  O  O52  1  0.51905700  0.06717100  0.26347600  1
  O  O53  1  0.97743400  0.58958300  0.73557600  1
  O  O54  1  0.92188200  0.78810800  0.53251300  1
  O  O55  1  0.57402700  0.85040500  0.46615600  1
  O  O56  1  0.07402700  0.14959500  0.03384400  1
  O  O57  1  0.42188200  0.21189200  0.96748700  1
  O  O58  1  0.47743400  0.41041700  0.76442400  1
  O  O59  1  0.01905700  0.93282900  0.23652400  1
  O  O60  1  0.35728700  0.58554000  0.55677000  1
  O  O61  1  0.28801100  0.97502900  0.16762100  1
  O  O62  1  0.21068700  0.29913100  0.83379200  1
  O  O63  1  0.12743300  0.67627900  0.43558200  1
  O  O64  1  0.58986700  0.93348400  0.13720600  1
  O  O65  1  0.82361900  0.66349000  0.41197200  1
  O  O66  1  0.65712600  0.49606800  0.58002200  1
  O  O67  1  0.90107000  0.19976800  0.86778900  1
