# generated using pymatgen
data_Fe5O3F7
_symmetry_space_group_name_H-M   'P 1'
_cell_length_a   4.80851600
_cell_length_b   4.81453167
_cell_length_c   15.61526114
_cell_angle_alpha   89.87063899
_cell_angle_beta   89.78812793
_cell_angle_gamma   89.36609011
_symmetry_Int_Tables_number   1
_chemical_formula_structural   Fe5O3F7
_chemical_formula_sum   'Fe10 O6 F14'
_cell_volume   361.47956138
_cell_formula_units_Z   2
loop_
 _symmetry_equiv_pos_site_id
 _symmetry_equiv_pos_as_xyz
  1  'x, y, z'
loop_
 _atom_site_type_symbol
 _atom_site_label
 _atom_site_symmetry_multiplicity
 _atom_site_fract_x
 _atom_site_fract_y
 _atom_site_fract_z
 _atom_site_occupancy
  Fe  Fe0  1  0.99598400  0.00235300  0.99889300  1
  Fe  Fe1  1  0.03821900  0.97737100  0.19356000  1
  Fe  Fe2  1  0.96292200  0.03690500  0.39984900  1
  Fe  Fe3  1  0.02126500  0.95902900  0.60617700  1
  Fe  Fe4  1  0.97674000  0.98221500  0.80170400  1
  Fe  Fe5  1  0.46366200  0.47190800  0.10529000  1
  Fe  Fe6  1  0.49272000  0.50017000  0.50003300  1
  Fe  Fe7  1  0.49995500  0.50673900  0.29967800  1
  Fe  Fe8  1  0.51783500  0.52521600  0.69422900  1
  Fe  Fe9  1  0.52545700  0.52710400  0.90045800  1
  O  O10  1  0.82198200  0.81446600  0.70147400  1
  O  O11  1  0.81728600  0.82627400  0.90278700  1
  O  O12  1  0.30823100  0.69089600  0.20929600  1
  O  O13  1  0.30557500  0.68875800  0.59034500  1
  O  O14  1  0.66550700  0.33412300  0.39964900  1
  O  O15  1  0.17828300  0.16953200  0.09632600  1
  F  F16  1  0.79847900  0.78875400  0.10091300  1
  F  F17  1  0.80279500  0.80624500  0.29463500  1
  F  F18  1  0.79960000  0.80013500  0.50395800  1
  F  F19  1  0.29140000  0.70144200  0.00033500  1
  F  F20  1  0.28419900  0.71639400  0.39989300  1
  F  F21  1  0.29881700  0.71082600  0.79994800  1
  F  F22  1  0.69963800  0.29862900  0.00236900  1
  F  F23  1  0.71397100  0.28487500  0.20953400  1
  F  F24  1  0.71473500  0.28270500  0.59008600  1
  F  F25  1  0.70557400  0.30193700  0.79839700  1
  F  F26  1  0.19436500  0.19527600  0.50546200  1
  F  F27  1  0.19894600  0.19955400  0.29548300  1
  F  F28  1  0.20042800  0.20617700  0.89818400  1
  F  F29  1  0.20543300  0.19399000  0.70105600  1
