# generated using pymatgen
data_LiV2(OF)3
_symmetry_space_group_name_H-M   'P 1'
_cell_length_a   10.17500310
_cell_length_b   10.27958671
_cell_length_c   10.76499445
_cell_angle_alpha   86.18057150
_cell_angle_beta   116.30303827
_cell_angle_gamma   62.12159164
_symmetry_Int_Tables_number   1
_chemical_formula_structural   LiV2(OF)3
_chemical_formula_sum   'Li8 V16 O24 F24'
_cell_volume   837.27852952
_cell_formula_units_Z   8
loop_
 _symmetry_equiv_pos_site_id
 _symmetry_equiv_pos_as_xyz
  1  'x, y, z'
loop_
 _atom_site_type_symbol
 _atom_site_label
 _atom_site_symmetry_multiplicity
 _atom_site_fract_x
 _atom_site_fract_y
 _atom_site_fract_z
 _atom_site_occupancy
  Li  Li0  1  0.26775200  0.12768700  0.67423400  1
  Li  Li1  1  0.77344200  0.12434600  0.68081100  1
  Li  Li2  1  0.80365100  0.34287800  0.43930000  1
  Li  Li3  1  0.22833300  0.64320100  0.09942000  1
  Li  Li4  1  0.27061300  0.62452200  0.67766000  1
  Li  Li5  1  0.30614300  0.84137400  0.43585400  1
  Li  Li6  1  0.76102900  0.62798700  0.66869600  1
  Li  Li7  1  0.79809700  0.84394200  0.43458600  1
  V  V8  1  0.47239600  0.01771200  0.48593600  1
  V  V9  1  0.02186100  0.23439100  0.25278300  1
  V  V10  1  0.51565900  0.99419600  0.00964500  1
  V  V11  1  0.01275500  0.27046400  0.77335100  1
  V  V12  1  0.97045300  0.01180100  0.48273700  1
  V  V13  1  0.52147200  0.23630000  0.25016800  1
  V  V14  1  0.01643300  0.98637600  0.00139600  1
  V  V15  1  0.49805900  0.26068000  0.75691700  1
  V  V16  1  0.47680400  0.50402600  0.48899100  1
  V  V17  1  0.02174400  0.73359300  0.25633800  1
  V  V18  1  0.52016700  0.48437500  0.99347300  1
  V  V19  1  0.00177300  0.76607700  0.76023400  1
  V  V20  1  0.97638400  0.50837200  0.48372000  1
  V  V21  1  0.52131700  0.73366400  0.25487500  1
  V  V22  1  0.00880900  0.49715000  0.00759900  1
  V  V23  1  0.50876400  0.77161000  0.76915900  1
  O  O24  1  0.24671300  0.05645800  0.37662700  1
  O  O25  1  0.04267800  0.33085400  0.12975500  1
  O  O26  1  0.04027600  0.32231300  0.62046300  1
  O  O27  1  0.45433800  0.16196800  0.37463300  1
  O  O28  1  0.45738400  0.16687900  0.86248500  1
  O  O29  1  0.74721200  0.05149200  0.36821600  1
  O  O30  1  0.05401800  0.37870400  0.87436200  1
  O  O31  1  0.54643000  0.33139200  0.13171100  1
  O  O32  1  0.54860500  0.32749500  0.62429600  1
  O  O33  1  0.94830200  0.16831000  0.37813400  1
  O  O34  1  0.96452800  0.16897700  0.86084500  1
  O  O35  1  0.54913300  0.37908200  0.88071600  1
  O  O36  1  0.23779500  0.57122900  0.36975500  1
  O  O37  1  0.05582300  0.82246200  0.12731600  1
  O  O38  1  0.04189500  0.82344600  0.61848000  1
  O  O39  1  0.45096200  0.66277600  0.37771600  1
  O  O40  1  0.46372900  0.66787800  0.86126500  1
  O  O41  1  0.74658900  0.55408000  0.37180200  1
  O  O42  1  0.04995600  0.88232900  0.88077700  1
  O  O43  1  0.53580200  0.83558700  0.12914600  1
  O  O44  1  0.53751600  0.82195900  0.61879300  1
  O  O45  1  0.94527000  0.67040200  0.38000000  1
  O  O46  1  0.96990900  0.66522100  0.87148700  1
  O  O47  1  0.55670100  0.87445100  0.87493700  1
  F  F48  1  0.25231700  0.08108000  0.86146000  1
  F  F49  1  0.43834800  0.13618200  0.11661800  1
  F  F50  1  0.42391000  0.13357200  0.61729800  1
  F  F51  1  0.05965000  0.36629000  0.38160300  1
  F  F52  1  0.75353900  0.08240200  0.86564100  1
  F  F53  1  0.25762400  0.43902700  0.13835500  1
  F  F54  1  0.95031600  0.12574300  0.11358200  1
  F  F55  1  0.24814000  0.44467600  0.63409700  1
  F  F56  1  0.90928400  0.13597200  0.60348500  1
  F  F57  1  0.57310900  0.36409300  0.38467100  1
  F  F58  1  0.25666800  0.58374100  0.86886800  1
  F  F59  1  0.75340600  0.42549400  0.13399700  1
  F  F60  1  0.75526100  0.43730600  0.62976300  1
  F  F61  1  0.43561700  0.62759400  0.11500200  1
  F  F62  1  0.40912000  0.63659500  0.60234500  1
  F  F63  1  0.06795200  0.86940500  0.37762000  1
  F  F64  1  0.74796600  0.58080900  0.85675300  1
  F  F65  1  0.25433600  0.92487100  0.13780800  1
  F  F66  1  0.93654900  0.63713300  0.11725700  1
  F  F67  1  0.25368000  0.93747200  0.63278600  1
  F  F68  1  0.91613200  0.63867200  0.61151900  1
  F  F69  1  0.57597900  0.85838500  0.39028000  1
  F  F70  1  0.76202300  0.92054900  0.13715300  1
  F  F71  1  0.74728400  0.94460700  0.63142900  1
