# generated using pymatgen
data_Na6V2P(CO4)4
_symmetry_space_group_name_H-M   'P 1'
_cell_length_a   9.96705050
_cell_length_b   9.96705050
_cell_length_c   9.96705050
_cell_angle_alpha   60.00000000
_cell_angle_beta   60.00000000
_cell_angle_gamma   60.00000000
_symmetry_Int_Tables_number   1
_chemical_formula_structural   Na6V2P(CO4)4
_chemical_formula_sum   'Na12 V4 P2 C8 O32'
_cell_volume   700.14014286
_cell_formula_units_Z   2
loop_
 _symmetry_equiv_pos_site_id
 _symmetry_equiv_pos_as_xyz
  1  'x, y, z'
loop_
 _atom_site_type_symbol
 _atom_site_label
 _atom_site_symmetry_multiplicity
 _atom_site_fract_x
 _atom_site_fract_y
 _atom_site_fract_z
 _atom_site_occupancy
  Na  Na0  1  0.54425200  0.95574800  0.54425200  1
  Na  Na1  1  0.54425200  0.54425200  0.95574800  1
  Na  Na2  1  0.95574800  0.54425200  0.54425200  1
  Na  Na3  1  0.29425200  0.70574800  0.29425200  1
  Na  Na4  1  0.95574800  0.95574800  0.54425200  1
  Na  Na5  1  0.54425200  0.95574800  0.95574800  1
  Na  Na6  1  0.70574800  0.29425200  0.29425200  1
  Na  Na7  1  0.29425200  0.29425200  0.70574800  1
  Na  Na8  1  0.95574800  0.54425200  0.95574800  1
  Na  Na9  1  0.70574800  0.70574800  0.29425200  1
  Na  Na10  1  0.29425200  0.70574800  0.70574800  1
  Na  Na11  1  0.70574800  0.29425200  0.70574800  1
  V  V12  1  0.12500000  0.12500000  0.62500000  1
  V  V13  1  0.62500000  0.12500000  0.12500000  1
  V  V14  1  0.12500000  0.62500000  0.12500000  1
  V  V15  1  0.12500000  0.12500000  0.12500000  1
  P  P16  1  0.50000000  0.50000000  0.50000000  1
  P  P17  1  0.75000000  0.75000000  0.75000000  1
  C  C18  1  0.34061100  0.34061100  0.34061100  1
  C  C19  1  0.90938900  0.90938900  0.27183200  1
  C  C20  1  0.27183200  0.90938900  0.90938900  1
  C  C21  1  0.90938900  0.27183200  0.90938900  1
  C  C22  1  0.34061100  0.97816800  0.34061100  1
  C  C23  1  0.34061100  0.34061100  0.97816800  1
  C  C24  1  0.97816800  0.34061100  0.34061100  1
  C  C25  1  0.90938900  0.90938900  0.90938900  1
  O  O26  1  0.48145800  0.22429900  0.31714300  1
  O  O27  1  0.22429900  0.31714300  0.48145800  1
  O  O28  1  0.31714300  0.48145800  0.22429900  1
  O  O29  1  0.27290100  0.76854200  0.93285700  1
  O  O30  1  0.56400800  0.30797500  0.56400800  1
  O  O31  1  0.02570100  0.76854200  0.27290100  1
  O  O32  1  0.76854200  0.93285700  0.27290100  1
  O  O33  1  0.56400800  0.56400800  0.30797500  1
  O  O34  1  0.30797500  0.56400800  0.56400800  1
  O  O35  1  0.27290100  0.02570100  0.76854200  1
  O  O36  1  0.27290100  0.93285700  0.02570100  1
  O  O37  1  0.56400800  0.56400800  0.56400800  1
  O  O38  1  0.93285700  0.27290100  0.76854200  1
  O  O39  1  0.93285700  0.02570100  0.27290100  1
  O  O40  1  0.76854200  0.27290100  0.02570100  1
  O  O41  1  0.22429900  0.97709900  0.31714300  1
  O  O42  1  0.02570100  0.27290100  0.93285700  1
  O  O43  1  0.48145800  0.97709900  0.22429900  1
  O  O44  1  0.31714300  0.22429900  0.97709900  1
  O  O45  1  0.31714300  0.97709900  0.48145800  1
  O  O46  1  0.68599200  0.68599200  0.68599200  1
  O  O47  1  0.97709900  0.31714300  0.22429900  1
  O  O48  1  0.97709900  0.22429900  0.48145800  1
  O  O49  1  0.94202500  0.68599200  0.68599200  1
  O  O50  1  0.68599200  0.68599200  0.94202500  1
  O  O51  1  0.48145800  0.31714300  0.97709900  1
  O  O52  1  0.22429900  0.48145800  0.97709900  1
  O  O53  1  0.68599200  0.94202500  0.68599200  1
  O  O54  1  0.97709900  0.48145800  0.31714300  1
  O  O55  1  0.93285700  0.76854200  0.02570100  1
  O  O56  1  0.02570100  0.93285700  0.76854200  1
  O  O57  1  0.76854200  0.02570100  0.93285700  1
