# generated using pymatgen
data_Mn12O5F19
_symmetry_space_group_name_H-M   'P 1'
_cell_length_a   4.82217800
_cell_length_b   5.86430485
_cell_length_c   16.05311865
_cell_angle_alpha   90.17774680
_cell_angle_beta   90.13682300
_cell_angle_gamma   91.69760622
_symmetry_Int_Tables_number   1
_chemical_formula_structural   Mn12O5F19
_chemical_formula_sum   'Mn12 O5 F19'
_cell_volume   453.75885264
_cell_formula_units_Z   1
loop_
 _symmetry_equiv_pos_site_id
 _symmetry_equiv_pos_as_xyz
  1  'x, y, z'
loop_
 _atom_site_type_symbol
 _atom_site_label
 _atom_site_symmetry_multiplicity
 _atom_site_fract_x
 _atom_site_fract_y
 _atom_site_fract_z
 _atom_site_occupancy
  Mn  Mn0  1  0.99091200  0.82188200  0.58656900  1
  Mn  Mn1  1  0.98359000  0.14329500  0.74994700  1
  Mn  Mn2  1  0.99271200  0.83452500  0.90903300  1
  Mn  Mn3  1  0.99049500  0.83018400  0.25893200  1
  Mn  Mn4  1  0.00815800  0.14487300  0.41808400  1
  Mn  Mn5  1  0.02453500  0.16807300  0.08166300  1
  Mn  Mn6  1  0.48882900  0.67607100  0.40503200  1
  Mn  Mn7  1  0.48818400  0.64448800  0.08190600  1
  Mn  Mn8  1  0.53238800  0.66104400  0.74756300  1
  Mn  Mn9  1  0.49182600  0.33632100  0.92295400  1
  Mn  Mn10  1  0.51030300  0.36058900  0.58329800  1
  Mn  Mn11  1  0.50889900  0.35012300  0.25203300  1
  O  O12  1  0.20887100  0.87640200  0.36096600  1
  O  O13  1  0.28750500  0.40393200  0.03070000  1
  O  O14  1  0.71332800  0.61142400  0.64486300  1
  O  O15  1  0.70615900  0.62898800  0.30469700  1
  O  O16  1  0.78523900  0.87973300  0.79907200  1
  F  F17  1  0.23943200  0.89492200  0.69236300  1
  F  F18  1  0.23787300  0.88748200  0.02278300  1
  F  F19  1  0.22398800  0.12100300  0.85886800  1
  F  F20  1  0.23204700  0.12019800  0.53338000  1
  F  F21  1  0.22661500  0.09620000  0.19879700  1
  F  F22  1  0.30342700  0.62937600  0.85419500  1
  F  F23  1  0.26251500  0.38929000  0.70188300  1
  F  F24  1  0.27329400  0.61909100  0.51692700  1
  F  F25  1  0.25889100  0.37881500  0.35753700  1
  F  F26  1  0.25672800  0.60662900  0.18898700  1
  F  F27  1  0.73746000  0.61962600  0.97769500  1
  F  F28  1  0.73697800  0.37488200  0.81433200  1
  F  F29  1  0.72631000  0.39877500  0.46710600  1
  F  F30  1  0.73418500  0.38260600  0.14035800  1
  F  F31  1  0.75598500  0.89277200  0.47739600  1
  F  F32  1  0.77178800  0.12077200  0.63763000  1
  F  F33  1  0.77837300  0.10702900  0.97397200  1
  F  F34  1  0.76738300  0.87004400  0.14110100  1
  F  F35  1  0.76479900  0.11854600  0.30737800  1
