# generated using pymatgen
data_Ba4Ce2O7
_symmetry_space_group_name_H-M   'P 1'
_cell_length_a   11.37933600
_cell_length_b   7.86691300
_cell_length_c   19.19785126
_cell_angle_alpha   88.73508267
_cell_angle_beta   90.00000000
_cell_angle_gamma   90.00000000
_symmetry_Int_Tables_number   1
_chemical_formula_structural   Ba4Ce2O7
_chemical_formula_sum   'Ba24 Ce12 O42'
_cell_volume   1718.17757443
_cell_formula_units_Z   6
loop_
 _symmetry_equiv_pos_site_id
 _symmetry_equiv_pos_as_xyz
  1  'x, y, z'
loop_
 _atom_site_type_symbol
 _atom_site_label
 _atom_site_symmetry_multiplicity
 _atom_site_fract_x
 _atom_site_fract_y
 _atom_site_fract_z
 _atom_site_occupancy
  Ba  Ba0  1  0.59913300  0.16330500  0.08576100  1
  Ba  Ba1  1  0.24783400  0.02560400  0.08911900  1
  Ba  Ba2  1  0.90086700  0.66330500  0.08576100  1
  Ba  Ba3  1  0.25216600  0.52560400  0.08911900  1
  Ba  Ba4  1  0.05576400  0.30133600  0.24885100  1
  Ba  Ba5  1  0.72809300  0.46870400  0.25414500  1
  Ba  Ba6  1  0.44423600  0.80133600  0.24885100  1
  Ba  Ba7  1  0.77190700  0.96870400  0.25414500  1
  Ba  Ba8  1  0.22077000  0.98393200  0.41968200  1
  Ba  Ba9  1  0.55484100  0.16722700  0.41015100  1
  Ba  Ba10  1  0.27923000  0.48393200  0.41968200  1
  Ba  Ba11  1  0.94515900  0.66722700  0.41015100  1
  Ba  Ba12  1  0.05484100  0.33277300  0.58984900  1
  Ba  Ba13  1  0.72077000  0.51606800  0.58031800  1
  Ba  Ba14  1  0.44515900  0.83277300  0.58984900  1
  Ba  Ba15  1  0.77923000  0.01606800  0.58031800  1
  Ba  Ba16  1  0.22809300  0.03129600  0.74585500  1
  Ba  Ba17  1  0.55576400  0.19866400  0.75114900  1
  Ba  Ba18  1  0.27190700  0.53129600  0.74585500  1
  Ba  Ba19  1  0.94423600  0.69866400  0.75114900  1
  Ba  Ba20  1  0.74783400  0.47439600  0.91088100  1
  Ba  Ba21  1  0.09913300  0.33669500  0.91423900  1
  Ba  Ba22  1  0.75216600  0.97439600  0.91088100  1
  Ba  Ba23  1  0.40086700  0.83669500  0.91423900  1
  Ce  Ce24  1  0.92474800  0.17384400  0.08128600  1
  Ce  Ce25  1  0.57525200  0.67384400  0.08128600  1
  Ce  Ce26  1  0.42244800  0.31071300  0.24084300  1
  Ce  Ce27  1  0.07755200  0.81071300  0.24084300  1
  Ce  Ce28  1  0.92023800  0.17750300  0.41705600  1
  Ce  Ce29  1  0.57976200  0.67750300  0.41705600  1
  Ce  Ce30  1  0.42023800  0.32249700  0.58294400  1
  Ce  Ce31  1  0.07976200  0.82249700  0.58294400  1
  Ce  Ce32  1  0.92244800  0.18928700  0.75915700  1
  Ce  Ce33  1  0.57755200  0.68928700  0.75915700  1
  Ce  Ce34  1  0.42474800  0.32615600  0.91871400  1
  Ce  Ce35  1  0.07525200  0.82615600  0.91871400  1
  O  O36  1  0.79154200  0.21340900  0.00239300  1
  O  O37  1  0.70845800  0.71340900  0.00239300  1
  O  O38  1  0.04091900  0.38806200  0.07808500  1
  O  O39  1  0.45908100  0.88806200  0.07808500  1
  O  O40  1  0.80569300  0.23528500  0.16257400  1
  O  O41  1  0.49509600  0.44820900  0.14792800  1
  O  O42  1  0.69430700  0.73528500  0.16257400  1
  O  O43  1  0.00490400  0.94820900  0.14792800  1
  O  O44  1  0.25571000  0.24516900  0.19567300  1
  O  O45  1  0.54363100  0.10021400  0.23759100  1
  O  O46  1  0.24429000  0.74516900  0.19567300  1
  O  O47  1  0.95636900  0.60021400  0.23759100  1
  O  O48  1  0.49905400  0.47049800  0.33149000  1
  O  O49  1  0.76754400  0.21626600  0.34990600  1
  O  O50  1  0.00094600  0.97049800  0.33149000  1
  O  O51  1  0.73245600  0.71626600  0.34990600  1
  O  O52  1  0.06277800  0.35529600  0.38993200  1
  O  O53  1  0.43722200  0.85529600  0.38993200  1
  O  O54  1  0.34642500  0.18967200  0.48947400  1
  O  O55  1  0.84642500  0.31032800  0.51052600  1
  O  O56  1  0.50000000  0.50000000  0.50000000  1
  O  O57  1  0.15357500  0.68967200  0.48947400  1
  O  O58  1  0.65357500  0.81032800  0.51052600  1
  O  O59  1  0.00000000  0.00000000  0.50000000  1
  O  O60  1  0.56277800  0.14470400  0.61006800  1
  O  O61  1  0.93722200  0.64470400  0.61006800  1
  O  O62  1  0.26754400  0.28373400  0.65009400  1
  O  O63  1  0.99905400  0.02950200  0.66851000  1
  O  O64  1  0.23245600  0.78373400  0.65009400  1
  O  O65  1  0.50094600  0.52950200  0.66851000  1
  O  O66  1  0.04363100  0.39978600  0.76240900  1
  O  O67  1  0.75571000  0.25483100  0.80432700  1
  O  O68  1  0.45636900  0.89978600  0.76240900  1
  O  O69  1  0.74429000  0.75483100  0.80432700  1
  O  O70  1  0.99509600  0.05179100  0.85207200  1
  O  O71  1  0.30569300  0.26471500  0.83742600  1
  O  O72  1  0.50490400  0.55179100  0.85207200  1
  O  O73  1  0.19430700  0.76471500  0.83742600  1
  O  O74  1  0.54091900  0.11193800  0.92191500  1
  O  O75  1  0.95908100  0.61193800  0.92191500  1
  O  O76  1  0.29154200  0.28659100  0.99760700  1
  O  O77  1  0.20845800  0.78659100  0.99760700  1
