# generated using pymatgen
data_Mn3Sn(PO4)6
_symmetry_space_group_name_H-M   'P 1'
_cell_length_a   8.62352253
_cell_length_b   8.62352280
_cell_length_c   8.62352252
_cell_angle_alpha   59.56168437
_cell_angle_beta   59.56168382
_cell_angle_gamma   59.56168499
_symmetry_Int_Tables_number   1
_chemical_formula_structural   Mn3Sn(PO4)6
_chemical_formula_sum   'Mn3 Sn1 P6 O24'
_cell_volume   448.94153500
_cell_formula_units_Z   1
loop_
 _symmetry_equiv_pos_site_id
 _symmetry_equiv_pos_as_xyz
  1  'x, y, z'
loop_
 _atom_site_type_symbol
 _atom_site_label
 _atom_site_symmetry_multiplicity
 _atom_site_fract_x
 _atom_site_fract_y
 _atom_site_fract_z
 _atom_site_occupancy
  Mn  Mn0  1  0.14153500  0.14153500  0.14153500  1
  Mn  Mn1  1  0.35799900  0.35799900  0.35799900  1
  Mn  Mn2  1  0.64148400  0.64148400  0.64148400  1
  Sn  Sn3  1  0.86183000  0.86183000  0.86183000  1
  P  P4  1  0.74976600  0.45667400  0.03919800  1
  P  P5  1  0.03919800  0.74976600  0.45667400  1
  P  P6  1  0.45667400  0.03919800  0.74976600  1
  P  P7  1  0.25891000  0.52904200  0.96513900  1
  P  P8  1  0.52904200  0.96513900  0.25891000  1
  P  P9  1  0.96513900  0.25891000  0.52904200  1
  O  O10  1  0.12889600  0.30757500  0.49725100  1
  O  O11  1  0.30757500  0.49725100  0.12889600  1
  O  O12  1  0.06250100  0.91846800  0.26531500  1
  O  O13  1  0.49725100  0.12889600  0.30757500  1
  O  O14  1  0.01822300  0.79069200  0.62007400  1
  O  O15  1  0.23027200  0.58265100  0.42811100  1
  O  O16  1  0.26531500  0.06250100  0.91846800  1
  O  O17  1  0.42811100  0.23027200  0.58265100  1
  O  O18  1  0.20770300  0.36790800  0.99278200  1
  O  O19  1  0.58265100  0.42811100  0.23027200  1
  O  O20  1  0.09362200  0.72014200  0.94647500  1
  O  O21  1  0.36790800  0.99278200  0.20770300  1
  O  O22  1  0.62007400  0.01822300  0.79069200  1
  O  O23  1  0.91846800  0.26531500  0.06250100  1
  O  O24  1  0.42928300  0.54668300  0.77563200  1
  O  O25  1  0.79069200  0.62007400  0.01822300  1
  O  O26  1  0.54668300  0.77563200  0.42928300  1
  O  O27  1  0.72014200  0.94647500  0.09362200  1
  O  O28  1  0.77563200  0.42928300  0.54668300  1
  O  O29  1  0.99278200  0.20770300  0.36790800  1
  O  O30  1  0.48962100  0.86921800  0.70932700  1
  O  O31  1  0.94647500  0.09362200  0.72014200  1
  O  O32  1  0.70932700  0.48962100  0.86921800  1
  O  O33  1  0.86921800  0.70932700  0.48962100  1
