# generated using pymatgen
data_Fe5(OF4)2
_symmetry_space_group_name_H-M   'P 1'
_cell_length_a   4.80795100
_cell_length_b   5.78056044
_cell_length_c   13.57378479
_cell_angle_alpha   78.51847364
_cell_angle_beta   89.44474022
_cell_angle_gamma   89.24455992
_symmetry_Int_Tables_number   1
_chemical_formula_structural   Fe5(OF4)2
_chemical_formula_sum   'Fe10 O4 F16'
_cell_volume   369.66051772
_cell_formula_units_Z   2
loop_
 _symmetry_equiv_pos_site_id
 _symmetry_equiv_pos_as_xyz
  1  'x, y, z'
loop_
 _atom_site_type_symbol
 _atom_site_label
 _atom_site_symmetry_multiplicity
 _atom_site_fract_x
 _atom_site_fract_y
 _atom_site_fract_z
 _atom_site_occupancy
  Fe  Fe0  1  0.48530300  0.50124100  0.00858000  1
  Fe  Fe1  1  0.48901400  0.72239100  0.39674300  1
  Fe  Fe2  1  0.46693100  0.11926800  0.20364200  1
  Fe  Fe3  1  0.51718800  0.28168000  0.59615300  1
  Fe  Fe4  1  0.54461000  0.91673800  0.79530100  1
  Fe  Fe5  1  0.01387100  0.19016600  0.39617700  1
  Fe  Fe6  1  0.98493100  0.38151100  0.80226500  1
  Fe  Fe7  1  0.01267500  0.59208100  0.19742900  1
  Fe  Fe8  1  0.98987400  0.80521000  0.60645000  1
  Fe  Fe9  1  0.99220600  0.00265800  0.99501100  1
  O  O10  1  0.79809000  0.10338100  0.85625200  1
  O  O11  1  0.68297200  0.97027500  0.66510000  1
  O  O12  1  0.31612000  0.00717000  0.33762600  1
  O  O13  1  0.30028800  0.40203300  0.14552600  1
  F  F14  1  0.79238100  0.27099600  0.26294200  1
  F  F15  1  0.81555800  0.47681200  0.66556700  1
  F  F16  1  0.80033300  0.68202200  0.05685700  1
  F  F17  1  0.79743900  0.86473200  0.46215900  1
  F  F18  1  0.70026700  0.16542600  0.07061700  1
  F  F19  1  0.69219800  0.40446700  0.45224800  1
  F  F20  1  0.70301300  0.59166600  0.85695100  1
  F  F21  1  0.70261000  0.77828100  0.26097400  1
  F  F22  1  0.29505700  0.21354700  0.74312100  1
  F  F23  1  0.31035800  0.83360800  0.92813300  1
  F  F24  1  0.31100400  0.62512900  0.53688900  1
  F  F25  1  0.20966700  0.92041100  0.13655200  1
  F  F26  1  0.19975100  0.33747800  0.93142100  1
  F  F27  1  0.17614300  0.11834000  0.53924700  1
  F  F28  1  0.20713200  0.52625000  0.34648300  1
  F  F29  1  0.19301200  0.69503400  0.74758400  1
