# generated using pymatgen
data_V3Cr2Sb3O16
_symmetry_space_group_name_H-M   'P 1'
_cell_length_a   6.11976766
_cell_length_b   6.11976766
_cell_length_c   9.11469822
_cell_angle_alpha   89.97424296
_cell_angle_beta   89.97424296
_cell_angle_gamma   59.35081498
_symmetry_Int_Tables_number   1
_chemical_formula_structural   V3Cr2Sb3O16
_chemical_formula_sum   'V3 Cr2 Sb3 O16'
_cell_volume   293.67326717
_cell_formula_units_Z   1
loop_
 _symmetry_equiv_pos_site_id
 _symmetry_equiv_pos_as_xyz
  1  'x, y, z'
loop_
 _atom_site_type_symbol
 _atom_site_label
 _atom_site_symmetry_multiplicity
 _atom_site_fract_x
 _atom_site_fract_y
 _atom_site_fract_z
 _atom_site_occupancy
  V  V0  1  0.83168100  0.83168100  0.79221900  1
  V  V1  1  0.16672200  0.66631700  0.29132900  1
  V  V2  1  0.66631700  0.16672200  0.29132900  1
  Cr  Cr3  1  0.66949700  0.66949700  0.51066800  1
  Cr  Cr4  1  0.33876400  0.33876400  0.01538600  1
  Sb  Sb5  1  0.33404600  0.83099300  0.78865300  1
  Sb  Sb6  1  0.83099300  0.33404600  0.78865300  1
  Sb  Sb7  1  0.16861800  0.16861800  0.29035100  1
  O  O8  1  0.33538400  0.82952100  0.39343900  1
  O  O9  1  0.52128400  0.52128400  0.65357300  1
  O  O10  1  0.65958500  0.65958500  0.90902500  1
  O  O11  1  0.00282000  0.00282000  0.67844100  1
  O  O12  1  0.99947700  0.99947700  0.18762400  1
  O  O13  1  0.82952100  0.33538400  0.39343900  1
  O  O14  1  0.51971800  0.95126900  0.66190700  1
  O  O15  1  0.95126900  0.51971800  0.66190700  1
  O  O16  1  0.16600600  0.16600600  0.90054800  1
  O  O17  1  0.83455800  0.83455800  0.38898300  1
  O  O18  1  0.05154800  0.48072700  0.16109200  1
  O  O19  1  0.48072700  0.05154800  0.16109200  1
  O  O20  1  0.33323200  0.33323200  0.40452500  1
  O  O21  1  0.16991100  0.66672600  0.89420800  1
  O  O22  1  0.47120600  0.47120600  0.17164000  1
  O  O23  1  0.66672600  0.16991100  0.89420800  1
