# generated using pymatgen
data_Co4(P2O7)3
_symmetry_space_group_name_H-M   'P 1'
_cell_length_a   21.62100200
_cell_length_b   7.38670500
_cell_length_c   12.07077355
_cell_angle_alpha   52.88890614
_cell_angle_beta   90.00000000
_cell_angle_gamma   90.00000000
_symmetry_Int_Tables_number   1
_chemical_formula_structural   Co4(P2O7)3
_chemical_formula_sum   'Co16 P24 O84'
_cell_volume   1537.35604426
_cell_formula_units_Z   4
loop_
 _symmetry_equiv_pos_site_id
 _symmetry_equiv_pos_as_xyz
  1  'x, y, z'
loop_
 _atom_site_type_symbol
 _atom_site_label
 _atom_site_symmetry_multiplicity
 _atom_site_fract_x
 _atom_site_fract_y
 _atom_site_fract_z
 _atom_site_occupancy
  Co  Co0  1  0.75887800  0.32422200  0.70965400  1
  Co  Co1  1  0.49941400  0.77172200  0.26553600  1
  Co  Co2  1  0.25364600  0.28007400  0.77719900  1
  Co  Co3  1  0.99400000  0.80753900  0.24644700  1
  Co  Co4  1  0.49400000  0.19246100  0.25355300  1
  Co  Co5  1  0.75364600  0.71992600  0.72280100  1
  Co  Co6  1  0.99941400  0.22827800  0.23446400  1
  Co  Co7  1  0.25887800  0.67577800  0.79034600  1
  Co  Co8  1  0.74112200  0.32422200  0.20965400  1
  Co  Co9  1  0.00058600  0.77172200  0.76553600  1
  Co  Co10  1  0.24635400  0.28007400  0.27719900  1
  Co  Co11  1  0.50600000  0.80753900  0.74644700  1
  Co  Co12  1  0.00600000  0.19246100  0.75355300  1
  Co  Co13  1  0.74635400  0.71992600  0.22280100  1
  Co  Co14  1  0.50058600  0.22827800  0.73446400  1
  Co  Co15  1  0.24112200  0.67577800  0.29034600  1
  P  P16  1  0.68699700  0.23885300  0.99358000  1
  P  P17  1  0.89008400  0.40457700  0.83187900  1
  P  P18  1  0.85843600  0.08257800  0.15700400  1
  P  P19  1  0.69993900  0.79430600  0.44562400  1
  P  P20  1  0.54700400  0.28522600  0.96830900  1
  P  P21  1  0.56041100  0.72665700  0.52579700  1
  P  P22  1  0.06041100  0.27334300  0.97420300  1
  P  P23  1  0.04700400  0.71477400  0.53169100  1
  P  P24  1  0.19993900  0.20569400  0.05437600  1
  P  P25  1  0.35843600  0.91742200  0.34299600  1
  P  P26  1  0.39008400  0.59542300  0.66812100  1
  P  P27  1  0.18699700  0.76114700  0.50642000  1
  P  P28  1  0.81300300  0.23885300  0.49358000  1
  P  P29  1  0.60991600  0.40457700  0.33187900  1
  P  P30  1  0.64156400  0.08257800  0.65700400  1
  P  P31  1  0.80006100  0.79430600  0.94562400  1
  P  P32  1  0.95299600  0.28522600  0.46830900  1
  P  P33  1  0.93958900  0.72665700  0.02579700  1
  P  P34  1  0.43958900  0.27334300  0.47420300  1
  P  P35  1  0.45299600  0.71477400  0.03169100  1
  P  P36  1  0.30006100  0.20569400  0.55437600  1
  P  P37  1  0.14156400  0.91742200  0.84299600  1
  P  P38  1  0.10991600  0.59542300  0.16812100  1
  P  P39  1  0.31300300  0.76114700  0.00642000  1
  O  O40  1  0.04192000  0.46352600  0.59652200  1
  O  O41  1  0.70825500  0.68459600  0.37403700  1
  O  O42  1  0.92883000  0.28147000  0.78926000  1
  O  O43  1  0.55428100  0.47149600  0.60830500  1
  O  O44  1  0.82369800  0.86617100  0.20042300  1
  O  O45  1  0.70510400  0.99094100  0.07708300  1
  O  O46  1  0.04944000  0.17858600  0.89504200  1
  O  O47  1  0.32025400  0.76233600  0.32558000  1
  O  O48  1  0.42297600  0.39934200  0.68238100  1
  O  O49  1  0.19041800  0.65822500  0.42836500  1
  O  O50  1  0.21864800  0.95970700  0.13492500  1
  O  O51  1  0.51046300  0.21869000  0.88981400  1
  O  O52  1  0.61639600  0.23563600  0.95456900  1
  O  O53  1  0.87349200  0.21948300  0.99412900  1
  O  O54  1  0.82918400  0.48497400  0.74940500  1
  O  O55  1  0.12938500  0.20893200  0.02535900  1
  O  O56  1  0.41975900  0.98566000  0.26137200  1
  O  O57  1  0.71859600  0.38887900  0.85106400  1
  O  O58  1  0.73358600  0.65213300  0.58652600  1
  O  O59  1  0.03012000  0.87009700  0.37643100  1
  O  O60  1  0.02122600  0.14775700  0.10769500  1
  O  O61  1  0.52122600  0.85224300  0.39230500  1
  O  O62  1  0.53012000  0.12990300  0.12356900  1
  O  O63  1  0.23358600  0.34786700  0.91347400  1
  O  O64  1  0.21859600  0.61112100  0.64893600  1
  O  O65  1  0.91975900  0.01434000  0.23862800  1
  O  O66  1  0.62938500  0.79106800  0.47464100  1
  O  O67  1  0.32918400  0.51502600  0.75059500  1
  O  O68  1  0.37349200  0.78051700  0.50587100  1
  O  O69  1  0.11639600  0.76436400  0.54543100  1
  O  O70  1  0.01046300  0.78131000  0.61018600  1
  O  O71  1  0.71864800  0.04029300  0.36507500  1
  O  O72  1  0.69041800  0.34177500  0.07163500  1
  O  O73  1  0.92297600  0.60065800  0.81761900  1
  O  O74  1  0.82025400  0.23766400  0.17442000  1
  O  O75  1  0.54944000  0.82141400  0.60495800  1
  O  O76  1  0.20510400  0.00905900  0.42291700  1
  O  O77  1  0.32369800  0.13382900  0.29957700  1
  O  O78  1  0.05428100  0.52850400  0.89169500  1
  O  O79  1  0.42883000  0.71853000  0.71074000  1
  O  O80  1  0.20825500  0.31540400  0.12596300  1
  O  O81  1  0.54192000  0.53647400  0.90347800  1
  O  O82  1  0.45808000  0.46352600  0.09652200  1
  O  O83  1  0.79174500  0.68459600  0.87403700  1
  O  O84  1  0.57117000  0.28147000  0.28926000  1
  O  O85  1  0.94571900  0.47149600  0.10830500  1
  O  O86  1  0.67630200  0.86617100  0.70042300  1
  O  O87  1  0.79489600  0.99094100  0.57708300  1
  O  O88  1  0.45056000  0.17858600  0.39504200  1
  O  O89  1  0.17974600  0.76233600  0.82558000  1
  O  O90  1  0.07702400  0.39934200  0.18238100  1
  O  O91  1  0.30958200  0.65822500  0.92836500  1
  O  O92  1  0.28135200  0.95970700  0.63492500  1
  O  O93  1  0.98953700  0.21869000  0.38981400  1
  O  O94  1  0.88360400  0.23563600  0.45456900  1
  O  O95  1  0.62650800  0.21948300  0.49412900  1
  O  O96  1  0.67081600  0.48497400  0.24940500  1
  O  O97  1  0.37061500  0.20893200  0.52535900  1
  O  O98  1  0.08024100  0.98566000  0.76137200  1
  O  O99  1  0.78140400  0.38887900  0.35106400  1
  O  O100  1  0.76641400  0.65213300  0.08652600  1
  O  O101  1  0.46988000  0.87009700  0.87643100  1
  O  O102  1  0.47877400  0.14775700  0.60769500  1
  O  O103  1  0.97877400  0.85224300  0.89230500  1
  O  O104  1  0.96988000  0.12990300  0.62356900  1
  O  O105  1  0.26641400  0.34786700  0.41347400  1
  O  O106  1  0.28140400  0.61112100  0.14893600  1
  O  O107  1  0.58024100  0.01434000  0.73862800  1
  O  O108  1  0.87061500  0.79106800  0.97464100  1
  O  O109  1  0.17081600  0.51502600  0.25059500  1
  O  O110  1  0.12650800  0.78051700  0.00587100  1
  O  O111  1  0.38360400  0.76436400  0.04543100  1
  O  O112  1  0.48953700  0.78131000  0.11018600  1
  O  O113  1  0.78135200  0.04029300  0.86507500  1
  O  O114  1  0.80958200  0.34177500  0.57163500  1
  O  O115  1  0.57702400  0.60065800  0.31761900  1
  O  O116  1  0.67974600  0.23766400  0.67442000  1
  O  O117  1  0.95056000  0.82141400  0.10495800  1
  O  O118  1  0.29489600  0.00905900  0.92291700  1
  O  O119  1  0.17630200  0.13382900  0.79957700  1
  O  O120  1  0.44571900  0.52850400  0.39169500  1
  O  O121  1  0.07117000  0.71853000  0.21074000  1
  O  O122  1  0.29174500  0.31540400  0.62596300  1
  O  O123  1  0.95808000  0.53647400  0.40347800  1
