# generated using pymatgen
data_Ti17(NO4)6
_symmetry_space_group_name_H-M   'P 1'
_cell_length_a   10.39994800
_cell_length_b   10.71063744
_cell_length_c   11.29936822
_cell_angle_alpha   87.53686949
_cell_angle_beta   62.61063889
_cell_angle_gamma   84.74225714
_symmetry_Int_Tables_number   1
_chemical_formula_structural   Ti17(NO4)6
_chemical_formula_sum   'Ti34 N12 O48'
_cell_volume   1112.84272873
_cell_formula_units_Z   2
loop_
 _symmetry_equiv_pos_site_id
 _symmetry_equiv_pos_as_xyz
  1  'x, y, z'
loop_
 _atom_site_type_symbol
 _atom_site_label
 _atom_site_symmetry_multiplicity
 _atom_site_fract_x
 _atom_site_fract_y
 _atom_site_fract_z
 _atom_site_occupancy
  Ti  Ti0  1  0.24295100  0.87710800  0.92202900  1
  Ti  Ti1  1  0.93218100  0.78733500  0.07341700  1
  Ti  Ti2  1  0.73351600  0.87849100  0.92996300  1
  Ti  Ti3  1  0.74678300  0.78729600  0.44505200  1
  Ti  Ti4  1  0.12228000  0.89946300  0.24971000  1
  Ti  Ti5  1  0.91212200  0.87866700  0.57086400  1
  Ti  Ti6  1  0.40516500  0.55261700  0.92359400  1
  Ti  Ti7  1  0.57680900  0.55117400  0.57736500  1
  Ti  Ti8  1  0.44233600  0.78854200  0.05512800  1
  Ti  Ti9  1  0.25545900  0.78887000  0.42642000  1
  Ti  Ti10  1  0.41643800  0.87649400  0.57668600  1
  Ti  Ti11  1  0.62508500  0.89637600  0.25047200  1
  Ti  Ti12  1  0.78734200  0.56568000  0.25094100  1
  Ti  Ti13  1  0.04450600  0.76873700  0.74981700  1
  Ti  Ti14  1  0.28889200  0.56931000  0.24934700  1
  Ti  Ti15  1  0.91918000  0.45233300  0.42809800  1
  Ti  Ti16  1  0.08082000  0.54766700  0.57190200  1
  Ti  Ti17  1  0.71110800  0.43069000  0.75065300  1
  Ti  Ti18  1  0.09931500  0.45320000  0.07195000  1
  Ti  Ti19  1  0.90068500  0.54680000  0.92805000  1
  Ti  Ti20  1  0.74454100  0.21113000  0.57358000  1
  Ti  Ti21  1  0.95549400  0.23126300  0.25018300  1
  Ti  Ti22  1  0.37491500  0.10362400  0.74952800  1
  Ti  Ti23  1  0.58356200  0.12350600  0.42331400  1
  Ti  Ti24  1  0.59483500  0.44738300  0.07640600  1
  Ti  Ti25  1  0.42319100  0.44882600  0.42263500  1
  Ti  Ti26  1  0.55766400  0.21145800  0.94487200  1
  Ti  Ti27  1  0.21265800  0.43432000  0.74905900  1
  Ti  Ti28  1  0.08787800  0.12133300  0.42913600  1
  Ti  Ti29  1  0.26648400  0.12150900  0.07003700  1
  Ti  Ti30  1  0.25321700  0.21270400  0.55494800  1
  Ti  Ti31  1  0.87772000  0.10053700  0.75029000  1
  Ti  Ti32  1  0.06781900  0.21266500  0.92658300  1
  Ti  Ti33  1  0.75704900  0.12289200  0.07797100  1
  N  N34  1  0.38603800  0.91956500  0.74930800  1
  N  N35  1  0.76756200  0.75607300  0.25022200  1
  N  N36  1  0.90243900  0.91196000  0.75037600  1
  N  N37  1  0.26764800  0.75707200  0.24992400  1
  N  N38  1  0.56485100  0.55926700  0.75043200  1
  N  N39  1  0.93163300  0.42380500  0.25009800  1
  N  N40  1  0.06836700  0.57619500  0.74990200  1
  N  N41  1  0.73235200  0.24292800  0.75007600  1
  N  N42  1  0.43514900  0.44073300  0.24956800  1
  N  N43  1  0.09756100  0.08804000  0.24962400  1
  N  N44  1  0.23243800  0.24392700  0.74977800  1
  N  N45  1  0.61396200  0.08043500  0.25069200  1
  O  O46  1  0.62281100  0.93529100  0.43913300  1
  O  O47  1  0.74214100  0.81876100  0.61015200  1
  O  O48  1  0.53853200  0.72463900  0.55051500  1
  O  O49  1  0.93529400  0.84996800  0.37782200  1
  O  O50  1  0.31163700  0.93628100  0.06199200  1
  O  O51  1  0.06183700  0.85133000  0.11979900  1
  O  O52  1  0.33848900  0.72568700  0.94916200  1
  O  O53  1  0.12794800  0.93710000  0.43358800  1
  O  O54  1  0.60259800  0.81865600  0.89005600  1
  O  O55  1  0.39852800  0.48718900  0.62031800  1
  O  O56  1  0.26777400  0.48460600  0.88232100  1
  O  O57  1  0.97769600  0.60438100  0.06487400  1
  O  O58  1  0.56313400  0.84959300  0.12222400  1
  O  O59  1  0.04039900  0.72945100  0.56453400  1
  O  O60  1  0.85529200  0.72858400  0.93595400  1
  O  O61  1  0.10262100  0.81650100  0.88136200  1
  O  O62  1  0.79074400  0.60422600  0.43731800  1
  O  O63  1  0.81227600  0.93586800  0.06496600  1
  O  O64  1  0.43166500  0.85108600  0.38051100  1
  O  O65  1  0.23419300  0.81621500  0.61844700  1
  O  O66  1  0.28887900  0.60500200  0.43709500  1
  O  O67  1  0.71112100  0.39499800  0.56290500  1
  O  O68  1  0.09844800  0.51599000  0.38173500  1
  O  O69  1  0.47646100  0.60460700  0.06117700  1
  O  O70  1  0.90155200  0.48401000  0.61826500  1
  O  O71  1  0.22927000  0.51307200  0.12082700  1
  O  O72  1  0.77073000  0.48692800  0.87917300  1
  O  O73  1  0.52353900  0.39539300  0.93882300  1
  O  O74  1  0.89737900  0.18349900  0.11863800  1
  O  O75  1  0.18772400  0.06413200  0.93503400  1
  O  O76  1  0.14470800  0.27141600  0.06404600  1
  O  O77  1  0.43686600  0.15040700  0.87777600  1
  O  O78  1  0.76580700  0.18378500  0.38155300  1
  O  O79  1  0.95960100  0.27054900  0.43546600  1
  O  O80  1  0.60147200  0.51281100  0.37968200  1
  O  O81  1  0.73222600  0.51539400  0.11767900  1
  O  O82  1  0.20925600  0.39577400  0.56268200  1
  O  O83  1  0.56833500  0.14891400  0.61948900  1
  O  O84  1  0.02230400  0.39561900  0.93512600  1
  O  O85  1  0.68836300  0.06371900  0.93800800  1
  O  O86  1  0.87205200  0.06290000  0.56641200  1
  O  O87  1  0.39740200  0.18134400  0.10994400  1
  O  O88  1  0.66151100  0.27431300  0.05083800  1
  O  O89  1  0.25785900  0.18123900  0.38984800  1
  O  O90  1  0.06470600  0.15003200  0.62217800  1
  O  O91  1  0.46146800  0.27536100  0.44948500  1
  O  O92  1  0.93816300  0.14867000  0.88020100  1
  O  O93  1  0.37718900  0.06470900  0.56086700  1
