# generated using pymatgen
data_Ti17(NO4)6
_symmetry_space_group_name_H-M   'P 1'
_cell_length_a   10.04166900
_cell_length_b   7.64740200
_cell_length_c   14.64258638
_cell_angle_alpha   82.49307757
_cell_angle_beta   90.00000000
_cell_angle_gamma   90.00000000
_symmetry_Int_Tables_number   1
_chemical_formula_structural   Ti17(NO4)6
_chemical_formula_sum   'Ti34 N12 O48'
_cell_volume   1114.80593384
_cell_formula_units_Z   2
loop_
 _symmetry_equiv_pos_site_id
 _symmetry_equiv_pos_as_xyz
  1  'x, y, z'
loop_
 _atom_site_type_symbol
 _atom_site_label
 _atom_site_symmetry_multiplicity
 _atom_site_fract_x
 _atom_site_fract_y
 _atom_site_fract_z
 _atom_site_occupancy
  Ti  Ti0  1  0.42969000  0.14377300  0.42308500  1
  Ti  Ti1  1  0.07031000  0.14377300  0.42308500  1
  Ti  Ti2  1  0.75000000  0.13140200  0.46470300  1
  Ti  Ti3  1  0.94024600  0.18969200  0.24100100  1
  Ti  Ti4  1  0.55975400  0.18969200  0.24100100  1
  Ti  Ti5  1  0.42814600  0.30964500  0.76172200  1
  Ti  Ti6  1  0.07185400  0.30964500  0.76172200  1
  Ti  Ti7  1  0.75000000  0.30004400  0.80024300  1
  Ti  Ti8  1  0.92365000  0.53048800  0.90657500  1
  Ti  Ti9  1  0.42365000  0.46951200  0.09342500  1
  Ti  Ti10  1  0.92776200  0.35576100  0.57406100  1
  Ti  Ti11  1  0.57223800  0.35576100  0.57406100  1
  Ti  Ti12  1  0.75000000  0.46165500  0.13049100  1
  Ti  Ti13  1  0.07635000  0.46951200  0.09342500  1
  Ti  Ti14  1  0.57635000  0.53048800  0.90657500  1
  Ti  Ti15  1  0.25000000  0.36318800  0.53644400  1
  Ti  Ti16  1  0.25000000  0.53834500  0.86950900  1
  Ti  Ti17  1  0.75000000  0.63681200  0.46355600  1
  Ti  Ti18  1  0.07223800  0.64423900  0.42593900  1
  Ti  Ti19  1  0.42776200  0.64423900  0.42593900  1
  Ti  Ti20  1  0.25000000  0.69995600  0.19975700  1
  Ti  Ti21  1  0.92814600  0.69035500  0.23827800  1
  Ti  Ti22  1  0.05975400  0.81030800  0.75899900  1
  Ti  Ti23  1  0.44024600  0.81030800  0.75899900  1
  Ti  Ti24  1  0.57185400  0.69035500  0.23827800  1
  Ti  Ti25  1  0.92969000  0.85622700  0.57691500  1
  Ti  Ti26  1  0.75000000  0.97307700  0.13048200  1
  Ti  Ti27  1  0.92362900  0.01634600  0.90657000  1
  Ti  Ti28  1  0.07637100  0.98365400  0.09343000  1
  Ti  Ti29  1  0.42362900  0.98365400  0.09343000  1
  Ti  Ti30  1  0.57031000  0.85622700  0.57691500  1
  Ti  Ti31  1  0.25000000  0.86859800  0.53529700  1
  Ti  Ti32  1  0.25000000  0.02692300  0.86951800  1
  Ti  Ti33  1  0.57637100  0.01634600  0.90657000  1
  N  N34  1  0.75000000  0.20547500  0.17789600  1
  N  N35  1  0.25000000  0.12919100  0.48920800  1
  N  N36  1  0.25000000  0.29520400  0.81937200  1
  N  N37  1  0.75000000  0.37314900  0.51328800  1
  N  N38  1  0.75000000  0.51766900  0.85508000  1
  N  N39  1  0.25000000  0.48233100  0.14492000  1
  N  N40  1  0.75000000  0.70479600  0.18062800  1
  N  N41  1  0.25000000  0.79452500  0.82210400  1
  N  N42  1  0.25000000  0.62685100  0.48671200  1
  N  N43  1  0.75000000  0.87080900  0.51079200  1
  N  N44  1  0.75000000  0.05488100  0.85504900  1
  N  N45  1  0.25000000  0.94511900  0.14495100  1
  O  O46  1  0.56716600  0.11454800  0.54257000  1
  O  O47  1  0.10889100  0.17445500  0.30392400  1
  O  O48  1  0.87831400  0.15856500  0.36634300  1
  O  O49  1  0.93283400  0.11454800  0.54257000  1
  O  O50  1  0.62168600  0.15856500  0.36634300  1
  O  O51  1  0.04942000  0.22034600  0.11834700  1
  O  O52  1  0.55975400  0.28207800  0.87187400  1
  O  O53  1  0.39110900  0.17445500  0.30392400  1
  O  O54  1  0.45058000  0.22034600  0.11834700  1
  O  O55  1  0.94024600  0.28207800  0.87187400  1
  O  O56  1  0.88194800  0.32595200  0.69776300  1
  O  O57  1  0.61805200  0.32595200  0.69776300  1
  O  O58  1  0.43531600  0.55291200  0.79182800  1
  O  O59  1  0.38024900  0.50433700  0.96793200  1
  O  O60  1  0.38134700  0.34124900  0.63499100  1
  O  O61  1  0.93531600  0.44708800  0.20817200  1
  O  O62  1  0.11865300  0.34124900  0.63499100  1
  O  O63  1  0.43534000  0.38522200  0.45976600  1
  O  O64  1  0.06466000  0.38522200  0.45976600  1
  O  O65  1  0.56468400  0.44708800  0.20817200  1
  O  O66  1  0.11975100  0.50433700  0.96793200  1
  O  O67  1  0.88024900  0.49566300  0.03206800  1
  O  O68  1  0.61975100  0.49566300  0.03206800  1
  O  O69  1  0.06468400  0.55291200  0.79182800  1
  O  O70  1  0.95058000  0.77965400  0.88165300  1
  O  O71  1  0.89110900  0.82554500  0.69607600  1
  O  O72  1  0.88134700  0.65875100  0.36500900  1
  O  O73  1  0.05975400  0.71792200  0.12812600  1
  O  O74  1  0.11805200  0.67404800  0.30223700  1
  O  O75  1  0.38194800  0.67404800  0.30223700  1
  O  O76  1  0.54942000  0.77965400  0.88165300  1
  O  O77  1  0.60889100  0.82554500  0.69607600  1
  O  O78  1  0.93534000  0.61477800  0.54023400  1
  O  O79  1  0.61865300  0.65875100  0.36500900  1
  O  O80  1  0.56466000  0.61477800  0.54023400  1
  O  O81  1  0.44024600  0.71792200  0.12812600  1
  O  O82  1  0.88025000  0.98842900  0.03207500  1
  O  O83  1  0.11975000  0.01157100  0.96792500  1
  O  O84  1  0.12168600  0.84143500  0.63365700  1
  O  O85  1  0.93535500  0.94866400  0.20825000  1
  O  O86  1  0.06464500  0.05133600  0.79175000  1
  O  O87  1  0.06716600  0.88545200  0.45743000  1
  O  O88  1  0.56464500  0.94866400  0.20825000  1
  O  O89  1  0.61975000  0.98842900  0.03207500  1
  O  O90  1  0.43535500  0.05133600  0.79175000  1
  O  O91  1  0.37831400  0.84143500  0.63365700  1
  O  O92  1  0.38025000  0.01157100  0.96792500  1
  O  O93  1  0.43283400  0.88545200  0.45743000  1
