# generated using pymatgen
data_Li4Co2Ni3O10
_symmetry_space_group_name_H-M   'P 1'
_cell_length_a   2.86858300
_cell_length_b   5.80807100
_cell_length_c   20.66049357
_cell_angle_alpha   82.79090269
_cell_angle_beta   90.00000000
_cell_angle_gamma   90.00000000
_symmetry_Int_Tables_number   1
_chemical_formula_structural   Li4Co2Ni3O10
_chemical_formula_sum   'Li8 Co4 Ni6 O20'
_cell_volume   341.50195777
_cell_formula_units_Z   2
loop_
 _symmetry_equiv_pos_site_id
 _symmetry_equiv_pos_as_xyz
  1  'x, y, z'
loop_
 _atom_site_type_symbol
 _atom_site_label
 _atom_site_symmetry_multiplicity
 _atom_site_fract_x
 _atom_site_fract_y
 _atom_site_fract_z
 _atom_site_occupancy
  Li  Li0  1  0.00000000  0.50000000  0.50000000  1
  Li  Li1  1  0.00000000  0.11284000  0.30647900  1
  Li  Li2  1  0.50000000  0.90151600  0.20257900  1
  Li  Li3  1  0.00000000  0.70044800  0.10061700  1
  Li  Li4  1  0.50000000  0.50000000  0.00000000  1
  Li  Li5  1  0.00000000  0.29955200  0.89938300  1
  Li  Li6  1  0.50000000  0.09848400  0.79742100  1
  Li  Li7  1  0.00000000  0.88716000  0.69352100  1
  Co  Co8  1  0.50000000  0.19872700  0.59812200  1
  Co  Co9  1  0.00000000  0.00000000  0.50000000  1
  Co  Co10  1  0.50000000  0.80127300  0.40187800  1
  Co  Co11  1  0.50000000  0.00000000  0.00000000  1
  Ni  Ni12  1  0.00000000  0.59852000  0.30221100  1
  Ni  Ni13  1  0.50000000  0.40291700  0.20021200  1
  Ni  Ni14  1  0.00000000  0.19956500  0.10051400  1
  Ni  Ni15  1  0.00000000  0.80043500  0.89948600  1
  Ni  Ni16  1  0.50000000  0.59708300  0.79978800  1
  Ni  Ni17  1  0.00000000  0.40148000  0.69778900  1
  O  O18  1  0.50000000  0.16526800  0.69112900  1
  O  O19  1  0.00000000  0.98395200  0.59389400  1
  O  O20  1  0.00000000  0.41052400  0.59872700  1
  O  O21  1  0.50000000  0.21924300  0.50673000  1
  O  O22  1  0.50000000  0.78075700  0.49327000  1
  O  O23  1  0.00000000  0.01604800  0.40610600  1
  O  O24  1  0.00000000  0.58947600  0.40127300  1
  O  O25  1  0.50000000  0.37142300  0.29100800  1
  O  O26  1  0.50000000  0.83473200  0.30887100  1
  O  O27  1  0.00000000  0.16823100  0.20079700  1
  O  O28  1  0.00000000  0.63688300  0.19999100  1
  O  O29  1  0.50000000  0.96987800  0.09302600  1
  O  O30  1  0.50000000  0.43177700  0.10673200  1
  O  O31  1  0.00000000  0.22701900  0.99982800  1
  O  O32  1  0.00000000  0.77298100  0.00017200  1
  O  O33  1  0.50000000  0.03012200  0.90697400  1
  O  O34  1  0.50000000  0.56822300  0.89326800  1
  O  O35  1  0.00000000  0.36311700  0.80000900  1
  O  O36  1  0.00000000  0.83176900  0.79920300  1
  O  O37  1  0.50000000  0.62857700  0.70899200  1
