# generated using pymatgen
data_Na4Bi2B4SO16
_symmetry_space_group_name_H-M   'P 1'
_cell_length_a   10.31454547
_cell_length_b   10.26549168
_cell_length_c   10.04705727
_cell_angle_alpha   61.02246372
_cell_angle_beta   60.53418123
_cell_angle_gamma   58.44335505
_symmetry_Int_Tables_number   1
_chemical_formula_structural   Na4Bi2B4SO16
_chemical_formula_sum   'Na8 Bi4 B8 S2 O32'
_cell_volume   751.38660741
_cell_formula_units_Z   2
loop_
 _symmetry_equiv_pos_site_id
 _symmetry_equiv_pos_as_xyz
  1  'x, y, z'
loop_
 _atom_site_type_symbol
 _atom_site_label
 _atom_site_symmetry_multiplicity
 _atom_site_fract_x
 _atom_site_fract_y
 _atom_site_fract_z
 _atom_site_occupancy
  Na  Na0  1  0.95399600  0.54600400  0.95399600  1
  Na  Na1  1  0.95461900  0.54538100  0.54538100  1
  Na  Na2  1  0.70461900  0.29538100  0.29538100  1
  Na  Na3  1  0.70399600  0.29600400  0.70399600  1
  Na  Na4  1  0.54600400  0.95399600  0.54600400  1
  Na  Na5  1  0.54538100  0.95461900  0.95461900  1
  Na  Na6  1  0.29538100  0.70461900  0.70461900  1
  Na  Na7  1  0.29600400  0.70399600  0.29600400  1
  Bi  Bi8  1  0.12500000  0.62500000  0.12500000  1
  Bi  Bi9  1  0.62500000  0.12500000  0.12500000  1
  Bi  Bi10  1  0.12500000  0.12500000  0.12500000  1
  Bi  Bi11  1  0.12500000  0.12500000  0.62500000  1
  B  B12  1  0.89944800  0.27491000  0.91427300  1
  B  B13  1  0.97509000  0.35055200  0.33863100  1
  B  B14  1  0.91427300  0.91136900  0.89944800  1
  B  B15  1  0.91136900  0.91427300  0.27491000  1
  B  B16  1  0.33863100  0.33572700  0.97509000  1
  B  B17  1  0.33572700  0.33863100  0.35055200  1
  B  B18  1  0.27491000  0.89944800  0.91136900  1
  B  B19  1  0.35055200  0.97509000  0.33572700  1
  S  S20  1  0.50000000  0.50000000  0.50000000  1
  S  S21  1  0.75000000  0.75000000  0.75000000  1
  O  O22  1  0.02085700  0.28190500  0.93187900  1
  O  O23  1  0.55682600  0.55605500  0.32000300  1
  O  O24  1  0.76198000  0.26775100  0.04295600  1
  O  O25  1  0.98224900  0.48802000  0.32268600  1
  O  O26  1  0.04295600  0.92731400  0.76198000  1
  O  O27  1  0.96778300  0.33351100  0.21361900  1
  O  O28  1  0.32000300  0.56711600  0.55682600  1
  O  O29  1  0.55605500  0.55682600  0.56711600  1
  O  O30  1  0.48508600  0.21361900  0.33351100  1
  O  O31  1  0.92731400  0.04295600  0.26775100  1
  O  O32  1  0.96809500  0.22914300  0.48464100  1
  O  O33  1  0.56711600  0.32000300  0.55605500  1
  O  O34  1  0.93187900  0.76535900  0.02085700  1
  O  O35  1  0.76535900  0.93187900  0.28190500  1
  O  O36  1  0.91648900  0.28221700  0.76491400  1
  O  O37  1  0.21361900  0.48508600  0.96778300  1
  O  O38  1  0.03638100  0.76491400  0.28221700  1
  O  O39  1  0.33351100  0.96778300  0.48508600  1
  O  O40  1  0.48464100  0.31812100  0.96809500  1
  O  O41  1  0.31812100  0.48464100  0.22914300  1
  O  O42  1  0.68288400  0.92999700  0.69394500  1
  O  O43  1  0.28190500  0.02085700  0.76535900  1
  O  O44  1  0.32268600  0.20704400  0.98224900  1
  O  O45  1  0.76491400  0.03638100  0.91648900  1
  O  O46  1  0.69394500  0.69317400  0.68288400  1
  O  O47  1  0.92999700  0.68288400  0.69317400  1
  O  O48  1  0.28221700  0.91648900  0.03638100  1
  O  O49  1  0.20704400  0.32268600  0.48802000  1
  O  O50  1  0.26775100  0.76198000  0.92731400  1
  O  O51  1  0.48802000  0.98224900  0.20704400  1
  O  O52  1  0.69317400  0.69394500  0.92999700  1
  O  O53  1  0.22914300  0.96809500  0.31812100  1
