# generated using pymatgen
data_Ti17(NO4)6
_symmetry_space_group_name_H-M   'P 1'
_cell_length_a   10.03944300
_cell_length_b   7.50049700
_cell_length_c   15.00148162
_cell_angle_alpha   80.27427204
_cell_angle_beta   90.00000000
_cell_angle_gamma   90.00000000
_symmetry_Int_Tables_number   1
_chemical_formula_structural   Ti17(NO4)6
_chemical_formula_sum   'Ti34 N12 O48'
_cell_volume   1113.38847046
_cell_formula_units_Z   2
loop_
 _symmetry_equiv_pos_site_id
 _symmetry_equiv_pos_as_xyz
  1  'x, y, z'
loop_
 _atom_site_type_symbol
 _atom_site_label
 _atom_site_symmetry_multiplicity
 _atom_site_fract_x
 _atom_site_fract_y
 _atom_site_fract_z
 _atom_site_occupancy
  Ti  Ti0  1  0.92792900  0.85896100  0.57019800  1
  Ti  Ti1  1  0.57207100  0.85896100  0.57019800  1
  Ti  Ti2  1  0.42792900  0.14103900  0.42980200  1
  Ti  Ti3  1  0.07207100  0.14103900  0.42980200  1
  Ti  Ti4  1  0.25000000  0.13288700  0.26308500  1
  Ti  Ti5  1  0.75000000  0.53053500  0.56737400  1
  Ti  Ti6  1  0.56948600  0.53326400  0.40033000  1
  Ti  Ti7  1  0.25000000  0.46946500  0.43262600  1
  Ti  Ti8  1  0.93051400  0.53326400  0.40033000  1
  Ti  Ti9  1  0.06002900  0.80547100  0.26378600  1
  Ti  Ti10  1  0.43997100  0.80547100  0.26378600  1
  Ti  Ti11  1  0.75000000  0.20007600  0.40270500  1
  Ti  Ti12  1  0.25000000  0.80750400  0.09967300  1
  Ti  Ti13  1  0.92292300  0.86411200  0.07258500  1
  Ti  Ti14  1  0.57707700  0.86411200  0.07258500  1
  Ti  Ti15  1  0.07707700  0.13588800  0.92741500  1
  Ti  Ti16  1  0.42292300  0.13588800  0.92741500  1
  Ti  Ti17  1  0.92265000  0.18632400  0.23579700  1
  Ti  Ti18  1  0.75000000  0.53068700  0.06656900  1
  Ti  Ti19  1  0.57735000  0.18632400  0.23579700  1
  Ti  Ti20  1  0.42970000  0.47180100  0.09791900  1
  Ti  Ti21  1  0.07030000  0.47180100  0.09791900  1
  Ti  Ti22  1  0.92970000  0.52819900  0.90208100  1
  Ti  Ti23  1  0.57030000  0.52819900  0.90208100  1
  Ti  Ti24  1  0.75000000  0.86711300  0.73691500  1
  Ti  Ti25  1  0.25000000  0.46931300  0.93343100  1
  Ti  Ti26  1  0.42265000  0.81367600  0.76420300  1
  Ti  Ti27  1  0.07735000  0.81367600  0.76420300  1
  Ti  Ti28  1  0.25000000  0.79992400  0.59729500  1
  Ti  Ti29  1  0.75000000  0.19249600  0.90032700  1
  Ti  Ti30  1  0.93997100  0.19452900  0.73621400  1
  Ti  Ti31  1  0.43051400  0.46673600  0.59967000  1
  Ti  Ti32  1  0.06948600  0.46673600  0.59967000  1
  Ti  Ti33  1  0.56002900  0.19452900  0.73621400  1
  N  N34  1  0.75000000  0.12614200  0.28290900  1
  N  N35  1  0.25000000  0.56611600  0.55119000  1
  N  N36  1  0.75000000  0.43388400  0.44881000  1
  N  N37  1  0.25000000  0.89834400  0.21689600  1
  N  N38  1  0.25000000  0.22861800  0.38392600  1
  N  N39  1  0.75000000  0.76715400  0.10353400  1
  N  N40  1  0.75000000  0.10165600  0.78310400  1
  N  N41  1  0.25000000  0.56193000  0.05355700  1
  N  N42  1  0.75000000  0.43807000  0.94644300  1
  N  N43  1  0.25000000  0.87385800  0.71709100  1
  N  N44  1  0.25000000  0.23284600  0.89646600  1
  N  N45  1  0.75000000  0.77138200  0.61607400  1
  O  O46  1  0.11850300  0.95257300  0.52338200  1
  O  O47  1  0.38149700  0.95257300  0.52338200  1
  O  O48  1  0.88149700  0.04742700  0.47661800  1
  O  O49  1  0.61850300  0.04742700  0.47661800  1
  O  O50  1  0.43737300  0.02100500  0.32227800  1
  O  O51  1  0.06262700  0.02100500  0.32227800  1
  O  O52  1  0.93251000  0.64755300  0.50908200  1
  O  O53  1  0.56749000  0.64755300  0.50908200  1
  O  O54  1  0.43251000  0.35244700  0.49091800  1
  O  O55  1  0.06749000  0.35244700  0.49091800  1
  O  O56  1  0.12191400  0.61705800  0.35806300  1
  O  O57  1  0.37808600  0.61705800  0.35806300  1
  O  O58  1  0.60876900  0.71039600  0.31055100  1
  O  O59  1  0.89123100  0.71039600  0.31055100  1
  O  O60  1  0.95072800  0.99018600  0.17160100  1
  O  O61  1  0.54927200  0.99018600  0.17160100  1
  O  O62  1  0.06291400  0.68796700  0.15559600  1
  O  O63  1  0.88016500  0.05106000  0.97744700  1
  O  O64  1  0.56199300  0.30927900  0.34597100  1
  O  O65  1  0.11983500  0.94894000  0.02255300  1
  O  O66  1  0.93800700  0.30927900  0.34597100  1
  O  O67  1  0.43708600  0.68796700  0.15559600  1
  O  O68  1  0.38016500  0.94894000  0.02255300  1
  O  O69  1  0.61983500  0.05106000  0.97744700  1
  O  O70  1  0.37978900  0.28808800  0.19123900  1
  O  O71  1  0.12021100  0.28808800  0.19123900  1
  O  O72  1  0.88175600  0.38066000  0.14214900  1
  O  O73  1  0.93633100  0.64265300  0.01087300  1
  O  O74  1  0.45072800  0.00981400  0.82839900  1
  O  O75  1  0.04927200  0.00981400  0.82839900  1
  O  O76  1  0.61824400  0.38066000  0.14214900  1
  O  O77  1  0.56366900  0.64265300  0.01087300  1
  O  O78  1  0.43633100  0.35734700  0.98912700  1
  O  O79  1  0.87978900  0.71191200  0.80876100  1
  O  O80  1  0.62021100  0.71191200  0.80876100  1
  O  O81  1  0.56262700  0.97899500  0.67772200  1
  O  O82  1  0.93737300  0.97899500  0.67772200  1
  O  O83  1  0.06366900  0.35734700  0.98912700  1
  O  O84  1  0.38175600  0.61934000  0.85785100  1
  O  O85  1  0.11824400  0.61934000  0.85785100  1
  O  O86  1  0.56291400  0.31203300  0.84440400  1
  O  O87  1  0.93708600  0.31203300  0.84440400  1
  O  O88  1  0.43800700  0.69072100  0.65402900  1
  O  O89  1  0.06199300  0.69072100  0.65402900  1
  O  O90  1  0.87808600  0.38294200  0.64193700  1
  O  O91  1  0.10876900  0.28960400  0.68944900  1
  O  O92  1  0.39123100  0.28960400  0.68944900  1
  O  O93  1  0.62191400  0.38294200  0.64193700  1
