# generated using pymatgen
data_Sr4HfO6
_symmetry_space_group_name_H-M   'P 1'
_cell_length_a   7.07349256
_cell_length_b   7.07349256
_cell_length_c   7.07349280
_cell_angle_alpha   90.19920326
_cell_angle_beta   90.19920326
_cell_angle_gamma   90.19920651
_symmetry_Int_Tables_number   1
_chemical_formula_structural   Sr4HfO6
_chemical_formula_sum   'Sr8 Hf2 O12'
_cell_volume   353.91080779
_cell_formula_units_Z   2
loop_
 _symmetry_equiv_pos_site_id
 _symmetry_equiv_pos_as_xyz
  1  'x, y, z'
loop_
 _atom_site_type_symbol
 _atom_site_label
 _atom_site_symmetry_multiplicity
 _atom_site_fract_x
 _atom_site_fract_y
 _atom_site_fract_z
 _atom_site_occupancy
  Sr  Sr0  1  0.75000000  0.10651700  0.39348300  1
  Sr  Sr1  1  0.60651700  0.25000000  0.89348300  1
  Sr  Sr2  1  0.89348300  0.60651700  0.25000000  1
  Sr  Sr3  1  0.75000000  0.75000000  0.75000000  1
  Sr  Sr4  1  0.25000000  0.25000000  0.25000000  1
  Sr  Sr5  1  0.10651700  0.39348300  0.75000000  1
  Sr  Sr6  1  0.39348300  0.75000000  0.10651700  1
  Sr  Sr7  1  0.25000000  0.89348300  0.60651700  1
  Hf  Hf8  1  0.50000000  0.50000000  0.50000000  1
  Hf  Hf9  1  0.00000000  0.00000000  0.00000000  1
  O  O10  1  0.92537200  0.05471700  0.71536500  1
  O  O11  1  0.94528300  0.28463500  0.07462800  1
  O  O12  1  0.78463500  0.44528300  0.57462800  1
  O  O13  1  0.42537200  0.21536500  0.55471700  1
  O  O14  1  0.28463500  0.07462800  0.94528300  1
  O  O15  1  0.55471700  0.42537200  0.21536500  1
  O  O16  1  0.44528300  0.57462800  0.78463500  1
  O  O17  1  0.57462800  0.78463500  0.44528300  1
  O  O18  1  0.71536500  0.92537200  0.05471700  1
  O  O19  1  0.21536500  0.55471700  0.42537200  1
  O  O20  1  0.05471700  0.71536500  0.92537200  1
  O  O21  1  0.07462800  0.94528300  0.28463500  1
