# generated using pymatgen
data_V3OF11
_symmetry_space_group_name_H-M   'P 1'
_cell_length_a   5.25740300
_cell_length_b   5.46109152
_cell_length_c   14.75177943
_cell_angle_alpha   100.28260597
_cell_angle_beta   90.02580135
_cell_angle_gamma   90.22873924
_symmetry_Int_Tables_number   1
_chemical_formula_structural   V3OF11
_chemical_formula_sum   'V6 O2 F22'
_cell_volume   416.73470076
_cell_formula_units_Z   2
loop_
 _symmetry_equiv_pos_site_id
 _symmetry_equiv_pos_as_xyz
  1  'x, y, z'
loop_
 _atom_site_type_symbol
 _atom_site_label
 _atom_site_symmetry_multiplicity
 _atom_site_fract_x
 _atom_site_fract_y
 _atom_site_fract_z
 _atom_site_occupancy
  V  V0  1  0.00041000  0.99974700  0.00008800  1
  V  V1  1  0.52491900  0.12567000  0.33016700  1
  V  V2  1  0.00802800  0.32223400  0.66744200  1
  V  V3  1  0.50030200  0.49966000  0.99996000  1
  V  V4  1  0.00816200  0.65536000  0.33414700  1
  V  V5  1  0.52488700  0.79249000  0.66348500  1
  O  O6  1  0.70477700  0.54130800  0.64405300  1
  O  O7  1  0.70517100  0.87468900  0.31073000  1
  F  F8  1  0.79084600  0.02322700  0.64204700  1
  F  F9  1  0.69669800  0.18879300  0.97507200  1
  F  F10  1  0.29300600  0.14018100  0.69063100  1
  F  F11  1  0.91170000  0.04202800  0.11750000  1
  F  F12  1  0.57212700  0.22791500  0.44972500  1
  F  F13  1  0.91158600  0.38341200  0.78423600  1
  F  F14  1  0.40560900  0.13578600  0.21856900  1
  F  F15  1  0.07518300  0.29564600  0.54845500  1
  F  F16  1  0.41268500  0.46204500  0.88265700  1
  F  F17  1  0.79039600  0.35644000  0.30850200  1
  F  F18  1  0.80396400  0.68811100  0.97547600  1
  F  F19  1  0.19660600  0.31149300  0.02470500  1
  F  F20  1  0.29288600  0.47299300  0.35744500  1
  F  F21  1  0.21298700  0.63717000  0.69064800  1
  F  F22  1  0.58709700  0.54117100  0.11761700  1
  F  F23  1  0.91107000  0.71586500  0.45095400  1
  F  F24  1  0.57247300  0.89452800  0.78294400  1
  F  F25  1  0.07721400  0.62867500  0.21536700  1
  F  F26  1  0.40694800  0.80411800  0.55173100  1
  F  F27  1  0.08574600  0.95762900  0.88257900  1
  F  F28  1  0.30328800  0.81165500  0.02543400  1
  F  F29  1  0.21323100  0.96996300  0.35763400  1
