# generated using pymatgen
data_Hf2CuTc
_symmetry_space_group_name_H-M   'P 1'
_cell_length_a   10.86902115
_cell_length_b   10.86902115
_cell_length_c   10.86902115
_cell_angle_alpha   125.17413671
_cell_angle_beta   118.62824532
_cell_angle_gamma   86.83635200
_symmetry_Int_Tables_number   1
_chemical_formula_structural   Hf2CuTc
_chemical_formula_sum   'Hf2 Cu1 Tc1'
_cell_volume   876.53365759
_cell_formula_units_Z   1
loop_
 _symmetry_equiv_pos_site_id
 _symmetry_equiv_pos_as_xyz
  1  'x, y, z'
loop_
 _atom_site_type_symbol
 _atom_site_label
 _atom_site_symmetry_multiplicity
 _atom_site_fract_x
 _atom_site_fract_y
 _atom_site_fract_z
 _atom_site_occupancy
  Hf  Hf0  1  0.00000000  0.27488900  0.27488900  1
  Hf  Hf1  1  0.00000000  0.72511100  0.72511100  1
  Cu  Cu2  1  0.00000000  0.00000000  0.00000000  1
  Tc  Tc3  1  0.00000000  0.50000000  0.50000000  1
