# generated using pymatgen
data_Na2Ti2O5
_symmetry_space_group_name_H-M   'P 1'
_cell_length_a   5.50766000
_cell_length_b   8.90427000
_cell_length_c   12.53106265
_cell_angle_alpha   75.81638525
_cell_angle_beta   90.00000000
_cell_angle_gamma   90.00000000
_symmetry_Int_Tables_number   1
_chemical_formula_structural   Na2Ti2O5
_chemical_formula_sum   'Na8 Ti8 O20'
_cell_volume   595.81040602
_cell_formula_units_Z   4
loop_
 _symmetry_equiv_pos_site_id
 _symmetry_equiv_pos_as_xyz
  1  'x, y, z'
loop_
 _atom_site_type_symbol
 _atom_site_label
 _atom_site_symmetry_multiplicity
 _atom_site_fract_x
 _atom_site_fract_y
 _atom_site_fract_z
 _atom_site_occupancy
  Na  Na0  1  0.69617200  0.14420700  0.02896900  1
  Na  Na1  1  0.27435600  0.38002500  0.05589700  1
  Na  Na2  1  0.77435600  0.61997500  0.44410300  1
  Na  Na3  1  0.80382800  0.14420700  0.52896900  1
  Na  Na4  1  0.19617200  0.85579300  0.47103100  1
  Na  Na5  1  0.22564400  0.38002500  0.55589700  1
  Na  Na6  1  0.72564400  0.61997500  0.94410300  1
  Na  Na7  1  0.30382800  0.85579300  0.97103100  1
  Ti  Ti8  1  0.80402100  0.40192700  0.22849800  1
  Ti  Ti9  1  0.67308800  0.02308500  0.32054800  1
  Ti  Ti10  1  0.17308800  0.97691500  0.17945200  1
  Ti  Ti11  1  0.30402100  0.59807300  0.27150200  1
  Ti  Ti12  1  0.69597900  0.40192700  0.72849800  1
  Ti  Ti13  1  0.82691200  0.02308500  0.82054800  1
  Ti  Ti14  1  0.32691200  0.97691500  0.67945200  1
  Ti  Ti15  1  0.19597900  0.59807300  0.77150200  1
  O  O16  1  0.26490700  0.11074200  0.06036500  1
  O  O17  1  0.71236600  0.38987900  0.09627200  1
  O  O18  1  0.33934100  0.00430700  0.30180800  1
  O  O19  1  0.13631600  0.44556700  0.22293700  1
  O  O20  1  0.24909100  0.77933200  0.16411200  1
  O  O21  1  0.74909100  0.22066800  0.33588800  1
  O  O22  1  0.63631600  0.55443300  0.27706300  1
  O  O23  1  0.83934100  0.99569300  0.19819200  1
  O  O24  1  0.21236600  0.61012100  0.40372800  1
  O  O25  1  0.23509300  0.11074200  0.56036500  1
  O  O26  1  0.76490700  0.88925800  0.43963500  1
  O  O27  1  0.78763400  0.38987900  0.59627200  1
  O  O28  1  0.16065900  0.00430700  0.80180800  1
  O  O29  1  0.36368400  0.44556700  0.72293700  1
  O  O30  1  0.25090900  0.77933200  0.66411200  1
  O  O31  1  0.75090900  0.22066800  0.83588800  1
  O  O32  1  0.86368400  0.55443300  0.77706300  1
  O  O33  1  0.66065900  0.99569300  0.69819200  1
  O  O34  1  0.28763400  0.61012100  0.90372800  1
  O  O35  1  0.73509300  0.88925800  0.93963500  1
