# generated using pymatgen
data_Na9Cu2O7
_symmetry_space_group_name_H-M   'P 1'
_cell_length_a   9.53569900
_cell_length_b   9.92635500
_cell_length_c   10.21998500
_cell_angle_alpha   90.00000000
_cell_angle_beta   90.00000000
_cell_angle_gamma   90.00000000
_symmetry_Int_Tables_number   1
_chemical_formula_structural   Na9Cu2O7
_chemical_formula_sum   'Na36 Cu8 O28'
_cell_volume   967.36995601
_cell_formula_units_Z   4
loop_
 _symmetry_equiv_pos_site_id
 _symmetry_equiv_pos_as_xyz
  1  'x, y, z'
loop_
 _atom_site_type_symbol
 _atom_site_label
 _atom_site_symmetry_multiplicity
 _atom_site_fract_x
 _atom_site_fract_y
 _atom_site_fract_z
 _atom_site_occupancy
  Na  Na0  1  0.01339000  0.74343900  0.13073400  1
  Na  Na1  1  0.02054100  0.16246700  0.88486900  1
  Na  Na2  1  0.07050200  0.66749900  0.85671300  1
  Na  Na3  1  0.07205400  0.04554700  0.15303600  1
  Na  Na4  1  0.08907200  0.51413000  0.59054100  1
  Na  Na5  1  0.15431700  0.55397500  0.29787600  1
  Na  Na6  1  0.16402200  0.10784800  0.48248500  1
  Na  Na7  1  0.21375200  0.77386200  0.55621300  1
  Na  Na8  1  0.22372800  0.28895400  0.22700400  1
  Na  Na9  1  0.27627200  0.28895400  0.72700400  1
  Na  Na10  1  0.28624800  0.77386200  0.05621300  1
  Na  Na11  1  0.33597800  0.10784800  0.98248500  1
  Na  Na12  1  0.34568300  0.55397500  0.79787600  1
  Na  Na13  1  0.41092800  0.51413000  0.09054100  1
  Na  Na14  1  0.42794600  0.04554700  0.65303600  1
  Na  Na15  1  0.42949800  0.66749900  0.35671300  1
  Na  Na16  1  0.47945900  0.16246700  0.38486900  1
  Na  Na17  1  0.48661100  0.74343900  0.63073400  1
  Na  Na18  1  0.51339000  0.25656100  0.13073400  1
  Na  Na19  1  0.52054100  0.83753300  0.88486900  1
  Na  Na20  1  0.57050200  0.33250100  0.85671300  1
  Na  Na21  1  0.57205400  0.95445300  0.15303600  1
  Na  Na22  1  0.58907200  0.48587000  0.59054100  1
  Na  Na23  1  0.65431700  0.44602500  0.29787600  1
  Na  Na24  1  0.66402200  0.89215200  0.48248500  1
  Na  Na25  1  0.71375200  0.22613800  0.55621300  1
  Na  Na26  1  0.72372800  0.71104600  0.22700400  1
  Na  Na27  1  0.77627200  0.71104600  0.72700400  1
  Na  Na28  1  0.78624800  0.22613800  0.05621300  1
  Na  Na29  1  0.83597800  0.89215200  0.98248500  1
  Na  Na30  1  0.84568300  0.44602500  0.79787600  1
  Na  Na31  1  0.91092800  0.48587000  0.09054100  1
  Na  Na32  1  0.92794600  0.95445300  0.65303600  1
  Na  Na33  1  0.92949800  0.33250100  0.35671300  1
  Na  Na34  1  0.97945900  0.83753300  0.38486900  1
  Na  Na35  1  0.98661000  0.25656100  0.63073400  1
  Cu  Cu36  1  0.15536100  0.39588100  0.97389500  1
  Cu  Cu37  1  0.18952900  0.93299100  0.80598200  1
  Cu  Cu38  1  0.31047100  0.93299100  0.30598200  1
  Cu  Cu39  1  0.34463900  0.39588100  0.47389500  1
  Cu  Cu40  1  0.65536100  0.60411900  0.97389500  1
  Cu  Cu41  1  0.68952900  0.06700900  0.80598200  1
  Cu  Cu42  1  0.81047100  0.06700900  0.30598200  1
  Cu  Cu43  1  0.84463900  0.60411900  0.47389500  1
  O  O44  1  0.03275700  0.27647600  0.08600500  1
  O  O45  1  0.08283500  0.92262100  0.96404100  1
  O  O46  1  0.09479400  0.42604700  0.79730900  1
  O  O47  1  0.15470000  0.33687800  0.44436200  1
  O  O48  1  0.15398400  0.08691800  0.70744000  1
  O  O49  1  0.16296000  0.56661500  0.06178600  1
  O  O50  1  0.19741800  0.78287700  0.29757200  1
  O  O51  1  0.30258200  0.78287700  0.79757200  1
  O  O52  1  0.33704000  0.56661500  0.56178600  1
  O  O53  1  0.34601600  0.08691800  0.20744000  1
  O  O54  1  0.34530000  0.33687800  0.94436200  1
  O  O55  1  0.40520600  0.42604700  0.29730900  1
  O  O56  1  0.41716500  0.92262100  0.46404100  1
  O  O57  1  0.46724300  0.27647600  0.58600500  1
  O  O58  1  0.53275700  0.72352400  0.08600500  1
  O  O59  1  0.58283500  0.07737900  0.96404100  1
  O  O60  1  0.59479400  0.57395300  0.79730900  1
  O  O61  1  0.65470000  0.66312200  0.44436200  1
  O  O62  1  0.65398400  0.91308200  0.70744000  1
  O  O63  1  0.66296000  0.43338500  0.06178600  1
  O  O64  1  0.69741800  0.21712300  0.29757200  1
  O  O65  1  0.80258200  0.21712300  0.79757200  1
  O  O66  1  0.83704000  0.43338500  0.56178600  1
  O  O67  1  0.84601600  0.91308200  0.20744000  1
  O  O68  1  0.84530000  0.66312200  0.94436200  1
  O  O69  1  0.90520600  0.57395300  0.29730900  1
  O  O70  1  0.91716500  0.07737900  0.46404100  1
  O  O71  1  0.96724300  0.72352400  0.58600500  1
