# generated using pymatgen
data_Ho2P4O13
_symmetry_space_group_name_H-M   'P 1'
_cell_length_a   6.87492685
_cell_length_b   6.87492685
_cell_length_c   12.99407559
_cell_angle_alpha   76.02094248
_cell_angle_beta   76.02094248
_cell_angle_gamma   59.04834338
_symmetry_Int_Tables_number   1
_chemical_formula_structural   Ho2P4O13
_chemical_formula_sum   'Ho4 P8 O26'
_cell_volume   506.00091994
_cell_formula_units_Z   2
loop_
 _symmetry_equiv_pos_site_id
 _symmetry_equiv_pos_as_xyz
  1  'x, y, z'
loop_
 _atom_site_type_symbol
 _atom_site_label
 _atom_site_symmetry_multiplicity
 _atom_site_fract_x
 _atom_site_fract_y
 _atom_site_fract_z
 _atom_site_occupancy
  Ho  Ho0  1  0.69110000  0.69518500  0.44866300  1
  Ho  Ho1  1  0.69518500  0.69110000  0.94866300  1
  Ho  Ho2  1  0.30481500  0.30890000  0.05133700  1
  Ho  Ho3  1  0.30890000  0.30481500  0.55133700  1
  P  P4  1  0.76055000  0.77300000  0.15963500  1
  P  P5  1  0.77300000  0.76055000  0.65963500  1
  P  P6  1  0.84014900  0.13644200  0.36613100  1
  P  P7  1  0.86355800  0.15985100  0.13386900  1
  P  P8  1  0.13644200  0.84014900  0.86613100  1
  P  P9  1  0.15985100  0.86355800  0.63386900  1
  P  P10  1  0.22700000  0.23945000  0.34036500  1
  P  P11  1  0.23945000  0.22700000  0.84036500  1
  O  O12  1  0.87759300  0.89654300  0.39676900  1
  O  O13  1  0.89992800  0.90657900  0.15320900  1
  O  O14  1  0.89654300  0.87759300  0.89676900  1
  O  O15  1  0.90657900  0.89992800  0.65320900  1
  O  O16  1  0.69331300  0.70520900  0.27604600  1
  O  O17  1  0.92445800  0.57400000  0.09488100  1
  O  O18  1  0.56245300  0.92611200  0.09346000  1
  O  O19  1  0.67505700  0.31555500  0.43996700  1
  O  O20  1  0.70520900  0.69331300  0.77604600  1
  O  O21  1  0.57400000  0.92445800  0.59488100  1
  O  O22  1  0.92611200  0.56245300  0.59346000  1
  O  O23  1  0.75561900  0.24438100  0.25000000  1
  O  O24  1  0.68444500  0.32494300  0.06003300  1
  O  O25  1  0.31555500  0.67505700  0.93996700  1
  O  O26  1  0.24438100  0.75561900  0.75000000  1
  O  O27  1  0.07388800  0.43754700  0.40654000  1
  O  O28  1  0.42600000  0.07554200  0.40511900  1
  O  O29  1  0.29479100  0.30668700  0.22395400  1
  O  O30  1  0.32494300  0.68444500  0.56003300  1
  O  O31  1  0.43754700  0.07388800  0.90654000  1
  O  O32  1  0.07554200  0.42600000  0.90511900  1
  O  O33  1  0.30668700  0.29479100  0.72395400  1
  O  O34  1  0.09342100  0.10007200  0.34679100  1
  O  O35  1  0.10345700  0.12240700  0.10323100  1
  O  O36  1  0.10007200  0.09342100  0.84679100  1
  O  O37  1  0.12240700  0.10345700  0.60323100  1
