# generated using pymatgen
data_Ti17(NO4)6
_symmetry_space_group_name_H-M   'P 1'
_cell_length_a   7.50097600
_cell_length_b   10.73911811
_cell_length_c   15.00101406
_cell_angle_alpha   74.21440426
_cell_angle_beta   80.26803692
_cell_angle_gamma   74.20178946
_symmetry_Int_Tables_number   1
_chemical_formula_structural   Ti17(NO4)6
_chemical_formula_sum   'Ti34 N12 O48'
_cell_volume   1112.99162041
_cell_formula_units_Z   2
loop_
 _symmetry_equiv_pos_site_id
 _symmetry_equiv_pos_as_xyz
  1  'x, y, z'
loop_
 _atom_site_type_symbol
 _atom_site_label
 _atom_site_symmetry_multiplicity
 _atom_site_fract_x
 _atom_site_fract_y
 _atom_site_fract_z
 _atom_site_occupancy
  Ti  Ti0  1  0.38466700  0.92566600  0.58208400  1
  Ti  Ti1  1  0.21584000  0.25014000  0.55614600  1
  Ti  Ti2  1  0.05510100  0.93031900  0.41247200  1
  Ti  Ti3  1  0.17406100  0.56910400  0.47278900  1
  Ti  Ti4  1  0.49056100  0.44290900  0.35757100  1
  Ti  Ti5  1  0.61533300  0.07433400  0.41791600  1
  Ti  Ti6  1  0.82593900  0.43089600  0.52721100  1
  Ti  Ti7  1  0.78416000  0.74986000  0.44385400  1
  Ti  Ti8  1  0.55293800  0.24948200  0.22360700  1
  Ti  Ti9  1  0.50206600  0.57744900  0.14447600  1
  Ti  Ti10  1  0.38922300  0.92252800  0.08564900  1
  Ti  Ti11  1  0.82881200  0.57775000  0.30596000  1
  Ti  Ti12  1  0.88525000  0.25051900  0.38933100  1
  Ti  Ti13  1  0.16428000  0.42602800  0.19272600  1
  Ti  Ti14  1  0.11297100  0.74960600  0.10882600  1
  Ti  Ti15  1  0.71232100  0.92211200  0.24920800  1
  Ti  Ti16  1  0.28629900  0.05753000  0.25424300  1
  Ti  Ti17  1  0.17296700  0.57089500  0.97352500  1
  Ti  Ti18  1  0.44706200  0.75051800  0.77639300  1
  Ti  Ti19  1  0.22247500  0.24877700  0.05783600  1
  Ti  Ti20  1  0.05183000  0.92957000  0.91394000  1
  Ti  Ti21  1  0.49793400  0.42255100  0.85552400  1
  Ti  Ti22  1  0.61077700  0.07747200  0.91435100  1
  Ti  Ti23  1  0.82703300  0.42910500  0.02647500  1
  Ti  Ti24  1  0.77752500  0.75122300  0.94216400  1
  Ti  Ti25  1  0.50943900  0.55709100  0.64242900  1
  Ti  Ti26  1  0.94817000  0.07043000  0.08606000  1
  Ti  Ti27  1  0.88702900  0.25039400  0.89117400  1
  Ti  Ti28  1  0.17118800  0.42225000  0.69404000  1
  Ti  Ti29  1  0.11475000  0.74948100  0.61066900  1
  Ti  Ti30  1  0.28767900  0.07788800  0.75079200  1
  Ti  Ti31  1  0.71370100  0.94247000  0.74575700  1
  Ti  Ti32  1  0.83572000  0.57397200  0.80727400  1
  Ti  Ti33  1  0.94489900  0.06968100  0.58752800  1
  N  N34  1  0.01972000  0.74962600  0.49114000  1
  N  N35  1  0.64790500  0.25053800  0.34231800  1
  N  N36  1  0.35030400  0.74986500  0.14636000  1
  N  N37  1  0.98028000  0.25037400  0.50886000  1
  N  N38  1  0.70676000  0.75038800  0.32470000  1
  N  N39  1  0.31561700  0.24926900  0.17611400  1
  N  N40  1  0.02066000  0.75021600  0.98913100  1
  N  N41  1  0.64969600  0.25013500  0.85364000  1
  N  N42  1  0.97934000  0.24978400  0.01086900  1
  N  N43  1  0.35209500  0.74946200  0.65768200  1
  N  N44  1  0.68438300  0.75073100  0.82388600  1
  N  N45  1  0.29324000  0.24961200  0.67530000  1
  O  O46  1  0.58776800  0.88197000  0.49627500  1
  O  O47  1  0.28949500  0.56281300  0.58424100  1
  O  O48  1  0.16922900  0.93194200  0.52104700  1
  O  O49  1  0.50602400  0.94978700  0.18035300  1
  O  O50  1  0.32593400  0.37748200  0.46122300  1
  O  O51  1  0.34134300  0.60913300  0.37652900  1
  O  O52  1  0.24667200  0.89066600  0.32921700  1
  O  O53  1  0.63966500  0.55065700  0.24666700  1
  O  O54  1  0.41223200  0.11803000  0.50372500  1
  O  O55  1  0.95720400  0.56588600  0.41675500  1
  O  O56  1  0.67406600  0.62251800  0.53877700  1
  O  O57  1  0.65707700  0.37954800  0.12548300  1
  O  O58  1  0.59094100  0.87954200  0.99762600  1
  O  O59  1  0.83120800  0.93715200  0.35629800  1
  O  O60  1  0.37653000  0.43731500  0.24960400  1
  O  O61  1  0.50085600  0.06291800  0.31214500  1
  O  O62  1  0.83077100  0.06805800  0.47895300  1
  O  O63  1  0.99550700  0.38028200  0.29452200  1
  O  O64  1  0.91983800  0.88196000  0.16189600  1
  O  O65  1  0.28827500  0.56265600  0.08379300  1
  O  O66  1  0.71050500  0.43718700  0.41575900  1
  O  O67  1  0.07655800  0.12224500  0.33725600  1
  O  O68  1  0.16452500  0.93643700  0.02155500  1
  O  O69  1  0.00786600  0.61878800  0.20553800  1
  O  O70  1  0.62347000  0.56268500  0.75039600  1
  O  O71  1  0.49914400  0.93708200  0.68785500  1
  O  O72  1  0.04181500  0.43444100  0.08372600  1
  O  O73  1  0.40905900  0.12045800  0.00237400  1
  O  O74  1  0.34292300  0.62045200  0.87451700  1
  O  O75  1  0.25129200  0.87959100  0.82854300  1
  O  O76  1  0.16702600  0.06263800  0.14538100  1
  O  O77  1  0.32384200  0.38216400  0.96053100  1
  O  O78  1  0.95818500  0.56555900  0.91627400  1
  O  O79  1  0.67615800  0.61783600  0.03946900  1
  O  O80  1  0.83297400  0.93736200  0.85461900  1
  O  O81  1  0.36033500  0.44934300  0.75333300  1
  O  O82  1  0.49397600  0.05021300  0.81964700  1
  O  O83  1  0.65865700  0.39086700  0.62347100  1
  O  O84  1  0.74870800  0.12040900  0.17145700  1
  O  O85  1  0.71172500  0.43734400  0.91620700  1
  O  O86  1  0.08016200  0.11804000  0.83810400  1
  O  O87  1  0.92344200  0.87775500  0.66274400  1
  O  O88  1  0.00449300  0.61971800  0.70547800  1
  O  O89  1  0.83547500  0.06356300  0.97844500  1
  O  O90  1  0.99213400  0.38121200  0.79446200  1
  O  O91  1  0.04279600  0.43411400  0.58324500  1
  O  O92  1  0.16879200  0.06284800  0.64370200  1
  O  O93  1  0.75332800  0.10933400  0.67078300  1
