# generated using pymatgen
data_Ti17(NO4)6
_symmetry_space_group_name_H-M   'P 1'
_cell_length_a   10.04064700
_cell_length_b   9.66603600
_cell_length_c   11.47236154
_cell_angle_alpha   89.97028424
_cell_angle_beta   90.00000000
_cell_angle_gamma   90.00000000
_symmetry_Int_Tables_number   1
_chemical_formula_structural   Ti17(NO4)6
_chemical_formula_sum   'Ti34 N12 O48'
_cell_volume   1113.42988472
_cell_formula_units_Z   2
loop_
 _symmetry_equiv_pos_site_id
 _symmetry_equiv_pos_as_xyz
  1  'x, y, z'
loop_
 _atom_site_type_symbol
 _atom_site_label
 _atom_site_symmetry_multiplicity
 _atom_site_fract_x
 _atom_site_fract_y
 _atom_site_fract_z
 _atom_site_occupancy
  Ti  Ti0  1  0.42956800  0.63555400  0.66609300  1
  Ti  Ti1  1  0.93999000  0.36302100  0.66532800  1
  Ti  Ti2  1  0.07043200  0.63555400  0.66609300  1
  Ti  Ti3  1  0.75000000  0.69930400  0.66672300  1
  Ti  Ti4  1  0.56001000  0.36302100  0.66532800  1
  Ti  Ti5  1  0.92292500  0.85953000  0.49600500  1
  Ti  Ti6  1  0.42292500  0.14047000  0.50399500  1
  Ti  Ti7  1  0.57707500  0.85953000  0.49600500  1
  Ti  Ti8  1  0.25000000  0.80454300  0.49838800  1
  Ti  Ti9  1  0.07707500  0.14047000  0.50399500  1
  Ti  Ti10  1  0.75000000  0.19545700  0.50161200  1
  Ti  Ti11  1  0.06001000  0.63697900  0.33467200  1
  Ti  Ti12  1  0.57043200  0.36444600  0.33390700  1
  Ti  Ti13  1  0.92956800  0.36444600  0.33390700  1
  Ti  Ti14  1  0.43999000  0.63697900  0.33467200  1
  Ti  Ti15  1  0.25000000  0.30069600  0.33327700  1
  Ti  Ti16  1  0.57654500  0.85614200  0.17237800  1
  Ti  Ti17  1  0.25000000  0.80132200  0.17138200  1
  Ti  Ti18  1  0.06938700  0.13564400  0.16741800  1
  Ti  Ti19  1  0.43061300  0.13564400  0.16741800  1
  Ti  Ti20  1  0.92345500  0.85614200  0.17237800  1
  Ti  Ti21  1  0.75000000  0.19816600  0.16925900  1
  Ti  Ti22  1  0.57229500  0.35902700  0.00053900  1
  Ti  Ti23  1  0.07229500  0.64097300  0.99946100  1
  Ti  Ti24  1  0.42770500  0.64097300  0.99946100  1
  Ti  Ti25  1  0.25000000  0.30216400  0.00130900  1
  Ti  Ti26  1  0.75000000  0.69783600  0.99869100  1
  Ti  Ti27  1  0.92770500  0.35902700  0.00053900  1
  Ti  Ti28  1  0.56938700  0.86435600  0.83258200  1
  Ti  Ti29  1  0.75000000  0.19867800  0.82861800  1
  Ti  Ti30  1  0.42345500  0.14385800  0.82762200  1
  Ti  Ti31  1  0.93061300  0.86435600  0.83258200  1
  Ti  Ti32  1  0.25000000  0.80183400  0.83074100  1
  Ti  Ti33  1  0.07654500  0.14385800  0.82762200  1
  N  N34  1  0.25000000  0.73289200  0.66525100  1
  N  N35  1  0.75000000  0.26876800  0.66649300  1
  N  N36  1  0.75000000  0.77935500  0.51120100  1
  N  N37  1  0.25000000  0.22064500  0.48879900  1
  N  N38  1  0.25000000  0.73123200  0.33350700  1
  N  N39  1  0.75000000  0.26710800  0.33474900  1
  N  N40  1  0.75000000  0.77987400  0.15369700  1
  N  N41  1  0.25000000  0.22647100  0.16548900  1
  N  N42  1  0.25000000  0.72890900  0.00135300  1
  N  N43  1  0.75000000  0.27109100  0.99864700  1
  N  N44  1  0.25000000  0.22012600  0.84630300  1
  N  N45  1  0.75000000  0.77352900  0.83451100  1
  O  O46  1  0.56561700  0.81381900  0.66859800  1
  O  O47  1  0.39133200  0.45609400  0.66681500  1
  O  O48  1  0.87831000  0.54957000  0.66644700  1
  O  O49  1  0.05024100  0.17580000  0.66697200  1
  O  O50  1  0.10866800  0.45609400  0.66681500  1
  O  O51  1  0.93438300  0.81381900  0.66859800  1
  O  O52  1  0.62169000  0.54957000  0.66644700  1
  O  O53  1  0.44975900  0.17580000  0.66697200  1
  O  O54  1  0.11971100  0.95188500  0.50288700  1
  O  O55  1  0.38028900  0.95188500  0.50288700  1
  O  O56  1  0.56255400  0.31081400  0.50036800  1
  O  O57  1  0.43744600  0.68918600  0.49963200  1
  O  O58  1  0.06255400  0.68918600  0.49963200  1
  O  O59  1  0.93744600  0.31081400  0.50036800  1
  O  O60  1  0.88028900  0.04811500  0.49711300  1
  O  O61  1  0.61971100  0.04811500  0.49711300  1
  O  O62  1  0.55024100  0.82420000  0.33302800  1
  O  O63  1  0.94975900  0.82420000  0.33302800  1
  O  O64  1  0.89133200  0.54390600  0.33318500  1
  O  O65  1  0.12169000  0.45043000  0.33355300  1
  O  O66  1  0.60866800  0.54390600  0.33318500  1
  O  O67  1  0.06561700  0.18618100  0.33140200  1
  O  O68  1  0.37831000  0.45043000  0.33355300  1
  O  O69  1  0.43438300  0.18618100  0.33140200  1
  O  O70  1  0.43726000  0.68918600  0.16715100  1
  O  O71  1  0.06274000  0.68918600  0.16715100  1
  O  O72  1  0.56589400  0.31177900  0.16688400  1
  O  O73  1  0.61834100  0.04842600  0.16720000  1
  O  O74  1  0.12038900  0.95189900  0.16427600  1
  O  O75  1  0.37961100  0.95189900  0.16427600  1
  O  O76  1  0.93410600  0.31177900  0.16688400  1
  O  O77  1  0.88165900  0.04842600  0.16720000  1
  O  O78  1  0.56271100  0.80918900  0.99829200  1
  O  O79  1  0.61856500  0.54711300  0.00005600  1
  O  O80  1  0.38143500  0.45288700  0.99994400  1
  O  O81  1  0.11856500  0.45288700  0.99994400  1
  O  O82  1  0.43728900  0.19081100  0.00170800  1
  O  O83  1  0.06271100  0.19081100  0.00170800  1
  O  O84  1  0.93728900  0.80918900  0.99829200  1
  O  O85  1  0.88143500  0.54711300  0.00005600  1
  O  O86  1  0.56274000  0.31081400  0.83284900  1
  O  O87  1  0.93726000  0.31081400  0.83284900  1
  O  O88  1  0.62038900  0.04810100  0.83572400  1
  O  O89  1  0.87961100  0.04810100  0.83572400  1
  O  O90  1  0.11834100  0.95157400  0.83280000  1
  O  O91  1  0.38165900  0.95157400  0.83280000  1
  O  O92  1  0.43410600  0.68822100  0.83311600  1
  O  O93  1  0.06589400  0.68822100  0.83311600  1
