# generated using pymatgen
data_Si(HgO2)2
_symmetry_space_group_name_H-M   'P 1'
_cell_length_a   7.98920021
_cell_length_b   6.57519421
_cell_length_c   6.51184525
_cell_angle_alpha   75.24475274
_cell_angle_beta   52.73746825
_cell_angle_gamma   52.01777901
_symmetry_Int_Tables_number   1
_chemical_formula_structural   Si(HgO2)2
_chemical_formula_sum   'Si2 Hg4 O8'
_cell_volume   210.75732672
_cell_formula_units_Z   2
loop_
 _symmetry_equiv_pos_site_id
 _symmetry_equiv_pos_as_xyz
  1  'x, y, z'
loop_
 _atom_site_type_symbol
 _atom_site_label
 _atom_site_symmetry_multiplicity
 _atom_site_fract_x
 _atom_site_fract_y
 _atom_site_fract_z
 _atom_site_occupancy
  Si  Si0  1  0.00000000  0.00000000  0.00000000  1
  Si  Si1  1  0.25000000  0.25000000  0.25000000  1
  Hg  Hg2  1  0.93490800  0.56509200  0.93490800  1
  Hg  Hg3  1  0.56509200  0.93490800  0.56509200  1
  Hg  Hg4  1  0.31509200  0.68490800  0.31509200  1
  Hg  Hg5  1  0.68490800  0.31509200  0.68490800  1
  O  O6  1  0.84903500  0.31180500  0.96812800  1
  O  O7  1  0.87103200  0.96812800  0.31180500  1
  O  O8  1  0.31180500  0.84903500  0.87103200  1
  O  O9  1  0.96812800  0.87103200  0.84903500  1
  O  O10  1  0.28187200  0.37896800  0.40096500  1
  O  O11  1  0.93819500  0.40096500  0.37896800  1
  O  O12  1  0.37896800  0.28187200  0.93819500  1
  O  O13  1  0.40096500  0.93819500  0.28187200  1
