# generated using pymatgen
data_Li5Mn7Fe3O20
_symmetry_space_group_name_H-M   'P 1'
_cell_length_a   6.00541939
_cell_length_b   5.94041365
_cell_length_c   24.52900779
_cell_angle_alpha   90.17538088
_cell_angle_beta   97.58103865
_cell_angle_gamma   120.30840504
_symmetry_Int_Tables_number   1
_chemical_formula_structural   Li5Mn7Fe3O20
_chemical_formula_sum   'Li10 Mn14 Fe6 O40'
_cell_volume   746.37504573
_cell_formula_units_Z   2
loop_
 _symmetry_equiv_pos_site_id
 _symmetry_equiv_pos_as_xyz
  1  'x, y, z'
loop_
 _atom_site_type_symbol
 _atom_site_label
 _atom_site_symmetry_multiplicity
 _atom_site_fract_x
 _atom_site_fract_y
 _atom_site_fract_z
 _atom_site_occupancy
  Li  Li0  1  0.84592300  0.67613000  0.02701800  1
  Li  Li1  1  0.95782300  0.73273600  0.17131100  1
  Li  Li2  1  0.64712000  0.07026100  0.22725700  1
  Li  Li3  1  0.26496000  0.88415200  0.62394000  1
  Li  Li4  1  0.46447900  0.48454900  0.42674100  1
  Li  Li5  1  0.74211800  0.12537000  0.37322400  1
  Li  Li6  1  0.53854600  0.51263800  0.57722500  1
  Li  Li7  1  0.33577900  0.91541700  0.77697800  1
  Li  Li8  1  0.05092800  0.28819200  0.82401600  1
  Li  Li9  1  0.15582600  0.31699700  0.97324800  1
  Mn  Mn10  1  0.40375700  0.70272500  0.10009200  1
  Mn  Mn11  1  0.40354700  0.20215100  0.09949100  1
  Mn  Mn12  1  0.19739200  0.59942600  0.29939000  1
  Mn  Mn13  1  0.69969900  0.60057200  0.30017500  1
  Mn  Mn14  1  0.90340300  0.20310700  0.09964900  1
  Mn  Mn15  1  0.19785300  0.09971800  0.29929700  1
  Mn  Mn16  1  0.00177500  0.00017400  0.50062900  1
  Mn  Mn17  1  0.09949000  0.79922500  0.89912800  1
  Mn  Mn18  1  0.50219300  0.00088800  0.50132000  1
  Mn  Mn19  1  0.29801900  0.39891500  0.70036300  1
  Mn  Mn20  1  0.60044100  0.80110700  0.89977100  1
  Mn  Mn21  1  0.79956300  0.40095600  0.70096000  1
  Mn  Mn22  1  0.68712500  0.59954400  0.80030600  1
  Mn  Mn23  1  0.90355000  0.20038100  0.60065300  1
  Fe  Fe24  1  0.10663800  0.80519200  0.40060000  1
  Fe  Fe25  1  0.50169900  0.99566800  0.99945700  1
  Fe  Fe26  1  0.30310100  0.40225500  0.19964600  1
  Fe  Fe27  1  0.00254400  0.50242300  0.50015000  1
  Fe  Fe28  1  0.79858400  0.90003300  0.70058400  1
  Fe  Fe29  1  0.59981200  0.29858300  0.90058900  1
  O  O30  1  0.23811200  0.86528400  0.05422100  1
  O  O31  1  0.68396300  0.86612700  0.05591300  1
  O  O32  1  0.98186800  0.76511800  0.25544700  1
  O  O33  1  0.23994200  0.36961400  0.05603300  1
  O  O34  1  0.12299100  0.53911200  0.14455100  1
  O  O35  1  0.56745300  0.53534900  0.14548600  1
  O  O36  1  0.35875300  0.93365900  0.34391100  1
  O  O37  1  0.12251900  0.08505800  0.14340900  1
  O  O38  1  0.49119500  0.71800500  0.25551300  1
  O  O39  1  0.68384200  0.31809200  0.05501900  1
  O  O40  1  0.03864500  0.26653200  0.25352800  1
  O  O41  1  0.48378600  0.26513700  0.25495000  1
  O  O42  1  0.29859800  0.67454500  0.45468300  1
  O  O43  1  0.20986100  0.86086000  0.54269300  1
  O  O44  1  0.56768000  0.03685500  0.14389800  1
  O  O45  1  0.41299600  0.43392900  0.34327500  1
  O  O46  1  0.91758900  0.93799000  0.34480300  1
  O  O47  1  0.90927000  0.48396700  0.34489600  1
  O  O48  1  0.70312600  0.88328400  0.55045800  1
  O  O49  1  0.15660400  0.31826000  0.54982800  1
  O  O50  1  0.84068300  0.67923100  0.45350900  1
  O  O51  1  0.11000700  0.51762400  0.64938500  1
  O  O52  1  0.31041600  0.12842900  0.45506800  1
  O  O53  1  0.08867400  0.07182600  0.65252200  1
  O  O54  1  0.50440000  0.72531900  0.74795500  1
  O  O55  1  0.79297000  0.14055500  0.45881700  1
  O  O56  1  0.71772000  0.32631300  0.55034800  1
  O  O57  1  0.59329000  0.53639800  0.65975900  1
  O  O58  1  0.40458000  0.94036300  0.85776900  1
  O  O59  1  0.32591300  0.67270000  0.94484300  1
  O  O60  1  0.48670800  0.28181100  0.75189400  1
  O  O61  1  0.94984200  0.72414000  0.75124100  1
  O  O62  1  0.64659400  0.07856800  0.65099800  1
  O  O63  1  0.86667300  0.91745300  0.85070900  1
  O  O64  1  0.43588200  0.47807900  0.85154200  1
  O  O65  1  0.87899000  0.47817900  0.85010600  1
  O  O66  1  0.00480800  0.26337100  0.74160800  1
  O  O67  1  0.79719900  0.66042300  0.94181900  1
  O  O68  1  0.30716200  0.12106900  0.94585100  1
  O  O69  1  0.77071700  0.12688300  0.94659600  1
