# generated using pymatgen
data_Na6NiO4
_symmetry_space_group_name_H-M   'P 1'
_cell_length_a   7.65423740
_cell_length_b   7.65226020
_cell_length_c   11.81658859
_cell_angle_alpha   89.94692279
_cell_angle_beta   90.05395389
_cell_angle_gamma   60.06131077
_symmetry_Int_Tables_number   1
_chemical_formula_structural   Na6NiO4
_chemical_formula_sum   'Na24 Ni4 O16'
_cell_volume   599.76570165
_cell_formula_units_Z   4
loop_
 _symmetry_equiv_pos_site_id
 _symmetry_equiv_pos_as_xyz
  1  'x, y, z'
loop_
 _atom_site_type_symbol
 _atom_site_label
 _atom_site_symmetry_multiplicity
 _atom_site_fract_x
 _atom_site_fract_y
 _atom_site_fract_z
 _atom_site_occupancy
  Na  Na0  1  0.28294100  0.85852400  0.48310400  1
  Na  Na1  1  0.28297700  0.85890800  0.98387200  1
  Na  Na2  1  0.85829100  0.28398100  0.48329700  1
  Na  Na3  1  0.85849300  0.28319000  0.98346100  1
  Na  Na4  1  0.14294800  0.14241200  0.23443600  1
  Na  Na5  1  0.14219300  0.14184300  0.73339100  1
  Na  Na6  1  0.85790800  0.85734000  0.48333200  1
  Na  Na7  1  0.85760900  0.85833600  0.98402600  1
  Na  Na8  1  0.14149100  0.71675400  0.23386500  1
  Na  Na9  1  0.14107600  0.71761300  0.73348600  1
  Na  Na10  1  0.71574900  0.14169200  0.23401400  1
  Na  Na11  1  0.71691700  0.14117400  0.73316900  1
  Na  Na12  1  0.53946500  0.53897700  0.31680900  1
  Na  Na13  1  0.53855500  0.53730000  0.81717200  1
  Na  Na14  1  0.53706500  0.92647000  0.31797800  1
  Na  Na15  1  0.53544900  0.92953600  0.81833600  1
  Na  Na16  1  0.92319500  0.53845900  0.31693700  1
  Na  Na17  1  0.92432400  0.53750000  0.81681300  1
  Na  Na18  1  0.07440600  0.46240800  0.06869100  1
  Na  Na19  1  0.07143200  0.46361100  0.56804900  1
  Na  Na20  1  0.46133200  0.07730100  0.06758600  1
  Na  Na21  1  0.46204700  0.07540700  0.56626900  1
  Na  Na22  1  0.46214700  0.46135800  0.06829800  1
  Na  Na23  1  0.46339700  0.46243300  0.56771500  1
  Ni  Ni24  1  0.66514500  0.66884400  0.62277900  1
  Ni  Ni25  1  0.33230700  0.33529900  0.87087400  1
  Ni  Ni26  1  0.66616500  0.66721700  0.11926500  1
  Ni  Ni27  1  0.33330000  0.33521000  0.37239600  1
  O  O28  1  0.66803200  0.66474200  0.45495100  1
  O  O29  1  0.66890100  0.66444100  0.95084400  1
  O  O30  1  0.33411700  0.33228900  0.20393100  1
  O  O31  1  0.33774700  0.32614800  0.70330200  1
  O  O32  1  0.38089900  0.80967800  0.17981400  1
  O  O33  1  0.37519500  0.80946100  0.67755800  1
  O  O34  1  0.80979500  0.38023300  0.17838300  1
  O  O35  1  0.81151300  0.37956700  0.67730700  1
  O  O36  1  0.80940000  0.80973400  0.17912600  1
  O  O37  1  0.81604300  0.80679700  0.67701800  1
  O  O38  1  0.19197100  0.18793200  0.42737800  1
  O  O39  1  0.19145100  0.18816500  0.92722800  1
  O  O40  1  0.18610000  0.62423300  0.42754700  1
  O  O41  1  0.18827700  0.62358300  0.92987500  1
  O  O42  1  0.62226100  0.18498700  0.42676700  1
  O  O43  1  0.62037000  0.18851300  0.92714800  1
