# generated using pymatgen
data_V6O11F
_symmetry_space_group_name_H-M   'P 1'
_cell_length_a   10.33089928
_cell_length_b   10.33089928
_cell_length_c   2.93809500
_cell_angle_alpha   90.00000000
_cell_angle_beta   90.00000000
_cell_angle_gamma   142.68721312
_symmetry_Int_Tables_number   1
_chemical_formula_structural   V6O11F
_chemical_formula_sum   'V6 O11 F1'
_cell_volume   190.07876435
_cell_formula_units_Z   1
loop_
 _symmetry_equiv_pos_site_id
 _symmetry_equiv_pos_as_xyz
  1  'x, y, z'
loop_
 _atom_site_type_symbol
 _atom_site_label
 _atom_site_symmetry_multiplicity
 _atom_site_fract_x
 _atom_site_fract_y
 _atom_site_fract_z
 _atom_site_occupancy
  V  V0  1  0.99872200  0.66545000  0.00000000  1
  V  V1  1  0.16635800  0.50024700  0.50000000  1
  V  V2  1  0.50024700  0.16635800  0.50000000  1
  V  V3  1  0.66545000  0.99872200  0.00000000  1
  V  V4  1  0.31804500  0.31804500  0.00000000  1
  V  V5  1  0.84947300  0.84947300  0.50000000  1
  O  O6  1  0.06558400  0.60129000  0.50000000  1
  O  O7  1  0.69645500  0.36291400  0.00000000  1
  O  O8  1  0.30290100  0.97116900  0.00000000  1
  O  O9  1  0.97116900  0.30290100  0.00000000  1
  O  O10  1  0.60129000  0.06558400  0.50000000  1
  O  O11  1  0.27086600  0.40122700  0.50000000  1
  O  O12  1  0.73045000  0.93079800  0.50000000  1
  O  O13  1  0.40122700  0.27086600  0.50000000  1
  O  O14  1  0.36291400  0.69645500  0.00000000  1
  O  O15  1  0.03553100  0.03553100  0.00000000  1
  O  O16  1  0.93079800  0.73045000  0.50000000  1
  F  F17  1  0.63239400  0.63239400  0.00000000  1
