# generated using pymatgen
data_Fe2OF3
_symmetry_space_group_name_H-M   'P 1'
_cell_length_a   4.87999690
_cell_length_b   4.87999690
_cell_length_c   15.42507200
_cell_angle_alpha   90.00000000
_cell_angle_beta   90.00000000
_cell_angle_gamma   91.75546521
_symmetry_Int_Tables_number   1
_chemical_formula_structural   Fe2OF3
_chemical_formula_sum   'Fe10 O5 F15'
_cell_volume   367.16596572
_cell_formula_units_Z   5
loop_
 _symmetry_equiv_pos_site_id
 _symmetry_equiv_pos_as_xyz
  1  'x, y, z'
loop_
 _atom_site_type_symbol
 _atom_site_label
 _atom_site_symmetry_multiplicity
 _atom_site_fract_x
 _atom_site_fract_y
 _atom_site_fract_z
 _atom_site_occupancy
  Fe  Fe0  1  0.97003800  0.97003800  0.80022800  1
  Fe  Fe1  1  0.03063200  0.03063200  0.00000000  1
  Fe  Fe2  1  0.97003800  0.97003800  0.19977200  1
  Fe  Fe3  1  0.02079600  0.02079600  0.39979600  1
  Fe  Fe4  1  0.02079600  0.02079600  0.60020400  1
  Fe  Fe5  1  0.50007900  0.50007900  0.89993200  1
  Fe  Fe6  1  0.50018700  0.50018700  0.30019600  1
  Fe  Fe7  1  0.50007900  0.50007900  0.10006800  1
  Fe  Fe8  1  0.47548900  0.47548900  0.50000000  1
  Fe  Fe9  1  0.50018700  0.50018700  0.69980400  1
  O  O10  1  0.33167000  0.33167000  0.00000000  1
  O  O11  1  0.32225300  0.32225300  0.39732500  1
  O  O12  1  0.32225300  0.32225300  0.60267500  1
  O  O13  1  0.66837400  0.66837400  0.79997300  1
  O  O14  1  0.66837400  0.66837400  0.20002700  1
  F  F15  1  0.79554000  0.20472500  0.90016600  1
  F  F16  1  0.79554000  0.20472500  0.09983400  1
  F  F17  1  0.79218200  0.20166500  0.29978200  1
  F  F18  1  0.80128400  0.21367200  0.50000000  1
  F  F19  1  0.79218200  0.20166500  0.70021800  1
  F  F20  1  0.29053900  0.29053900  0.80056500  1
  F  F21  1  0.29053900  0.29053900  0.19943500  1
  F  F22  1  0.70957600  0.70957500  0.00000000  1
  F  F23  1  0.70245900  0.70245900  0.40111900  1
  F  F24  1  0.70245900  0.70245900  0.59888100  1
  F  F25  1  0.20472500  0.79554000  0.90016600  1
  F  F26  1  0.20166500  0.79218200  0.29978200  1
  F  F27  1  0.20472500  0.79554000  0.09983400  1
  F  F28  1  0.20166500  0.79218200  0.70021800  1
  F  F29  1  0.21367200  0.80128400  0.50000000  1
