# generated using pymatgen
data_Mn6O7F5
_symmetry_space_group_name_H-M   'P 1'
_cell_length_a   4.55933400
_cell_length_b   5.63795463
_cell_length_c   15.33124171
_cell_angle_alpha   89.78975134
_cell_angle_beta   89.74227870
_cell_angle_gamma   89.86082427
_symmetry_Int_Tables_number   1
_chemical_formula_structural   Mn6O7F5
_chemical_formula_sum   'Mn12 O14 F10'
_cell_volume   394.08666015
_cell_formula_units_Z   2
loop_
 _symmetry_equiv_pos_site_id
 _symmetry_equiv_pos_as_xyz
  1  'x, y, z'
loop_
 _atom_site_type_symbol
 _atom_site_label
 _atom_site_symmetry_multiplicity
 _atom_site_fract_x
 _atom_site_fract_y
 _atom_site_fract_z
 _atom_site_occupancy
  Mn  Mn0  1  0.02991800  0.15961800  0.41008600  1
  Mn  Mn1  1  0.00177200  0.84396100  0.24257200  1
  Mn  Mn2  1  0.00253700  0.15238800  0.07625700  1
  Mn  Mn3  1  0.01728000  0.16639300  0.74541500  1
  Mn  Mn4  1  0.00177100  0.85092900  0.57595600  1
  Mn  Mn5  1  0.05475100  0.85180100  0.91194300  1
  Mn  Mn6  1  0.49536500  0.34600200  0.58636000  1
  Mn  Mn7  1  0.49032100  0.35626100  0.92499000  1
  Mn  Mn8  1  0.51030900  0.35085200  0.25797700  1
  Mn  Mn9  1  0.50148600  0.64822400  0.08670000  1
  Mn  Mn10  1  0.50310900  0.63725700  0.42726000  1
  Mn  Mn11  1  0.49347600  0.63448600  0.75413800  1
  O  O12  1  0.22041900  0.11617000  0.30064600  1
  O  O13  1  0.21392300  0.10813300  0.63501600  1
  O  O14  1  0.24242300  0.11556500  0.97007400  1
  O  O15  1  0.21401800  0.88585200  0.13325800  1
  O  O16  1  0.23535900  0.88818600  0.46880200  1
  O  O17  1  0.23674700  0.88922700  0.80327800  1
  O  O18  1  0.28156400  0.39361300  0.47868900  1
  O  O19  1  0.28534000  0.39695000  0.81699400  1
  O  O20  1  0.28688100  0.60969300  0.97786200  1
  O  O21  1  0.72320700  0.37874200  0.02949900  1
  O  O22  1  0.71422300  0.61704200  0.19716800  1
  O  O23  1  0.73254200  0.38920700  0.36411600  1
  O  O24  1  0.72071900  0.62042700  0.53053400  1
  O  O25  1  0.71766400  0.37892200  0.69448400  1
  F  F26  1  0.24879800  0.38261600  0.15374200  1
  F  F27  1  0.25837700  0.62032000  0.32063500  1
  F  F28  1  0.23397200  0.60879900  0.64455800  1
  F  F29  1  0.76345900  0.61644500  0.86660400  1
  F  F30  1  0.74641100  0.11427000  0.18125500  1
  F  F31  1  0.77213300  0.12246500  0.51560800  1
  F  F32  1  0.75373700  0.87348700  0.35678900  1
  F  F33  1  0.77979700  0.87583200  0.01194900  1
  F  F34  1  0.76962900  0.12896100  0.85850800  1
  F  F35  1  0.74656100  0.87090500  0.69027600  1
