# generated using pymatgen
data_Na5GdO4
_symmetry_space_group_name_H-M   'P 1'
_cell_length_a   15.08398300
_cell_length_b   15.08398300
_cell_length_c   5.54635700
_cell_angle_alpha   90.00000000
_cell_angle_beta   90.00000000
_cell_angle_gamma   90.00000000
_symmetry_Int_Tables_number   1
_chemical_formula_structural   Na5GdO4
_chemical_formula_sum   'Na40 Gd8 O32'
_cell_volume   1261.94343525
_cell_formula_units_Z   8
loop_
 _symmetry_equiv_pos_site_id
 _symmetry_equiv_pos_as_xyz
  1  'x, y, z'
loop_
 _atom_site_type_symbol
 _atom_site_label
 _atom_site_symmetry_multiplicity
 _atom_site_fract_x
 _atom_site_fract_y
 _atom_site_fract_z
 _atom_site_occupancy
  Na  Na0  1  0.76381400  0.23618600  0.00000000  1
  Na  Na1  1  0.73618600  0.26381400  0.50000000  1
  Na  Na2  1  0.23618600  0.23618600  0.00000000  1
  Na  Na3  1  0.26381400  0.26381400  0.50000000  1
  Na  Na4  1  0.10473600  0.35136700  0.56071400  1
  Na  Na5  1  0.89526400  0.35136700  0.56071400  1
  Na  Na6  1  0.37242000  0.37242000  0.00000000  1
  Na  Na7  1  0.62758000  0.37242000  0.00000000  1
  Na  Na8  1  0.85136700  0.39526400  0.06071400  1
  Na  Na9  1  0.14863300  0.39526400  0.06071400  1
  Na  Na10  1  0.00000000  0.50000000  0.12341300  1
  Na  Na11  1  0.50000000  0.50000000  0.50000000  1
  Na  Na12  1  0.50000000  0.50000000  0.00000000  1
  Na  Na13  1  0.00000000  0.50000000  0.62341300  1
  Na  Na14  1  0.85136700  0.60473600  0.06071400  1
  Na  Na15  1  0.14863300  0.60473600  0.06071400  1
  Na  Na16  1  0.37242000  0.62758000  0.00000000  1
  Na  Na17  1  0.62758000  0.62758000  0.00000000  1
  Na  Na18  1  0.89526400  0.64863300  0.56071400  1
  Na  Na19  1  0.10473600  0.64863300  0.56071400  1
  Na  Na20  1  0.76381400  0.76381400  0.00000000  1
  Na  Na21  1  0.73618600  0.73618600  0.50000000  1
  Na  Na22  1  0.23618600  0.76381400  0.00000000  1
  Na  Na23  1  0.26381400  0.73618600  0.50000000  1
  Na  Na24  1  0.39526400  0.85136700  0.93928600  1
  Na  Na25  1  0.60473600  0.85136700  0.93928600  1
  Na  Na26  1  0.87242000  0.87242000  0.50000000  1
  Na  Na27  1  0.12758000  0.87242000  0.50000000  1
  Na  Na28  1  0.35136700  0.89526400  0.43928600  1
  Na  Na29  1  0.64863300  0.89526400  0.43928600  1
  Na  Na30  1  0.00000000  0.00000000  0.00000000  1
  Na  Na31  1  0.00000000  0.00000000  0.50000000  1
  Na  Na32  1  0.50000000  0.00000000  0.87658700  1
  Na  Na33  1  0.50000000  0.00000000  0.37658700  1
  Na  Na34  1  0.35136700  0.10473600  0.43928600  1
  Na  Na35  1  0.64863300  0.10473600  0.43928600  1
  Na  Na36  1  0.87242000  0.12758000  0.50000000  1
  Na  Na37  1  0.12758000  0.12758000  0.50000000  1
  Na  Na38  1  0.39526400  0.14863300  0.93928600  1
  Na  Na39  1  0.60473600  0.14863300  0.93928600  1
  Gd  Gd40  1  0.50000000  0.26469800  0.46470600  1
  Gd  Gd41  1  0.26469800  0.50000000  0.53529400  1
  Gd  Gd42  1  0.73530200  0.50000000  0.53529400  1
  Gd  Gd43  1  0.50000000  0.73530200  0.46470600  1
  Gd  Gd44  1  0.00000000  0.76469800  0.03529400  1
  Gd  Gd45  1  0.76469800  0.00000000  0.96470600  1
  Gd  Gd46  1  0.23530200  0.00000000  0.96470600  1
  Gd  Gd47  1  0.00000000  0.23530200  0.03529400  1
  O  O48  1  0.87738100  0.25638700  0.25114600  1
  O  O49  1  0.12261900  0.25638700  0.25114600  1
  O  O50  1  0.75638700  0.37738100  0.75114600  1
  O  O51  1  0.24361300  0.37738100  0.75114600  1
  O  O52  1  0.00000000  0.37234100  0.86413200  1
  O  O53  1  0.50000000  0.36974200  0.74250500  1
  O  O54  1  0.87234100  0.50000000  0.36413200  1
  O  O55  1  0.36974200  0.50000000  0.25749500  1
  O  O56  1  0.63025800  0.50000000  0.25749500  1
  O  O57  1  0.12765900  0.50000000  0.36413200  1
  O  O58  1  0.50000000  0.63025800  0.74250500  1
  O  O59  1  0.00000000  0.62765900  0.86413200  1
  O  O60  1  0.24361300  0.62261900  0.75114600  1
  O  O61  1  0.75638700  0.62261900  0.75114600  1
  O  O62  1  0.87738100  0.74361300  0.25114600  1
  O  O63  1  0.12261900  0.74361300  0.25114600  1
  O  O64  1  0.37738100  0.75638700  0.24885400  1
  O  O65  1  0.62261900  0.75638700  0.24885400  1
  O  O66  1  0.74361300  0.87738100  0.74885400  1
  O  O67  1  0.25638700  0.87738100  0.74885400  1
  O  O68  1  0.50000000  0.87234100  0.63586800  1
  O  O69  1  0.00000000  0.86974200  0.75749500  1
  O  O70  1  0.86974200  0.00000000  0.24250500  1
  O  O71  1  0.13025800  0.00000000  0.24250500  1
  O  O72  1  0.37234100  0.00000000  0.13586800  1
  O  O73  1  0.62765900  0.00000000  0.13586800  1
  O  O74  1  0.00000000  0.13025800  0.75749500  1
  O  O75  1  0.50000000  0.12765900  0.63586800  1
  O  O76  1  0.74361300  0.12261900  0.74885400  1
  O  O77  1  0.25638700  0.12261900  0.74885400  1
  O  O78  1  0.37738100  0.24361300  0.24885400  1
  O  O79  1  0.62261900  0.24361300  0.24885400  1
