# generated using pymatgen
data_Cd(BO2)2
_symmetry_space_group_name_H-M   'P 1'
_cell_length_a   7.80156062
_cell_length_b   7.80156062
_cell_length_c   7.80156083
_cell_angle_alpha   96.73042803
_cell_angle_beta   96.73042803
_cell_angle_gamma   96.73042075
_symmetry_Int_Tables_number   1
_chemical_formula_structural   Cd(BO2)2
_chemical_formula_sum   'Cd6 B12 O24'
_cell_volume   464.16960477
_cell_formula_units_Z   6
loop_
 _symmetry_equiv_pos_site_id
 _symmetry_equiv_pos_as_xyz
  1  'x, y, z'
loop_
 _atom_site_type_symbol
 _atom_site_label
 _atom_site_symmetry_multiplicity
 _atom_site_fract_x
 _atom_site_fract_y
 _atom_site_fract_z
 _atom_site_occupancy
  Cd  Cd0  1  0.83058400  0.19162200  0.48828900  1
  Cd  Cd1  1  0.69162200  0.33058400  0.98828900  1
  Cd  Cd2  1  0.98828900  0.69162200  0.33058400  1
  Cd  Cd3  1  0.19162200  0.48828900  0.83058400  1
  Cd  Cd4  1  0.48828900  0.83058400  0.19162200  1
  Cd  Cd5  1  0.33058400  0.98828900  0.69162200  1
  B  B6  1  0.81803500  0.00345000  0.05235700  1
  B  B7  1  0.80691200  0.56480600  0.71990000  1
  B  B8  1  0.50345000  0.31803500  0.55235700  1
  B  B9  1  0.21990000  0.06480600  0.30691200  1
  B  B10  1  0.30691200  0.21990000  0.06480600  1
  B  B11  1  0.55235700  0.50345000  0.31803500  1
  B  B12  1  0.00345000  0.05235700  0.81803500  1
  B  B13  1  0.71990000  0.80691200  0.56480600  1
  B  B14  1  0.56480600  0.71990000  0.80691200  1
  B  B15  1  0.31803500  0.55235700  0.50345000  1
  B  B16  1  0.06480600  0.30691200  0.21990000  1
  B  B17  1  0.05235700  0.81803500  0.00345000  1
  O  O18  1  0.86736600  0.09190300  0.91291300  1
  O  O19  1  0.69029000  0.05706200  0.13374400  1
  O  O20  1  0.93223600  0.39774500  0.23973300  1
  O  O21  1  0.89774500  0.43223600  0.73973300  1
  O  O22  1  0.55706200  0.19029000  0.63374400  1
  O  O23  1  0.32535000  0.09111200  0.17653900  1
  O  O24  1  0.59190300  0.36736600  0.41291300  1
  O  O25  1  0.39774500  0.23973300  0.93223600  1
  O  O26  1  0.82535000  0.67653900  0.59111200  1
  O  O27  1  0.63374400  0.55706200  0.19029000  1
  O  O28  1  0.67653900  0.59111200  0.82535000  1
  O  O29  1  0.91291300  0.86736600  0.09190300  1
  O  O30  1  0.36736600  0.41291300  0.59190300  1
  O  O31  1  0.09111200  0.17653900  0.32535000  1
  O  O32  1  0.05706200  0.13374400  0.69029000  1
  O  O33  1  0.17653900  0.32535000  0.09111200  1
  O  O34  1  0.73973300  0.89774500  0.43223600  1
  O  O35  1  0.41291300  0.59190300  0.36736600  1
  O  O36  1  0.59111200  0.82535000  0.67653900  1
  O  O37  1  0.43223600  0.73973300  0.89774500  1
  O  O38  1  0.19029000  0.63374400  0.55706200  1
  O  O39  1  0.13374400  0.69029000  0.05706200  1
  O  O40  1  0.23973300  0.93223600  0.39774500  1
  O  O41  1  0.09190300  0.91291300  0.86736600  1
