# generated using pymatgen
data_Sm3B5O12
_symmetry_space_group_name_H-M   'P 1'
_cell_length_a   6.53940100
_cell_length_b   8.07959700
_cell_length_c   17.59973100
_cell_angle_alpha   90.00000000
_cell_angle_beta   90.00000000
_cell_angle_gamma   90.00000000
_symmetry_Int_Tables_number   1
_chemical_formula_structural   Sm3B5O12
_chemical_formula_sum   'Sm12 B20 O48'
_cell_volume   929.89454193
_cell_formula_units_Z   4
loop_
 _symmetry_equiv_pos_site_id
 _symmetry_equiv_pos_as_xyz
  1  'x, y, z'
loop_
 _atom_site_type_symbol
 _atom_site_label
 _atom_site_symmetry_multiplicity
 _atom_site_fract_x
 _atom_site_fract_y
 _atom_site_fract_z
 _atom_site_occupancy
  Sm  Sm0  1  0.03992300  0.02098100  0.90037400  1
  Sm  Sm1  1  0.03992300  0.47901900  0.90037400  1
  Sm  Sm2  1  0.98979500  0.75000000  0.30850800  1
  Sm  Sm3  1  0.51020500  0.25000000  0.80850800  1
  Sm  Sm4  1  0.46007700  0.52098100  0.40037400  1
  Sm  Sm5  1  0.46007700  0.97901900  0.40037400  1
  Sm  Sm6  1  0.53992300  0.02098100  0.59962600  1
  Sm  Sm7  1  0.53992300  0.47901900  0.59962600  1
  Sm  Sm8  1  0.48979500  0.75000000  0.19149200  1
  Sm  Sm9  1  0.01020500  0.25000000  0.69149200  1
  Sm  Sm10  1  0.96007700  0.52098100  0.09962600  1
  Sm  Sm11  1  0.96007700  0.97901900  0.09962600  1
  B  B12  1  0.09413700  0.25000000  0.38609000  1
  B  B13  1  0.12729200  0.09977200  0.26008000  1
  B  B14  1  0.12729200  0.40022800  0.26008000  1
  B  B15  1  0.17166600  0.25000000  0.52471900  1
  B  B16  1  0.20380300  0.75000000  0.52070900  1
  B  B17  1  0.29619700  0.25000000  0.02070900  1
  B  B18  1  0.32833400  0.75000000  0.02471900  1
  B  B19  1  0.37270800  0.59977200  0.76008000  1
  B  B20  1  0.37270800  0.90022800  0.76008000  1
  B  B21  1  0.40586300  0.75000000  0.88609000  1
  B  B22  1  0.59413700  0.25000000  0.11391000  1
  B  B23  1  0.62729200  0.09977200  0.23992000  1
  B  B24  1  0.62729200  0.40022800  0.23992000  1
  B  B25  1  0.67166600  0.25000000  0.97528100  1
  B  B26  1  0.70380300  0.75000000  0.97929100  1
  B  B27  1  0.79619700  0.25000000  0.47929100  1
  B  B28  1  0.82833400  0.75000000  0.47528100  1
  B  B29  1  0.87270800  0.90022800  0.73992000  1
  B  B30  1  0.87270800  0.59977200  0.73992000  1
  B  B31  1  0.90586300  0.75000000  0.61391000  1
  O  O32  1  0.03196300  0.75000000  0.45880500  1
  O  O33  1  0.15459000  0.09874700  0.33803300  1
  O  O34  1  0.15459000  0.40125300  0.33803300  1
  O  O35  1  0.07867400  0.25000000  0.22352400  1
  O  O36  1  0.11024500  0.75000000  0.59624400  1
  O  O37  1  0.13902300  0.54340100  0.22092600  1
  O  O38  1  0.13902300  0.95659900  0.22092600  1
  O  O39  1  0.18402900  0.25000000  0.83583400  1
  O  O40  1  0.17422700  0.10030300  0.01058200  1
  O  O41  1  0.17422700  0.39969700  0.01058200  1
  O  O42  1  0.19863000  0.75000000  0.08643700  1
  O  O43  1  0.24529500  0.25000000  0.44919800  1
  O  O44  1  0.25470500  0.75000000  0.94919800  1
  O  O45  1  0.30137000  0.25000000  0.58643700  1
  O  O46  1  0.32577300  0.60030300  0.51058200  1
  O  O47  1  0.32577300  0.89969700  0.51058200  1
  O  O48  1  0.31597100  0.75000000  0.33583400  1
  O  O49  1  0.36097700  0.45659900  0.72092600  1
  O  O50  1  0.36097700  0.04340100  0.72092600  1
  O  O51  1  0.38975500  0.25000000  0.09624400  1
  O  O52  1  0.42132600  0.75000000  0.72352400  1
  O  O53  1  0.34541000  0.59874700  0.83803300  1
  O  O54  1  0.34541000  0.90125300  0.83803300  1
  O  O55  1  0.46803700  0.25000000  0.95880500  1
  O  O56  1  0.53196300  0.75000000  0.04119500  1
  O  O57  1  0.65459000  0.09874700  0.16196700  1
  O  O58  1  0.65459000  0.40125300  0.16196700  1
  O  O59  1  0.57867400  0.25000000  0.27647600  1
  O  O60  1  0.61024500  0.75000000  0.90375600  1
  O  O61  1  0.63902300  0.54340100  0.27907400  1
  O  O62  1  0.63902300  0.95659900  0.27907400  1
  O  O63  1  0.68402900  0.25000000  0.66416600  1
  O  O64  1  0.67422700  0.10030300  0.48941800  1
  O  O65  1  0.67422700  0.39969700  0.48941800  1
  O  O66  1  0.69863000  0.75000000  0.41356300  1
  O  O67  1  0.74529500  0.25000000  0.05080200  1
  O  O68  1  0.75470500  0.75000000  0.55080200  1
  O  O69  1  0.80137000  0.25000000  0.91356300  1
  O  O70  1  0.82577300  0.89969700  0.98941800  1
  O  O71  1  0.82577300  0.60030300  0.98941800  1
  O  O72  1  0.81597100  0.75000000  0.16416600  1
  O  O73  1  0.86097700  0.04340100  0.77907400  1
  O  O74  1  0.86097700  0.45659900  0.77907400  1
  O  O75  1  0.88975500  0.25000000  0.40375600  1
  O  O76  1  0.92132600  0.75000000  0.77647600  1
  O  O77  1  0.84541000  0.90125300  0.66196700  1
  O  O78  1  0.84541000  0.59874700  0.66196700  1
  O  O79  1  0.96803700  0.25000000  0.54119500  1
