# generated using pymatgen
data_ZrTaOs2
_symmetry_space_group_name_H-M   'P 1'
_cell_length_a   10.95762031
_cell_length_b   10.95762031
_cell_length_c   10.95762031
_cell_angle_alpha   128.87563586
_cell_angle_beta   118.60558783
_cell_angle_gamma   83.89161733
_symmetry_Int_Tables_number   1
_chemical_formula_structural   ZrTaOs2
_chemical_formula_sum   'Zr1 Ta1 Os2'
_cell_volume   862.22263947
_cell_formula_units_Z   1
loop_
 _symmetry_equiv_pos_site_id
 _symmetry_equiv_pos_as_xyz
  1  'x, y, z'
loop_
 _atom_site_type_symbol
 _atom_site_label
 _atom_site_symmetry_multiplicity
 _atom_site_fract_x
 _atom_site_fract_y
 _atom_site_fract_z
 _atom_site_occupancy
  Zr  Zr0  1  0.00000000  0.00000000  0.00000000  1
  Ta  Ta1  1  0.00000000  0.50000000  0.50000000  1
  Os  Os2  1  0.00000000  0.25606100  0.25606100  1
  Os  Os3  1  0.00000000  0.74393900  0.74393900  1
