# generated using pymatgen
data_Lu4Al2O9
_symmetry_space_group_name_H-M   'P 1'
_cell_length_a   10.33590100
_cell_length_b   7.21866600
_cell_length_c   11.05872428
_cell_angle_alpha   71.88893990
_cell_angle_beta   90.00000000
_cell_angle_gamma   90.00000000
_symmetry_Int_Tables_number   1
_chemical_formula_structural   Lu4Al2O9
_chemical_formula_sum   'Lu16 Al8 O36'
_cell_volume   784.22777227
_cell_formula_units_Z   4
loop_
 _symmetry_equiv_pos_site_id
 _symmetry_equiv_pos_as_xyz
  1  'x, y, z'
loop_
 _atom_site_type_symbol
 _atom_site_label
 _atom_site_symmetry_multiplicity
 _atom_site_fract_x
 _atom_site_fract_y
 _atom_site_fract_z
 _atom_site_occupancy
  Lu  Lu0  1  0.90121500  0.97849000  0.80374700  1
  Lu  Lu1  1  0.59878500  0.97849000  0.30374700  1
  Lu  Lu2  1  0.12121500  0.83829500  0.58425000  1
  Lu  Lu3  1  0.62597700  0.65993400  0.93845700  1
  Lu  Lu4  1  0.37878500  0.83829500  0.08425000  1
  Lu  Lu5  1  0.87402300  0.65993400  0.43845700  1
  Lu  Lu6  1  0.38776000  0.52315800  0.71753700  1
  Lu  Lu7  1  0.88776000  0.47684200  0.78246300  1
  Lu  Lu8  1  0.11224000  0.52315800  0.21753700  1
  Lu  Lu9  1  0.61224000  0.47684200  0.28246300  1
  Lu  Lu10  1  0.12597700  0.34006600  0.56154300  1
  Lu  Lu11  1  0.62121500  0.16170500  0.91575000  1
  Lu  Lu12  1  0.37402300  0.34006600  0.06154300  1
  Lu  Lu13  1  0.87878500  0.16170500  0.41575000  1
  Lu  Lu14  1  0.40121500  0.02151000  0.69625300  1
  Lu  Lu15  1  0.09878500  0.02151000  0.19625300  1
  Al  Al16  1  0.17441300  0.65576400  0.88893200  1
  Al  Al17  1  0.67765800  0.78653300  0.62691400  1
  Al  Al18  1  0.32558700  0.65576400  0.38893200  1
  Al  Al19  1  0.82234200  0.78653300  0.12691400  1
  Al  Al20  1  0.17765800  0.21346700  0.87308600  1
  Al  Al21  1  0.67441300  0.34423600  0.61106800  1
  Al  Al22  1  0.32234200  0.21346700  0.37308600  1
  Al  Al23  1  0.82558700  0.34423600  0.11106800  1
  O  O24  1  0.76622000  0.93201300  0.97836500  1
  O  O25  1  0.49292000  0.92230900  0.89301700  1
  O  O26  1  0.73378000  0.93201300  0.47836500  1
  O  O27  1  0.75882000  0.76740800  0.77161900  1
  O  O28  1  0.25975000  0.79201700  0.75225000  1
  O  O29  1  0.00708000  0.92230900  0.39301700  1
  O  O30  1  0.51193900  0.78839100  0.65431500  1
  O  O31  1  0.01212100  0.69571200  0.84063400  1
  O  O32  1  0.26986400  0.63888100  0.54236100  1
  O  O33  1  0.74118000  0.76740800  0.27161900  1
  O  O34  1  0.24025000  0.79201700  0.25225000  1
  O  O35  1  0.50813000  0.43615400  0.89186800  1
  O  O36  1  0.74335600  0.56806000  0.61307700  1
  O  O37  1  0.98806100  0.78839100  0.15431500  1
  O  O38  1  0.24335600  0.43194000  0.88692300  1
  O  O39  1  0.00813000  0.56384600  0.60813200  1
  O  O40  1  0.48787900  0.69571200  0.34063400  1
  O  O41  1  0.76986400  0.36111900  0.95763900  1
  O  O42  1  0.23013600  0.63888100  0.04236100  1
  O  O43  1  0.51212100  0.30428800  0.65936600  1
  O  O44  1  0.99187000  0.43615400  0.39186800  1
  O  O45  1  0.75664400  0.56806000  0.11307700  1
  O  O46  1  0.01193900  0.21160900  0.84568500  1
  O  O47  1  0.25664400  0.43194000  0.38692300  1
  O  O48  1  0.49187000  0.56384600  0.10813200  1
  O  O49  1  0.75975000  0.20798300  0.74775000  1
  O  O50  1  0.25882000  0.23259200  0.72838100  1
  O  O51  1  0.73013600  0.36111900  0.45763900  1
  O  O52  1  0.98787900  0.30428800  0.15936600  1
  O  O53  1  0.48806100  0.21160900  0.34568500  1
  O  O54  1  0.99292000  0.07769100  0.60698300  1
  O  O55  1  0.74025000  0.20798300  0.24775000  1
  O  O56  1  0.24118000  0.23259200  0.22838100  1
  O  O57  1  0.26622000  0.06798700  0.52163500  1
  O  O58  1  0.50708000  0.07769100  0.10698300  1
  O  O59  1  0.23378000  0.06798700  0.02163500  1
