# generated using pymatgen
data_Tb4Nb4O11
_symmetry_space_group_name_H-M   'P 1'
_cell_length_a   5.82975700
_cell_length_b   10.97634600
_cell_length_c   16.28714200
_cell_angle_alpha   90.00000000
_cell_angle_beta   90.00000000
_cell_angle_gamma   90.00000000
_symmetry_Int_Tables_number   1
_chemical_formula_structural   Tb4Nb4O11
_chemical_formula_sum   'Tb16 Nb16 O44'
_cell_volume   1042.20493174
_cell_formula_units_Z   4
loop_
 _symmetry_equiv_pos_site_id
 _symmetry_equiv_pos_as_xyz
  1  'x, y, z'
loop_
 _atom_site_type_symbol
 _atom_site_label
 _atom_site_symmetry_multiplicity
 _atom_site_fract_x
 _atom_site_fract_y
 _atom_site_fract_z
 _atom_site_occupancy
  Tb  Tb0  1  0.50000000  0.07631100  0.09872200  1
  Tb  Tb1  1  0.00000000  0.09717800  0.23594900  1
  Tb  Tb2  1  0.00000000  0.11259600  0.92167900  1
  Tb  Tb3  1  0.50000000  0.18596800  0.77806300  1
  Tb  Tb4  1  0.50000000  0.31403200  0.27806300  1
  Tb  Tb5  1  0.00000000  0.38740400  0.42167900  1
  Tb  Tb6  1  0.00000000  0.40282200  0.73594900  1
  Tb  Tb7  1  0.50000000  0.42368900  0.59872200  1
  Tb  Tb8  1  0.50000000  0.57631100  0.40127800  1
  Tb  Tb9  1  0.00000000  0.59717800  0.26405100  1
  Tb  Tb10  1  0.00000000  0.61259600  0.57832100  1
  Tb  Tb11  1  0.50000000  0.68596800  0.72193700  1
  Tb  Tb12  1  0.50000000  0.81403200  0.22193700  1
  Tb  Tb13  1  0.00000000  0.88740400  0.07832100  1
  Tb  Tb14  1  0.00000000  0.90282200  0.76405100  1
  Tb  Tb15  1  0.50000000  0.92368900  0.90127800  1
  Nb  Nb16  1  0.00000000  0.08999400  0.43519400  1
  Nb  Nb17  1  0.50000000  0.09348100  0.43147400  1
  Nb  Nb18  1  0.25069000  0.13929400  0.58863700  1
  Nb  Nb19  1  0.74931000  0.13929400  0.58863700  1
  Nb  Nb20  1  0.25069000  0.36070600  0.08863700  1
  Nb  Nb21  1  0.74931000  0.36070600  0.08863700  1
  Nb  Nb22  1  0.50000000  0.40651900  0.93147400  1
  Nb  Nb23  1  0.00000000  0.41000600  0.93519400  1
  Nb  Nb24  1  0.00000000  0.58999400  0.06480600  1
  Nb  Nb25  1  0.50000000  0.59348100  0.06852600  1
  Nb  Nb26  1  0.25069000  0.63929400  0.91136300  1
  Nb  Nb27  1  0.74931000  0.63929400  0.91136300  1
  Nb  Nb28  1  0.25069000  0.86070600  0.41136300  1
  Nb  Nb29  1  0.74931000  0.86070600  0.41136300  1
  Nb  Nb30  1  0.50000000  0.90651900  0.56852600  1
  Nb  Nb31  1  0.00000000  0.91000600  0.56480600  1
  O  O32  1  0.24693800  0.00000000  0.00000000  1
  O  O33  1  0.75306200  0.00000000  0.00000000  1
  O  O34  1  0.50000000  0.05091200  0.66166600  1
  O  O35  1  0.24858200  0.03859100  0.82804600  1
  O  O36  1  0.75141800  0.03859100  0.82804600  1
  O  O37  1  0.00000000  0.04657400  0.65930300  1
  O  O38  1  0.24367000  0.19194000  0.35934400  1
  O  O39  1  0.75633000  0.19194000  0.35934400  1
  O  O40  1  0.26401200  0.22198700  0.17601200  1
  O  O41  1  0.73598800  0.22198700  0.17601200  1
  O  O42  1  0.00000000  0.23939000  0.52228200  1
  O  O43  1  0.50000000  0.24017300  0.52108800  1
  O  O44  1  0.50000000  0.25982700  0.02108800  1
  O  O45  1  0.00000000  0.26061000  0.02228200  1
  O  O46  1  0.26401200  0.27801300  0.67601200  1
  O  O47  1  0.73598800  0.27801300  0.67601200  1
  O  O48  1  0.24367000  0.30806000  0.85934400  1
  O  O49  1  0.75633000  0.30806000  0.85934400  1
  O  O50  1  0.00000000  0.45342600  0.15930300  1
  O  O51  1  0.24858200  0.46140900  0.32804600  1
  O  O52  1  0.75141800  0.46140900  0.32804600  1
  O  O53  1  0.50000000  0.44908800  0.16166600  1
  O  O54  1  0.24693800  0.50000000  0.50000000  1
  O  O55  1  0.75306200  0.50000000  0.50000000  1
  O  O56  1  0.50000000  0.55091200  0.83833400  1
  O  O57  1  0.24858200  0.53859100  0.67195400  1
  O  O58  1  0.75141800  0.53859100  0.67195400  1
  O  O59  1  0.00000000  0.54657400  0.84069700  1
  O  O60  1  0.24367000  0.69194000  0.14065600  1
  O  O61  1  0.75633000  0.69194000  0.14065600  1
  O  O62  1  0.26401200  0.72198700  0.32398800  1
  O  O63  1  0.73598800  0.72198700  0.32398800  1
  O  O64  1  0.00000000  0.73939000  0.97771800  1
  O  O65  1  0.50000000  0.74017300  0.97891200  1
  O  O66  1  0.50000000  0.75982700  0.47891200  1
  O  O67  1  0.00000000  0.76061000  0.47771800  1
  O  O68  1  0.26401200  0.77801300  0.82398800  1
  O  O69  1  0.73598800  0.77801300  0.82398800  1
  O  O70  1  0.24367000  0.80806000  0.64065600  1
  O  O71  1  0.75633000  0.80806000  0.64065600  1
  O  O72  1  0.00000000  0.95342600  0.34069700  1
  O  O73  1  0.24858200  0.96140900  0.17195400  1
  O  O74  1  0.75141800  0.96140900  0.17195400  1
  O  O75  1  0.50000000  0.94908800  0.33833400  1
