# generated using pymatgen
data_V6O5F19
_symmetry_space_group_name_H-M   'P 1'
_cell_length_a   5.31654900
_cell_length_b   5.53022971
_cell_length_c   14.90890499
_cell_angle_alpha   79.64722766
_cell_angle_beta   89.83123188
_cell_angle_gamma   89.08530777
_symmetry_Int_Tables_number   1
_chemical_formula_structural   V6O5F19
_chemical_formula_sum   'V6 O5 F19'
_cell_volume   431.15642770
_cell_formula_units_Z   1
loop_
 _symmetry_equiv_pos_site_id
 _symmetry_equiv_pos_as_xyz
  1  'x, y, z'
loop_
 _atom_site_type_symbol
 _atom_site_label
 _atom_site_symmetry_multiplicity
 _atom_site_fract_x
 _atom_site_fract_y
 _atom_site_fract_z
 _atom_site_occupancy
  V  V0  1  0.96593900  0.95971100  0.00362500  1
  V  V1  1  0.47959800  0.88948300  0.33142000  1
  V  V2  1  0.99539400  0.68630600  0.66671000  1
  V  V3  1  0.45822900  0.47013300  0.99626300  1
  V  V4  1  0.02654700  0.39417900  0.33036500  1
  V  V5  1  0.47828500  0.21068800  0.66445700  1
  O  O6  1  0.20709700  0.63753600  0.30876100  1
  O  O7  1  0.29577700  0.45781300  0.64482700  1
  O  O8  1  0.22615100  0.30004200  0.97939900  1
  O  O9  1  0.79081700  0.71963900  0.02101900  1
  O  O10  1  0.29340000  0.13652400  0.30997400  1
  F  F11  1  0.20511300  0.98045100  0.64270500  1
  F  F12  1  0.27671200  0.78648200  0.97368600  1
  F  F13  1  0.70761000  0.86115700  0.68950500  1
  F  F14  1  0.09647100  0.95764400  0.11324300  1
  F  F15  1  0.41247200  0.76371600  0.44656400  1
  F  F16  1  0.09173700  0.61587000  0.78202200  1
  F  F17  1  0.58173800  0.85558200  0.22106100  1
  F  F18  1  0.93128800  0.69460800  0.55000200  1
  F  F19  1  0.59805600  0.54419500  0.88677400  1
  F  F20  1  0.72702000  0.52509000  0.35789200  1
  F  F21  1  0.77749800  0.37011600  0.69049400  1
  F  F22  1  0.43734700  0.47389800  0.11488100  1
  F  F23  1  0.08635100  0.26861100  0.44631100  1
  F  F24  1  0.42660600  0.09963800  0.78173700  1
  F  F25  1  0.92390700  0.35398600  0.22110000  1
  F  F26  1  0.58763700  0.19191300  0.55364200  1
  F  F27  1  0.93142200  0.07152900  0.88517600  1
  F  F28  1  0.71341300  0.20251600  0.02678100  1
  F  F29  1  0.77036800  0.02094400  0.35960200  1
