# generated using pymatgen
data_Mn6OF11
_symmetry_space_group_name_H-M   'P 1'
_cell_length_a   5.27021401
_cell_length_b   5.27021401
_cell_length_c   15.62250306
_cell_angle_alpha   88.53065143
_cell_angle_beta   88.53065143
_cell_angle_gamma   89.13748114
_symmetry_Int_Tables_number   1
_chemical_formula_structural   Mn6OF11
_chemical_formula_sum   'Mn12 O2 F22'
_cell_volume   433.58715150
_cell_formula_units_Z   2
loop_
 _symmetry_equiv_pos_site_id
 _symmetry_equiv_pos_as_xyz
  1  'x, y, z'
loop_
 _atom_site_type_symbol
 _atom_site_label
 _atom_site_symmetry_multiplicity
 _atom_site_fract_x
 _atom_site_fract_y
 _atom_site_fract_z
 _atom_site_occupancy
  Mn  Mn0  1  0.99933500  0.99933500  0.00091300  1
  Mn  Mn1  1  0.99784000  0.48758300  0.16964400  1
  Mn  Mn2  1  0.03960000  0.03960000  0.32908100  1
  Mn  Mn3  1  0.99398700  0.52515800  0.50118600  1
  Mn  Mn4  1  0.99684200  0.99684200  0.66530900  1
  Mn  Mn5  1  0.00340900  0.49792200  0.83269900  1
  Mn  Mn6  1  0.48758300  0.99784000  0.16964400  1
  Mn  Mn7  1  0.49983900  0.49983900  0.00149100  1
  Mn  Mn8  1  0.51773900  0.51773900  0.65643400  1
  Mn  Mn9  1  0.52515800  0.99398700  0.50118600  1
  Mn  Mn10  1  0.47391100  0.47391100  0.32745600  1
  Mn  Mn11  1  0.49792200  0.00340900  0.83269900  1
  O  O12  1  0.72054200  0.72054200  0.58029500  1
  O  O13  1  0.24569200  0.24569200  0.25707200  1
  F  F14  1  0.76008200  0.19200700  0.25446000  1
  F  F15  1  0.76730900  0.76730900  0.08434100  1
  F  F16  1  0.78514900  0.22681600  0.58031500  1
  F  F17  1  0.82834600  0.82834600  0.40862600  1
  F  F18  1  0.77103700  0.23100600  0.91396700  1
  F  F19  1  0.77465700  0.77465700  0.75292400  1
  F  F20  1  0.73209000  0.26676500  0.08668800  1
  F  F21  1  0.69452000  0.69452000  0.24438000  1
  F  F22  1  0.73215500  0.73215500  0.91720800  1
  F  F23  1  0.71203600  0.28187000  0.74587700  1
  F  F24  1  0.71451700  0.31464900  0.42059800  1
  F  F25  1  0.27209700  0.27209700  0.91636000  1
  F  F26  1  0.29031200  0.29031200  0.58490700  1
  F  F27  1  0.26676500  0.73209000  0.08668800  1
  F  F28  1  0.31464900  0.71451700  0.42059800  1
  F  F29  1  0.28187000  0.71203600  0.74587700  1
  F  F30  1  0.20856700  0.20856700  0.42718200  1
  F  F31  1  0.23250400  0.23250400  0.08309100  1
  F  F32  1  0.21211200  0.21211200  0.75205800  1
  F  F33  1  0.22681600  0.78514900  0.58031500  1
  F  F34  1  0.23100600  0.77103700  0.91396700  1
  F  F35  1  0.19200700  0.76008200  0.25446000  1
