# generated using pymatgen
data_Hf2CoOs
_symmetry_space_group_name_H-M   'P 1'
_cell_length_a   10.86364180
_cell_length_b   10.86364180
_cell_length_c   10.86364180
_cell_angle_alpha   129.41059069
_cell_angle_beta   117.03915376
_cell_angle_gamma   84.86673253
_symmetry_Int_Tables_number   1
_chemical_formula_structural   Hf2CoOs
_chemical_formula_sum   'Hf2 Co1 Os1'
_cell_volume   844.55725763
_cell_formula_units_Z   1
loop_
 _symmetry_equiv_pos_site_id
 _symmetry_equiv_pos_as_xyz
  1  'x, y, z'
loop_
 _atom_site_type_symbol
 _atom_site_label
 _atom_site_symmetry_multiplicity
 _atom_site_fract_x
 _atom_site_fract_y
 _atom_site_fract_z
 _atom_site_occupancy
  Hf  Hf0  1  0.00000000  0.24755700  0.24755700  1
  Hf  Hf1  1  0.00000000  0.75244300  0.75244300  1
  Co  Co2  1  0.00000000  0.00000000  0.00000000  1
  Os  Os3  1  0.00000000  0.50000000  0.50000000  1
