# generated using pymatgen
data_Ca9Co(PO4)7
_symmetry_space_group_name_H-M   'P 1'
_cell_length_a   13.81825741
_cell_length_b   13.81825741
_cell_length_c   13.81825864
_cell_angle_alpha   44.49778781
_cell_angle_beta   44.49778781
_cell_angle_gamma   44.49778635
_symmetry_Int_Tables_number   1
_chemical_formula_structural   Ca9Co(PO4)7
_chemical_formula_sum   'Ca18 Co2 P14 O56'
_cell_volume   1178.46502136
_cell_formula_units_Z   2
loop_
 _symmetry_equiv_pos_site_id
 _symmetry_equiv_pos_as_xyz
  1  'x, y, z'
loop_
 _atom_site_type_symbol
 _atom_site_label
 _atom_site_symmetry_multiplicity
 _atom_site_fract_x
 _atom_site_fract_y
 _atom_site_fract_z
 _atom_site_occupancy
  Ca  Ca0  1  0.34602500  0.92038600  0.93557000  1
  Ca  Ca1  1  0.09130900  0.06600200  0.64784900  1
  Ca  Ca2  1  0.14784900  0.56600200  0.59130900  1
  Ca  Ca3  1  0.02780600  0.04761800  0.44962700  1
  Ca  Ca4  1  0.43557000  0.42038600  0.84602500  1
  Ca  Ca5  1  0.54761800  0.52780600  0.94962700  1
  Ca  Ca6  1  0.06600200  0.64784900  0.09130900  1
  Ca  Ca7  1  0.52780600  0.94962700  0.54761800  1
  Ca  Ca8  1  0.42038600  0.84602500  0.43557000  1
  Ca  Ca9  1  0.93557000  0.34602500  0.92038600  1
  Ca  Ca10  1  0.04761800  0.44962700  0.02780600  1
  Ca  Ca11  1  0.59130900  0.14784900  0.56600200  1
  Ca  Ca12  1  0.44962700  0.02780600  0.04761800  1
  Ca  Ca13  1  0.56600200  0.59130900  0.14784900  1
  Ca  Ca14  1  0.94962700  0.54761800  0.52780600  1
  Ca  Ca15  1  0.84602500  0.43557000  0.42038600  1
  Ca  Ca16  1  0.92038600  0.93557000  0.34602500  1
  Ca  Ca17  1  0.64784900  0.09130900  0.06600200  1
  Co  Co18  1  0.99970700  0.99970700  0.99970700  1
  Co  Co19  1  0.49970700  0.49970700  0.49970700  1
  P  P20  1  0.18000200  0.68860300  0.72189300  1
  P  P21  1  0.31563800  0.27985700  0.81192100  1
  P  P22  1  0.31192100  0.77985700  0.81563800  1
  P  P23  1  0.22189300  0.18860300  0.68000200  1
  P  P24  1  0.27985700  0.81192100  0.31563800  1
  P  P25  1  0.18860300  0.68000200  0.22189300  1
  P  P26  1  0.72824200  0.72824200  0.72824200  1
  P  P27  1  0.22824200  0.22824200  0.22824200  1
  P  P28  1  0.72189300  0.18000200  0.68860300  1
  P  P29  1  0.81563800  0.31192100  0.77985700  1
  P  P30  1  0.77985700  0.81563800  0.31192100  1
  P  P31  1  0.68000200  0.22189300  0.18860300  1
  P  P32  1  0.68860300  0.72189300  0.18000200  1
  P  P33  1  0.81192100  0.31563800  0.27985700  1
  O  O34  1  0.13307600  0.86784900  0.88755600  1
  O  O35  1  0.14803600  0.33318400  0.86320700  1
  O  O36  1  0.12333300  0.11792900  0.86007600  1
  O  O37  1  0.16661400  0.61436900  0.88196100  1
  O  O38  1  0.09722600  0.63992700  0.73802300  1
  O  O39  1  0.32419100  0.31833600  0.88531100  1
  O  O40  1  0.35215800  0.60714200  0.91050100  1
  O  O41  1  0.13010600  0.86168000  0.64202500  1
  O  O42  1  0.14202500  0.36168000  0.63010600  1
  O  O43  1  0.41050100  0.10714200  0.85215800  1
  O  O44  1  0.38531100  0.81833600  0.82419100  1
  O  O45  1  0.61208400  0.71787700  0.89289100  1
  O  O46  1  0.23802300  0.13992700  0.59722600  1
  O  O47  1  0.21787700  0.11208400  0.39289100  1
  O  O48  1  0.10714200  0.85215800  0.41050100  1
  O  O49  1  0.11436900  0.66661400  0.38196100  1
  O  O50  1  0.38196100  0.11436900  0.66661400  1
  O  O51  1  0.36007600  0.61792900  0.62333300  1
  O  O52  1  0.36320700  0.83318400  0.64803600  1
  O  O53  1  0.38755600  0.36784900  0.63307600  1
  O  O54  1  0.64202500  0.13010600  0.86168000  1
  O  O55  1  0.64803600  0.36320700  0.83318400  1
  O  O56  1  0.13992700  0.59722600  0.23802300  1
  O  O57  1  0.11208400  0.39289100  0.21787700  1
  O  O58  1  0.36784900  0.63307600  0.38755600  1
  O  O59  1  0.31833600  0.88531100  0.32419100  1
  O  O60  1  0.11792900  0.86007600  0.12333300  1
  O  O61  1  0.68653500  0.68653500  0.68653500  1
  O  O62  1  0.18653500  0.18653500  0.18653500  1
  O  O63  1  0.62333300  0.36007600  0.61792900  1
  O  O64  1  0.82419100  0.38531100  0.81833600  1
  O  O65  1  0.88755600  0.13307600  0.86784900  1
  O  O66  1  0.71787700  0.89289100  0.61208400  1
  O  O67  1  0.73802300  0.09722600  0.63992700  1
  O  O68  1  0.33318400  0.86320700  0.14803600  1
  O  O69  1  0.36168000  0.63010600  0.14202500  1
  O  O70  1  0.60714200  0.91050100  0.35215800  1
  O  O71  1  0.63010600  0.14202500  0.36168000  1
  O  O72  1  0.61792900  0.62333300  0.36007600  1
  O  O73  1  0.63307600  0.38755600  0.36784900  1
  O  O74  1  0.88196100  0.16661400  0.61436900  1
  O  O75  1  0.91050100  0.35215800  0.60714200  1
  O  O76  1  0.89289100  0.61208400  0.71787700  1
  O  O77  1  0.39289100  0.21787700  0.11208400  1
  O  O78  1  0.81833600  0.82419100  0.38531100  1
  O  O79  1  0.59722600  0.23802300  0.13992700  1
  O  O80  1  0.61436900  0.88196100  0.16661400  1
  O  O81  1  0.83318400  0.64803600  0.36320700  1
  O  O82  1  0.86320700  0.14803600  0.33318400  1
  O  O83  1  0.66661400  0.38196100  0.11436900  1
  O  O84  1  0.63992700  0.73802300  0.09722600  1
  O  O85  1  0.88531100  0.32419100  0.31833600  1
  O  O86  1  0.86784900  0.88755600  0.13307600  1
  O  O87  1  0.86007600  0.12333300  0.11792900  1
  O  O88  1  0.86168000  0.64202500  0.13010600  1
  O  O89  1  0.85215800  0.41050100  0.10714200  1
