# generated using pymatgen
data_V2O3
_symmetry_space_group_name_H-M   'P 1'
_cell_length_a   5.13475600
_cell_length_b   5.47013400
_cell_length_c   15.06834100
_cell_angle_alpha   90.00000000
_cell_angle_beta   90.00000000
_cell_angle_gamma   90.00000000
_symmetry_Int_Tables_number   1
_chemical_formula_structural   V2O3
_chemical_formula_sum   'V16 O24'
_cell_volume   423.23659923
_cell_formula_units_Z   8
loop_
 _symmetry_equiv_pos_site_id
 _symmetry_equiv_pos_as_xyz
  1  'x, y, z'
loop_
 _atom_site_type_symbol
 _atom_site_label
 _atom_site_symmetry_multiplicity
 _atom_site_fract_x
 _atom_site_fract_y
 _atom_site_fract_z
 _atom_site_occupancy
  V  V0  1  0.00064800  0.18386000  0.07343600  1
  V  V1  1  0.99721500  0.74921400  0.17919500  1
  V  V2  1  0.00064800  0.31614000  0.57343600  1
  V  V3  1  0.99721500  0.75078600  0.67919500  1
  V  V4  1  0.50278500  0.24921400  0.17919500  1
  V  V5  1  0.50278500  0.25078600  0.67919500  1
  V  V6  1  0.49935200  0.81614000  0.57343600  1
  V  V7  1  0.49935200  0.68386000  0.07343600  1
  V  V8  1  0.50064800  0.18386000  0.42656400  1
  V  V9  1  0.50064800  0.31614000  0.92656400  1
  V  V10  1  0.49721500  0.74921400  0.32080500  1
  V  V11  1  0.49721500  0.75078600  0.82080500  1
  V  V12  1  0.99935200  0.68386000  0.42656400  1
  V  V13  1  0.00278500  0.24921400  0.32080500  1
  V  V14  1  0.00278500  0.25078600  0.82080500  1
  V  V15  1  0.99935200  0.81614000  0.92656400  1
  O  O16  1  0.14201300  0.11595100  0.20253000  1
  O  O17  1  0.14201300  0.38404900  0.70253000  1
  O  O18  1  0.15012700  0.83629000  0.05087700  1
  O  O19  1  0.15012700  0.66371000  0.55087700  1
  O  O20  1  0.19921800  0.96690700  0.37536400  1
  O  O21  1  0.19921800  0.53309300  0.87536400  1
  O  O22  1  0.30078200  0.46690700  0.37536400  1
  O  O23  1  0.30078200  0.03309300  0.87536400  1
  O  O24  1  0.34987300  0.16371000  0.55087700  1
  O  O25  1  0.34987300  0.33629000  0.05087700  1
  O  O26  1  0.35798700  0.61595100  0.20253000  1
  O  O27  1  0.35798700  0.88404900  0.70253000  1
  O  O28  1  0.64201300  0.11595100  0.29747000  1
  O  O29  1  0.64201300  0.38404900  0.79747000  1
  O  O30  1  0.65012700  0.83629000  0.44912300  1
  O  O31  1  0.65012700  0.66371000  0.94912300  1
  O  O32  1  0.69921800  0.53309300  0.62463600  1
  O  O33  1  0.69921800  0.96690700  0.12463600  1
  O  O34  1  0.80078200  0.46690700  0.12463600  1
  O  O35  1  0.80078200  0.03309300  0.62463600  1
  O  O36  1  0.84987300  0.33629000  0.44912300  1
  O  O37  1  0.84987300  0.16371000  0.94912300  1
  O  O38  1  0.85798700  0.88404900  0.79747000  1
  O  O39  1  0.85798700  0.61595100  0.29747000  1
