# generated using pymatgen
data_NaV13O18
_symmetry_space_group_name_H-M   'P 1'
_cell_length_a   8.01107483
_cell_length_b   7.94158444
_cell_length_c   7.95189804
_cell_angle_alpha   110.96574575
_cell_angle_beta   111.59437768
_cell_angle_gamma   110.63615912
_symmetry_Int_Tables_number   1
_chemical_formula_structural   NaV13O18
_chemical_formula_sum   'Na1 V13 O18'
_cell_volume   364.63569334
_cell_formula_units_Z   1
loop_
 _symmetry_equiv_pos_site_id
 _symmetry_equiv_pos_as_xyz
  1  'x, y, z'
loop_
 _atom_site_type_symbol
 _atom_site_label
 _atom_site_symmetry_multiplicity
 _atom_site_fract_x
 _atom_site_fract_y
 _atom_site_fract_z
 _atom_site_occupancy
  Na  Na0  1  0.00009900  0.99960500  0.99943900  1
  V  V1  1  0.08149300  0.87836400  0.58048400  1
  V  V2  1  0.42697100  0.93030800  0.12901000  1
  V  V3  1  0.34550900  0.76973400  0.40098400  1
  V  V4  1  0.22617200  0.59782100  0.64590500  1
  V  V5  1  0.12072600  0.42468500  0.92312900  1
  V  V6  1  0.60556400  0.65077600  0.23142400  1
  V  V7  1  0.49285500  0.50355100  0.49985900  1
  V  V8  1  0.40236600  0.34865200  0.77001200  1
  V  V9  1  0.88274800  0.57797600  0.07846800  1
  V  V10  1  0.76325300  0.40250600  0.34647500  1
  V  V11  1  0.64086100  0.21856300  0.58773900  1
  V  V12  1  0.58353800  0.08033300  0.87913100  1
  V  V13  1  0.92457400  0.12073300  0.42393000  1
  O  O14  1  0.28980200  0.90390500  0.84291900  1
  O  O15  1  0.15047000  0.71392300  0.09207100  1
  O  O16  1  0.04721700  0.60625500  0.37450700  1
  O  O17  1  0.62554600  0.94388600  0.39151600  1
  O  O18  1  0.52016600  0.77985800  0.68205000  1
  O  O19  1  0.38593000  0.60917000  0.93749600  1
  O  O20  1  0.32669600  0.48424700  0.22183300  1
  O  O21  1  0.21374400  0.31599600  0.48560800  1
  O  O22  1  0.11420300  0.16577500  0.72848000  1
  O  O23  1  0.90678200  0.84739500  0.28715700  1
  O  O24  1  0.78287800  0.67133700  0.52164300  1
  O  O25  1  0.66780200  0.50889900  0.78218900  1
  O  O26  1  0.61515400  0.38157100  0.05835700  1
  O  O27  1  0.47965400  0.22363500  0.31881600  1
  O  O28  1  0.38080400  0.06523200  0.61683700  1
  O  O29  1  0.93380500  0.38609000  0.60847000  1
  O  O30  1  0.84082200  0.27696500  0.89203000  1
  O  O31  1  0.72179200  0.11225200  0.16203000  1
