# generated using pymatgen
data_Fe10O9F11
_symmetry_space_group_name_H-M   'P 1'
_cell_length_a   4.75083100
_cell_length_b   4.76354411
_cell_length_c   15.55150895
_cell_angle_alpha   90.34347707
_cell_angle_beta   90.36452300
_cell_angle_gamma   91.30001066
_symmetry_Int_Tables_number   1
_chemical_formula_structural   Fe10O9F11
_chemical_formula_sum   'Fe10 O9 F11'
_cell_volume   351.83863728
_cell_formula_units_Z   1
loop_
 _symmetry_equiv_pos_site_id
 _symmetry_equiv_pos_as_xyz
  1  'x, y, z'
loop_
 _atom_site_type_symbol
 _atom_site_label
 _atom_site_symmetry_multiplicity
 _atom_site_fract_x
 _atom_site_fract_y
 _atom_site_fract_z
 _atom_site_occupancy
  Fe  Fe0  1  0.99894300  0.00127500  0.00061300  1
  Fe  Fe1  1  0.97472600  0.95677900  0.20627400  1
  Fe  Fe2  1  0.04867100  0.00220400  0.40089000  1
  Fe  Fe3  1  0.04318300  0.99353100  0.59799000  1
  Fe  Fe4  1  0.03272200  0.01374500  0.79398900  1
  Fe  Fe5  1  0.51591100  0.50853900  0.09326900  1
  Fe  Fe6  1  0.46316100  0.49670300  0.49982700  1
  Fe  Fe7  1  0.47250200  0.51920100  0.29783100  1
  Fe  Fe8  1  0.45775400  0.50314300  0.70221800  1
  Fe  Fe9  1  0.49044400  0.48296700  0.90777200  1
  O  O10  1  0.18698300  0.80576900  0.30050600  1
  O  O11  1  0.20202500  0.81023000  0.49923000  1
  O  O12  1  0.19424400  0.81202800  0.69939500  1
  O  O13  1  0.30769400  0.30278900  0.00334600  1
  O  O14  1  0.31432700  0.31559600  0.39704500  1
  O  O15  1  0.30818400  0.31245800  0.60034900  1
  O  O16  1  0.31078200  0.31313100  0.80227100  1
  O  O17  1  0.69700000  0.69111600  0.99756900  1
  O  O18  1  0.67782600  0.67913000  0.20059100  1
  F  F19  1  0.19098700  0.79330000  0.10841900  1
  F  F20  1  0.20114300  0.80398700  0.89242800  1
  F  F21  1  0.28615500  0.28924100  0.20047900  1
  F  F22  1  0.70070100  0.70494300  0.40072800  1
  F  F23  1  0.69932400  0.70292500  0.59927000  1
  F  F24  1  0.70364300  0.70673200  0.79779300  1
  F  F25  1  0.79912400  0.18769000  0.11076900  1
  F  F26  1  0.81010900  0.19919600  0.49914100  1
  F  F27  1  0.79932600  0.19356900  0.30179000  1
  F  F28  1  0.80711200  0.19568200  0.89004700  1
  F  F29  1  0.80529400  0.20239800  0.69816200  1
