# generated using pymatgen
data_Fe4OF7
_symmetry_space_group_name_H-M   'P 1'
_cell_length_a   7.98214556
_cell_length_b   7.98214556
_cell_length_c   6.68426465
_cell_angle_alpha   65.27645058
_cell_angle_beta   65.27645058
_cell_angle_gamma   51.02030823
_symmetry_Int_Tables_number   1
_chemical_formula_structural   Fe4OF7
_chemical_formula_sum   'Fe8 O2 F14'
_cell_volume   293.37420982
_cell_formula_units_Z   2
loop_
 _symmetry_equiv_pos_site_id
 _symmetry_equiv_pos_as_xyz
  1  'x, y, z'
loop_
 _atom_site_type_symbol
 _atom_site_label
 _atom_site_symmetry_multiplicity
 _atom_site_fract_x
 _atom_site_fract_y
 _atom_site_fract_z
 _atom_site_occupancy
  Fe  Fe0  1  0.12156200  0.12156200  0.84915500  1
  Fe  Fe1  1  0.62762700  0.62762700  0.37027900  1
  Fe  Fe2  1  0.37237300  0.37237300  0.62972100  1
  Fe  Fe3  1  0.00000000  0.00000000  0.50000000  1
  Fe  Fe4  1  0.50000000  0.50000000  0.00000000  1
  Fe  Fe5  1  0.75998800  0.75998800  0.73218700  1
  Fe  Fe6  1  0.24001200  0.24001200  0.26781300  1
  Fe  Fe7  1  0.87843800  0.87843800  0.15084500  1
  O  O8  1  0.11740400  0.11740400  0.55614600  1
  O  O9  1  0.88259600  0.88259600  0.44385400  1
  F  F10  1  0.12030300  0.12030300  0.16667800  1
  F  F11  1  0.63348200  0.63348200  0.06109000  1
  F  F12  1  0.69492200  0.30507800  0.50000000  1
  F  F13  1  0.30507800  0.69492200  0.50000000  1
  F  F14  1  0.04802000  0.45062400  0.75386900  1
  F  F15  1  0.79477800  0.20522200  0.00000000  1
  F  F16  1  0.36651800  0.36651800  0.93891000  1
  F  F17  1  0.63232200  0.63232200  0.66906500  1
  F  F18  1  0.87969700  0.87969700  0.83332200  1
  F  F19  1  0.36767800  0.36767800  0.33093500  1
  F  F20  1  0.45062400  0.04802000  0.75386900  1
  F  F21  1  0.20522200  0.79477800  0.00000000  1
  F  F22  1  0.95198000  0.54937600  0.24613100  1
  F  F23  1  0.54937600  0.95198000  0.24613100  1
