# generated using pymatgen
data_Fe10O9F11
_symmetry_space_group_name_H-M   'P 1'
_cell_length_a   4.77055900
_cell_length_b   4.77376565
_cell_length_c   15.47769465
_cell_angle_alpha   90.11147614
_cell_angle_beta   90.13058213
_cell_angle_gamma   93.27107302
_symmetry_Int_Tables_number   1
_chemical_formula_structural   Fe10O9F11
_chemical_formula_sum   'Fe10 O9 F11'
_cell_volume   351.90579918
_cell_formula_units_Z   1
loop_
 _symmetry_equiv_pos_site_id
 _symmetry_equiv_pos_as_xyz
  1  'x, y, z'
loop_
 _atom_site_type_symbol
 _atom_site_label
 _atom_site_symmetry_multiplicity
 _atom_site_fract_x
 _atom_site_fract_y
 _atom_site_fract_z
 _atom_site_occupancy
  Fe  Fe0  1  0.00141500  0.99945400  0.00201100  1
  Fe  Fe1  1  0.97893100  0.96665500  0.20649800  1
  Fe  Fe2  1  0.03996700  0.01680500  0.39305200  1
  Fe  Fe3  1  0.99982800  0.97766500  0.60234800  1
  Fe  Fe4  1  0.03903900  0.01679700  0.79372300  1
  Fe  Fe5  1  0.51376100  0.50828000  0.09552600  1
  Fe  Fe6  1  0.49744800  0.47736400  0.50528800  1
  Fe  Fe7  1  0.47349700  0.52588200  0.30042900  1
  Fe  Fe8  1  0.46031200  0.51719500  0.69397900  1
  Fe  Fe9  1  0.49571600  0.48643800  0.90452800  1
  O  O10  1  0.20083600  0.80312700  0.30600400  1
  O  O11  1  0.18749100  0.81030300  0.70088700  1
  O  O12  1  0.30204000  0.29564100  0.00040500  1
  O  O13  1  0.31892700  0.31846400  0.40232200  1
  O  O14  1  0.29057900  0.29319500  0.59922000  1
  O  O15  1  0.31668000  0.32107800  0.80152700  1
  O  O16  1  0.70508600  0.69876100  0.99627500  1
  O  O17  1  0.67080200  0.67271200  0.19820600  1
  O  O18  1  0.69046400  0.69179700  0.59909700  1
  F  F19  1  0.19690300  0.79317200  0.09536200  1
  F  F20  1  0.19528300  0.80518700  0.49869100  1
  F  F21  1  0.19855200  0.81229800  0.89844500  1
  F  F22  1  0.28678200  0.29185800  0.19719200  1
  F  F23  1  0.70927400  0.71059200  0.40391000  1
  F  F24  1  0.70633800  0.71274700  0.80286100  1
  F  F25  1  0.79988900  0.19167400  0.09691700  1
  F  F26  1  0.81227500  0.18555300  0.49870200  1
  F  F27  1  0.79288300  0.21121600  0.30713200  1
  F  F28  1  0.81588100  0.19251400  0.89740500  1
  F  F29  1  0.80312000  0.19557200  0.70205600  1
