# generated using pymatgen
data_LiV8F33
_symmetry_space_group_name_H-M   'P 1'
_cell_length_a   8.77234161
_cell_length_b   8.77429838
_cell_length_c   18.54288165
_cell_angle_alpha   89.82737475
_cell_angle_beta   90.08632903
_cell_angle_gamma   120.00738318
_symmetry_Int_Tables_number   1
_chemical_formula_structural   LiV8F33
_chemical_formula_sum   'Li2 V16 F66'
_cell_volume   1235.95171876
_cell_formula_units_Z   2
loop_
 _symmetry_equiv_pos_site_id
 _symmetry_equiv_pos_as_xyz
  1  'x, y, z'
loop_
 _atom_site_type_symbol
 _atom_site_label
 _atom_site_symmetry_multiplicity
 _atom_site_fract_x
 _atom_site_fract_y
 _atom_site_fract_z
 _atom_site_occupancy
  Li  Li0  1  0.33285000  0.66742800  0.07887900  1
  Li  Li1  1  0.66715000  0.33457800  0.57887900  1
  V  V2  1  0.00837400  0.67372800  0.24848900  1
  V  V3  1  0.00610500  0.34248400  0.87799100  1
  V  V4  1  0.33631300  0.99306100  0.87833800  1
  V  V5  1  0.00015000  0.99977300  0.00084600  1
  V  V6  1  0.99985000  0.99962300  0.50084600  1
  V  V7  1  0.33341500  0.66725100  0.62670500  1
  V  V8  1  0.32751800  0.33581700  0.24861400  1
  V  V9  1  0.33532200  0.32748500  0.74895600  1
  V  V10  1  0.66467800  0.99216300  0.24895600  1
  V  V11  1  0.65738800  0.66268900  0.87830400  1
  V  V12  1  0.66368700  0.65674800  0.37833800  1
  V  V13  1  0.34261200  0.00530100  0.37830400  1
  V  V14  1  0.66658500  0.33383600  0.12670500  1
  V  V15  1  0.99162600  0.66535400  0.74848900  1
  V  V16  1  0.67248200  0.00829900  0.74861400  1
  V  V17  1  0.99389500  0.33637900  0.37799100  1
  F  F18  1  0.07049400  0.87099000  0.04646500  1
  F  F19  1  0.07599400  0.86367900  0.19760200  1
  F  F20  1  0.13003500  0.93281800  0.43193800  1
  F  F21  1  0.13887200  0.86868400  0.81021900  1
  F  F22  1  0.20032700  0.80092300  0.31442000  1
  F  F23  1  0.07029000  0.54085600  0.81440500  1
  F  F24  1  0.12141200  0.59284900  0.19421600  1
  F  F25  1  0.20276600  0.73383300  0.69474600  1
  F  F26  1  0.25035400  0.79707200  0.93000100  1
  F  F27  1  0.12269800  0.52484000  0.42840800  1
  F  F28  1  0.13449600  0.53907800  0.58080700  1
  F  F29  1  0.40228100  0.87651400  0.42878400  1
  F  F30  1  0.06800600  0.19775700  0.43189300  1
  F  F31  1  0.40541400  0.86611800  0.58062300  1
  F  F32  1  0.20180600  0.45196700  0.92942200  1
  F  F33  1  0.13137300  0.27005300  0.81048700  1
  F  F34  1  0.47073800  0.93047600  0.81462300  1
  F  F35  1  0.19889500  0.39983300  0.31407100  1
  F  F36  1  0.47115500  0.87922200  0.19425900  1
  F  F37  1  0.12924600  0.19863400  0.04596800  1
  F  F38  1  0.13737000  0.21312400  0.19785800  1
  F  F39  1  0.26624400  0.47012400  0.69524000  1
  F  F40  1  0.53056500  0.79683400  0.69506100  1
  F  F41  1  0.19954800  0.12788600  0.54629500  1
  F  F42  1  0.21271900  0.13808800  0.69790200  1
  F  F43  1  0.40802100  0.52956800  0.19382700  1
  F  F44  1  0.19675300  0.06649300  0.93157700  1
  F  F45  1  0.46012100  0.59523000  0.58063600  1
  F  F46  1  0.54759000  0.74905900  0.92945000  1
  F  F47  1  0.47525100  0.59718600  0.42851700  1
  F  F48  1  0.46010800  0.52949100  0.81456200  1
  F  F49  1  0.59978700  0.79888500  0.31441500  1
  F  F50  1  0.26944800  0.13092700  0.31042100  1
  F  F51  1  0.40021300  0.19909800  0.81441500  1
  F  F52  1  0.73055200  0.86147900  0.81042100  1
  F  F53  1  0.52926200  0.45973700  0.31462300  1
  F  F54  1  0.78728100  0.92536800  0.19790200  1
  F  F55  1  0.52884500  0.40806500  0.69425900  1
  F  F56  1  0.80045200  0.92833700  0.04629500  1
  F  F57  1  0.46943500  0.26626900  0.19506100  1
  F  F58  1  0.45241000  0.20147000  0.42945000  1
  F  F59  1  0.59771900  0.47423300  0.92878400  1
  F  F60  1  0.59458600  0.46070500  0.08062300  1
  F  F61  1  0.80324700  0.86974000  0.43157700  1
  F  F62  1  0.52474900  0.12193600  0.92851700  1
  F  F63  1  0.86996500  0.80278300  0.93193800  1
  F  F64  1  0.53987900  0.13511000  0.08063600  1
  F  F65  1  0.74964600  0.54671800  0.43000100  1
  F  F66  1  0.86112800  0.72981200  0.31021900  1
  F  F67  1  0.53989200  0.06938200  0.31456200  1
  F  F68  1  0.79967300  0.60059600  0.81442000  1
  F  F69  1  0.59197800  0.12154700  0.69382700  1
  F  F70  1  0.92950600  0.80049700  0.54646500  1
  F  F71  1  0.92400600  0.78768500  0.69760200  1
  F  F72  1  0.79723400  0.53106700  0.19474600  1
  F  F73  1  0.73375600  0.20388000  0.19524000  1
  F  F74  1  0.87858800  0.47143600  0.69421600  1
  F  F75  1  0.86550400  0.40458100  0.08080700  1
  F  F76  1  0.79819400  0.25016000  0.42942200  1
  F  F77  1  0.87730200  0.40214200  0.92840800  1
  F  F78  1  0.92971000  0.47056600  0.31440500  1
  F  F79  1  0.80110500  0.20093800  0.81407100  1
  F  F80  1  0.86862700  0.13868000  0.31048700  1
  F  F81  1  0.86263000  0.07575500  0.69785800  1
  F  F82  1  0.87075400  0.06938700  0.54596800  1
  F  F83  1  0.93199400  0.12975200  0.93189300  1
