# generated using pymatgen
data_Rb2CoO3
_symmetry_space_group_name_H-M   'P 1'
_cell_length_a   6.72103490
_cell_length_b   6.72103490
_cell_length_c   13.34539600
_cell_angle_alpha   90.00000000
_cell_angle_beta   90.00000000
_cell_angle_gamma   127.50100229
_symmetry_Int_Tables_number   1
_chemical_formula_structural   Rb2CoO3
_chemical_formula_sum   'Rb8 Co4 O12'
_cell_volume   478.26058599
_cell_formula_units_Z   4
loop_
 _symmetry_equiv_pos_site_id
 _symmetry_equiv_pos_as_xyz
  1  'x, y, z'
loop_
 _atom_site_type_symbol
 _atom_site_label
 _atom_site_symmetry_multiplicity
 _atom_site_fract_x
 _atom_site_fract_y
 _atom_site_fract_z
 _atom_site_occupancy
  Rb  Rb0  1  0.94098200  0.05901800  0.14044900  1
  Rb  Rb1  1  0.86345400  0.13654600  0.57630600  1
  Rb  Rb2  1  0.63654600  0.36345400  0.07630600  1
  Rb  Rb3  1  0.44098200  0.55901800  0.35955100  1
  Rb  Rb4  1  0.05901800  0.94098200  0.85955100  1
  Rb  Rb5  1  0.55901800  0.44098200  0.64044900  1
  Rb  Rb6  1  0.36345400  0.63654600  0.92369400  1
  Rb  Rb7  1  0.13654600  0.86345400  0.42369400  1
  Co  Co8  1  0.75656200  0.24343800  0.32931000  1
  Co  Co9  1  0.25656200  0.74343800  0.17069000  1
  Co  Co10  1  0.74343800  0.25656200  0.82931000  1
  Co  Co11  1  0.24343800  0.75656200  0.67069000  1
  O  O12  1  0.47107800  0.02892200  0.25000000  1
  O  O13  1  0.02892200  0.47107800  0.75000000  1
  O  O14  1  0.89933300  0.10066700  0.35988100  1
  O  O15  1  0.66838400  0.33161600  0.43592100  1
  O  O16  1  0.33161600  0.66838400  0.56407900  1
  O  O17  1  0.16838400  0.83161600  0.06407900  1
  O  O18  1  0.83161600  0.16838400  0.93592100  1
  O  O19  1  0.39933300  0.60066700  0.14011900  1
  O  O20  1  0.60066700  0.39933300  0.85988100  1
  O  O21  1  0.10066700  0.89933300  0.64011900  1
  O  O22  1  0.97107800  0.52892200  0.25000000  1
  O  O23  1  0.52892200  0.97107800  0.75000000  1
