# generated using pymatgen
data_ZnGaCo2
_symmetry_space_group_name_H-M   'P 1'
_cell_length_a   9.64214795
_cell_length_b   9.64214795
_cell_length_c   9.64214795
_cell_angle_alpha   120.05803938
_cell_angle_beta   120.04777733
_cell_angle_gamma   89.90838468
_symmetry_Int_Tables_number   1
_chemical_formula_structural   ZnGaCo2
_chemical_formula_sum   'Zn1 Ga1 Co2'
_cell_volume   633.37121452
_cell_formula_units_Z   1
loop_
 _symmetry_equiv_pos_site_id
 _symmetry_equiv_pos_as_xyz
  1  'x, y, z'
loop_
 _atom_site_type_symbol
 _atom_site_label
 _atom_site_symmetry_multiplicity
 _atom_site_fract_x
 _atom_site_fract_y
 _atom_site_fract_z
 _atom_site_occupancy
  Zn  Zn0  1  0.00000000  0.00000000  0.00000000  1
  Ga  Ga1  1  0.00000000  0.50000000  0.50000000  1
  Co  Co2  1  0.00000000  0.25592900  0.25592900  1
  Co  Co3  1  0.00000000  0.74407100  0.74407100  1
