# generated using pymatgen
data_CaMgB6H12O17
_symmetry_space_group_name_H-M   'P 1'
_cell_length_a   6.70067800
_cell_length_b   8.33751900
_cell_length_c   11.80535605
_cell_angle_alpha   77.88814540
_cell_angle_beta   90.00000000
_cell_angle_gamma   90.00000000
_symmetry_Int_Tables_number   1
_chemical_formula_structural   CaMgB6H12O17
_chemical_formula_sum   'Ca2 Mg2 B12 H24 O34'
_cell_volume   644.84893846
_cell_formula_units_Z   2
loop_
 _symmetry_equiv_pos_site_id
 _symmetry_equiv_pos_as_xyz
  1  'x, y, z'
loop_
 _atom_site_type_symbol
 _atom_site_label
 _atom_site_symmetry_multiplicity
 _atom_site_fract_x
 _atom_site_fract_y
 _atom_site_fract_z
 _atom_site_occupancy
  Ca  Ca0  1  0.47911000  0.25000000  0.50000000  1
  Ca  Ca1  1  0.52089000  0.75000000  0.50000000  1
  Mg  Mg2  1  0.00000000  0.50000000  0.00000000  1
  Mg  Mg3  1  0.00000000  0.00000000  0.00000000  1
  B  B4  1  0.50622600  0.15506700  0.23139200  1
  B  B5  1  0.28901500  0.40627400  0.22422200  1
  B  B6  1  0.49377400  0.65506700  0.23139200  1
  B  B7  1  0.71098500  0.90627400  0.22422200  1
  B  B8  1  0.76478700  0.04915200  0.38418800  1
  B  B9  1  0.23521300  0.54915200  0.38418800  1
  B  B10  1  0.76478700  0.45084800  0.61581200  1
  B  B11  1  0.23521300  0.95084800  0.61581200  1
  B  B12  1  0.28901500  0.09372600  0.77577800  1
  B  B13  1  0.50622600  0.34493300  0.76860800  1
  B  B14  1  0.71098500  0.59372600  0.77577800  1
  B  B15  1  0.49377400  0.84493300  0.76860800  1
  H  H16  1  0.65098900  0.09067700  0.02645300  1
  H  H17  1  0.21017400  0.23943800  0.06958200  1
  H  H18  1  0.34901100  0.59067700  0.02645300  1
  H  H19  1  0.62933400  0.45178700  0.09914300  1
  H  H20  1  0.78982600  0.73943800  0.06958200  1
  H  H21  1  0.97187400  0.02463000  0.22079600  1
  H  H22  1  0.37066600  0.95178700  0.09914300  1
  H  H23  1  0.02812600  0.52463000  0.22079600  1
  H  H24  1  0.01213300  0.20911900  0.34981500  1
  H  H25  1  0.16334100  0.00385400  0.44034000  1
  H  H26  1  0.98786700  0.70911900  0.34981500  1
  H  H27  1  0.83665900  0.50385400  0.44034000  1
  H  H28  1  0.16334100  0.49614600  0.55966000  1
  H  H29  1  0.01213300  0.29088100  0.65018500  1
  H  H30  1  0.83665900  0.99614600  0.55966000  1
  H  H31  1  0.98786700  0.79088100  0.65018500  1
  H  H32  1  0.97187400  0.47537000  0.77920400  1
  H  H33  1  0.62933400  0.04821300  0.90085700  1
  H  H34  1  0.02812600  0.97537000  0.77920400  1
  H  H35  1  0.21017400  0.26056200  0.93041800  1
  H  H36  1  0.37066600  0.54821300  0.90085700  1
  H  H37  1  0.65098900  0.40932300  0.97354700  1
  H  H38  1  0.78982600  0.76056200  0.93041800  1
  H  H39  1  0.34901100  0.90932300  0.97354700  1
  O  O40  1  0.12000100  0.25000000  0.00000000  1
  O  O41  1  0.72291100  0.40861300  0.04671600  1
  O  O42  1  0.87999900  0.75000000  0.00000000  1
  O  O43  1  0.54830900  0.02862100  0.17551800  1
  O  O44  1  0.27708900  0.90861300  0.04671600  1
  O  O45  1  0.34326600  0.25166600  0.19084800  1
  O  O46  1  0.09563200  0.46385000  0.16772800  1
  O  O47  1  0.45169100  0.52862100  0.17551800  1
  O  O48  1  0.65673400  0.75166600  0.19084800  1
  O  O49  1  0.90436800  0.96385000  0.16772800  1
  O  O50  1  0.61982400  0.17804500  0.32414700  1
  O  O51  1  0.97627200  0.09478100  0.35484800  1
  O  O52  1  0.27169200  0.39206200  0.34904500  1
  O  O53  1  0.38017600  0.67804500  0.32414700  1
  O  O54  1  0.02372800  0.59478100  0.35484800  1
  O  O55  1  0.72830800  0.89206200  0.34904500  1
  O  O56  1  0.71851200  0.03117900  0.50851100  1
  O  O57  1  0.71851200  0.46882100  0.49148900  1
  O  O58  1  0.28148800  0.53117900  0.50851100  1
  O  O59  1  0.28148800  0.96882100  0.49148900  1
  O  O60  1  0.27169200  0.10793800  0.65095500  1
  O  O61  1  0.97627200  0.40521900  0.64515200  1
  O  O62  1  0.61982400  0.32195500  0.67585300  1
  O  O63  1  0.72830800  0.60793800  0.65095500  1
  O  O64  1  0.02372800  0.90521900  0.64515200  1
  O  O65  1  0.38017600  0.82195500  0.67585300  1
  O  O66  1  0.09563200  0.03615000  0.83227200  1
  O  O67  1  0.34326600  0.24833400  0.80915200  1
  O  O68  1  0.54830900  0.47137900  0.82448200  1
  O  O69  1  0.90436800  0.53615000  0.83227200  1
  O  O70  1  0.65673400  0.74833400  0.80915200  1
  O  O71  1  0.72291100  0.09138700  0.95328400  1
  O  O72  1  0.45169100  0.97137900  0.82448200  1
  O  O73  1  0.27708900  0.59138700  0.95328400  1
