# generated using pymatgen
data_YNb2NO5
_symmetry_space_group_name_H-M   'P 1'
_cell_length_a   5.28401100
_cell_length_b   5.96342600
_cell_length_c   15.02774456
_cell_angle_alpha   89.69453914
_cell_angle_beta   90.00000000
_cell_angle_gamma   90.00000000
_symmetry_Int_Tables_number   1
_chemical_formula_structural   YNb2NO5
_chemical_formula_sum   'Y4 Nb8 N4 O20'
_cell_volume   473.52965280
_cell_formula_units_Z   4
loop_
 _symmetry_equiv_pos_site_id
 _symmetry_equiv_pos_as_xyz
  1  'x, y, z'
loop_
 _atom_site_type_symbol
 _atom_site_label
 _atom_site_symmetry_multiplicity
 _atom_site_fract_x
 _atom_site_fract_y
 _atom_site_fract_z
 _atom_site_occupancy
  Y  Y0  1  0.74378600  0.54883500  0.74705900  1
  Y  Y1  1  0.24404500  0.94775400  0.75127400  1
  Y  Y2  1  0.24378600  0.45116500  0.25294100  1
  Y  Y3  1  0.74404500  0.05224600  0.24872600  1
  Nb  Nb4  1  0.27849200  0.41765800  0.58522300  1
  Nb  Nb5  1  0.74880800  0.07118400  0.58405500  1
  Nb  Nb6  1  0.77849200  0.58234200  0.41477700  1
  Nb  Nb7  1  0.24880800  0.92881600  0.41594500  1
  Nb  Nb8  1  0.73930800  0.57371700  0.08199500  1
  Nb  Nb9  1  0.22508800  0.94206800  0.08574200  1
  Nb  Nb10  1  0.23930800  0.42628300  0.91800500  1
  Nb  Nb11  1  0.72508800  0.05793200  0.91425800  1
  N  N12  1  0.45678100  0.16464900  0.65061500  1
  N  N13  1  0.95678100  0.83535100  0.34938500  1
  N  N14  1  0.10807500  0.14004100  0.16750900  1
  N  N15  1  0.60807500  0.85995900  0.83249100  1
  O  O16  1  0.89595200  0.86417500  0.66565800  1
  O  O17  1  0.38988700  0.63634300  0.66679800  1
  O  O18  1  0.95810100  0.33923400  0.64782200  1
  O  O19  1  0.59226300  0.38300700  0.50571000  1
  O  O20  1  0.09243600  0.12467100  0.50377300  1
  O  O21  1  0.59243600  0.87532900  0.49622700  1
  O  O22  1  0.09226300  0.61699300  0.49429000  1
  O  O23  1  0.45810100  0.66076600  0.35217800  1
  O  O24  1  0.88988700  0.36365700  0.33320200  1
  O  O25  1  0.39595200  0.13582500  0.33434200  1
  O  O26  1  0.60674000  0.37563900  0.16756400  1
  O  O27  1  0.04595700  0.66008300  0.14906500  1
  O  O28  1  0.54695400  0.83812500  0.14706300  1
  O  O29  1  0.42166100  0.60870800  0.00353400  1
  O  O30  1  0.90566500  0.87445500  0.00714600  1
  O  O31  1  0.92166100  0.39129200  0.99646600  1
  O  O32  1  0.40566500  0.12554500  0.99285400  1
  O  O33  1  0.54595700  0.33991700  0.85093500  1
  O  O34  1  0.04695400  0.16187500  0.85293700  1
  O  O35  1  0.10674000  0.62436100  0.83243600  1
