# generated using pymatgen
data_SmH8S3N3O10
_symmetry_space_group_name_H-M   'P 1'
_cell_length_a   6.88543100
_cell_length_b   9.52340710
_cell_length_c   9.61747790
_cell_angle_alpha   67.57314189
_cell_angle_beta   81.72745608
_cell_angle_gamma   74.50078572
_symmetry_Int_Tables_number   1
_chemical_formula_structural   SmH8S3N3O10
_chemical_formula_sum   'Sm2 H16 S6 N6 O20'
_cell_volume   561.12499929
_cell_formula_units_Z   2
loop_
 _symmetry_equiv_pos_site_id
 _symmetry_equiv_pos_as_xyz
  1  'x, y, z'
loop_
 _atom_site_type_symbol
 _atom_site_label
 _atom_site_symmetry_multiplicity
 _atom_site_fract_x
 _atom_site_fract_y
 _atom_site_fract_z
 _atom_site_occupancy
  Sm  Sm0  1  0.87065000  0.92169600  0.81606600  1
  Sm  Sm1  1  0.12935000  0.07830400  0.18393400  1
  H  H2  1  0.98668800  0.61901600  0.27589400  1
  H  H3  1  0.84630700  0.58716700  0.87341700  1
  H  H4  1  0.79619600  0.51262700  0.68122600  1
  H  H5  1  0.66275900  0.64282900  0.97887300  1
  H  H6  1  0.62007600  0.75159300  0.44880900  1
  H  H7  1  0.60974000  0.67791800  0.31714600  1
  H  H8  1  0.45715500  0.62190400  0.72891700  1
  H  H9  1  0.41770400  0.81355600  0.69247100  1
  H  H10  1  0.58229600  0.18644400  0.30752900  1
  H  H11  1  0.54284500  0.37809600  0.27108300  1
  H  H12  1  0.39026000  0.32208200  0.68285400  1
  H  H13  1  0.37992400  0.24840700  0.55119100  1
  H  H14  1  0.33724100  0.35717100  0.02112700  1
  H  H15  1  0.20380400  0.48737300  0.31877400  1
  H  H16  1  0.15369300  0.41283300  0.12658300  1
  H  H17  1  0.01331200  0.38098400  0.72410600  1
  S  S18  1  0.69177000  0.91014100  0.21550100  1
  S  S19  1  0.75220800  0.30938800  0.88579800  1
  S  S20  1  0.78055800  0.24225500  0.43702500  1
  S  S21  1  0.21944200  0.75774500  0.56297500  1
  S  S22  1  0.24779200  0.69061200  0.11420200  1
  S  S23  1  0.30823000  0.08985900  0.78449900  1
  N  N24  1  0.88326500  0.43549300  0.76850600  1
  N  N25  1  0.68412700  0.74055400  0.34806600  1
  N  N26  1  0.43129600  0.73094200  0.64517900  1
  N  N27  1  0.56870400  0.26905800  0.35482100  1
  N  N28  1  0.31587300  0.25944600  0.65193400  1
  N  N29  1  0.11673500  0.56450700  0.23149400  1
  O  O30  1  0.82967800  0.96908400  0.27054100  1
  O  O31  1  0.76923700  0.67641900  0.90216500  1
  O  O32  1  0.95552600  0.22788500  0.32914400  1
  O  O33  1  0.77033300  0.87039800  0.08144000  1
  O  O34  1  0.50657300  0.97840300  0.80799700  1
  O  O35  1  0.75290800  0.37835400  0.47701400  1
  O  O36  1  0.77880800  0.17533000  0.83837500  1
  O  O37  1  0.83440500  0.26080200  0.03408300  1
  O  O38  1  0.78978600  0.09290800  0.56409300  1
  O  O39  1  0.54339900  0.40235000  0.87617900  1
  O  O40  1  0.45660100  0.59765000  0.12382100  1
  O  O41  1  0.21021400  0.90709200  0.43590700  1
  O  O42  1  0.16559500  0.73919800  0.96591700  1
  O  O43  1  0.22119200  0.82467000  0.16162500  1
  O  O44  1  0.24709200  0.62164600  0.52298600  1
  O  O45  1  0.49342700  0.02159700  0.19200300  1
  O  O46  1  0.22966700  0.12960200  0.91856000  1
  O  O47  1  0.04447400  0.77211500  0.67085600  1
  O  O48  1  0.23076300  0.32358100  0.09783500  1
  O  O49  1  0.17032200  0.03091600  0.72945900  1
