# generated using pymatgen
data_Gd2Nb2N2O5
_symmetry_space_group_name_H-M   'P 1'
_cell_length_a   7.89320981
_cell_length_b   13.58887318
_cell_length_c   5.54526757
_cell_angle_alpha   90.60591955
_cell_angle_beta   90.29651627
_cell_angle_gamma   98.48654524
_symmetry_Int_Tables_number   1
_chemical_formula_structural   Gd2Nb2N2O5
_chemical_formula_sum   'Gd8 Nb8 N8 O20'
_cell_volume   588.22533696
_cell_formula_units_Z   4
loop_
 _symmetry_equiv_pos_site_id
 _symmetry_equiv_pos_as_xyz
  1  'x, y, z'
loop_
 _atom_site_type_symbol
 _atom_site_label
 _atom_site_symmetry_multiplicity
 _atom_site_fract_x
 _atom_site_fract_y
 _atom_site_fract_z
 _atom_site_occupancy
  Gd  Gd0  1  0.12921400  0.56444400  0.34716400  1
  Gd  Gd1  1  0.22058700  0.91692600  0.76816100  1
  Gd  Gd2  1  0.27933400  0.12994100  0.25093400  1
  Gd  Gd3  1  0.34275000  0.38486600  0.75848100  1
  Gd  Gd4  1  0.66600300  0.60801900  0.27302100  1
  Gd  Gd5  1  0.72573500  0.87394400  0.74925500  1
  Gd  Gd6  1  0.77462300  0.08372400  0.27716100  1
  Gd  Gd7  1  0.86364600  0.43592600  0.82930700  1
  Nb  Nb8  1  0.07209800  0.32454400  0.28191200  1
  Nb  Nb9  1  0.01509200  0.10922200  0.75957600  1
  Nb  Nb10  1  0.41206700  0.67338700  0.78965500  1
  Nb  Nb11  1  0.46171100  0.88004700  0.27073000  1
  Nb  Nb12  1  0.53328100  0.12043300  0.76885300  1
  Nb  Nb13  1  0.60008300  0.32674800  0.27549700  1
  Nb  Nb14  1  0.97118600  0.87830000  0.25846200  1
  Nb  Nb15  1  0.92528300  0.67380600  0.79162500  1
  N  N16  1  0.08404500  0.41112400  0.55141600  1
  N  N17  1  0.22586000  0.88511900  0.33752600  1
  N  N18  1  0.94829700  0.98378700  0.54561600  1
  N  N19  1  0.86221900  0.56967500  0.55671000  1
  N  N20  1  0.77460300  0.11528300  0.84396900  1
  N  N21  1  0.82475200  0.30831900  0.17839700  1
  N  N22  1  0.98035600  0.82461300  0.92942400  1
  N  N23  1  0.92129700  0.58728500  0.05487300  1
  O  O24  1  0.02081900  0.18039700  0.43288600  1
  O  O25  1  0.17970600  0.69051800  0.66987700  1
  O  O26  1  0.14360800  0.43143900  0.05441400  1
  O  O27  1  0.06102500  0.02514700  0.04545200  1
  O  O28  1  0.13839800  0.22682000  0.94819300  1
  O  O29  1  0.36734200  0.61803500  0.08818700  1
  O  O30  1  0.42920300  0.82491200  0.92757800  1
  O  O31  1  0.27766100  0.08258100  0.65049600  1
  O  O32  1  0.32534700  0.29855600  0.37713800  1
  O  O33  1  0.41644700  0.55717100  0.58679800  1
  O  O34  1  0.55485300  0.97917300  0.53528300  1
  O  O35  1  0.51035300  0.77013200  0.45880300  1
  O  O36  1  0.48769100  0.23219500  0.96103200  1
  O  O37  1  0.44963300  0.02432600  0.03701400  1
  O  O38  1  0.58056900  0.44354500  0.08303200  1
  O  O39  1  0.66799300  0.69682100  0.86977000  1
  O  O40  1  0.72756700  0.92098400  0.14687200  1
  O  O41  1  0.56795900  0.17439700  0.43190300  1
  O  O42  1  0.62181300  0.38225300  0.59061600  1
  O  O43  1  0.85789100  0.77111800  0.44191200  1
