# generated using pymatgen
data_NaYIn2
_symmetry_space_group_name_H-M   'P 1'
_cell_length_a   12.66967747
_cell_length_b   12.66967747
_cell_length_c   12.66967747
_cell_angle_alpha   121.37656791
_cell_angle_beta   118.52082092
_cell_angle_gamma   90.10665047
_symmetry_Int_Tables_number   1
_chemical_formula_structural   NaYIn2
_chemical_formula_sum   'Na1 Y1 In2'
_cell_volume   1438.07308755
_cell_formula_units_Z   1
loop_
 _symmetry_equiv_pos_site_id
 _symmetry_equiv_pos_as_xyz
  1  'x, y, z'
loop_
 _atom_site_type_symbol
 _atom_site_label
 _atom_site_symmetry_multiplicity
 _atom_site_fract_x
 _atom_site_fract_y
 _atom_site_fract_z
 _atom_site_occupancy
  Na  Na0  1  0.00000000  0.00000000  0.00000000  1
  Y  Y1  1  0.00000000  0.50000000  0.50000000  1
  In  In2  1  0.00000000  0.25156400  0.25156400  1
  In  In3  1  0.00000000  0.74843600  0.74843600  1
