# generated using pymatgen
data_YNb2NO5
_symmetry_space_group_name_H-M   'P 1'
_cell_length_a   5.29444600
_cell_length_b   5.94350917
_cell_length_c   15.04335063
_cell_angle_alpha   89.67424666
_cell_angle_beta   89.30381138
_cell_angle_gamma   89.66570013
_symmetry_Int_Tables_number   1
_chemical_formula_structural   YNb2NO5
_chemical_formula_sum   'Y4 Nb8 N4 O20'
_cell_volume   473.32750129
_cell_formula_units_Z   4
loop_
 _symmetry_equiv_pos_site_id
 _symmetry_equiv_pos_as_xyz
  1  'x, y, z'
loop_
 _atom_site_type_symbol
 _atom_site_label
 _atom_site_symmetry_multiplicity
 _atom_site_fract_x
 _atom_site_fract_y
 _atom_site_fract_z
 _atom_site_occupancy
  Y  Y0  1  0.25052200  0.70182300  0.00141000  1
  Y  Y1  1  0.74947800  0.29817700  0.99859000  1
  Y  Y2  1  0.74977700  0.79348200  0.49701600  1
  Y  Y3  1  0.25022300  0.20651800  0.50298400  1
  Nb  Nb4  1  0.72027500  0.81281800  0.16266100  1
  Nb  Nb5  1  0.23288700  0.18508700  0.16993500  1
  Nb  Nb6  1  0.21629900  0.67823900  0.33401300  1
  Nb  Nb7  1  0.74774600  0.32744500  0.33757500  1
  Nb  Nb8  1  0.25225400  0.67255500  0.66242500  1
  Nb  Nb9  1  0.78370100  0.32176100  0.66598700  1
  Nb  Nb10  1  0.76711300  0.81491300  0.83006500  1
  Nb  Nb11  1  0.27972500  0.18718200  0.83733900  1
  N  N12  1  0.60849400  0.61217500  0.08208500  1
  N  N13  1  0.03448000  0.42218600  0.40213900  1
  N  N14  1  0.96552000  0.57781400  0.59786100  1
  N  N15  1  0.39150600  0.38782500  0.91791500  1
  O  O16  1  0.10279800  0.38511600  0.08552700  1
  O  O17  1  0.03781200  0.91949100  0.10150100  1
  O  O18  1  0.53675700  0.09083800  0.10070400  1
  O  O19  1  0.39583700  0.86873700  0.24263600  1
  O  O20  1  0.91689600  0.14171300  0.24757600  1
  O  O21  1  0.40020300  0.37262400  0.25515300  1
  O  O22  1  0.90368500  0.63234800  0.25660200  1
  O  O23  1  0.53186900  0.59259700  0.39788500  1
  O  O24  1  0.10361800  0.89517200  0.41613800  1
  O  O25  1  0.60111100  0.11804500  0.41911900  1
  O  O26  1  0.39888900  0.88195500  0.58088100  1
  O  O27  1  0.89638200  0.10482800  0.58386200  1
  O  O28  1  0.46813100  0.40740300  0.60211500  1
  O  O29  1  0.59979700  0.62737600  0.74484700  1
  O  O30  1  0.09631500  0.36765200  0.74339800  1
  O  O31  1  0.08310400  0.85828700  0.75242400  1
  O  O32  1  0.60416300  0.13126300  0.75736400  1
  O  O33  1  0.46324300  0.90916200  0.89929600  1
  O  O34  1  0.96218800  0.08050900  0.89849900  1
  O  O35  1  0.89720200  0.61488400  0.91447300  1
