# generated using pymatgen
data_NaV2O4
_symmetry_space_group_name_H-M   'P 1'
_cell_length_a   5.09222101
_cell_length_b   6.06516100
_cell_length_c   11.49360102
_cell_angle_alpha   90.00090968
_cell_angle_beta   90.00633616
_cell_angle_gamma   90.00057008
_symmetry_Int_Tables_number   1
_chemical_formula_structural   NaV2O4
_chemical_formula_sum   'Na4 V8 O16'
_cell_volume   354.98147732
_cell_formula_units_Z   4
loop_
 _symmetry_equiv_pos_site_id
 _symmetry_equiv_pos_as_xyz
  1  'x, y, z'
loop_
 _atom_site_type_symbol
 _atom_site_label
 _atom_site_symmetry_multiplicity
 _atom_site_fract_x
 _atom_site_fract_y
 _atom_site_fract_z
 _atom_site_occupancy
  Na  Na0  1  0.02614600  0.75000400  0.24979600  1
  Na  Na1  1  0.97387400  0.24999900  0.75020900  1
  Na  Na2  1  0.35037700  0.75001100  0.75024500  1
  Na  Na3  1  0.64964600  0.24999100  0.24974100  1
  V  V4  1  0.00900700  0.25000100  0.49199800  1
  V  V5  1  0.99095700  0.74999800  0.50802400  1
  V  V6  1  0.50004200  0.00000300  0.50003600  1
  V  V7  1  0.50004100  0.49999500  0.50003400  1
  V  V8  1  0.00921700  0.24999600  0.00811400  1
  V  V9  1  0.99078400  0.74999900  0.99187800  1
  V  V10  1  0.50001100  0.50000000  0.99996200  1
  V  V11  1  0.50002200  0.00000400  0.99995900  1
  O  O12  1  0.32236700  0.24999600  0.09375800  1
  O  O13  1  0.32252700  0.25000800  0.40654000  1
  O  O14  1  0.67735100  0.75004500  0.59350300  1
  O  O15  1  0.67758800  0.74994800  0.90620200  1
  O  O16  1  0.31335200  0.75000000  0.08344800  1
  O  O17  1  0.31308700  0.75000800  0.41659200  1
  O  O18  1  0.68692900  0.24999100  0.58338800  1
  O  O19  1  0.68664300  0.25000300  0.91652200  1
  O  O20  1  0.15846200  0.00328600  0.59265600  1
  O  O21  1  0.15867000  0.00333300  0.90719100  1
  O  O22  1  0.15844600  0.49671600  0.59265700  1
  O  O23  1  0.15867900  0.49666500  0.90719200  1
  O  O24  1  0.84154900  0.99676200  0.40736300  1
  O  O25  1  0.84156700  0.50323500  0.40736000  1
  O  O26  1  0.84133600  0.99666600  0.09281600  1
  O  O27  1  0.84132300  0.50333500  0.09281300  1
