# generated using pymatgen
data_B5W2
_symmetry_space_group_name_H-M   'P 1'
_cell_length_a   7.37628618
_cell_length_b   7.37628618
_cell_length_c   7.37628661
_cell_angle_alpha   24.25374530
_cell_angle_beta   24.25374530
_cell_angle_gamma   24.25374412
_symmetry_Int_Tables_number   1
_chemical_formula_structural   B5W2
_chemical_formula_sum   'B5 W2'
_cell_volume   59.52405036
_cell_formula_units_Z   1
loop_
 _symmetry_equiv_pos_site_id
 _symmetry_equiv_pos_as_xyz
  1  'x, y, z'
loop_
 _atom_site_type_symbol
 _atom_site_label
 _atom_site_symmetry_multiplicity
 _atom_site_fract_x
 _atom_site_fract_y
 _atom_site_fract_z
 _atom_site_occupancy
  B  B0  1  0.50000000  0.50000000  0.50000000  1
  B  B1  1  0.81491800  0.81491800  0.81491800  1
  B  B2  1  0.33109000  0.33109000  0.33109000  1
  B  B3  1  0.66891000  0.66891000  0.66891000  1
  B  B4  1  0.18508200  0.18508200  0.18508200  1
  W  W5  1  0.92355800  0.92355800  0.92355800  1
  W  W6  1  0.07644200  0.07644200  0.07644200  1
