# generated using pymatgen
data_Cu2P2O7
_symmetry_space_group_name_H-M   'P 1'
_cell_length_a   5.43781978
_cell_length_b   5.43781978
_cell_length_c   4.66546726
_cell_angle_alpha   76.38834348
_cell_angle_beta   76.38834348
_cell_angle_gamma   98.25038458
_symmetry_Int_Tables_number   1
_chemical_formula_structural   Cu2P2O7
_chemical_formula_sum   'Cu2 P2 O7'
_cell_volume   127.39542245
_cell_formula_units_Z   1
loop_
 _symmetry_equiv_pos_site_id
 _symmetry_equiv_pos_as_xyz
  1  'x, y, z'
loop_
 _atom_site_type_symbol
 _atom_site_label
 _atom_site_symmetry_multiplicity
 _atom_site_fract_x
 _atom_site_fract_y
 _atom_site_fract_z
 _atom_site_occupancy
  Cu  Cu0  1  0.31206600  0.68793400  0.50000000  1
  Cu  Cu1  1  0.68793400  0.31206600  0.50000000  1
  P  P2  1  0.80487100  0.80487100  0.90960400  1
  P  P3  1  0.19512900  0.19512900  0.09039600  1
  O  O4  1  0.35243000  0.04335500  0.26897100  1
  O  O5  1  0.95664500  0.64757000  0.73102900  1
  O  O6  1  0.64757000  0.95664500  0.73102900  1
  O  O7  1  0.04335500  0.35243000  0.26897100  1
  O  O8  1  0.00000000  0.00000000  0.00000000  1
  O  O9  1  0.37717800  0.37717800  0.77888800  1
  O  O10  1  0.62282200  0.62282200  0.22111200  1
