# generated using pymatgen
data_Na2ZnS2
_symmetry_space_group_name_H-M   'P 1'
_cell_length_a   7.11687092
_cell_length_b   7.11687092
_cell_length_c   7.11687092
_cell_angle_alpha   130.34214044
_cell_angle_beta   125.99368925
_cell_angle_gamma   76.40562560
_symmetry_Int_Tables_number   1
_chemical_formula_structural   Na2ZnS2
_chemical_formula_sum   'Na4 Zn2 S4'
_cell_volume   216.02512403
_cell_formula_units_Z   2
loop_
 _symmetry_equiv_pos_site_id
 _symmetry_equiv_pos_as_xyz
  1  'x, y, z'
loop_
 _atom_site_type_symbol
 _atom_site_label
 _atom_site_symmetry_multiplicity
 _atom_site_fract_x
 _atom_site_fract_y
 _atom_site_fract_z
 _atom_site_occupancy
  Na  Na0  1  0.49141100  0.14238300  0.34902800  1
  Na  Na1  1  0.50858900  0.85761700  0.65097200  1
  Na  Na2  1  0.20664500  0.35761700  0.84902800  1
  Na  Na3  1  0.79335500  0.64238300  0.15097200  1
  Zn  Zn4  1  0.00000000  0.25000000  0.25000000  1
  Zn  Zn5  1  0.00000000  0.75000000  0.75000000  1
  S  S6  1  0.32440300  0.61090600  0.71349600  1
  S  S7  1  0.67559700  0.38909400  0.28650400  1
  S  S8  1  0.10259000  0.88909400  0.21349600  1
  S  S9  1  0.89741000  0.11090600  0.78650400  1
