# generated using pymatgen
data_CsMg6C
_symmetry_space_group_name_H-M   'P 1'
_cell_length_a   8.41443972
_cell_length_b   8.41443972
_cell_length_c   3.37702800
_cell_angle_alpha   90.00000000
_cell_angle_beta   90.00000000
_cell_angle_gamma   120.56157098
_symmetry_Int_Tables_number   1
_chemical_formula_structural   CsMg6C
_chemical_formula_sum   'Cs1 Mg6 C1'
_cell_volume   205.88760974
_cell_formula_units_Z   1
loop_
 _symmetry_equiv_pos_site_id
 _symmetry_equiv_pos_as_xyz
  1  'x, y, z'
loop_
 _atom_site_type_symbol
 _atom_site_label
 _atom_site_symmetry_multiplicity
 _atom_site_fract_x
 _atom_site_fract_y
 _atom_site_fract_z
 _atom_site_occupancy
  Cs  Cs0  1  0.16041500  0.83958500  0.00000000  1
  Mg  Mg1  1  0.20286100  0.45193100  0.00000000  1
  Mg  Mg2  1  0.54806900  0.79713900  0.00000000  1
  Mg  Mg3  1  0.70704300  0.29295700  0.00000000  1
  Mg  Mg4  1  0.37116800  0.29909100  0.50000000  1
  Mg  Mg5  1  0.70090900  0.62883200  0.50000000  1
  Mg  Mg6  1  0.90494100  0.09505900  0.50000000  1
  C  C7  1  0.40459400  0.59540600  0.50000000  1
