# generated using pymatgen
data_VS2
_symmetry_space_group_name_H-M   'P 1'
_cell_length_a   3.19071000
_cell_length_b   3.19001801
_cell_length_c   11.45878227
_cell_angle_alpha   85.50323619
_cell_angle_beta   83.67825542
_cell_angle_gamma   60.04652872
_symmetry_Int_Tables_number   1
_chemical_formula_structural   VS2
_chemical_formula_sum   'V1 S2'
_cell_volume   100.40223239
_cell_formula_units_Z   1
loop_
 _symmetry_equiv_pos_site_id
 _symmetry_equiv_pos_as_xyz
  1  'x, y, z'
loop_
 _atom_site_type_symbol
 _atom_site_label
 _atom_site_symmetry_multiplicity
 _atom_site_fract_x
 _atom_site_fract_y
 _atom_site_fract_z
 _atom_site_occupancy
  V  V0  1  0.50000000  0.50000000  0.50000000  1
  S  S1  1  0.12273900  0.15218700  0.62881600  1
  S  S2  1  0.87726100  0.84781300  0.37118400  1
