# generated using pymatgen
data_CsHfMg14O15
_symmetry_space_group_name_H-M   'P 1'
_cell_length_a   4.12988100
_cell_length_b   8.37808500
_cell_length_c   11.53405600
_cell_angle_alpha   90.00000000
_cell_angle_beta   90.00000000
_cell_angle_gamma   90.00000000
_symmetry_Int_Tables_number   1
_chemical_formula_structural   CsHfMg14O15
_chemical_formula_sum   'Cs1 Hf1 Mg14 O15'
_cell_volume   399.08403609
_cell_formula_units_Z   1
loop_
 _symmetry_equiv_pos_site_id
 _symmetry_equiv_pos_as_xyz
  1  'x, y, z'
loop_
 _atom_site_type_symbol
 _atom_site_label
 _atom_site_symmetry_multiplicity
 _atom_site_fract_x
 _atom_site_fract_y
 _atom_site_fract_z
 _atom_site_occupancy
  Cs  Cs0  1  0.00000000  0.00000000  0.92625000  1
  Hf  Hf1  1  0.00000000  0.50000000  0.02620400  1
  Mg  Mg2  1  0.00000000  0.00000000  0.47157700  1
  Mg  Mg3  1  0.00000000  0.50000000  0.46224800  1
  Mg  Mg4  1  0.50000000  0.76765400  0.10013400  1
  Mg  Mg5  1  0.50000000  0.23234600  0.10013400  1
  Mg  Mg6  1  0.50000000  0.74328600  0.47620100  1
  Mg  Mg7  1  0.50000000  0.25671400  0.47620100  1
  Mg  Mg8  1  0.50000000  0.00000000  0.65577800  1
  Mg  Mg9  1  0.50000000  0.50000000  0.73128100  1
  Mg  Mg10  1  0.50000000  0.00000000  0.27486700  1
  Mg  Mg11  1  0.50000000  0.50000000  0.27962000  1
  Mg  Mg12  1  0.00000000  0.75368200  0.66106800  1
  Mg  Mg13  1  0.00000000  0.24631800  0.66106800  1
  Mg  Mg14  1  0.00000000  0.75327600  0.27771000  1
  Mg  Mg15  1  0.00000000  0.24672400  0.27771000  1
  O  O16  1  0.00000000  0.00000000  0.66466300  1
  O  O17  1  0.00000000  0.00000000  0.29731700  1
  O  O18  1  0.00000000  0.50000000  0.28365200  1
  O  O19  1  0.50000000  0.74554400  0.67373300  1
  O  O20  1  0.50000000  0.25445600  0.67373300  1
  O  O21  1  0.50000000  0.74929900  0.27843700  1
  O  O22  1  0.50000000  0.25070100  0.27843700  1
  O  O23  1  0.50000000  0.00000000  0.09186900  1
  O  O24  1  0.50000000  0.50000000  0.07644300  1
  O  O25  1  0.50000000  0.00000000  0.47891300  1
  O  O26  1  0.50000000  0.50000000  0.46446100  1
  O  O27  1  0.00000000  0.72305700  0.08490200  1
  O  O28  1  0.00000000  0.27694300  0.08490200  1
  O  O29  1  0.00000000  0.74573100  0.48024500  1
  O  O30  1  0.00000000  0.25426900  0.48024500  1
