# generated using pymatgen
data_Ti2CdO5
_symmetry_space_group_name_H-M   'P 1'
_cell_length_a   5.47321540
_cell_length_b   5.47321540
_cell_length_c   10.74472300
_cell_angle_alpha   90.00000000
_cell_angle_beta   90.00000000
_cell_angle_gamma   140.16474142
_symmetry_Int_Tables_number   1
_chemical_formula_structural   Ti2CdO5
_chemical_formula_sum   'Ti4 Cd2 O10'
_cell_volume   206.18415256
_cell_formula_units_Z   2
loop_
 _symmetry_equiv_pos_site_id
 _symmetry_equiv_pos_as_xyz
  1  'x, y, z'
loop_
 _atom_site_type_symbol
 _atom_site_label
 _atom_site_symmetry_multiplicity
 _atom_site_fract_x
 _atom_site_fract_y
 _atom_site_fract_z
 _atom_site_occupancy
  Ti  Ti0  1  0.87055200  0.12944800  0.56570800  1
  Ti  Ti1  1  0.87055200  0.12944800  0.93429200  1
  Ti  Ti2  1  0.12944800  0.87055200  0.06570800  1
  Ti  Ti3  1  0.12944800  0.87055200  0.43429200  1
  Cd  Cd4  1  0.80969000  0.19031000  0.25000000  1
  Cd  Cd5  1  0.19031000  0.80969000  0.75000000  1
  O  O6  1  0.95618900  0.04381100  0.10337200  1
  O  O7  1  0.95618900  0.04381100  0.39662800  1
  O  O8  1  0.68513600  0.31486400  0.05247500  1
  O  O9  1  0.68513600  0.31486400  0.44752500  1
  O  O10  1  0.18511800  0.81488200  0.25000000  1
  O  O11  1  0.81488200  0.18511800  0.75000000  1
  O  O12  1  0.31486400  0.68513600  0.55247500  1
  O  O13  1  0.04381100  0.95618900  0.60337200  1
  O  O14  1  0.31486400  0.68513600  0.94752500  1
  O  O15  1  0.04381100  0.95618900  0.89662800  1
