# generated using pymatgen
data_Ti3Co2Ni(PO4)6
_symmetry_space_group_name_H-M   'P 1'
_cell_length_a   8.50557471
_cell_length_b   8.50557471
_cell_length_c   8.50557490
_cell_angle_alpha   61.02742293
_cell_angle_beta   61.02742293
_cell_angle_gamma   61.02742042
_symmetry_Int_Tables_number   1
_chemical_formula_structural   Ti3Co2Ni(PO4)6
_chemical_formula_sum   'Ti3 Co2 Ni1 P6 O24'
_cell_volume   445.17454693
_cell_formula_units_Z   1
loop_
 _symmetry_equiv_pos_site_id
 _symmetry_equiv_pos_as_xyz
  1  'x, y, z'
loop_
 _atom_site_type_symbol
 _atom_site_label
 _atom_site_symmetry_multiplicity
 _atom_site_fract_x
 _atom_site_fract_y
 _atom_site_fract_z
 _atom_site_occupancy
  Ti  Ti0  1  0.85763600  0.85763600  0.85763600  1
  Ti  Ti1  1  0.64405100  0.64405100  0.64405100  1
  Ti  Ti2  1  0.35506600  0.35506600  0.35506600  1
  Co  Co3  1  0.00307300  0.00307300  0.00307300  1
  Co  Co4  1  0.50093800  0.50093800  0.50093800  1
  Ni  Ni5  1  0.14233900  0.14233900  0.14233900  1
  P  P6  1  0.54282400  0.95467600  0.24743300  1
  P  P7  1  0.24743300  0.54282400  0.95467600  1
  P  P8  1  0.04519300  0.75033000  0.45485000  1
  P  P9  1  0.75033000  0.45485000  0.04519300  1
  P  P10  1  0.45485000  0.04519300  0.75033000  1
  P  P11  1  0.95467600  0.24743300  0.54282400  1
  O  O12  1  0.51001300  0.88590000  0.67526600  1
  O  O13  1  0.88590000  0.67526600  0.51001300  1
  O  O14  1  0.74389900  0.94188100  0.08980900  1
  O  O15  1  0.67526600  0.51001300  0.88590000  1
  O  O16  1  0.39076600  0.98679100  0.18444900  1
  O  O17  1  0.56739500  0.75823000  0.41098700  1
  O  O18  1  0.08980900  0.74389900  0.94188100  1
  O  O19  1  0.41098700  0.56739500  0.75823000  1
  O  O20  1  0.99771800  0.81634300  0.61863300  1
  O  O21  1  0.75823000  0.41098700  0.56739500  1
  O  O22  1  0.05360600  0.90557600  0.26059600  1
  O  O23  1  0.81634300  0.61863300  0.99771800  1
  O  O24  1  0.18444900  0.39076600  0.98679100  1
  O  O25  1  0.94188100  0.08980900  0.74389900  1
  O  O26  1  0.24030900  0.58720200  0.44596600  1
  O  O27  1  0.98679100  0.18444900  0.39076600  1
  O  O28  1  0.58720200  0.44596600  0.24030900  1
  O  O29  1  0.90557600  0.26059600  0.05360600  1
  O  O30  1  0.44596600  0.24030900  0.58720200  1
  O  O31  1  0.61863300  0.99771800  0.81634300  1
  O  O32  1  0.31361400  0.49742100  0.11922300  1
  O  O33  1  0.26059600  0.05360600  0.90557600  1
  O  O34  1  0.11922300  0.31361400  0.49742100  1
  O  O35  1  0.49742100  0.11922300  0.31361400  1
