# generated using pymatgen
data_Fe10O9F11
_symmetry_space_group_name_H-M   'P 1'
_cell_length_a   4.78004343
_cell_length_b   4.78004343
_cell_length_c   15.41704200
_cell_angle_alpha   90.00000000
_cell_angle_beta   90.00000000
_cell_angle_gamma   95.58043932
_symmetry_Int_Tables_number   1
_chemical_formula_structural   Fe10O9F11
_chemical_formula_sum   'Fe10 O9 F11'
_cell_volume   350.59165655
_cell_formula_units_Z   1
loop_
 _symmetry_equiv_pos_site_id
 _symmetry_equiv_pos_as_xyz
  1  'x, y, z'
loop_
 _atom_site_type_symbol
 _atom_site_label
 _atom_site_symmetry_multiplicity
 _atom_site_fract_x
 _atom_site_fract_y
 _atom_site_fract_z
 _atom_site_occupancy
  Fe  Fe0  1  0.99468500  0.99468500  0.69806400  1
  Fe  Fe1  1  0.00002100  0.00002100  0.89974800  1
  Fe  Fe2  1  0.00002100  0.00002100  0.10025200  1
  Fe  Fe3  1  0.99468500  0.99468500  0.30193600  1
  Fe  Fe4  1  0.02387300  0.02387300  0.50000000  1
  Fe  Fe5  1  0.49939400  0.49939400  0.80224200  1
  Fe  Fe6  1  0.49939400  0.49939400  0.19775800  1
  Fe  Fe7  1  0.50020400  0.50020400  0.00000000  1
  Fe  Fe8  1  0.48857400  0.48857400  0.39363000  1
  Fe  Fe9  1  0.48857400  0.48857400  0.60637000  1
  O  O10  1  0.29396600  0.29396600  0.70308500  1
  O  O11  1  0.29930900  0.29930900  0.90066400  1
  O  O12  1  0.29930900  0.29930900  0.09933600  1
  O  O13  1  0.29396600  0.29396600  0.29691500  1
  O  O14  1  0.32740000  0.32740000  0.50000000  1
  O  O15  1  0.69759000  0.69759000  0.70060400  1
  O  O16  1  0.70018800  0.70018800  0.90037500  1
  O  O17  1  0.70018800  0.70018800  0.09962500  1
  O  O18  1  0.69759000  0.69759000  0.29939600  1
  F  F19  1  0.80529800  0.19004000  0.80015800  1
  F  F20  1  0.80702600  0.19280600  0.00000000  1
  F  F21  1  0.80529800  0.19004000  0.19984200  1
  F  F22  1  0.79836500  0.20165700  0.39560800  1
  F  F23  1  0.79836500  0.20165700  0.60439200  1
  F  F24  1  0.71052100  0.71052100  0.50000000  1
  F  F25  1  0.19004000  0.80529800  0.80015800  1
  F  F26  1  0.19004000  0.80529800  0.19984200  1
  F  F27  1  0.19280600  0.80702600  0.00000000  1
  F  F28  1  0.20165700  0.79836500  0.60439200  1
  F  F29  1  0.20165700  0.79836500  0.39560800  1
