# generated using pymatgen
data_V4O5F7
_symmetry_space_group_name_H-M   'P 1'
_cell_length_a   5.24811000
_cell_length_b   5.38496841
_cell_length_c   7.48378519
_cell_angle_alpha   91.91191415
_cell_angle_beta   90.03637361
_cell_angle_gamma   91.07704953
_symmetry_Int_Tables_number   1
_chemical_formula_structural   V4O5F7
_chemical_formula_sum   'V4 O5 F7'
_cell_volume   211.34329763
_cell_formula_units_Z   1
loop_
 _symmetry_equiv_pos_site_id
 _symmetry_equiv_pos_as_xyz
  1  'x, y, z'
loop_
 _atom_site_type_symbol
 _atom_site_label
 _atom_site_symmetry_multiplicity
 _atom_site_fract_x
 _atom_site_fract_y
 _atom_site_fract_z
 _atom_site_occupancy
  V  V0  1  0.45728500  0.47439400  0.48573300  1
  V  V1  1  0.52562700  0.53577100  0.00796600  1
  V  V2  1  0.97238000  0.96592400  0.49552200  1
  V  V3  1  0.03520500  0.02786400  0.99368400  1
  O  O4  1  0.21841900  0.28045500  0.53471500  1
  O  O5  1  0.28515600  0.21601900  0.96262500  1
  O  O6  1  0.42367800  0.50462800  0.26224500  1
  O  O7  1  0.71805800  0.78377300  0.03639000  1
  O  O8  1  0.78590700  0.71590500  0.46967300  1
  F  F9  1  0.09939900  0.98283400  0.25033800  1
  F  F10  1  0.20947900  0.71026300  0.94932300  1
  F  F11  1  0.29036000  0.78369900  0.55266700  1
  F  F12  1  0.57826900  0.49231100  0.74510900  1
  F  F13  1  0.71347600  0.21951700  0.45077600  1
  F  F14  1  0.78784400  0.28633900  0.05338800  1
  F  F15  1  0.89945900  0.02030300  0.74984500  1
