# generated using pymatgen
data_KMg6Nb
_symmetry_space_group_name_H-M   'P 1'
_cell_length_a   6.50896025
_cell_length_b   6.50896025
_cell_length_c   5.12415500
_cell_angle_alpha   90.00000000
_cell_angle_beta   90.00000000
_cell_angle_gamma   120.00000253
_symmetry_Int_Tables_number   1
_chemical_formula_structural   KMg6Nb
_chemical_formula_sum   'K1 Mg6 Nb1'
_cell_volume   188.00790817
_cell_formula_units_Z   1
loop_
 _symmetry_equiv_pos_site_id
 _symmetry_equiv_pos_as_xyz
  1  'x, y, z'
loop_
 _atom_site_type_symbol
 _atom_site_label
 _atom_site_symmetry_multiplicity
 _atom_site_fract_x
 _atom_site_fract_y
 _atom_site_fract_z
 _atom_site_occupancy
  K  K0  1  0.66666700  0.33333300  0.00000000  1
  Mg  Mg1  1  0.69877200  0.84938600  0.00000000  1
  Mg  Mg2  1  0.15061400  0.30122800  0.00000000  1
  Mg  Mg3  1  0.15061400  0.84938600  0.00000000  1
  Mg  Mg4  1  0.01338800  0.50669400  0.50000000  1
  Mg  Mg5  1  0.49330600  0.98661200  0.50000000  1
  Mg  Mg6  1  0.49330600  0.50669400  0.50000000  1
  Nb  Nb7  1  0.00000000  0.00000000  0.50000000  1
