# generated using pymatgen
data_Fe10O9F11
_symmetry_space_group_name_H-M   'P 1'
_cell_length_a   15.50504700
_cell_length_b   4.75466400
_cell_length_c   4.76634039
_cell_angle_alpha   87.82228338
_cell_angle_beta   90.00000000
_cell_angle_gamma   90.00000000
_symmetry_Int_Tables_number   1
_chemical_formula_structural   Fe10O9F11
_chemical_formula_sum   'Fe10 O9 F11'
_cell_volume   351.12697893
_cell_formula_units_Z   1
loop_
 _symmetry_equiv_pos_site_id
 _symmetry_equiv_pos_as_xyz
  1  'x, y, z'
loop_
 _atom_site_type_symbol
 _atom_site_label
 _atom_site_symmetry_multiplicity
 _atom_site_fract_x
 _atom_site_fract_y
 _atom_site_fract_z
 _atom_site_occupancy
  Fe  Fe0  1  0.30286600  0.99443300  0.98574100  1
  Fe  Fe1  1  0.50000000  0.97674300  0.97422200  1
  Fe  Fe2  1  0.69713400  0.99443300  0.98574100  1
  Fe  Fe3  1  0.90898300  0.97146200  0.01185600  1
  Fe  Fe4  1  0.09101700  0.97146200  0.01185600  1
  Fe  Fe5  1  0.38804000  0.52394700  0.52256900  1
  Fe  Fe6  1  0.79766000  0.50243600  0.48052200  1
  Fe  Fe7  1  0.61196000  0.52394700  0.52256900  1
  Fe  Fe8  1  0.00000000  0.54329600  0.50232800  1
  Fe  Fe9  1  0.20234000  0.50243600  0.48052200  1
  O  O10  1  0.40171500  0.81175200  0.80603500  1
  O  O11  1  0.59828500  0.81175200  0.80603500  1
  O  O12  1  0.00000000  0.79831000  0.79951000  1
  O  O13  1  0.29909200  0.70205300  0.29534900  1
  O  O14  1  0.70090800  0.70205300  0.29534900  1
  O  O15  1  0.89689300  0.68556000  0.31502500  1
  O  O16  1  0.10310700  0.68556000  0.31502500  1
  O  O17  1  0.29687300  0.30220900  0.69481400  1
  O  O18  1  0.70312700  0.30220900  0.69481400  1
  F  F19  1  0.79936500  0.80071300  0.80257400  1
  F  F20  1  0.20063500  0.80071300  0.80257400  1
  F  F21  1  0.50000000  0.69560200  0.31168600  1
  F  F22  1  0.50000000  0.31597700  0.69311600  1
  F  F23  1  0.89895700  0.29582200  0.70530400  1
  F  F24  1  0.10104300  0.29582200  0.70530400  1
  F  F25  1  0.40489800  0.19881000  0.19367800  1
  F  F26  1  0.79935000  0.18912400  0.18772700  1
  F  F27  1  0.59510200  0.19881000  0.19367800  1
  F  F28  1  0.20065000  0.18912400  0.18772700  1
  F  F29  1  0.00000000  0.21343100  0.21675400  1
