# generated using pymatgen
data_Co3OF5
_symmetry_space_group_name_H-M   'P 1'
_cell_length_a   4.71915300
_cell_length_b   5.69472028
_cell_length_c   7.90528300
_cell_angle_alpha   87.35846921
_cell_angle_beta   88.53203279
_cell_angle_gamma   88.27782488
_symmetry_Int_Tables_number   1
_chemical_formula_structural   Co3OF5
_chemical_formula_sum   'Co6 O2 F10'
_cell_volume   212.06451625
_cell_formula_units_Z   2
loop_
 _symmetry_equiv_pos_site_id
 _symmetry_equiv_pos_as_xyz
  1  'x, y, z'
loop_
 _atom_site_type_symbol
 _atom_site_label
 _atom_site_symmetry_multiplicity
 _atom_site_fract_x
 _atom_site_fract_y
 _atom_site_fract_z
 _atom_site_occupancy
  Co  Co0  1  0.50000000  0.50000000  0.00000000  1
  Co  Co1  1  0.48429300  0.17968700  0.33699100  1
  Co  Co2  1  0.51570700  0.82031300  0.66300900  1
  Co  Co3  1  0.97140800  0.34958800  0.67683400  1
  Co  Co4  1  0.02859200  0.65041200  0.32316600  1
  Co  Co5  1  0.00000000  0.00000000  0.00000000  1
  O  O6  1  0.70119400  0.53137700  0.76998300  1
  O  O7  1  0.29880600  0.46862300  0.23001700  1
  F  F8  1  0.80630900  0.36951000  0.43605500  1
  F  F9  1  0.80588600  0.03606400  0.76399200  1
  F  F10  1  0.80436100  0.70408800  0.10505900  1
  F  F11  1  0.69536400  0.20091700  0.10353800  1
  F  F12  1  0.70570900  0.86419200  0.42712400  1
  F  F13  1  0.29429100  0.13580800  0.57287600  1
  F  F14  1  0.30463600  0.79908300  0.89646200  1
  F  F15  1  0.19411400  0.96393600  0.23600800  1
  F  F16  1  0.19563900  0.29591200  0.89494100  1
  F  F17  1  0.19369100  0.63049000  0.56394500  1
