# generated using pymatgen
data_Ni6OF11
_symmetry_space_group_name_H-M   'P 1'
_cell_length_a   5.63576113
_cell_length_b   5.63576113
_cell_length_c   7.30872937
_cell_angle_alpha   72.74159722
_cell_angle_beta   72.74159722
_cell_angle_gamma   72.70963772
_symmetry_Int_Tables_number   1
_chemical_formula_structural   Ni6OF11
_chemical_formula_sum   'Ni6 O1 F11'
_cell_volume   206.06065144
_cell_formula_units_Z   1
loop_
 _symmetry_equiv_pos_site_id
 _symmetry_equiv_pos_as_xyz
  1  'x, y, z'
loop_
 _atom_site_type_symbol
 _atom_site_label
 _atom_site_symmetry_multiplicity
 _atom_site_fract_x
 _atom_site_fract_y
 _atom_site_fract_z
 _atom_site_occupancy
  Ni  Ni0  1  0.33326100  0.33326100  0.16656000  1
  Ni  Ni1  1  0.66518200  0.66518200  0.33950900  1
  Ni  Ni2  1  0.33990700  0.33990700  0.66813100  1
  Ni  Ni3  1  0.00097500  0.00097500  0.49989300  1
  Ni  Ni4  1  0.66309800  0.66309800  0.82845700  1
  Ni  Ni5  1  0.99826400  0.99826400  0.99939700  1
  O  O6  1  0.56619800  0.56619800  0.62963700  1
  F  F7  1  0.96984500  0.36218000  0.33298500  1
  F  F8  1  0.63872900  0.03034400  0.66697700  1
  F  F9  1  0.10567400  0.10567400  0.70086900  1
  F  F10  1  0.76388800  0.76388800  0.03657000  1
  F  F11  1  0.43358000  0.43358000  0.36865600  1
  F  F12  1  0.89883500  0.89883500  0.29742600  1
  F  F13  1  0.23137300  0.23137300  0.96500400  1
  F  F14  1  0.69643700  0.30223000  0.99998300  1
  F  F15  1  0.36218000  0.96984500  0.33298500  1
  F  F16  1  0.03034400  0.63872900  0.66697700  1
  F  F17  1  0.30223000  0.69643700  0.99998300  1
