# generated using pymatgen
data_Mn3(OF2)2
_symmetry_space_group_name_H-M   'P 1'
_cell_length_a   4.89597900
_cell_length_b   4.89598000
_cell_length_c   9.35924200
_cell_angle_alpha   89.99997605
_cell_angle_beta   90.00001782
_cell_angle_gamma   89.99871271
_symmetry_Int_Tables_number   1
_chemical_formula_structural   Mn3(OF2)2
_chemical_formula_sum   'Mn6 O4 F8'
_cell_volume   224.34678912
_cell_formula_units_Z   2
loop_
 _symmetry_equiv_pos_site_id
 _symmetry_equiv_pos_as_xyz
  1  'x, y, z'
loop_
 _atom_site_type_symbol
 _atom_site_label
 _atom_site_symmetry_multiplicity
 _atom_site_fract_x
 _atom_site_fract_y
 _atom_site_fract_z
 _atom_site_occupancy
  Mn  Mn0  1  0.50000100  0.49999400  0.16525100  1
  Mn  Mn1  1  0.00000400  0.00000000  0.31696100  1
  Mn  Mn2  1  0.49999600  0.50000900  0.51620400  1
  Mn  Mn3  1  0.00000000  0.00000000  0.66531600  1
  Mn  Mn4  1  0.00000100  0.00000000  0.01610600  1
  Mn  Mn5  1  0.50000600  0.49999800  0.81707100  1
  O  O6  1  0.18303300  0.81696600  0.16634200  1
  O  O7  1  0.31698000  0.31697800  0.66630500  1
  O  O8  1  0.68302000  0.68301900  0.66630400  1
  O  O9  1  0.81696400  0.18303500  0.16634200  1
  F  F10  1  0.18676900  0.81323300  0.48119900  1
  F  F11  1  0.18573600  0.81426500  0.85326400  1
  F  F12  1  0.31324300  0.31324400  0.98119600  1
  F  F13  1  0.31426200  0.31426400  0.35324300  1
  F  F14  1  0.68675500  0.68675700  0.98119600  1
  F  F15  1  0.68573500  0.68573400  0.35324300  1
  F  F16  1  0.81323100  0.18676900  0.48120000  1
  F  F17  1  0.81426400  0.18573600  0.85326200  1
