# generated using pymatgen
data_Fe10O9F11
_symmetry_space_group_name_H-M   'P 1'
_cell_length_a   4.75187200
_cell_length_b   4.75985437
_cell_length_c   15.44768320
_cell_angle_alpha   90.31677280
_cell_angle_beta   89.98770460
_cell_angle_gamma   93.45560706
_symmetry_Int_Tables_number   1
_chemical_formula_structural   Fe10O9F11
_chemical_formula_sum   'Fe10 O9 F11'
_cell_volume   348.75846679
_cell_formula_units_Z   1
loop_
 _symmetry_equiv_pos_site_id
 _symmetry_equiv_pos_as_xyz
  1  'x, y, z'
loop_
 _atom_site_type_symbol
 _atom_site_label
 _atom_site_symmetry_multiplicity
 _atom_site_fract_x
 _atom_site_fract_y
 _atom_site_fract_z
 _atom_site_occupancy
  Fe  Fe0  1  0.99650900  0.99467500  0.99659800  1
  Fe  Fe1  1  0.00409900  0.00416100  0.20070400  1
  Fe  Fe2  1  0.97868000  0.96016200  0.40812100  1
  Fe  Fe3  1  0.04876700  0.00038700  0.60346300  1
  Fe  Fe4  1  0.02531900  0.01202600  0.79348900  1
  Fe  Fe5  1  0.50012800  0.49963100  0.09911900  1
  Fe  Fe6  1  0.47019000  0.52819400  0.49954100  1
  Fe  Fe7  1  0.51295900  0.50572600  0.29215800  1
  Fe  Fe8  1  0.45799300  0.50237900  0.70243500  1
  Fe  Fe9  1  0.49272200  0.48673900  0.90702400  1
  O  O10  1  0.18870700  0.80728500  0.49800400  1
  O  O11  1  0.20918500  0.80398400  0.69523500  1
  O  O12  1  0.29670900  0.29387000  0.00432000  1
  O  O13  1  0.30177100  0.29938800  0.20106300  1
  O  O14  1  0.31535200  0.31890200  0.59514000  1
  O  O15  1  0.31908300  0.32083300  0.80587300  1
  O  O16  1  0.70068600  0.69727000  0.00192900  1
  O  O17  1  0.70472000  0.70210500  0.19843500  1
  O  O18  1  0.67706900  0.67869600  0.39679300  1
  F  F19  1  0.19239000  0.80712300  0.10142900  1
  F  F20  1  0.18774400  0.80191900  0.30101800  1
  F  F21  1  0.20347500  0.79792400  0.90497300  1
  F  F22  1  0.28760100  0.28958300  0.39447100  1
  F  F23  1  0.70399000  0.70985400  0.59865600  1
  F  F24  1  0.70424000  0.70283100  0.80343900  1
  F  F25  1  0.80822000  0.19050800  0.10140800  1
  F  F26  1  0.80177400  0.19201100  0.49705000  1
  F  F27  1  0.80652300  0.18550900  0.30232100  1
  F  F28  1  0.80271400  0.19622900  0.90339100  1
  F  F29  1  0.80068000  0.21009500  0.69240400  1
