# generated using pymatgen
data_Fe2Sb(PO4)3
_symmetry_space_group_name_H-M   'P 1'
_cell_length_a   8.85185899
_cell_length_b   8.85185899
_cell_length_c   8.85185909
_cell_angle_alpha   58.79418779
_cell_angle_beta   58.79418779
_cell_angle_gamma   58.79419307
_symmetry_Int_Tables_number   1
_chemical_formula_structural   Fe2Sb(PO4)3
_chemical_formula_sum   'Fe4 Sb2 P6 O24'
_cell_volume   476.93714690
_cell_formula_units_Z   2
loop_
 _symmetry_equiv_pos_site_id
 _symmetry_equiv_pos_as_xyz
  1  'x, y, z'
loop_
 _atom_site_type_symbol
 _atom_site_label
 _atom_site_symmetry_multiplicity
 _atom_site_fract_x
 _atom_site_fract_y
 _atom_site_fract_z
 _atom_site_occupancy
  Fe  Fe0  1  0.85084500  0.85084500  0.85084500  1
  Fe  Fe1  1  0.64915500  0.64915500  0.64915500  1
  Fe  Fe2  1  0.35084500  0.35084500  0.35084500  1
  Fe  Fe3  1  0.14915500  0.14915500  0.14915500  1
  Sb  Sb4  1  0.00000000  0.00000000  0.00000000  1
  Sb  Sb5  1  0.50000000  0.50000000  0.50000000  1
  P  P6  1  0.54073900  0.95926100  0.25000000  1
  P  P7  1  0.25000000  0.54073900  0.95926100  1
  P  P8  1  0.95926100  0.25000000  0.54073900  1
  P  P9  1  0.04073900  0.75000000  0.45926100  1
  P  P10  1  0.75000000  0.45926100  0.04073900  1
  P  P11  1  0.45926100  0.04073900  0.75000000  1
  O  O12  1  0.49293800  0.88377300  0.69727800  1
  O  O13  1  0.88377300  0.69727800  0.49293800  1
  O  O14  1  0.73322400  0.94000600  0.08292300  1
  O  O15  1  0.69727800  0.49293800  0.88377300  1
  O  O16  1  0.38377300  0.99293800  0.19727800  1
  O  O17  1  0.55999400  0.76677600  0.41707700  1
  O  O18  1  0.08292300  0.73322400  0.94000600  1
  O  O19  1  0.41707700  0.55999400  0.76677600  1
  O  O20  1  0.00706200  0.80272200  0.61622700  1
  O  O21  1  0.76677600  0.41707700  0.55999400  1
  O  O22  1  0.05999400  0.91707700  0.26677600  1
  O  O23  1  0.80272200  0.61622700  0.00706200  1
  O  O24  1  0.19727800  0.38377300  0.99293800  1
  O  O25  1  0.94000600  0.08292300  0.73322400  1
  O  O26  1  0.23322400  0.58292300  0.44000600  1
  O  O27  1  0.99293800  0.19727800  0.38377300  1
  O  O28  1  0.58292300  0.44000600  0.23322400  1
  O  O29  1  0.91707700  0.26677600  0.05999400  1
  O  O30  1  0.44000600  0.23322400  0.58292300  1
  O  O31  1  0.61622700  0.00706200  0.80272200  1
  O  O32  1  0.30272200  0.50706200  0.11622700  1
  O  O33  1  0.26677600  0.05999400  0.91707700  1
  O  O34  1  0.11622700  0.30272200  0.50706200  1
  O  O35  1  0.50706200  0.11622700  0.30272200  1
