# generated using pymatgen
data_Li3Mn4(P2O7)4
_symmetry_space_group_name_H-M   'P 1'
_cell_length_a   9.71749409
_cell_length_b   9.63057768
_cell_length_c   11.02027785
_cell_angle_alpha   89.77900351
_cell_angle_beta   100.75230416
_cell_angle_gamma   90.32568356
_symmetry_Int_Tables_number   1
_chemical_formula_structural   Li3Mn4(P2O7)4
_chemical_formula_sum   'Li6 Mn8 P16 O56'
_cell_volume   1013.20589656
_cell_formula_units_Z   2
loop_
 _symmetry_equiv_pos_site_id
 _symmetry_equiv_pos_as_xyz
  1  'x, y, z'
loop_
 _atom_site_type_symbol
 _atom_site_label
 _atom_site_symmetry_multiplicity
 _atom_site_fract_x
 _atom_site_fract_y
 _atom_site_fract_z
 _atom_site_occupancy
  Li  Li0  1  0.15209900  0.39296400  0.04295500  1
  Li  Li1  1  0.39009500  0.95858000  0.49769200  1
  Li  Li2  1  0.58137800  0.40388800  0.01956400  1
  Li  Li3  1  0.91164800  0.90576300  0.98141200  1
  Li  Li4  1  0.83291600  0.58139100  0.46188800  1
  Li  Li5  1  0.88701600  0.28470300  0.54303800  1
  Mn  Mn6  1  0.19715400  0.93103200  0.67328000  1
  Mn  Mn7  1  0.28288400  0.22371300  0.83784900  1
  Mn  Mn8  1  0.21866600  0.72666600  0.16034200  1
  Mn  Mn9  1  0.30876900  0.42802600  0.33997100  1
  Mn  Mn10  1  0.69360400  0.57550600  0.67694800  1
  Mn  Mn11  1  0.77329400  0.27740800  0.83547700  1
  Mn  Mn12  1  0.72148400  0.77294900  0.16241100  1
  Mn  Mn13  1  0.80712000  0.06590500  0.33183300  1
  P  P14  1  0.02367100  0.44618700  0.75286900  1
  P  P15  1  0.11374000  0.71919600  0.87454800  1
  P  P16  1  0.07269100  0.92728700  0.24610400  1
  P  P17  1  0.13165400  0.15381600  0.42706200  1
  P  P18  1  0.37363400  0.65026600  0.57784600  1
  P  P19  1  0.42419300  0.42096300  0.75108800  1
  P  P20  1  0.52156400  0.05214100  0.74218200  1
  P  P21  1  0.38705600  0.21135000  0.12483700  1
  P  P22  1  0.60847000  0.78492300  0.88188700  1
  P  P23  1  0.47184200  0.93195800  0.24231800  1
  P  P24  1  0.56850600  0.56872100  0.24277500  1
  P  P25  1  0.62646300  0.34339600  0.42353000  1
  P  P26  1  0.87478200  0.85414200  0.57728200  1
  P  P27  1  0.93049100  0.07569900  0.76041200  1
  P  P28  1  0.88168000  0.28749900  0.11935300  1
  P  P29  1  0.97147000  0.55981200  0.24555200  1
  O  O30  1  0.01716900  0.41512000  0.62009600  1
  O  O31  1  0.03418100  0.84583200  0.58073500  1
  O  O32  1  0.08280400  0.07927700  0.73590600  1
  O  O33  1  0.11125500  0.34951600  0.84991300  1
  O  O34  1  0.09605500  0.59572700  0.77553600  1
  O  O35  1  0.20282000  0.82848900  0.81666100  1
  O  O36  1  0.20298300  0.65774000  0.99497900  1
  O  O37  1  0.02161600  0.26623100  0.08814900  1
  O  O38  1  0.13705500  0.07276700  0.29928700  1
  O  O39  1  0.07807500  0.91295500  0.11020500  1
  O  O40  1  0.12085900  0.54786800  0.20633400  1
  O  O41  1  0.19225000  0.29725300  0.40873500  1
  O  O42  1  0.17272000  0.81116400  0.30848000  1
  O  O43  1  0.21493700  0.06205400  0.52983800  1
  O  O44  1  0.29730500  0.56818400  0.46746800  1
  O  O45  1  0.32957200  0.30199400  0.68765000  1
  O  O46  1  0.31593000  0.79594600  0.59310100  1
  O  O47  1  0.36834400  0.04385300  0.77836000  1
  O  O48  1  0.35591200  0.56436300  0.70054500  1
  O  O49  1  0.41370200  0.40011000  0.88690900  1
  O  O50  1  0.47031300  0.74596200  0.90658000  1
  O  O51  1  0.28213000  0.17258000  0.00389000  1
  O  O52  1  0.30868000  0.32576300  0.18739300  1
  O  O53  1  0.39763600  0.08238600  0.21707900  1
  O  O54  1  0.41802200  0.57324900  0.27148200  1
  O  O55  1  0.38165100  0.83340600  0.14840200  1
  O  O56  1  0.51575400  0.06496600  0.60762000  1
  O  O57  1  0.47250100  0.33251700  0.43364300  1
  O  O58  1  0.53383200  0.66120500  0.58132600  1
  O  O59  1  0.47857900  0.90156800  0.37440200  1
  O  O60  1  0.60459200  0.16280100  0.82716200  1
  O  O61  1  0.57773000  0.42375000  0.72998800  1
  O  O62  1  0.60044300  0.90852500  0.78348900  1
  O  O63  1  0.69019400  0.66945700  0.82127000  1
  O  O64  1  0.71927600  0.83643600  0.99677200  1
  O  O65  1  0.52971400  0.24982400  0.10523300  1
  O  O66  1  0.57959600  0.57834600  0.10847300  1
  O  O67  1  0.63533000  0.42495700  0.29750800  1
  O  O68  1  0.62111900  0.94125500  0.20399600  1
  O  O69  1  0.69659700  0.20421900  0.41027000  1
  O  O70  1  0.67051200  0.68232000  0.30910700  1
  O  O71  1  0.71625100  0.43273300  0.52710400  1
  O  O72  1  0.79590500  0.93029600  0.46413400  1
  O  O73  1  0.84174100  0.19892400  0.69450200  1
  O  O74  1  0.81615500  0.70788200  0.59507800  1
  O  O75  1  0.86995700  0.45553100  0.78822800  1
  O  O76  1  0.91010900  0.08294400  0.89193400  1
  O  O77  1  0.85514800  0.93962500  0.69724600  1
  O  O78  1  0.97271700  0.76696400  0.88760500  1
  O  O79  1  0.76982100  0.33362600  0.00261800  1
  O  O80  1  0.81793100  0.16695800  0.18459700  1
  O  O81  1  0.89096100  0.41283500  0.21708800  1
  O  O82  1  0.88614900  0.66352000  0.15332200  1
  O  O83  1  0.92171000  0.92119200  0.27372700  1
  O  O84  1  0.97676600  0.16565900  0.43724100  1
  O  O85  1  0.97867200  0.58547900  0.37868600  1
