# generated using pymatgen
data_CrPO4
_symmetry_space_group_name_H-M   'P 1'
_cell_length_a   11.17098500
_cell_length_b   5.57789800
_cell_length_c   9.84195716
_cell_angle_alpha   88.21101603
_cell_angle_beta   90.00000000
_cell_angle_gamma   90.00000000
_symmetry_Int_Tables_number   1
_chemical_formula_structural   CrPO4
_chemical_formula_sum   'Cr8 P8 O32'
_cell_volume   612.95948837
_cell_formula_units_Z   8
loop_
 _symmetry_equiv_pos_site_id
 _symmetry_equiv_pos_as_xyz
  1  'x, y, z'
loop_
 _atom_site_type_symbol
 _atom_site_label
 _atom_site_symmetry_multiplicity
 _atom_site_fract_x
 _atom_site_fract_y
 _atom_site_fract_z
 _atom_site_occupancy
  Cr  Cr0  1  0.09692800  0.84129800  0.74177000  1
  Cr  Cr1  1  0.40307200  0.84129800  0.24177000  1
  Cr  Cr2  1  0.62178000  0.65186600  0.98958300  1
  Cr  Cr3  1  0.87822000  0.65186600  0.48958300  1
  Cr  Cr4  1  0.12178000  0.34813400  0.51041700  1
  Cr  Cr5  1  0.37822000  0.34813400  0.01041700  1
  Cr  Cr6  1  0.59692800  0.15870200  0.75823000  1
  Cr  Cr7  1  0.90307200  0.15870200  0.25823000  1
  P  P8  1  0.36159700  0.90520300  0.91444200  1
  P  P9  1  0.13840300  0.90520300  0.41444200  1
  P  P10  1  0.61387500  0.60928900  0.66373900  1
  P  P11  1  0.88612500  0.60928900  0.16373900  1
  P  P12  1  0.11387500  0.39071100  0.83626100  1
  P  P13  1  0.38612500  0.39071100  0.33626100  1
  P  P14  1  0.86159700  0.09479700  0.58555800  1
  P  P15  1  0.63840300  0.09479700  0.08555800  1
  O  O16  1  0.16407500  0.00109200  0.56266800  1
  O  O17  1  0.93300100  0.86974800  0.64430300  1
  O  O18  1  0.33592500  0.00109200  0.06266800  1
  O  O19  1  0.56699900  0.86974800  0.14430300  1
  O  O20  1  0.55020800  0.84906200  0.68197400  1
  O  O21  1  0.25431800  0.85280200  0.83220800  1
  O  O22  1  0.94979200  0.84906200  0.18197400  1
  O  O23  1  0.24568200  0.85280200  0.33220800  1
  O  O24  1  0.44167500  0.67343400  0.93309600  1
  O  O25  1  0.05832500  0.67343400  0.43309600  1
  O  O26  1  0.65696200  0.50279200  0.81285300  1
  O  O27  1  0.84303800  0.50279200  0.31285300  1
  O  O28  1  0.71974100  0.63067400  0.56663200  1
  O  O29  1  0.03100000  0.60226900  0.87306100  1
  O  O30  1  0.78025900  0.63067400  0.06663200  1
  O  O31  1  0.46900000  0.60226900  0.37306100  1
  O  O32  1  0.53100000  0.39773100  0.62693900  1
  O  O33  1  0.21974100  0.36932600  0.93336800  1
  O  O34  1  0.96900000  0.39773100  0.12693900  1
  O  O35  1  0.28025900  0.36932600  0.43336800  1
  O  O36  1  0.15696200  0.49720800  0.68714700  1
  O  O37  1  0.34303800  0.49720800  0.18714700  1
  O  O38  1  0.94167500  0.32656600  0.56690400  1
  O  O39  1  0.55832500  0.32656600  0.06690400  1
  O  O40  1  0.75431800  0.14719800  0.66779200  1
  O  O41  1  0.05020800  0.15093800  0.81802600  1
  O  O42  1  0.74568200  0.14719800  0.16779200  1
  O  O43  1  0.44979200  0.15093800  0.31802600  1
  O  O44  1  0.43300100  0.13025200  0.85569700  1
  O  O45  1  0.66407500  0.99890800  0.93733200  1
  O  O46  1  0.06699900  0.13025200  0.35569700  1
  O  O47  1  0.83592500  0.99890800  0.43733200  1
