# generated using pymatgen
data_Li6Mn3Nb(PO4)6
_symmetry_space_group_name_H-M   'P 1'
_cell_length_a   8.87386948
_cell_length_b   8.78554277
_cell_length_c   8.84635619
_cell_angle_alpha   60.83727404
_cell_angle_beta   60.02040626
_cell_angle_gamma   61.26314536
_symmetry_Int_Tables_number   1
_chemical_formula_structural   Li6Mn3Nb(PO4)6
_chemical_formula_sum   'Li6 Mn3 Nb1 P6 O24'
_cell_volume   495.33910008
_cell_formula_units_Z   1
loop_
 _symmetry_equiv_pos_site_id
 _symmetry_equiv_pos_as_xyz
  1  'x, y, z'
loop_
 _atom_site_type_symbol
 _atom_site_label
 _atom_site_symmetry_multiplicity
 _atom_site_fract_x
 _atom_site_fract_y
 _atom_site_fract_z
 _atom_site_occupancy
  Li  Li0  1  0.03382200  0.02629300  0.00998900  1
  Li  Li1  1  0.73054000  0.16328600  0.35321800  1
  Li  Li2  1  0.47130900  0.50209600  0.49010300  1
  Li  Li3  1  0.31187700  0.83710900  0.64392800  1
  Li  Li4  1  0.64357900  0.31147300  0.83461700  1
  Li  Li5  1  0.84095400  0.64412800  0.30629600  1
  Mn  Mn6  1  0.15012300  0.14652200  0.14584800  1
  Mn  Mn7  1  0.34914300  0.36437300  0.34967500  1
  Mn  Mn8  1  0.65462500  0.65747000  0.65264400  1
  Nb  Nb9  1  0.85013300  0.84696900  0.85338900  1
  P  P10  1  0.05499300  0.75466900  0.43442300  1
  P  P11  1  0.44403300  0.05093400  0.75356600  1
  P  P12  1  0.74723300  0.43773800  0.04887900  1
  P  P13  1  0.24629600  0.54039700  0.95323500  1
  P  P14  1  0.55027500  0.95715600  0.25433300  1
  P  P15  1  0.95261900  0.24859900  0.53487500  1
  O  O16  1  0.12512300  0.26410500  0.51347800  1
  O  O17  1  0.26929100  0.53251400  0.11557300  1
  O  O18  1  0.06598300  0.92712700  0.25792400  1
  O  O19  1  0.55832400  0.11024900  0.28463500  1
  O  O20  1  0.23689100  0.60679600  0.43811200  1
  O  O21  1  0.97314000  0.82060700  0.60689900  1
  O  O22  1  0.26086200  0.08341100  0.91342400  1
  O  O23  1  0.47578700  0.22337900  0.58923000  1
  O  O24  1  0.59974000  0.43988700  0.23904700  1
  O  O25  1  0.18407600  0.38416800  0.99578800  1
  O  O26  1  0.09415600  0.73447000  0.89675200  1
  O  O27  1  0.38871100  0.01146600  0.20226600  1
  O  O28  1  0.60824600  0.96695300  0.82803800  1
  O  O29  1  0.89923900  0.25233000  0.07358200  1
  O  O30  1  0.82087900  0.60351000  0.97552100  1
  O  O31  1  0.41463200  0.55074400  0.77104300  1
  O  O32  1  0.55950400  0.77301800  0.41861500  1
  O  O33  1  0.74138600  0.89988700  0.09346900  1
  O  O34  1  0.97244000  0.19913500  0.37859500  1
  O  O35  1  0.77777100  0.41754500  0.55360200  1
  O  O36  1  0.45521300  0.90238000  0.69997600  1
  O  O37  1  0.89810200  0.09392600  0.73038100  1
  O  O38  1  0.68067400  0.46792000  0.90334100  1
  O  O39  1  0.90827500  0.69425900  0.45269200  1
