# generated using pymatgen
data_SiH21C6N2OF5
_symmetry_space_group_name_H-M   'P 1'
_cell_length_a   13.61602000
_cell_length_b   7.95850400
_cell_length_c   11.14519172
_cell_angle_alpha   83.36894595
_cell_angle_beta   90.00000000
_cell_angle_gamma   90.00000000
_symmetry_Int_Tables_number   1
_chemical_formula_structural   SiH21C6N2OF5
_chemical_formula_sum   'Si4 H84 C24 N8 O4 F20'
_cell_volume   1199.64876869
_cell_formula_units_Z   4
loop_
 _symmetry_equiv_pos_site_id
 _symmetry_equiv_pos_as_xyz
  1  'x, y, z'
loop_
 _atom_site_type_symbol
 _atom_site_label
 _atom_site_symmetry_multiplicity
 _atom_site_fract_x
 _atom_site_fract_y
 _atom_site_fract_z
 _atom_site_occupancy
  Si  Si0  1  0.42947100  0.68515000  0.80825300  1
  Si  Si1  1  0.07052900  0.68515000  0.30825300  1
  Si  Si2  1  0.92947100  0.31485000  0.69174700  1
  Si  Si3  1  0.57052900  0.31485000  0.19174700  1
  H  H4  1  0.60144000  0.97519800  0.63029400  1
  H  H5  1  0.54453600  0.92611600  0.84912600  1
  H  H6  1  0.20953900  0.89422000  0.89436900  1
  H  H7  1  0.94805100  0.90104600  0.82201400  1
  H  H8  1  0.48250800  0.84363800  0.98224000  1
  H  H9  1  0.89856000  0.97519800  0.13029400  1
  H  H10  1  0.81882300  0.92685300  0.51774600  1
  H  H11  1  0.38293700  0.89232300  0.51051500  1
  H  H12  1  0.95546400  0.92611600  0.34912600  1
  H  H13  1  0.29046100  0.89422000  0.39436900  1
  H  H14  1  0.71522200  0.83136000  0.82081300  1
  H  H15  1  0.55194900  0.90104600  0.32201400  1
  H  H16  1  0.95070000  0.77056300  0.96473100  1
  H  H17  1  0.01749200  0.84363800  0.48224000  1
  H  H18  1  0.68117700  0.92685300  0.01774600  1
  H  H19  1  0.10165800  0.77190000  0.76951000  1
  H  H20  1  0.89211100  0.79416700  0.62413400  1
  H  H21  1  0.11706300  0.89232300  0.01051500  1
  H  H22  1  0.24208000  0.76258500  0.67244500  1
  H  H23  1  0.78477800  0.83136000  0.32081300  1
  H  H24  1  0.54930000  0.77056300  0.46473100  1
  H  H25  1  0.16219500  0.73706900  0.57429000  1
  H  H26  1  0.77521200  0.72075400  0.58048700  1
  H  H27  1  0.93781900  0.67420600  0.82678800  1
  H  H28  1  0.39834200  0.77190000  0.26951000  1
  H  H29  1  0.60788900  0.79416700  0.12413400  1
  H  H30  1  0.25792000  0.76258500  0.17244500  1
  H  H31  1  0.64945100  0.65203900  0.77657600  1
  H  H32  1  0.59487000  0.59536300  0.98290000  1
  H  H33  1  0.74572100  0.61993900  0.88572500  1
  H  H34  1  0.33780500  0.73706900  0.07429000  1
  H  H35  1  0.72478800  0.72075400  0.08048700  1
  H  H36  1  0.56218100  0.67420600  0.32678800  1
  H  H37  1  0.19445300  0.58762800  0.90107600  1
  H  H38  1  0.85054900  0.65203900  0.27657600  1
  H  H39  1  0.90513000  0.59536300  0.48290000  1
  H  H40  1  0.75427900  0.61993900  0.38572500  1
  H  H41  1  0.39815600  0.58705700  0.51588500  1
  H  H42  1  0.30554700  0.58762800  0.40107600  1
  H  H43  1  0.07551000  0.49624400  0.87774300  1
  H  H44  1  0.57551000  0.50375600  0.62225700  1
  H  H45  1  0.10184400  0.58705700  0.01588500  1
  H  H46  1  0.89815600  0.41294300  0.98411500  1
  H  H47  1  0.42449000  0.49624400  0.37774300  1
  H  H48  1  0.92449000  0.50375600  0.12225700  1
  H  H49  1  0.69445300  0.41237200  0.59892400  1
  H  H50  1  0.60184400  0.41294300  0.48411500  1
  H  H51  1  0.24572100  0.38006100  0.61427500  1
  H  H52  1  0.09487000  0.40463700  0.51710000  1
  H  H53  1  0.14945100  0.34796100  0.72342400  1
  H  H54  1  0.80554700  0.41237200  0.09892400  1
  H  H55  1  0.43781900  0.32579400  0.67321200  1
  H  H56  1  0.27521200  0.27924600  0.91951300  1
  H  H57  1  0.66219500  0.26293100  0.92571000  1
  H  H58  1  0.25427900  0.38006100  0.11427500  1
  H  H59  1  0.40513000  0.40463700  0.01710000  1
  H  H60  1  0.35054900  0.34796100  0.22342400  1
  H  H61  1  0.74208000  0.23741500  0.82755500  1
  H  H62  1  0.39211100  0.20583300  0.87586600  1
  H  H63  1  0.60165800  0.22810000  0.73049000  1
  H  H64  1  0.06218100  0.32579400  0.17321200  1
  H  H65  1  0.22478800  0.27924600  0.41951300  1
  H  H66  1  0.83780500  0.26293100  0.42571000  1
  H  H67  1  0.45070000  0.22943700  0.53526900  1
  H  H68  1  0.21522200  0.16864000  0.67918700  1
  H  H69  1  0.75792000  0.23741500  0.32755500  1
  H  H70  1  0.88293700  0.10767700  0.98948500  1
  H  H71  1  0.10788900  0.20583300  0.37586600  1
  H  H72  1  0.89834200  0.22810000  0.23049000  1
  H  H73  1  0.31882300  0.07314700  0.98225400  1
  H  H74  1  0.98250800  0.15636200  0.51776000  1
  H  H75  1  0.04930000  0.22943700  0.03526900  1
  H  H76  1  0.44805100  0.09895400  0.67798600  1
  H  H77  1  0.28477800  0.16864000  0.17918700  1
  H  H78  1  0.70953900  0.10578000  0.60563100  1
  H  H79  1  0.04453600  0.07388400  0.65087400  1
  H  H80  1  0.61706300  0.10767700  0.48948500  1
  H  H81  1  0.18117700  0.07314700  0.48225400  1
  H  H82  1  0.10144000  0.02480200  0.86970600  1
  H  H83  1  0.51749200  0.15636200  0.01776000  1
  H  H84  1  0.05194900  0.09895400  0.17798600  1
  H  H85  1  0.79046100  0.10578000  0.10563100  1
  H  H86  1  0.45546400  0.07388400  0.15087400  1
  H  H87  1  0.39856000  0.02480200  0.36970600  1
  C  C88  1  0.13085500  0.90456600  0.91292500  1
  C  C89  1  0.36914500  0.90456600  0.41292500  1
  C  C90  1  0.52085500  0.80834300  0.90239300  1
  C  C91  1  0.97084200  0.77847000  0.86891300  1
  C  C92  1  0.83961500  0.79650400  0.54984600  1
  C  C93  1  0.97914500  0.80834300  0.40239300  1
  C  C94  1  0.68643700  0.70467100  0.85069400  1
  C  C95  1  0.52915800  0.77847000  0.36891300  1
  C  C96  1  0.66038500  0.79650400  0.04984600  1
  C  C97  1  0.81356300  0.70467100  0.35069400  1
  C  C98  1  0.11535800  0.59513500  0.91836000  1
  C  C99  1  0.38464200  0.59513500  0.41836000  1
  C  C100  1  0.61535800  0.40486500  0.58164000  1
  C  C101  1  0.88464200  0.40486500  0.08164000  1
  C  C102  1  0.18643700  0.29532900  0.64930600  1
  C  C103  1  0.33961500  0.20349600  0.95015400  1
  C  C104  1  0.47084200  0.22153000  0.63108700  1
  C  C105  1  0.31356300  0.29532900  0.14930600  1
  C  C106  1  0.02085500  0.19165700  0.59760700  1
  C  C107  1  0.16038500  0.20349600  0.45015400  1
  C  C108  1  0.02915800  0.22153000  0.13108700  1
  C  C109  1  0.47914500  0.19165700  0.09760700  1
  C  C110  1  0.63085500  0.09543400  0.58707500  1
  C  C111  1  0.86914500  0.09543400  0.08707500  1
  N  N112  1  0.07978400  0.76320900  0.86117700  1
  N  N113  1  0.61342600  0.71862400  0.94869700  1
  N  N114  1  0.42021600  0.76320900  0.36117700  1
  N  N115  1  0.88657400  0.71862400  0.44869700  1
  N  N116  1  0.11342600  0.28137600  0.55130300  1
  N  N117  1  0.57978400  0.23679100  0.63882300  1
  N  N118  1  0.38657400  0.28137600  0.05130300  1
  N  N119  1  0.92021600  0.23679100  0.13882300  1
  O  O120  1  0.17727800  0.80301800  0.64163000  1
  O  O121  1  0.32272200  0.80301800  0.14163000  1
  O  O122  1  0.67727800  0.19698200  0.85837000  1
  O  O123  1  0.82272200  0.19698200  0.35837000  1
  F  F124  1  0.36043000  0.86837300  0.78231600  1
  F  F125  1  0.13957000  0.86837300  0.28231600  1
  F  F126  1  0.49512400  0.73801600  0.67540100  1
  F  F127  1  0.35832800  0.62314600  0.94117100  1
  F  F128  1  0.00487600  0.73801600  0.17540100  1
  F  F129  1  0.34339400  0.58481000  0.72732900  1
  F  F130  1  0.14167200  0.62314600  0.44117100  1
  F  F131  1  0.49332500  0.49662200  0.83712300  1
  F  F132  1  0.15660600  0.58481000  0.22732900  1
  F  F133  1  0.99332500  0.50337800  0.66287700  1
  F  F134  1  0.00667500  0.49662200  0.33712300  1
  F  F135  1  0.84339400  0.41519000  0.77267100  1
  F  F136  1  0.50667500  0.50337800  0.16287700  1
  F  F137  1  0.85832800  0.37685400  0.55882900  1
  F  F138  1  0.65660600  0.41519000  0.27267100  1
  F  F139  1  0.99512400  0.26198400  0.82459900  1
  F  F140  1  0.64167200  0.37685400  0.05882900  1
  F  F141  1  0.50487600  0.26198400  0.32459900  1
  F  F142  1  0.86043000  0.13162700  0.71768400  1
  F  F143  1  0.63957000  0.13162700  0.21768400  1
