# generated using pymatgen
data_Ba2YI7
_symmetry_space_group_name_H-M   'P 1'
_cell_length_a   15.18447300
_cell_length_b   8.34697600
_cell_length_c   14.87646453
_cell_angle_alpha   78.63666424
_cell_angle_beta   90.00000000
_cell_angle_gamma   90.00000000
_symmetry_Int_Tables_number   1
_chemical_formula_structural   Ba2YI7
_chemical_formula_sum   'Ba8 Y4 I28'
_cell_volume   1848.54827124
_cell_formula_units_Z   4
loop_
 _symmetry_equiv_pos_site_id
 _symmetry_equiv_pos_as_xyz
  1  'x, y, z'
loop_
 _atom_site_type_symbol
 _atom_site_label
 _atom_site_symmetry_multiplicity
 _atom_site_fract_x
 _atom_site_fract_y
 _atom_site_fract_z
 _atom_site_occupancy
  Ba  Ba0  1  0.54463900  0.77118000  0.76626000  1
  Ba  Ba1  1  0.12934000  0.75420600  0.64157700  1
  Ba  Ba2  1  0.79465100  0.77014500  0.14376700  1
  Ba  Ba3  1  0.36130400  0.66635200  0.25044400  1
  Ba  Ba4  1  0.86130400  0.33364800  0.74955600  1
  Ba  Ba5  1  0.29465100  0.22985500  0.85623300  1
  Ba  Ba6  1  0.62934000  0.24579400  0.35842300  1
  Ba  Ba7  1  0.04463900  0.22882000  0.23374000  1
  Y  Y8  1  0.84430100  0.83350500  0.55193800  1
  Y  Y9  1  0.07746400  0.81668400  0.05235200  1
  Y  Y10  1  0.57746400  0.18331600  0.94764800  1
  Y  Y11  1  0.34430100  0.16649500  0.44806200  1
  I  I12  1  0.71345000  0.94898200  0.89475500  1
  I  I13  1  0.43825600  0.91738500  0.99326500  1
  I  I14  1  0.50049300  0.94872700  0.51367700  1
  I  I15  1  0.16019600  0.87262600  0.86508700  1
  I  I16  1  0.23991900  0.87348400  0.40921200  1
  I  I17  1  0.75720700  0.87335000  0.36648000  1
  I  I18  1  0.91582200  0.79083300  0.74641600  1
  I  I19  1  0.00855600  0.79838500  0.24958200  1
  I  I20  1  0.34036200  0.61471000  0.71286400  1
  I  I21  1  0.58517300  0.61641700  0.20681200  1
  I  I22  1  0.69322000  0.59791600  0.62143300  1
  I  I23  1  0.70548000  0.46808000  0.89399400  1
  I  I24  1  0.95569400  0.53527800  0.53730900  1
  I  I25  1  0.44752700  0.44417400  0.97027100  1
  I  I26  1  0.94752700  0.55582600  0.02972900  1
  I  I27  1  0.45569400  0.46472200  0.46269100  1
  I  I28  1  0.20548000  0.53192000  0.10600600  1
  I  I29  1  0.19322000  0.40208400  0.37856700  1
  I  I30  1  0.08517300  0.38358300  0.79318800  1
  I  I31  1  0.84036200  0.38529000  0.28713600  1
  I  I32  1  0.50855600  0.20161500  0.75041800  1
  I  I33  1  0.41582200  0.20916700  0.25358400  1
  I  I34  1  0.25720700  0.12665000  0.63352000  1
  I  I35  1  0.73991900  0.12651600  0.59078800  1
  I  I36  1  0.66019600  0.12737400  0.13491300  1
  I  I37  1  0.00049300  0.05127300  0.48632300  1
  I  I38  1  0.93825600  0.08261500  0.00673500  1
  I  I39  1  0.21345000  0.05101800  0.10524500  1
