# generated using pymatgen
data_La20Cu9O40
_symmetry_space_group_name_H-M   'P 1'
_cell_length_a   8.94350300
_cell_length_b   10.36551721
_cell_length_c   11.68715535
_cell_angle_alpha   100.01033174
_cell_angle_beta   109.68082471
_cell_angle_gamma   103.70893891
_symmetry_Int_Tables_number   1
_chemical_formula_structural   La20Cu9O40
_chemical_formula_sum   'La20 Cu9 O40'
_cell_volume   952.23315590
_cell_formula_units_Z   1
loop_
 _symmetry_equiv_pos_site_id
 _symmetry_equiv_pos_as_xyz
  1  'x, y, z'
loop_
 _atom_site_type_symbol
 _atom_site_label
 _atom_site_symmetry_multiplicity
 _atom_site_fract_x
 _atom_site_fract_y
 _atom_site_fract_z
 _atom_site_occupancy
  La  La0  1  0.27669800  0.78606900  0.71270000  1
  La  La1  1  0.07941000  0.38632100  0.91102900  1
  La  La2  1  0.12220800  0.01434400  0.88883800  1
  La  La3  1  0.32640900  0.41774800  0.68115500  1
  La  La4  1  0.92059000  0.61367900  0.08897100  1
  La  La5  1  0.70338500  0.70271200  0.77089600  1
  La  La6  1  0.50999400  0.31020000  0.98007400  1
  La  La7  1  0.12006000  0.50976000  0.38352400  1
  La  La8  1  0.90850700  0.11020200  0.57966500  1
  La  La9  1  0.31175800  0.91124800  0.18127700  1
  La  La10  1  0.49000600  0.68980000  0.01992600  1
  La  La11  1  0.29661500  0.29728800  0.22910400  1
  La  La12  1  0.09149300  0.88979800  0.42033500  1
  La  La13  1  0.87994000  0.49024000  0.61647600  1
  La  La14  1  0.68824200  0.08875200  0.81872300  1
  La  La15  1  0.67359100  0.58225200  0.31884500  1
  La  La16  1  0.48001300  0.19610400  0.51147600  1
  La  La17  1  0.87779200  0.98565600  0.11116200  1
  La  La18  1  0.51998700  0.80389600  0.48852400  1
  La  La19  1  0.72330200  0.21393100  0.28730000  1
  Cu  Cu20  1  0.29945100  0.09988800  0.69895600  1
  Cu  Cu21  1  0.09949300  0.69937100  0.89976100  1
  Cu  Cu22  1  0.90091400  0.80053700  0.59992700  1
  Cu  Cu23  1  0.29926300  0.60022400  0.19982000  1
  Cu  Cu24  1  0.70073700  0.39977600  0.80018000  1
  Cu  Cu25  1  0.09908600  0.19946300  0.40007300  1
  Cu  Cu26  1  0.50000000  0.00000000  0.00000000  1
  Cu  Cu27  1  0.90050700  0.30062900  0.10023900  1
  Cu  Cu28  1  0.70054900  0.90011200  0.30104400  1
  O  O29  1  0.09283200  0.95519900  0.65404200  1
  O  O30  1  0.99410200  0.75628700  0.75355900  1
  O  O31  1  0.18821300  0.54525000  0.77489900  1
  O  O32  1  0.98536100  0.14477500  0.97331600  1
  O  O33  1  0.41002000  0.65689500  0.62718000  1
  O  O34  1  0.21176000  0.25247400  0.82578700  1
  O  O35  1  0.01463900  0.85522500  0.02668400  1
  O  O36  1  0.10509700  0.44437200  0.14559300  1
  O  O37  1  0.40446100  0.04401000  0.84564200  1
  O  O38  1  0.00589800  0.24371300  0.24644100  1
  O  O39  1  0.20541800  0.64348500  0.04697600  1
  O  O40  1  0.60737100  0.44356000  0.65021100  1
  O  O41  1  0.90716800  0.04480100  0.34595800  1
  O  O42  1  0.30441000  0.84411300  0.94535600  1
  O  O43  1  0.50473300  0.24509300  0.74505100  1
  O  O44  1  0.76585600  0.94114400  0.69565000  1
  O  O45  1  0.36584900  0.14028400  0.09553500  1
  O  O46  1  0.96332900  0.33995400  0.49584500  1
  O  O47  1  0.56614900  0.54044800  0.89662000  1
  O  O48  1  0.16465500  0.74116300  0.29415800  1
  O  O49  1  0.03667100  0.66004600  0.50415500  1
  O  O50  1  0.43385100  0.45955200  0.10338000  1
  O  O51  1  0.83534500  0.25883700  0.70584200  1
  O  O52  1  0.23414400  0.05885600  0.30435000  1
  O  O53  1  0.63415100  0.85971600  0.90446500  1
  O  O54  1  0.89490300  0.55562800  0.85440700  1
  O  O55  1  0.49526700  0.75490700  0.25494900  1
  O  O56  1  0.69559000  0.15588700  0.05464400  1
  O  O57  1  0.39262900  0.55644000  0.34978900  1
  O  O58  1  0.59553900  0.95599000  0.15435800  1
  O  O59  1  0.28909000  0.35062500  0.45158400  1
  O  O60  1  0.19525200  0.15706500  0.55368500  1
  O  O61  1  0.79458200  0.35651500  0.95302400  1
  O  O62  1  0.78824000  0.74752600  0.17421300  1
  O  O63  1  0.38590800  0.94318200  0.57460800  1
  O  O64  1  0.58998000  0.34310500  0.37282000  1
  O  O65  1  0.81178700  0.45475000  0.22510100  1
  O  O66  1  0.61409200  0.05681800  0.42539200  1
  O  O67  1  0.71091000  0.64937500  0.54841600  1
  O  O68  1  0.80474800  0.84293500  0.44631500  1
