# generated using pymatgen
data_Co5SnO12
_symmetry_space_group_name_H-M   'P 1'
_cell_length_a   5.04685661
_cell_length_b   5.04685661
_cell_length_c   9.53172606
_cell_angle_alpha   89.97358994
_cell_angle_beta   89.97358994
_cell_angle_gamma   120.04397090
_symmetry_Int_Tables_number   1
_chemical_formula_structural   Co5SnO12
_chemical_formula_sum   'Co5 Sn1 O12'
_cell_volume   210.16061634
_cell_formula_units_Z   1
loop_
 _symmetry_equiv_pos_site_id
 _symmetry_equiv_pos_as_xyz
  1  'x, y, z'
loop_
 _atom_site_type_symbol
 _atom_site_label
 _atom_site_symmetry_multiplicity
 _atom_site_fract_x
 _atom_site_fract_y
 _atom_site_fract_z
 _atom_site_occupancy
  Co  Co0  1  0.83472300  0.16527700  0.50000000  1
  Co  Co1  1  0.33338000  0.66662000  0.00000000  1
  Co  Co2  1  0.66662000  0.33338000  0.00000000  1
  Co  Co3  1  0.16527700  0.83472300  0.50000000  1
  Co  Co4  1  0.50000000  0.50000000  0.50000000  1
  Sn  Sn5  1  0.00000000  0.00000000  0.00000000  1
  O  O6  1  0.00003000  0.36023700  0.89565300  1
  O  O7  1  0.63976300  0.99997000  0.10434700  1
  O  O8  1  0.83243000  0.50058300  0.59133500  1
  O  O9  1  0.50058300  0.83243000  0.59133500  1
  O  O10  1  0.49941700  0.16757000  0.40866500  1
  O  O11  1  0.83421300  0.83421300  0.40478100  1
  O  O12  1  0.16757000  0.49941700  0.40866500  1
  O  O13  1  0.36023700  0.00003000  0.89565300  1
  O  O14  1  0.63998700  0.63998700  0.89559800  1
  O  O15  1  0.99997000  0.63976300  0.10434700  1
  O  O16  1  0.36001300  0.36001300  0.10440200  1
  O  O17  1  0.16578700  0.16578700  0.59521900  1
