# generated using pymatgen
data_SrCaI4
_symmetry_space_group_name_H-M   'P 1'
_cell_length_a   9.02147371
_cell_length_b   9.02147371
_cell_length_c   9.02147371
_cell_angle_alpha   115.19959897
_cell_angle_beta   106.68667417
_cell_angle_gamma   106.68377661
_symmetry_Int_Tables_number   1
_chemical_formula_structural   SrCaI4
_chemical_formula_sum   'Sr2 Ca2 I8'
_cell_volume   560.93128015
_cell_formula_units_Z   2
loop_
 _symmetry_equiv_pos_site_id
 _symmetry_equiv_pos_as_xyz
  1  'x, y, z'
loop_
 _atom_site_type_symbol
 _atom_site_label
 _atom_site_symmetry_multiplicity
 _atom_site_fract_x
 _atom_site_fract_y
 _atom_site_fract_z
 _atom_site_occupancy
  Sr  Sr0  1  0.50000000  0.50000000  0.50000000  1
  Sr  Sr1  1  0.50000000  0.00000000  0.00000000  1
  Ca  Ca2  1  0.01525400  0.26525400  0.75000000  1
  Ca  Ca3  1  0.98474600  0.73474600  0.25000000  1
  I  I4  1  0.27231100  0.72746900  0.54484200  1
  I  I5  1  0.19032700  0.70519500  0.01486800  1
  I  I6  1  0.80967300  0.82454200  0.51486800  1
  I  I7  1  0.68262700  0.72746900  0.95515800  1
  I  I8  1  0.31737300  0.27253100  0.04484200  1
  I  I9  1  0.80967300  0.29480500  0.98513200  1
  I  I10  1  0.19032700  0.17545800  0.48513200  1
  I  I11  1  0.72768900  0.27253100  0.45515800  1
