# generated using pymatgen
data_Li3V2P4(HO8)2
_symmetry_space_group_name_H-M   'P 1'
_cell_length_a   9.43296655
_cell_length_b   9.43360901
_cell_length_c   7.87551410
_cell_angle_alpha   79.00815556
_cell_angle_beta   78.82942166
_cell_angle_gamma   117.80309370
_symmetry_Int_Tables_number   1
_chemical_formula_structural   Li3V2P4(HO8)2
_chemical_formula_sum   'Li6 V4 P8 H4 O32'
_cell_volume   575.39392691
_cell_formula_units_Z   2
loop_
 _symmetry_equiv_pos_site_id
 _symmetry_equiv_pos_as_xyz
  1  'x, y, z'
loop_
 _atom_site_type_symbol
 _atom_site_label
 _atom_site_symmetry_multiplicity
 _atom_site_fract_x
 _atom_site_fract_y
 _atom_site_fract_z
 _atom_site_occupancy
  Li  Li0  1  0.46279900  0.09380300  0.35324300  1
  Li  Li1  1  0.04627300  0.41319600  0.65374800  1
  Li  Li2  1  0.33662000  0.20784900  0.85205700  1
  Li  Li3  1  0.65662900  0.79162400  0.15555200  1
  Li  Li4  1  0.95651500  0.59311200  0.34541300  1
  Li  Li5  1  0.83843300  0.70267300  0.84405800  1
  V  V6  1  0.25202900  0.25442600  0.48819900  1
  V  V7  1  0.50070300  0.99986600  0.99735500  1
  V  V8  1  0.99918500  0.49356800  0.00381400  1
  V  V9  1  0.74595800  0.75194500  0.50067200  1
  P  P10  1  0.25925100  0.60672800  0.26931800  1
  P  P11  1  0.75744200  0.10888000  0.26542800  1
  P  P12  1  0.64505300  0.49508800  0.22969500  1
  P  P13  1  0.14352700  0.99226300  0.23304100  1
  P  P14  1  0.35660000  0.50860000  0.76022000  1
  P  P15  1  0.85637600  0.01395900  0.76437900  1
  P  P16  1  0.74043700  0.39277000  0.73355000  1
  P  P17  1  0.23970300  0.89445400  0.73972500  1
  H  H18  1  0.74679600  0.25280800  0.49716600  1
  H  H19  1  0.25813400  0.76485500  0.51690700  1
  H  H20  1  0.48135500  0.49015400  0.98235200  1
  H  H21  1  0.98843300  0.99900300  0.99307200  1
  O  O22  1  0.12318000  0.06159800  0.05468600  1
  O  O23  1  0.16524500  0.11300700  0.35472600  1
  O  O24  1  0.01420600  0.18989700  0.64502400  1
  O  O25  1  0.23954500  0.06027300  0.68751400  1
  O  O26  1  0.62555600  0.08176300  0.15374700  1
  O  O27  1  0.13283400  0.58244200  0.16443000  1
  O  O28  1  0.27857800  0.45052500  0.31870300  1
  O  O29  1  0.48603900  0.31496400  0.34989300  1
  O  O30  1  0.68028200  0.13754100  0.43689700  1
  O  O31  1  0.18611200  0.62971700  0.44764700  1
  O  O32  1  0.33069400  0.37674400  0.65239900  1
  O  O33  1  0.19456700  0.51285500  0.80800300  1
  O  O34  1  0.69795700  0.02631500  0.82132000  1
  O  O35  1  0.62438400  0.56773700  0.05089100  1
  O  O36  1  0.93046800  0.25997400  0.14057100  1
  O  O37  1  0.43684700  0.76471100  0.14510800  1
  O  O38  1  0.56111600  0.23523400  0.85132900  1
  O  O39  1  0.06350800  0.73742600  0.85161500  1
  O  O40  1  0.37863700  0.42556300  0.93714500  1
  O  O41  1  0.80704300  0.48726600  0.19083400  1
  O  O42  1  0.30950000  0.98834500  0.19095900  1
  O  O43  1  0.66091200  0.61796200  0.33968200  1
  O  O44  1  0.81319200  0.37077700  0.55202800  1
  O  O45  1  0.31502100  0.87590700  0.55658800  1
  O  O46  1  0.51151800  0.68134500  0.64410300  1
  O  O47  1  0.73679900  0.55642200  0.68789800  1
  O  O48  1  0.86619400  0.41049200  0.83852300  1
  O  O49  1  0.35982600  0.91438500  0.85785000  1
  O  O50  1  0.76014400  0.94510900  0.30942300  1
  O  O51  1  0.98808500  0.81631700  0.35367000  1
  O  O52  1  0.83359400  0.88409100  0.66516100  1
  O  O53  1  0.87950300  0.93866000  0.94653200  1
