# generated using pymatgen
data_V3(O2F)2
_symmetry_space_group_name_H-M   'P 1'
_cell_length_a   4.69059000
_cell_length_b   5.61887750
_cell_length_c   7.71569734
_cell_angle_alpha   85.51944661
_cell_angle_beta   88.66446225
_cell_angle_gamma   88.59657702
_symmetry_Int_Tables_number   1
_chemical_formula_structural   V3(O2F)2
_chemical_formula_sum   'V6 O8 F4'
_cell_volume   202.62478419
_cell_formula_units_Z   2
loop_
 _symmetry_equiv_pos_site_id
 _symmetry_equiv_pos_as_xyz
  1  'x, y, z'
loop_
 _atom_site_type_symbol
 _atom_site_label
 _atom_site_symmetry_multiplicity
 _atom_site_fract_x
 _atom_site_fract_y
 _atom_site_fract_z
 _atom_site_occupancy
  V  V0  1  0.49401400  0.83095000  0.67374400  1
  V  V1  1  0.49395900  0.49607300  0.98672600  1
  V  V2  1  0.52971600  0.16595700  0.34380400  1
  V  V3  1  0.00660200  0.34001400  0.67070200  1
  V  V4  1  0.94198800  0.66043900  0.32568900  1
  V  V5  1  0.00942400  0.00239900  0.00335300  1
  O  O6  1  0.81147300  0.37217100  0.42949500  1
  O  O7  1  0.80622400  0.69621700  0.10567000  1
  O  O8  1  0.68167500  0.19497800  0.11976900  1
  O  O9  1  0.70251500  0.53942400  0.75436200  1
  O  O10  1  0.71145200  0.86745500  0.43389500  1
  O  O11  1  0.31919800  0.13955800  0.55005900  1
  O  O12  1  0.29894800  0.79867200  0.89725500  1
  O  O13  1  0.19480700  0.29513700  0.89872700  1
  F  F14  1  0.80125500  0.03695000  0.77029300  1
  F  F15  1  0.29480900  0.47068400  0.24214900  1
  F  F16  1  0.20202800  0.95717100  0.24119300  1
  F  F17  1  0.19991000  0.63575200  0.55311500  1
