# generated using pymatgen
data_KLaAu2
_symmetry_space_group_name_H-M   'P 1'
_cell_length_a   12.38284691
_cell_length_b   12.38284691
_cell_length_c   12.38284691
_cell_angle_alpha   120.80341122
_cell_angle_beta   119.89136602
_cell_angle_gamma   89.40118494
_symmetry_Int_Tables_number   1
_chemical_formula_structural   KLaAu2
_chemical_formula_sum   'K1 La1 Au2'
_cell_volume   1335.36371955
_cell_formula_units_Z   1
loop_
 _symmetry_equiv_pos_site_id
 _symmetry_equiv_pos_as_xyz
  1  'x, y, z'
loop_
 _atom_site_type_symbol
 _atom_site_label
 _atom_site_symmetry_multiplicity
 _atom_site_fract_x
 _atom_site_fract_y
 _atom_site_fract_z
 _atom_site_occupancy
  K  K0  1  0.00000000  0.00000000  0.00000000  1
  La  La1  1  0.00000000  0.50000000  0.50000000  1
  Au  Au2  1  0.00000000  0.26236100  0.26236100  1
  Au  Au3  1  0.00000000  0.73763900  0.73763900  1
