# generated using pymatgen
data_Fe3Ni2P6WO24
_symmetry_space_group_name_H-M   'P 1'
_cell_length_a   8.53637904
_cell_length_b   8.65738751
_cell_length_c   8.65738755
_cell_angle_alpha   60.00000087
_cell_angle_beta   59.52995707
_cell_angle_gamma   59.52996310
_symmetry_Int_Tables_number   1
_chemical_formula_structural   Fe3Ni2P6WO24
_chemical_formula_sum   'Fe3 Ni2 P6 W1 O24'
_cell_volume   449.16932111
_cell_formula_units_Z   1
loop_
 _symmetry_equiv_pos_site_id
 _symmetry_equiv_pos_as_xyz
  1  'x, y, z'
loop_
 _atom_site_type_symbol
 _atom_site_label
 _atom_site_symmetry_multiplicity
 _atom_site_fract_x
 _atom_site_fract_y
 _atom_site_fract_z
 _atom_site_occupancy
  Fe  Fe0  1  0.07030200  0.64323300  0.64323300  1
  Fe  Fe1  1  0.43510000  0.85496600  0.85496600  1
  Fe  Fe2  1  0.93082900  0.35639100  0.35639100  1
  Ni  Ni3  1  0.01634400  0.99455200  0.99455200  1
  Ni  Ni4  1  0.50303900  0.49898700  0.49898700  1
  P  P5  1  0.24383800  0.25375300  0.54965600  1
  P  P6  1  0.24383800  0.95275300  0.25375300  1
  P  P7  1  0.24383800  0.54965600  0.95275300  1
  P  P8  1  0.74914100  0.46068900  0.04570800  1
  P  P9  1  0.74914100  0.04570800  0.74446300  1
  P  P10  1  0.74914100  0.74446300  0.46068900  1
  W  W11  1  0.57289500  0.14236800  0.14236800  1
  O  O12  1  0.06697400  0.10930400  0.32177900  1
  O  O13  1  0.06697400  0.50194300  0.10930400  1
  O  O14  1  0.06697400  0.32177900  0.50194300  1
  O  O15  1  0.22615800  0.09087000  0.74249700  1
  O  O16  1  0.43096400  0.17952500  0.38946100  1
  O  O17  1  0.27979600  0.40994900  0.55327700  1
  O  O18  1  0.22615800  0.94047500  0.09087000  1
  O  O19  1  0.27979600  0.75697800  0.40994900  1
  O  O20  1  0.56612200  0.61002100  0.00338700  1
  O  O21  1  0.27979600  0.55327700  0.75697800  1
  O  O22  1  0.76970600  0.25683300  0.06470300  1
  O  O23  1  0.56612200  0.00338700  0.82046900  1
  O  O24  1  0.43096400  0.00005000  0.17952500  1
  O  O25  1  0.22615800  0.74249700  0.94047500  1
  O  O26  1  0.72482300  0.44079700  0.24391100  1
  O  O27  1  0.43096400  0.38946100  0.00005000  1
  O  O28  1  0.72482300  0.24391100  0.59046800  1
  O  O29  1  0.76970600  0.06470300  0.90875900  1
  O  O30  1  0.72482300  0.59046800  0.44079700  1
  O  O31  1  0.56612200  0.82046900  0.61002100  1
  O  O32  1  0.76970600  0.90875900  0.25683300  1
  O  O33  1  0.93297600  0.68728400  0.49253800  1
  O  O34  1  0.93297600  0.49253800  0.88720200  1
  O  O35  1  0.93297600  0.88720200  0.68728400  1
