# generated using pymatgen
data_HoTa7O19
_symmetry_space_group_name_H-M   'P 1'
_cell_length_a   6.26360967
_cell_length_b   6.26360967
_cell_length_c   20.09300400
_cell_angle_alpha   90.00000000
_cell_angle_beta   90.00000000
_cell_angle_gamma   119.99999653
_symmetry_Int_Tables_number   1
_chemical_formula_structural   HoTa7O19
_chemical_formula_sum   'Ho2 Ta14 O38'
_cell_volume   682.69211937
_cell_formula_units_Z   2
loop_
 _symmetry_equiv_pos_site_id
 _symmetry_equiv_pos_as_xyz
  1  'x, y, z'
loop_
 _atom_site_type_symbol
 _atom_site_label
 _atom_site_symmetry_multiplicity
 _atom_site_fract_x
 _atom_site_fract_y
 _atom_site_fract_z
 _atom_site_occupancy
  Ho  Ho0  1  0.66666700  0.33333300  0.00000000  1
  Ho  Ho1  1  0.66666700  0.33333300  0.50000000  1
  Ta  Ta2  1  0.69371200  0.02708000  0.15537700  1
  Ta  Ta3  1  0.69371200  0.02708000  0.34462300  1
  Ta  Ta4  1  0.97292000  0.30628800  0.65537700  1
  Ta  Ta5  1  0.97292000  0.30628800  0.84462300  1
  Ta  Ta6  1  0.69371200  0.66663100  0.84462300  1
  Ta  Ta7  1  0.69371200  0.66663100  0.65537700  1
  Ta  Ta8  1  0.00000000  0.00000000  0.50000000  1
  Ta  Ta9  1  0.00000000  0.00000000  0.00000000  1
  Ta  Ta10  1  0.97292000  0.66663100  0.15537700  1
  Ta  Ta11  1  0.97292000  0.66663100  0.34462300  1
  Ta  Ta12  1  0.33336900  0.30628800  0.15537700  1
  Ta  Ta13  1  0.33336900  0.30628800  0.34462300  1
  Ta  Ta14  1  0.33336900  0.02708000  0.84462300  1
  Ta  Ta15  1  0.33336900  0.02708000  0.65537700  1
  O  O16  1  0.33304200  0.41919900  0.65322500  1
  O  O17  1  0.33304200  0.41919900  0.84677500  1
  O  O18  1  0.37596400  0.29312100  0.25000000  1
  O  O19  1  0.58080100  0.66695800  0.34677500  1
  O  O20  1  0.58080100  0.66695800  0.15322500  1
  O  O21  1  0.37596400  0.08284300  0.75000000  1
  O  O22  1  0.33304200  0.91384300  0.15322500  1
  O  O23  1  0.33304200  0.91384300  0.34677500  1
  O  O24  1  0.70687900  0.62403600  0.75000000  1
  O  O25  1  0.66666700  0.33333300  0.13071800  1
  O  O26  1  0.66666700  0.33333300  0.86928200  1
  O  O27  1  0.66666700  0.33333300  0.63071800  1
  O  O28  1  0.66666700  0.33333300  0.36928200  1
  O  O29  1  0.91715700  0.62403600  0.25000000  1
  O  O30  1  0.58080100  0.91384300  0.65322500  1
  O  O31  1  0.58080100  0.91384300  0.84677500  1
  O  O32  1  0.70687900  0.08284300  0.25000000  1
  O  O33  1  0.76092800  0.05076900  0.05543000  1
  O  O34  1  0.76092800  0.05076900  0.44457000  1
  O  O35  1  0.08615700  0.66695800  0.84677500  1
  O  O36  1  0.08615700  0.66695800  0.65322500  1
  O  O37  1  0.91715700  0.29312100  0.75000000  1
  O  O38  1  0.94923100  0.23907200  0.94457000  1
  O  O39  1  0.94923100  0.23907200  0.55543000  1
  O  O40  1  0.08615700  0.41919900  0.15322500  1
  O  O41  1  0.08615700  0.41919900  0.34677500  1
  O  O42  1  0.76092800  0.71015900  0.55543000  1
  O  O43  1  0.76092800  0.71015900  0.94457000  1
  O  O44  1  0.00000000  0.00000000  0.33365900  1
  O  O45  1  0.00000000  0.00000000  0.83365900  1
  O  O46  1  0.00000000  0.00000000  0.66634100  1
  O  O47  1  0.00000000  0.00000000  0.16634100  1
  O  O48  1  0.94923100  0.71015900  0.05543000  1
  O  O49  1  0.94923100  0.71015900  0.44457000  1
  O  O50  1  0.28984100  0.23907200  0.05543000  1
  O  O51  1  0.28984100  0.23907200  0.44457000  1
  O  O52  1  0.28984100  0.05076900  0.55543000  1
  O  O53  1  0.28984100  0.05076900  0.94457000  1
