# generated using pymatgen
data_CeHfO4
_symmetry_space_group_name_H-M   'P 1'
_cell_length_a   7.45785100
_cell_length_b   7.47064700
_cell_length_c   10.55797800
_cell_angle_alpha   90.00000000
_cell_angle_beta   90.00000000
_cell_angle_gamma   90.00000000
_symmetry_Int_Tables_number   1
_chemical_formula_structural   CeHfO4
_chemical_formula_sum   'Ce8 Hf8 O32'
_cell_volume   588.23745075
_cell_formula_units_Z   8
loop_
 _symmetry_equiv_pos_site_id
 _symmetry_equiv_pos_as_xyz
  1  'x, y, z'
loop_
 _atom_site_type_symbol
 _atom_site_label
 _atom_site_symmetry_multiplicity
 _atom_site_fract_x
 _atom_site_fract_y
 _atom_site_fract_z
 _atom_site_occupancy
  Ce  Ce0  1  0.50000000  0.00076700  0.37383600  1
  Ce  Ce1  1  0.00000000  0.49928400  0.87433100  1
  Ce  Ce2  1  0.75010900  0.25088800  0.62394800  1
  Ce  Ce3  1  0.25010900  0.74911200  0.12394800  1
  Ce  Ce4  1  0.24989100  0.25088800  0.62394800  1
  Ce  Ce5  1  0.74989100  0.74911200  0.12394800  1
  Ce  Ce6  1  0.50000000  0.50071600  0.37433100  1
  Ce  Ce7  1  0.00000000  0.99923300  0.87383600  1
  Hf  Hf8  1  0.74687000  0.24917300  0.12202800  1
  Hf  Hf9  1  0.24687000  0.75082700  0.62202800  1
  Hf  Hf10  1  0.00000000  0.48764300  0.36776300  1
  Hf  Hf11  1  0.50000000  0.00426400  0.87551600  1
  Hf  Hf12  1  0.00000000  0.99573600  0.37551600  1
  Hf  Hf13  1  0.50000000  0.51235700  0.86776300  1
  Hf  Hf14  1  0.25313000  0.24917300  0.12202800  1
  Hf  Hf15  1  0.75313000  0.75082700  0.62202800  1
  O  O16  1  0.75735600  0.48678300  0.24689500  1
  O  O17  1  0.00000000  0.74517300  0.26305300  1
  O  O18  1  0.73640600  0.48831000  0.99689400  1
  O  O19  1  0.00000000  0.76162500  0.50457100  1
  O  O20  1  0.00000000  0.74828500  0.00015000  1
  O  O21  1  0.00000000  0.75080500  0.74027000  1
  O  O22  1  0.76359400  0.51169000  0.49689400  1
  O  O23  1  0.26418700  0.98998800  0.74756300  1
  O  O24  1  0.50000000  0.74802900  0.51175100  1
  O  O25  1  0.76418700  0.01001200  0.24756300  1
  O  O26  1  0.50000000  0.74658300  0.75148400  1
  O  O27  1  0.25735600  0.51321700  0.74689500  1
  O  O28  1  0.23640600  0.51169000  0.49689400  1
  O  O29  1  0.74236900  0.00944400  0.99712700  1
  O  O30  1  0.00000000  0.24517800  0.48880200  1
  O  O31  1  0.00000000  0.24953800  0.74938800  1
  O  O32  1  0.50000000  0.75046200  0.24938800  1
  O  O33  1  0.50000000  0.75482200  0.98880200  1
  O  O34  1  0.75763100  0.99055600  0.49712700  1
  O  O35  1  0.26359400  0.48831000  0.99689400  1
  O  O36  1  0.24264400  0.48678300  0.24689500  1
  O  O37  1  0.00000000  0.25341700  0.25148400  1
  O  O38  1  0.73581300  0.98998800  0.74756300  1
  O  O39  1  0.00000000  0.25197100  0.01175100  1
  O  O40  1  0.23581300  0.01001200  0.24756300  1
  O  O41  1  0.50000000  0.25171500  0.50015000  1
  O  O42  1  0.50000000  0.23837500  0.00457100  1
  O  O43  1  0.50000000  0.24919500  0.24027000  1
  O  O44  1  0.74264400  0.51321700  0.74689500  1
  O  O45  1  0.50000000  0.25482700  0.76305300  1
  O  O46  1  0.25763100  0.00944400  0.99712700  1
  O  O47  1  0.24236900  0.99055600  0.49712700  1
