# generated using pymatgen
data_Ni6OF11
_symmetry_space_group_name_H-M   'P 1'
_cell_length_a   5.63113440
_cell_length_b   5.63113440
_cell_length_c   7.35858267
_cell_angle_alpha   72.27675970
_cell_angle_beta   72.27675970
_cell_angle_gamma   72.01130050
_symmetry_Int_Tables_number   1
_chemical_formula_structural   Ni6OF11
_chemical_formula_sum   'Ni6 O1 F11'
_cell_volume   205.61870068
_cell_formula_units_Z   1
loop_
 _symmetry_equiv_pos_site_id
 _symmetry_equiv_pos_as_xyz
  1  'x, y, z'
loop_
 _atom_site_type_symbol
 _atom_site_label
 _atom_site_symmetry_multiplicity
 _atom_site_fract_x
 _atom_site_fract_y
 _atom_site_fract_z
 _atom_site_occupancy
  Ni  Ni0  1  0.66686400  0.65551200  0.83894200  1
  Ni  Ni1  1  0.66976900  0.66597500  0.33330500  1
  Ni  Ni2  1  0.33402500  0.33023100  0.66669500  1
  Ni  Ni3  1  0.34448800  0.33313600  0.16105800  1
  Ni  Ni4  1  0.00087100  0.99912900  0.50000000  1
  Ni  Ni5  1  0.99266500  0.00733500  0.00000000  1
  O  O6  1  0.69138800  0.30861200  0.00000000  1
  F  F7  1  0.63742300  0.02260400  0.67066100  1
  F  F8  1  0.97739600  0.36257700  0.32933900  1
  F  F9  1  0.89832200  0.90076400  0.29790300  1
  F  F10  1  0.56424800  0.56465400  0.63107100  1
  F  F11  1  0.23061000  0.23431300  0.96435700  1
  F  F12  1  0.09923600  0.10167800  0.70209700  1
  F  F13  1  0.76568700  0.76939000  0.03564300  1
  F  F14  1  0.43534600  0.43575200  0.36892900  1
  F  F15  1  0.36542800  0.97009700  0.33282400  1
  F  F16  1  0.02990300  0.63457200  0.66717600  1
  F  F17  1  0.29633000  0.70367000  0.00000000  1
