# generated using pymatgen
data_Mg14ZrB
_symmetry_space_group_name_H-M   'P 1'
_cell_length_a   6.34452981
_cell_length_b   6.34452981
_cell_length_c   10.08845900
_cell_angle_alpha   90.00000000
_cell_angle_beta   90.00000000
_cell_angle_gamma   123.43609568
_symmetry_Int_Tables_number   1
_chemical_formula_structural   Mg14ZrB
_chemical_formula_sum   'Mg14 Zr1 B1'
_cell_volume   338.88358113
_cell_formula_units_Z   1
loop_
 _symmetry_equiv_pos_site_id
 _symmetry_equiv_pos_as_xyz
  1  'x, y, z'
loop_
 _atom_site_type_symbol
 _atom_site_label
 _atom_site_symmetry_multiplicity
 _atom_site_fract_x
 _atom_site_fract_y
 _atom_site_fract_z
 _atom_site_occupancy
  Mg  Mg0  1  0.83285400  0.16714600  0.00000000  1
  Mg  Mg1  1  0.32862300  0.67137700  0.00000000  1
  Mg  Mg2  1  0.32309100  0.20086700  0.50000000  1
  Mg  Mg3  1  0.32547300  0.16398000  0.00000000  1
  Mg  Mg4  1  0.79913300  0.67690900  0.50000000  1
  Mg  Mg5  1  0.83602000  0.67452700  0.00000000  1
  Mg  Mg6  1  0.16833700  0.33154900  0.25715100  1
  Mg  Mg7  1  0.16833700  0.33154900  0.74284900  1
  Mg  Mg8  1  0.66845100  0.83166300  0.25715100  1
  Mg  Mg9  1  0.66845100  0.83166300  0.74284900  1
  Mg  Mg10  1  0.66870500  0.33129500  0.24667800  1
  Mg  Mg11  1  0.66870500  0.33129500  0.75332200  1
  Mg  Mg12  1  0.18536000  0.81464000  0.28414800  1
  Mg  Mg13  1  0.18536000  0.81464000  0.71585200  1
  Zr  Zr14  1  0.81647100  0.18352900  0.50000000  1
  B  B15  1  0.35663800  0.64336200  0.50000000  1
