# generated using pymatgen
data_Ag2F3
_symmetry_space_group_name_H-M   'P 1'
_cell_length_a   6.38144712
_cell_length_b   6.38144712
_cell_length_c   6.38144721
_cell_angle_alpha   54.85234396
_cell_angle_beta   54.85234396
_cell_angle_gamma   54.85233920
_symmetry_Int_Tables_number   1
_chemical_formula_structural   Ag2F3
_chemical_formula_sum   'Ag4 F6'
_cell_volume   161.73462161
_cell_formula_units_Z   2
loop_
 _symmetry_equiv_pos_site_id
 _symmetry_equiv_pos_as_xyz
  1  'x, y, z'
loop_
 _atom_site_type_symbol
 _atom_site_label
 _atom_site_symmetry_multiplicity
 _atom_site_fract_x
 _atom_site_fract_y
 _atom_site_fract_z
 _atom_site_occupancy
  Ag  Ag0  1  0.84767700  0.84767700  0.84767700  1
  Ag  Ag1  1  0.65232300  0.65232300  0.65232300  1
  Ag  Ag2  1  0.34767700  0.34767700  0.34767700  1
  Ag  Ag3  1  0.15232300  0.15232300  0.15232300  1
  F  F4  1  0.25000000  0.55852300  0.94147700  1
  F  F5  1  0.94147700  0.25000000  0.55852300  1
  F  F6  1  0.55852300  0.94147700  0.25000000  1
  F  F7  1  0.44147700  0.05852300  0.75000000  1
  F  F8  1  0.05852300  0.75000000  0.44147700  1
  F  F9  1  0.75000000  0.44147700  0.05852300  1
