# generated using pymatgen
data_CaCeMg6
_symmetry_space_group_name_H-M   'P 1'
_cell_length_a   6.57180275
_cell_length_b   6.57180275
_cell_length_c   5.33308500
_cell_angle_alpha   90.00000000
_cell_angle_beta   90.00000000
_cell_angle_gamma   117.73044797
_symmetry_Int_Tables_number   1
_chemical_formula_structural   CaCeMg6
_chemical_formula_sum   'Ca1 Ce1 Mg6'
_cell_volume   203.87439712
_cell_formula_units_Z   1
loop_
 _symmetry_equiv_pos_site_id
 _symmetry_equiv_pos_as_xyz
  1  'x, y, z'
loop_
 _atom_site_type_symbol
 _atom_site_label
 _atom_site_symmetry_multiplicity
 _atom_site_fract_x
 _atom_site_fract_y
 _atom_site_fract_z
 _atom_site_occupancy
  Ca  Ca0  1  0.84320300  0.15679700  0.00000000  1
  Ce  Ce1  1  0.65496600  0.34503400  0.50000000  1
  Mg  Mg2  1  0.83556300  0.66593800  0.00000000  1
  Mg  Mg3  1  0.33406200  0.16443700  0.00000000  1
  Mg  Mg4  1  0.33668900  0.66331100  0.00000000  1
  Mg  Mg5  1  0.66810300  0.83292300  0.50000000  1
  Mg  Mg6  1  0.16707700  0.33189700  0.50000000  1
  Mg  Mg7  1  0.16033900  0.83966100  0.50000000  1
