# generated using pymatgen
data_Sb2H8Pt(OF3)4
_symmetry_space_group_name_H-M   'P 1'
_cell_length_a   5.06396600
_cell_length_b   7.88736458
_cell_length_c   8.62353563
_cell_angle_alpha   69.40070239
_cell_angle_beta   83.77324171
_cell_angle_gamma   75.81523156
_symmetry_Int_Tables_number   1
_chemical_formula_structural   Sb2H8Pt(OF3)4
_chemical_formula_sum   'Sb2 H8 Pt1 O4 F12'
_cell_volume   312.48956704
_cell_formula_units_Z   1
loop_
 _symmetry_equiv_pos_site_id
 _symmetry_equiv_pos_as_xyz
  1  'x, y, z'
loop_
 _atom_site_type_symbol
 _atom_site_label
 _atom_site_symmetry_multiplicity
 _atom_site_fract_x
 _atom_site_fract_y
 _atom_site_fract_z
 _atom_site_occupancy
  Sb  Sb0  1  0.35028700  0.33655200  0.33392000  1
  Sb  Sb1  1  0.64971300  0.66344800  0.66608000  1
  H  H2  1  0.73188100  0.75825100  0.01031000  1
  H  H3  1  0.80244900  0.72411200  0.19544500  1
  H  H4  1  0.23006800  0.86365900  0.29118500  1
  H  H5  1  0.94967700  0.01299600  0.29640100  1
  H  H6  1  0.05032300  0.98700400  0.70359900  1
  H  H7  1  0.76993200  0.13634100  0.70881500  1
  H  H8  1  0.19755100  0.27588800  0.80455500  1
  H  H9  1  0.26811900  0.24174900  0.98969000  1
  Pt  Pt10  1  0.00000000  0.00000000  0.00000000  1
  O  O11  1  0.73940000  0.82323400  0.08991800  1
  O  O12  1  0.10910600  0.98088000  0.22656300  1
  O  O13  1  0.89089400  0.01912000  0.77343700  1
  O  O14  1  0.26060000  0.17676600  0.91008200  1
  F  F15  1  0.22634700  0.37115800  0.11791900  1
  F  F16  1  0.62944800  0.46737300  0.23069700  1
  F  F17  1  0.59096700  0.10738600  0.32720900  1
  F  F18  1  0.11055000  0.57084000  0.32706100  1
  F  F19  1  0.52788200  0.70719600  0.44781800  1
  F  F20  1  0.06813900  0.20622100  0.43736000  1
  F  F21  1  0.93186100  0.79377900  0.56264000  1
  F  F22  1  0.47211800  0.29280400  0.55218200  1
  F  F23  1  0.88945000  0.42916000  0.67293900  1
  F  F24  1  0.40903300  0.89261400  0.67279100  1
  F  F25  1  0.37055200  0.53262700  0.76930300  1
  F  F26  1  0.77365300  0.62884200  0.88208100  1
