# generated using pymatgen
data_RbHfMg14O15
_symmetry_space_group_name_H-M   'P 1'
_cell_length_a   4.17764700
_cell_length_b   8.41779500
_cell_length_c   10.78961400
_cell_angle_alpha   90.00000000
_cell_angle_beta   90.00000000
_cell_angle_gamma   90.00000000
_symmetry_Int_Tables_number   1
_chemical_formula_structural   RbHfMg14O15
_chemical_formula_sum   'Rb1 Hf1 Mg14 O15'
_cell_volume   379.43378105
_cell_formula_units_Z   1
loop_
 _symmetry_equiv_pos_site_id
 _symmetry_equiv_pos_as_xyz
  1  'x, y, z'
loop_
 _atom_site_type_symbol
 _atom_site_label
 _atom_site_symmetry_multiplicity
 _atom_site_fract_x
 _atom_site_fract_y
 _atom_site_fract_z
 _atom_site_occupancy
  Rb  Rb0  1  0.00000000  0.00000000  0.93644000  1
  Hf  Hf1  1  0.00000000  0.50000000  0.98985700  1
  Mg  Mg2  1  0.00000000  0.00000000  0.47404800  1
  Mg  Mg3  1  0.00000000  0.50000000  0.46045100  1
  Mg  Mg4  1  0.50000000  0.76649700  0.07739200  1
  Mg  Mg5  1  0.50000000  0.23350300  0.07739200  1
  Mg  Mg6  1  0.50000000  0.74441700  0.48156000  1
  Mg  Mg7  1  0.50000000  0.25558300  0.48156000  1
  Mg  Mg8  1  0.50000000  0.00000000  0.67227500  1
  Mg  Mg9  1  0.50000000  0.50000000  0.72415900  1
  Mg  Mg10  1  0.50000000  0.00000000  0.26831700  1
  Mg  Mg11  1  0.50000000  0.50000000  0.27085700  1
  Mg  Mg12  1  0.00000000  0.74774900  0.68409800  1
  Mg  Mg13  1  0.00000000  0.25225100  0.68409800  1
  Mg  Mg14  1  0.00000000  0.75315000  0.26645200  1
  Mg  Mg15  1  0.00000000  0.24685000  0.26645200  1
  O  O16  1  0.00000000  0.50000000  0.79290000  1
  O  O17  1  0.00000000  0.00000000  0.28954300  1
  O  O18  1  0.00000000  0.50000000  0.27418800  1
  O  O19  1  0.50000000  0.74147100  0.68448200  1
  O  O20  1  0.50000000  0.25852900  0.68448200  1
  O  O21  1  0.50000000  0.74606600  0.26968900  1
  O  O22  1  0.50000000  0.25393400  0.26968900  1
  O  O23  1  0.50000000  0.00000000  0.07932100  1
  O  O24  1  0.50000000  0.50000000  0.03441000  1
  O  O25  1  0.50000000  0.00000000  0.48174600  1
  O  O26  1  0.50000000  0.50000000  0.47632300  1
  O  O27  1  0.00000000  0.71885300  0.06339400  1
  O  O28  1  0.00000000  0.28114700  0.06339400  1
  O  O29  1  0.00000000  0.74299100  0.48551700  1
  O  O30  1  0.00000000  0.25700900  0.48551700  1
