# generated using pymatgen
data_Li3Mn3FeO8
_symmetry_space_group_name_H-M   'P 1'
_cell_length_a   5.88123427
_cell_length_b   5.88123427
_cell_length_c   5.88123445
_cell_angle_alpha   57.62850109
_cell_angle_beta   57.62850109
_cell_angle_gamma   57.62850182
_symmetry_Int_Tables_number   1
_chemical_formula_structural   Li3Mn3FeO8
_chemical_formula_sum   'Li3 Mn3 Fe1 O8'
_cell_volume   136.00311581
_cell_formula_units_Z   1
loop_
 _symmetry_equiv_pos_site_id
 _symmetry_equiv_pos_as_xyz
  1  'x, y, z'
loop_
 _atom_site_type_symbol
 _atom_site_label
 _atom_site_symmetry_multiplicity
 _atom_site_fract_x
 _atom_site_fract_y
 _atom_site_fract_z
 _atom_site_occupancy
  Li  Li0  1  0.00000000  0.50000000  0.00000000  1
  Li  Li1  1  0.50000000  0.00000000  0.00000000  1
  Li  Li2  1  0.00000000  0.00000000  0.50000000  1
  Mn  Mn3  1  0.50000000  0.00000000  0.50000000  1
  Mn  Mn4  1  0.00000000  0.50000000  0.50000000  1
  Mn  Mn5  1  0.50000000  0.50000000  0.00000000  1
  Fe  Fe6  1  0.00000000  0.00000000  0.00000000  1
  O  O7  1  0.25823900  0.25823900  0.25823900  1
  O  O8  1  0.76222300  0.25897300  0.76222300  1
  O  O9  1  0.25897300  0.76222300  0.76222300  1
  O  O10  1  0.74176100  0.74176100  0.74176100  1
  O  O11  1  0.76222300  0.76222300  0.25897300  1
  O  O12  1  0.23777700  0.74102700  0.23777700  1
  O  O13  1  0.74102700  0.23777700  0.23777700  1
  O  O14  1  0.23777700  0.23777700  0.74102700  1
