# generated using pymatgen
data_V18Cu20O57
_symmetry_space_group_name_H-M   'P 1'
_cell_length_a   7.85389100
_cell_length_b   12.20615256
_cell_length_c   12.20677576
_cell_angle_alpha   64.03314897
_cell_angle_beta   87.23395810
_cell_angle_gamma   87.22848284
_symmetry_Int_Tables_number   1
_chemical_formula_structural   V18Cu20O57
_chemical_formula_sum   'V18 Cu20 O57'
_cell_volume   1050.36763756
_cell_formula_units_Z   1
loop_
 _symmetry_equiv_pos_site_id
 _symmetry_equiv_pos_as_xyz
  1  'x, y, z'
loop_
 _atom_site_type_symbol
 _atom_site_label
 _atom_site_symmetry_multiplicity
 _atom_site_fract_x
 _atom_site_fract_y
 _atom_site_fract_z
 _atom_site_occupancy
  V  V0  1  0.90505800  0.71297100  0.88746000  1
  V  V1  1  0.85243900  0.35796600  0.47605000  1
  V  V2  1  0.51520100  0.69253900  0.81046800  1
  V  V3  1  0.19585100  0.02362500  0.13842400  1
  V  V4  1  0.25214200  0.07319500  0.36572800  1
  V  V5  1  0.91900100  0.40968500  0.69923400  1
  V  V6  1  0.58328500  0.75122400  0.03155200  1
  V  V7  1  0.09494200  0.28702900  0.11254000  1
  V  V8  1  0.43001500  0.95490400  0.78947700  1
  V  V9  1  0.56998500  0.04509600  0.21052300  1
  V  V10  1  0.23837800  0.37933900  0.55113100  1
  V  V11  1  0.08099900  0.59031500  0.30076600  1
  V  V12  1  0.41671500  0.24877600  0.96844800  1
  V  V13  1  0.74785800  0.92680500  0.63427200  1
  V  V14  1  0.14756100  0.64203400  0.52395000  1
  V  V15  1  0.48479900  0.30746100  0.18953200  1
  V  V16  1  0.80414900  0.97637500  0.86157600  1
  V  V17  1  0.76162200  0.62066100  0.44886900  1
  Cu  Cu18  1  0.84838600  0.84980700  0.16606300  1
  Cu  Cu19  1  0.91888000  0.90022000  0.38288700  1
  Cu  Cu20  1  0.16111900  0.82394500  0.01969600  1
  Cu  Cu21  1  0.17121400  0.84362700  0.64756900  1
  Cu  Cu22  1  0.83888100  0.17605500  0.98030400  1
  Cu  Cu23  1  0.08112000  0.09978000  0.61711300  1
  Cu  Cu24  1  0.41478200  0.76831200  0.28189900  1
  Cu  Cu25  1  0.15161400  0.15019300  0.83393700  1
  Cu  Cu26  1  0.48556900  0.81937000  0.49980300  1
  Cu  Cu27  1  0.83228000  0.66771500  0.66762000  1
  Cu  Cu28  1  0.16772000  0.33228500  0.33238000  1
  Cu  Cu29  1  0.51443100  0.18063000  0.50019700  1
  Cu  Cu30  1  0.18237000  0.51458900  0.83414500  1
  Cu  Cu31  1  0.58521800  0.23168800  0.71810100  1
  Cu  Cu32  1  0.25425900  0.56520300  0.05047300  1
  Cu  Cu33  1  0.49449600  0.48950500  0.68841200  1
  Cu  Cu34  1  0.82878600  0.15637300  0.35243100  1
  Cu  Cu35  1  0.50550400  0.51049500  0.31158800  1
  Cu  Cu36  1  0.74574100  0.43479700  0.94952700  1
  Cu  Cu37  1  0.81763000  0.48541100  0.16585500  1
  O  O38  1  0.87988900  0.68012500  0.29379400  1
  O  O39  1  0.92120700  0.72192900  0.48845400  1
  O  O40  1  0.93658500  0.79548300  0.70649600  1
  O  O41  1  0.98235400  0.84492000  0.90240500  1
  O  O42  1  0.86720200  0.01764300  0.69433300  1
  O  O43  1  0.20008700  0.68610000  0.36000800  1
  O  O44  1  0.91446500  0.08212700  0.88445600  1
  O  O45  1  0.24961900  0.74841900  0.55045500  1
  O  O46  1  0.08553500  0.91787300  0.11554400  1
  O  O47  1  0.13279800  0.98235700  0.30566700  1
  O  O48  1  0.01764600  0.15508000  0.09759500  1
  O  O49  1  0.35397000  0.82268400  0.76096100  1
  O  O50  1  0.51569900  0.68515800  0.18181400  1
  O  O51  1  0.18205900  0.01682100  0.51535300  1
  O  O52  1  0.84933300  0.35036100  0.84842100  1
  O  O53  1  0.39629900  0.86427400  0.95800000  1
  O  O54  1  0.06341500  0.20451700  0.29350400  1
  O  O55  1  0.58538700  0.71641900  0.41664100  1
  O  O56  1  0.25299600  0.05050500  0.75079100  1
  O  O57  1  0.91874200  0.38372400  0.08250000  1
  O  O58  1  0.07879300  0.27807100  0.51154600  1
  O  O59  1  0.40932000  0.94515700  0.18406700  1
  O  O60  1  0.95846600  0.45122800  0.30817800  1
  O  O61  1  0.28471400  0.12175800  0.97615400  1
  O  O62  1  0.62726100  0.78382400  0.64094900  1
  O  O63  1  0.45403700  0.98850100  0.37341900  1
  O  O64  1  0.12011100  0.31987500  0.70620600  1
  O  O65  1  0.00000000  0.50000000  0.50000000  1
  O  O66  1  0.66708700  0.83267400  0.83278800  1
  O  O67  1  0.33291300  0.16732600  0.16721200  1
  O  O68  1  0.21495200  0.34663100  0.96181600  1
  O  O69  1  0.54596300  0.01149900  0.62658100  1
  O  O70  1  0.37273900  0.21617600  0.35905100  1
  O  O71  1  0.04153400  0.54877200  0.69182200  1
  O  O72  1  0.71528600  0.87824200  0.02384600  1
  O  O73  1  0.59068000  0.05484300  0.81593300  1
  O  O74  1  0.25409300  0.38880400  0.15679900  1
  O  O75  1  0.41461300  0.28358100  0.58335900  1
  O  O76  1  0.74700400  0.94949500  0.24920900  1
  O  O77  1  0.08125800  0.61627600  0.91750000  1
  O  O78  1  0.26929300  0.46365600  0.37355300  1
  O  O79  1  0.60370100  0.13572600  0.04200000  1
  O  O80  1  0.15066700  0.64963900  0.15157900  1
  O  O81  1  0.48430100  0.31484200  0.81818600  1
  O  O82  1  0.81794100  0.98317900  0.48464700  1
  O  O83  1  0.64603000  0.17731600  0.23903900  1
  O  O84  1  0.31507400  0.51130300  0.57112100  1
  O  O85  1  0.53060300  0.35431600  0.02672900  1
  O  O86  1  0.58351700  0.41469000  0.21789700  1
  O  O87  1  0.41648300  0.58531000  0.78210300  1
  O  O88  1  0.75038100  0.25158100  0.44954500  1
  O  O89  1  0.46939700  0.64568400  0.97327100  1
  O  O90  1  0.79991300  0.31390000  0.63999200  1
  O  O91  1  0.68492600  0.48869700  0.42887900  1
  O  O92  1  0.73070700  0.53634400  0.62644700  1
  O  O93  1  0.74590700  0.61119600  0.84320100  1
  O  O94  1  0.78504800  0.65336900  0.03818400  1
