# generated using pymatgen
data_K6Al32O51
_symmetry_space_group_name_H-M   'P 1'
_cell_length_a   9.83504798
_cell_length_b   9.83504798
_cell_length_c   12.01334859
_cell_angle_alpha   82.15450402
_cell_angle_beta   82.15450402
_cell_angle_gamma   120.00367271
_symmetry_Int_Tables_number   1
_chemical_formula_structural   K6Al32O51
_chemical_formula_sum   'K6 Al32 O51'
_cell_volume   968.07832129
_cell_formula_units_Z   1
loop_
 _symmetry_equiv_pos_site_id
 _symmetry_equiv_pos_as_xyz
  1  'x, y, z'
loop_
 _atom_site_type_symbol
 _atom_site_label
 _atom_site_symmetry_multiplicity
 _atom_site_fract_x
 _atom_site_fract_y
 _atom_site_fract_z
 _atom_site_occupancy
  K  K0  1  0.81188600  0.81188600  0.51303700  1
  K  K1  1  0.81835700  0.50859800  0.47424000  1
  K  K2  1  0.49582900  0.17959600  0.51246600  1
  K  K3  1  0.50859800  0.81835700  0.47424000  1
  K  K4  1  0.19877800  0.19877800  0.47416100  1
  K  K5  1  0.17959600  0.49582900  0.51246600  1
  Al  Al6  1  0.99898100  0.99898100  0.00217000  1
  Al  Al7  1  0.90068000  0.90068000  0.79322200  1
  Al  Al8  1  0.90356700  0.40326700  0.79118700  1
  Al  Al9  1  0.73540300  0.56996400  0.79554600  1
  Al  Al10  1  0.66599900  0.33293700  0.00215300  1
  Al  Al11  1  0.98216200  0.31605200  0.05196000  1
  Al  Al12  1  0.88446200  0.21778700  0.34656100  1
  Al  Al13  1  0.78249600  0.11542000  0.65232600  1
  Al  Al14  1  0.68325300  0.01764300  0.95008500  1
  Al  Al15  1  0.92545300  0.75888000  0.21279200  1
  Al  Al16  1  0.75888000  0.92545300  0.21279200  1
  Al  Al17  1  0.76207700  0.43295500  0.21279600  1
  Al  Al18  1  0.56859700  0.23496900  0.79353300  1
  Al  Al19  1  0.56996400  0.73540300  0.79554600  1
  Al  Al20  1  0.40326700  0.90356700  0.79118700  1
  Al  Al21  1  0.64606100  0.64606100  0.06342800  1
  Al  Al22  1  0.34897900  0.34897900  0.94979000  1
  Al  Al23  1  0.44765700  0.44765700  0.65807900  1
  Al  Al24  1  0.33293700  0.66599900  0.00215300  1
  Al  Al25  1  0.59740000  0.09504100  0.20704600  1
  Al  Al26  1  0.42919900  0.26646100  0.21260200  1
  Al  Al27  1  0.23496900  0.56859700  0.79353300  1
  Al  Al28  1  0.43295500  0.76207700  0.21279600  1
  Al  Al29  1  0.23534900  0.06778000  0.79351700  1
  Al  Al30  1  0.06778000  0.23534900  0.79351700  1
  Al  Al31  1  0.31605200  0.98216200  0.05196000  1
  Al  Al32  1  0.11542000  0.78249600  0.65232600  1
  Al  Al33  1  0.01764300  0.68325300  0.95008500  1
  Al  Al34  1  0.21778700  0.88446200  0.34656100  1
  Al  Al35  1  0.26646100  0.42919900  0.21260200  1
  Al  Al36  1  0.09504100  0.59740000  0.20704600  1
  Al  Al37  1  0.10035800  0.10035800  0.20700300  1
  O  O38  1  0.93279800  0.26609100  0.71031300  1
  O  O39  1  0.92632700  0.76264400  0.71132700  1
  O  O40  1  0.87654900  0.03419400  0.89993700  1
  O  O41  1  0.85726100  0.52380000  0.89993100  1
  O  O42  1  0.70422400  0.70422400  0.89556600  1
  O  O43  1  0.91078600  0.91078600  0.28011400  1
  O  O44  1  0.97256100  0.63189100  0.10429800  1
  O  O45  1  0.75994800  0.42773300  0.71975200  1
  O  O46  1  0.83314800  0.16629500  0.50022400  1
  O  O47  1  0.76264400  0.92632700  0.71132700  1
  O  O48  1  0.96654800  0.12421600  0.09770500  1
  O  O49  1  0.90578200  0.40495300  0.28816700  1
  O  O50  1  0.69998500  0.21079000  0.89899600  1
  O  O51  1  0.59711300  0.59711300  0.71994000  1
  O  O52  1  0.81357300  0.81357300  0.09770600  1
  O  O53  1  0.75537700  0.57209200  0.28444700  1
  O  O54  1  0.54298600  0.36530500  0.90229700  1
  O  O55  1  0.59385400  0.09705100  0.71031300  1
  O  O56  1  0.79096500  0.30130600  0.09757600  1
  O  O57  1  0.52380000  0.85726100  0.89993100  1
  O  O58  1  0.73607900  0.07168500  0.28813200  1
  O  O59  1  0.49575800  0.49575800  0.51368400  1
  O  O60  1  0.57313500  0.23602900  0.28004700  1
  O  O61  1  0.42773300  0.75994800  0.71975200  1
  O  O62  1  0.36940200  0.03315300  0.89178000  1
  O  O63  1  0.63189100  0.97256100  0.10429800  1
  O  O64  1  0.42677900  0.25652600  0.71893300  1
  O  O65  1  0.63453700  0.45546000  0.09778100  1
  O  O66  1  0.36530500  0.54298600  0.90229700  1
  O  O67  1  0.57209200  0.75537700  0.28444700  1
  O  O68  1  0.47694500  0.14359300  0.09766700  1
  O  O69  1  0.26609100  0.93279800  0.71031300  1
  O  O70  1  0.21079000  0.69998500  0.89899600  1
  O  O71  1  0.45546000  0.63453700  0.09778100  1
  O  O72  1  0.40495300  0.90578200  0.28816700  1
  O  O73  1  0.25652600  0.42677900  0.71893300  1
  O  O74  1  0.18758500  0.18758500  0.90136400  1
  O  O75  1  0.38859800  0.38859800  0.28438900  1
  O  O76  1  0.09264200  0.09264200  0.71976100  1
  O  O77  1  0.29124100  0.29124100  0.10440400  1
  O  O78  1  0.16629500  0.83314800  0.50022400  1
  O  O79  1  0.03315300  0.36940200  0.89178000  1
  O  O80  1  0.23602900  0.57313500  0.28004700  1
  O  O81  1  0.03419400  0.87654900  0.89993700  1
  O  O82  1  0.30130600  0.79096500  0.09757600  1
  O  O83  1  0.23530800  0.06970900  0.28815400  1
  O  O84  1  0.09705100  0.59385400  0.71031300  1
  O  O85  1  0.14359300  0.47694500  0.09766700  1
  O  O86  1  0.12421600  0.96654800  0.09770500  1
  O  O87  1  0.06970900  0.23530800  0.28815400  1
  O  O88  1  0.07168500  0.73607900  0.28813200  1
