# generated using pymatgen
data_VF4
_symmetry_space_group_name_H-M   'P 1'
_cell_length_a   5.10403100
_cell_length_b   5.92242400
_cell_length_c   9.69577337
_cell_angle_alpha   87.80188350
_cell_angle_beta   90.00000000
_cell_angle_gamma   90.00000000
_symmetry_Int_Tables_number   1
_chemical_formula_structural   VF4
_chemical_formula_sum   'V4 F16'
_cell_volume   292.87046322
_cell_formula_units_Z   4
loop_
 _symmetry_equiv_pos_site_id
 _symmetry_equiv_pos_as_xyz
  1  'x, y, z'
loop_
 _atom_site_type_symbol
 _atom_site_label
 _atom_site_symmetry_multiplicity
 _atom_site_fract_x
 _atom_site_fract_y
 _atom_site_fract_z
 _atom_site_occupancy
  V  V0  1  0.02121300  0.64154300  0.63443500  1
  V  V1  1  0.47878700  0.64154300  0.13443500  1
  V  V2  1  0.52121300  0.35845700  0.86556500  1
  V  V3  1  0.97878700  0.35845700  0.36556500  1
  F  F4  1  0.85493700  0.87924900  0.68942400  1
  F  F5  1  0.64506300  0.87924900  0.18942400  1
  F  F6  1  0.31828200  0.76203300  0.57103400  1
  F  F7  1  0.18171800  0.76203300  0.07103400  1
  F  F8  1  0.61659700  0.65493100  0.94444400  1
  F  F9  1  0.88340300  0.65493100  0.44444400  1
  F  F10  1  0.20021000  0.53960400  0.79927000  1
  F  F11  1  0.29979000  0.53960400  0.29927000  1
  F  F12  1  0.70021000  0.46039600  0.70073000  1
  F  F13  1  0.79979000  0.46039600  0.20073000  1
  F  F14  1  0.11659700  0.34506900  0.55555600  1
  F  F15  1  0.38340300  0.34506900  0.05555600  1
  F  F16  1  0.81828200  0.23796700  0.92896600  1
  F  F17  1  0.68171800  0.23796700  0.42896600  1
  F  F18  1  0.35493700  0.12075100  0.81057600  1
  F  F19  1  0.14506300  0.12075100  0.31057600  1
