# generated using pymatgen
data_CsMg14BO15
_symmetry_space_group_name_H-M   'P 1'
_cell_length_a   4.10247800
_cell_length_b   8.39996200
_cell_length_c   10.79776500
_cell_angle_alpha   90.00000000
_cell_angle_beta   90.00000000
_cell_angle_gamma   90.00000000
_symmetry_Int_Tables_number   1
_chemical_formula_structural   CsMg14BO15
_chemical_formula_sum   'Cs1 Mg14 B1 O15'
_cell_volume   372.09810093
_cell_formula_units_Z   1
loop_
 _symmetry_equiv_pos_site_id
 _symmetry_equiv_pos_as_xyz
  1  'x, y, z'
loop_
 _atom_site_type_symbol
 _atom_site_label
 _atom_site_symmetry_multiplicity
 _atom_site_fract_x
 _atom_site_fract_y
 _atom_site_fract_z
 _atom_site_occupancy
  Cs  Cs0  1  0.00000000  0.00000000  0.06137800  1
  Mg  Mg1  1  0.00000000  0.50000000  0.00330900  1
  Mg  Mg2  1  0.00000000  0.00000000  0.51938900  1
  Mg  Mg3  1  0.50000000  0.75474100  0.90958400  1
  Mg  Mg4  1  0.50000000  0.24525900  0.90958400  1
  Mg  Mg5  1  0.50000000  0.74519200  0.50937200  1
  Mg  Mg6  1  0.50000000  0.25480800  0.50937200  1
  Mg  Mg7  1  0.50000000  0.00000000  0.72137000  1
  Mg  Mg8  1  0.50000000  0.50000000  0.67399000  1
  Mg  Mg9  1  0.50000000  0.00000000  0.32574900  1
  Mg  Mg10  1  0.50000000  0.50000000  0.27784500  1
  Mg  Mg11  1  0.00000000  0.75528800  0.71751700  1
  Mg  Mg12  1  0.00000000  0.24471200  0.71751700  1
  Mg  Mg13  1  0.00000000  0.75463100  0.32674400  1
  Mg  Mg14  1  0.00000000  0.24536900  0.32674400  1
  B  B15  1  0.00000000  0.50000000  0.49293300  1
  O  O16  1  0.00000000  0.00000000  0.70435000  1
  O  O17  1  0.00000000  0.00000000  0.32354900  1
  O  O18  1  0.00000000  0.50000000  0.35612100  1
  O  O19  1  0.50000000  0.73245000  0.71409000  1
  O  O20  1  0.50000000  0.26755000  0.71409000  1
  O  O21  1  0.50000000  0.75241900  0.30378300  1
  O  O22  1  0.50000000  0.24758100  0.30378300  1
  O  O23  1  0.50000000  0.00000000  0.90681100  1
  O  O24  1  0.50000000  0.50000000  0.07159500  1
  O  O25  1  0.50000000  0.00000000  0.51587900  1
  O  O26  1  0.50000000  0.50000000  0.49351200  1
  O  O27  1  0.00000000  0.70039500  0.90732200  1
  O  O28  1  0.00000000  0.29960500  0.90732200  1
  O  O29  1  0.00000000  0.75336200  0.51269900  1
  O  O30  1  0.00000000  0.24663800  0.51269900  1
