# generated using pymatgen
data_Ho2Mg
_symmetry_space_group_name_H-M   'P 1'
_cell_length_a   8.82484061
_cell_length_b   8.82484061
_cell_length_c   5.44951400
_cell_angle_alpha   90.00000000
_cell_angle_beta   90.00000000
_cell_angle_gamma   156.25151381
_symmetry_Int_Tables_number   1
_chemical_formula_structural   Ho2Mg
_chemical_formula_sum   'Ho4 Mg2'
_cell_volume   170.91391171
_cell_formula_units_Z   2
loop_
 _symmetry_equiv_pos_site_id
 _symmetry_equiv_pos_as_xyz
  1  'x, y, z'
loop_
 _atom_site_type_symbol
 _atom_site_label
 _atom_site_symmetry_multiplicity
 _atom_site_fract_x
 _atom_site_fract_y
 _atom_site_fract_z
 _atom_site_occupancy
  Ho  Ho0  1  0.09559700  0.90440300  0.25000000  1
  Ho  Ho1  1  0.77401200  0.22598800  0.25000000  1
  Ho  Ho2  1  0.90440300  0.09559700  0.75000000  1
  Ho  Ho3  1  0.22598800  0.77401200  0.75000000  1
  Mg  Mg4  1  0.43622600  0.56377400  0.25000000  1
  Mg  Mg5  1  0.56377400  0.43622600  0.75000000  1
