# generated using pymatgen
data_NaIn3
_symmetry_space_group_name_H-M   'P 1'
_cell_length_a   6.66630433
_cell_length_b   6.66630433
_cell_length_c   5.55408300
_cell_angle_alpha   90.00000000
_cell_angle_beta   90.00000000
_cell_angle_gamma   120.00000332
_symmetry_Int_Tables_number   1
_chemical_formula_structural   NaIn3
_chemical_formula_sum   'Na2 In6'
_cell_volume   213.75351038
_cell_formula_units_Z   2
loop_
 _symmetry_equiv_pos_site_id
 _symmetry_equiv_pos_as_xyz
  1  'x, y, z'
loop_
 _atom_site_type_symbol
 _atom_site_label
 _atom_site_symmetry_multiplicity
 _atom_site_fract_x
 _atom_site_fract_y
 _atom_site_fract_z
 _atom_site_occupancy
  Na  Na0  1  0.66666700  0.33333300  0.25000000  1
  Na  Na1  1  0.33333300  0.66666700  0.75000000  1
  In  In2  1  0.83724500  0.16275500  0.75000000  1
  In  In3  1  0.32551100  0.16275500  0.75000000  1
  In  In4  1  0.83724500  0.67448900  0.75000000  1
  In  In5  1  0.16275500  0.83724500  0.25000000  1
  In  In6  1  0.67448900  0.83724500  0.25000000  1
  In  In7  1  0.16275500  0.32551100  0.25000000  1
