# generated using pymatgen
data_Hg
_symmetry_space_group_name_H-M   'P 1'
_cell_length_a   10.52227794
_cell_length_b   10.52227794
_cell_length_c   10.52227794
_cell_angle_alpha   109.47122063
_cell_angle_beta   109.47122063
_cell_angle_gamma   109.47122063
_symmetry_Int_Tables_number   1
_chemical_formula_structural   Hg
_chemical_formula_sum   Hg29
_cell_volume   896.82440232
_cell_formula_units_Z   29
loop_
 _symmetry_equiv_pos_site_id
 _symmetry_equiv_pos_as_xyz
  1  'x, y, z'
loop_
 _atom_site_type_symbol
 _atom_site_label
 _atom_site_symmetry_multiplicity
 _atom_site_fract_x
 _atom_site_fract_y
 _atom_site_fract_z
 _atom_site_occupancy
  Hg  Hg0  1  0.00000000  0.00000000  0.00000000  1
  Hg  Hg1  1  0.00000000  0.00000000  0.34572100  1
  Hg  Hg2  1  0.00000000  0.30874500  0.58776800  1
  Hg  Hg3  1  0.00000000  0.34572100  0.00000000  1
  Hg  Hg4  1  0.00000000  0.58776800  0.30874500  1
  Hg  Hg5  1  0.00000000  0.62125100  0.80705600  1
  Hg  Hg6  1  0.00000000  0.80705600  0.62125100  1
  Hg  Hg7  1  0.81419500  0.19294400  0.19294400  1
  Hg  Hg8  1  0.80705600  0.00000000  0.62125100  1
  Hg  Hg9  1  0.80705600  0.62125100  0.00000000  1
  Hg  Hg10  1  0.72097700  0.41223200  0.41223200  1
  Hg  Hg11  1  0.69125500  0.69125500  0.27902300  1
  Hg  Hg12  1  0.69125500  0.27902300  0.69125500  1
  Hg  Hg13  1  0.65427900  0.65427900  0.65427900  1
  Hg  Hg14  1  0.62125100  0.80705600  0.00000000  1
  Hg  Hg15  1  0.62125100  0.00000000  0.80705600  1
  Hg  Hg16  1  0.58776800  0.00000000  0.30874500  1
  Hg  Hg17  1  0.58776800  0.30874500  0.00000000  1
  Hg  Hg18  1  0.41223200  0.41223200  0.72097700  1
  Hg  Hg19  1  0.41223200  0.72097700  0.41223200  1
  Hg  Hg20  1  0.37874900  0.37874900  0.18580500  1
  Hg  Hg21  1  0.37874900  0.18580500  0.37874900  1
  Hg  Hg22  1  0.34572100  0.00000000  0.00000000  1
  Hg  Hg23  1  0.30874500  0.58776800  0.00000000  1
  Hg  Hg24  1  0.30874500  0.00000000  0.58776800  1
  Hg  Hg25  1  0.27902300  0.69125500  0.69125500  1
  Hg  Hg26  1  0.19294400  0.19294400  0.81419500  1
  Hg  Hg27  1  0.19294400  0.81419500  0.19294400  1
  Hg  Hg28  1  0.18580500  0.37874900  0.37874900  1
