# generated using pymatgen
data_Dy2Mg
_symmetry_space_group_name_H-M   'P 1'
_cell_length_a   8.74122141
_cell_length_b   8.74122141
_cell_length_c   5.48139400
_cell_angle_alpha   90.00000000
_cell_angle_beta   90.00000000
_cell_angle_gamma   155.70601091
_symmetry_Int_Tables_number   1
_chemical_formula_structural   Dy2Mg
_chemical_formula_sum   'Dy4 Mg2'
_cell_volume   172.31351132
_cell_formula_units_Z   2
loop_
 _symmetry_equiv_pos_site_id
 _symmetry_equiv_pos_as_xyz
  1  'x, y, z'
loop_
 _atom_site_type_symbol
 _atom_site_label
 _atom_site_symmetry_multiplicity
 _atom_site_fract_x
 _atom_site_fract_y
 _atom_site_fract_z
 _atom_site_occupancy
  Dy  Dy0  1  0.59352300  0.40647700  0.75000000  1
  Dy  Dy1  1  0.27360500  0.72639500  0.75000000  1
  Dy  Dy2  1  0.40647700  0.59352300  0.25000000  1
  Dy  Dy3  1  0.72639500  0.27360500  0.25000000  1
  Mg  Mg4  1  0.93478000  0.06522000  0.75000000  1
  Mg  Mg5  1  0.06522000  0.93478000  0.25000000  1
