# generated using pymatgen
data_InC6(NCl3)2
_symmetry_space_group_name_H-M   'P 1'
_cell_length_a   17.12381983
_cell_length_b   17.12381983
_cell_length_c   17.12381983
_cell_angle_alpha   101.10584130
_cell_angle_beta   101.10584130
_cell_angle_gamma   127.93419176
_symmetry_Int_Tables_number   1
_chemical_formula_structural   InC6(NCl3)2
_chemical_formula_sum   'In8 C48 N16 Cl48'
_cell_volume   3558.45767729
_cell_formula_units_Z   8
loop_
 _symmetry_equiv_pos_site_id
 _symmetry_equiv_pos_as_xyz
  1  'x, y, z'
loop_
 _atom_site_type_symbol
 _atom_site_label
 _atom_site_symmetry_multiplicity
 _atom_site_fract_x
 _atom_site_fract_y
 _atom_site_fract_z
 _atom_site_occupancy
  In  In0  1  0.62500000  0.87500000  0.75000000  1
  In  In1  1  0.62500000  0.37500000  0.25000000  1
  In  In2  1  0.62500000  0.87500000  0.25000000  1
  In  In3  1  0.12500000  0.37500000  0.25000000  1
  In  In4  1  0.12500000  0.37500000  0.75000000  1
  In  In5  1  0.12500000  0.87500000  0.25000000  1
  In  In6  1  0.12500000  0.87500000  0.75000000  1
  In  In7  1  0.62500000  0.37500000  0.75000000  1
  C  C8  1  0.84187900  0.27110900  0.31945200  1
  C  C9  1  0.45165700  0.77110900  0.42923000  1
  C  C10  1  0.02110900  0.09187900  0.81945200  1
  C  C11  1  0.77242700  0.59187900  0.07077000  1
  C  C12  1  0.40812100  0.47889100  0.18054800  1
  C  C13  1  0.79834300  0.97889100  0.07077000  1
  C  C14  1  0.22889100  0.65812100  0.68054800  1
  C  C15  1  0.47757300  0.15812100  0.42923000  1
  C  C16  1  0.34187900  0.02242700  0.57077000  1
  C  C17  1  0.95165700  0.52242700  0.68054800  1
  C  C18  1  0.52110900  0.70165700  0.92923000  1
  C  C19  1  0.27242700  0.20165700  0.18054800  1
  C  C20  1  0.90812100  0.72757300  0.92923000  1
  C  C21  1  0.29834300  0.22757300  0.81945200  1
  C  C22  1  0.72889100  0.04834300  0.57077000  1
  C  C23  1  0.97757300  0.54834300  0.31945200  1
  C  C24  1  0.64130300  0.13197200  0.24011900  1
  C  C25  1  0.39185300  0.63197200  0.49066900  1
  C  C26  1  0.88197200  0.89130300  0.74011900  1
  C  C27  1  0.65118500  0.39130300  0.00933100  1
  C  C28  1  0.60869700  0.61802800  0.25988100  1
  C  C29  1  0.85814700  0.11802800  0.00933100  1
  C  C30  1  0.36802800  0.85869700  0.75988100  1
  C  C31  1  0.59881500  0.35869700  0.49066900  1
  C  C32  1  0.14130300  0.90118500  0.50933100  1
  C  C33  1  0.89185300  0.40118500  0.75988100  1
  C  C34  1  0.38197200  0.64185300  0.99066900  1
  C  C35  1  0.15118500  0.14185300  0.25988100  1
  C  C36  1  0.10869700  0.84881500  0.99066900  1
  C  C37  1  0.35814700  0.34881500  0.74011900  1
  C  C38  1  0.86802800  0.10814700  0.50933100  1
  C  C39  1  0.09881500  0.60814700  0.24011900  1
  C  C40  1  0.93997600  0.34068500  0.35538500  1
  C  C41  1  0.48530000  0.84068500  0.40070900  1
  C  C42  1  0.09068500  0.18997600  0.85538500  1
  C  C43  1  0.83459100  0.68997600  0.09929100  1
  C  C44  1  0.31002400  0.40931500  0.14461500  1
  C  C45  1  0.76470000  0.90931500  0.09929100  1
  C  C46  1  0.15931500  0.56002400  0.64461500  1
  C  C47  1  0.41540900  0.06002400  0.40070900  1
  C  C48  1  0.43997600  0.08459100  0.59929100  1
  C  C49  1  0.98530000  0.58459100  0.64461500  1
  C  C50  1  0.59068500  0.73530000  0.90070900  1
  C  C51  1  0.33459100  0.23530000  0.14461500  1
  C  C52  1  0.81002400  0.66540900  0.90070900  1
  C  C53  1  0.26470000  0.16540900  0.85538500  1
  C  C54  1  0.65931500  0.01470000  0.59929100  1
  C  C55  1  0.91540900  0.51470000  0.35538500  1
  N  N56  1  0.73731300  0.19897800  0.27977200  1
  N  N57  1  0.41920600  0.69897800  0.46166500  1
  N  N58  1  0.94897800  0.98731300  0.77977200  1
  N  N59  1  0.70754100  0.48731300  0.03833500  1
  N  N60  1  0.51268700  0.55102200  0.22022800  1
  N  N61  1  0.83079400  0.05102200  0.03833500  1
  N  N62  1  0.30102200  0.76268700  0.72022800  1
  N  N63  1  0.54245900  0.26268700  0.46166500  1
  N  N64  1  0.23731300  0.95754100  0.53833500  1
  N  N65  1  0.91920600  0.45754100  0.72022800  1
  N  N66  1  0.44897800  0.66920600  0.96166500  1
  N  N67  1  0.20754100  0.16920600  0.22022800  1
  N  N68  1  0.01268700  0.79245900  0.96166500  1
  N  N69  1  0.33079400  0.29245900  0.77977200  1
  N  N70  1  0.80102200  0.08079400  0.53833500  1
  N  N71  1  0.04245900  0.58079400  0.27977200  1
  Cl  Cl72  1  0.57522800  0.93222000  0.85900200  1
  Cl  Cl73  1  0.57321800  0.43222000  0.35699200  1
  Cl  Cl74  1  0.68222000  0.82522800  0.35900200  1
  Cl  Cl75  1  0.96622600  0.32522800  0.14300800  1
  Cl  Cl76  1  0.67477200  0.81778000  0.64099800  1
  Cl  Cl77  1  0.67678200  0.31778000  0.14300800  1
  Cl  Cl78  1  0.56778000  0.92477200  0.14099800  1
  Cl  Cl79  1  0.28377400  0.42477200  0.35699200  1
  Cl  Cl80  1  0.07522800  0.21622600  0.64300800  1
  Cl  Cl81  1  0.07321800  0.71622600  0.14099800  1
  Cl  Cl82  1  0.18222000  0.82321800  0.85699200  1
  Cl  Cl83  1  0.46622600  0.32321800  0.64099800  1
  Cl  Cl84  1  0.17477200  0.53377400  0.85699200  1
  Cl  Cl85  1  0.17678200  0.03377400  0.35900200  1
  Cl  Cl86  1  0.06778000  0.92678200  0.64300800  1
  Cl  Cl87  1  0.78377400  0.42678200  0.85900200  1
  Cl  Cl88  1  0.68540800  0.78534600  0.86441900  1
  Cl  Cl89  1  0.42092800  0.28534600  0.09993800  1
  Cl  Cl90  1  0.53534600  0.93540800  0.36441900  1
  Cl  Cl91  1  0.07099000  0.43540800  0.40006200  1
  Cl  Cl92  1  0.56459200  0.96465400  0.63558100  1
  Cl  Cl93  1  0.82907200  0.46465400  0.40006200  1
  Cl  Cl94  1  0.71465400  0.81459200  0.13558100  1
  Cl  Cl95  1  0.17901000  0.31459200  0.09993800  1
  Cl  Cl96  1  0.18540800  0.32099000  0.90006200  1
  Cl  Cl97  1  0.92092800  0.82099000  0.13558100  1
  Cl  Cl98  1  0.03534600  0.67092800  0.59993800  1
  Cl  Cl99  1  0.57099000  0.17092800  0.63558100  1
  Cl  Cl100  1  0.06459200  0.42901000  0.59993800  1
  Cl  Cl101  1  0.32907200  0.92901000  0.36441900  1
  Cl  Cl102  1  0.21465400  0.07907200  0.90006200  1
  Cl  Cl103  1  0.67901000  0.57907200  0.86441900  1
  Cl  Cl104  1  0.44719400  0.69364200  0.68069300  1
  Cl  Cl105  1  0.51294800  0.19364200  0.24644800  1
  Cl  Cl106  1  0.44364200  0.69719400  0.18069300  1
  Cl  Cl107  1  0.01650000  0.19719400  0.25355200  1
  Cl  Cl108  1  0.80280600  0.05635800  0.81930700  1
  Cl  Cl109  1  0.73705200  0.55635800  0.25355200  1
  Cl  Cl110  1  0.80635800  0.05280600  0.31930700  1
  Cl  Cl111  1  0.23350000  0.55280600  0.24644800  1
  Cl  Cl112  1  0.94719400  0.26650000  0.75355200  1
  Cl  Cl113  1  0.01294800  0.76650000  0.31930700  1
  Cl  Cl114  1  0.94364200  0.76294800  0.74644800  1
  Cl  Cl115  1  0.51650000  0.26294800  0.81930700  1
  Cl  Cl116  1  0.30280600  0.48350000  0.74644800  1
  Cl  Cl117  1  0.23705200  0.98350000  0.18069300  1
  Cl  Cl118  1  0.30635800  0.98705200  0.75355200  1
  Cl  Cl119  1  0.73350000  0.48705200  0.68069300  1
