# generated using pymatgen
data_LaMg6B
_symmetry_space_group_name_H-M   'P 1'
_cell_length_a   7.32708086
_cell_length_b   7.32708086
_cell_length_c   4.74279300
_cell_angle_alpha   90.00000000
_cell_angle_beta   90.00000000
_cell_angle_gamma   133.83275843
_symmetry_Int_Tables_number   1
_chemical_formula_structural   LaMg6B
_chemical_formula_sum   'La1 Mg6 B1'
_cell_volume   183.67533211
_cell_formula_units_Z   1
loop_
 _symmetry_equiv_pos_site_id
 _symmetry_equiv_pos_as_xyz
  1  'x, y, z'
loop_
 _atom_site_type_symbol
 _atom_site_label
 _atom_site_symmetry_multiplicity
 _atom_site_fract_x
 _atom_site_fract_y
 _atom_site_fract_z
 _atom_site_occupancy
  La  La0  1  0.80397300  0.19602700  0.50000000  1
  Mg  Mg1  1  0.30069700  0.19706100  0.50000000  1
  Mg  Mg2  1  0.80293900  0.69930300  0.50000000  1
  Mg  Mg3  1  0.18268500  0.34046800  0.00000000  1
  Mg  Mg4  1  0.65953200  0.81731500  0.00000000  1
  Mg  Mg5  1  0.64130100  0.35869900  0.00000000  1
  Mg  Mg6  1  0.21311400  0.78688600  0.00000000  1
  B  B7  1  0.39576400  0.60423600  0.50000000  1
