# generated using pymatgen
data_TmCuPbSe3
_symmetry_space_group_name_H-M   'P 1'
_cell_length_a   7.09210038
_cell_length_b   7.09210038
_cell_length_c   10.54784200
_cell_angle_alpha   90.00000000
_cell_angle_beta   90.00000000
_cell_angle_gamma   146.84397898
_symmetry_Int_Tables_number   1
_chemical_formula_structural   TmCuPbSe3
_chemical_formula_sum   'Tm2 Cu2 Pb2 Se6'
_cell_volume   290.16016409
_cell_formula_units_Z   2
loop_
 _symmetry_equiv_pos_site_id
 _symmetry_equiv_pos_as_xyz
  1  'x, y, z'
loop_
 _atom_site_type_symbol
 _atom_site_label
 _atom_site_symmetry_multiplicity
 _atom_site_fract_x
 _atom_site_fract_y
 _atom_site_fract_z
 _atom_site_occupancy
  Tm  Tm0  1  0.49920800  0.50079200  0.49743900  1
  Tm  Tm1  1  0.50079200  0.49920800  0.99743900  1
  Cu  Cu2  1  0.03391500  0.96608500  0.24522400  1
  Cu  Cu3  1  0.96608500  0.03391500  0.74522400  1
  Pb  Pb4  1  0.25716100  0.74283900  0.75655600  1
  Pb  Pb5  1  0.74283900  0.25716100  0.25655600  1
  Se  Se6  1  0.14132800  0.85867200  0.43184200  1
  Se  Se7  1  0.14167200  0.85832800  0.05675300  1
  Se  Se8  1  0.85867200  0.14132800  0.93184200  1
  Se  Se9  1  0.85832800  0.14167200  0.55675300  1
  Se  Se10  1  0.42360500  0.57639500  0.24700800  1
  Se  Se11  1  0.57639500  0.42360500  0.74700800  1
