# generated using pymatgen
data_NaCeMg6
_symmetry_space_group_name_H-M   'P 1'
_cell_length_a   6.75105113
_cell_length_b   6.75105113
_cell_length_c   5.28039300
_cell_angle_alpha   90.00000000
_cell_angle_beta   90.00000000
_cell_angle_gamma   120.20172729
_symmetry_Int_Tables_number   1
_chemical_formula_structural   NaCeMg6
_chemical_formula_sum   'Na1 Ce1 Mg6'
_cell_volume   207.99518031
_cell_formula_units_Z   1
loop_
 _symmetry_equiv_pos_site_id
 _symmetry_equiv_pos_as_xyz
  1  'x, y, z'
loop_
 _atom_site_type_symbol
 _atom_site_label
 _atom_site_symmetry_multiplicity
 _atom_site_fract_x
 _atom_site_fract_y
 _atom_site_fract_z
 _atom_site_occupancy
  Na  Na0  1  0.33709600  0.66290400  0.50000000  1
  Ce  Ce1  1  0.16362800  0.83637200  0.00000000  1
  Mg  Mg2  1  0.16934000  0.33200200  0.00000000  1
  Mg  Mg3  1  0.66799800  0.83066000  0.00000000  1
  Mg  Mg4  1  0.66430400  0.33569600  0.00000000  1
  Mg  Mg5  1  0.33396100  0.16944300  0.50000000  1
  Mg  Mg6  1  0.83055700  0.66603900  0.50000000  1
  Mg  Mg7  1  0.83311600  0.16688400  0.50000000  1
