# generated using pymatgen
data_CeMg6Bi
_symmetry_space_group_name_H-M   'P 1'
_cell_length_a   6.80347881
_cell_length_b   6.80347881
_cell_length_c   5.14987900
_cell_angle_alpha   90.00000000
_cell_angle_beta   90.00000000
_cell_angle_gamma   119.04568793
_symmetry_Int_Tables_number   1
_chemical_formula_structural   CeMg6Bi
_chemical_formula_sum   'Ce1 Mg6 Bi1'
_cell_volume   208.39448161
_cell_formula_units_Z   1
loop_
 _symmetry_equiv_pos_site_id
 _symmetry_equiv_pos_as_xyz
  1  'x, y, z'
loop_
 _atom_site_type_symbol
 _atom_site_label
 _atom_site_symmetry_multiplicity
 _atom_site_fract_x
 _atom_site_fract_y
 _atom_site_fract_z
 _atom_site_occupancy
  Ce  Ce0  1  0.82971200  0.17028800  0.00000000  1
  Mg  Mg1  1  0.83926500  0.68370200  0.00000000  1
  Mg  Mg2  1  0.31629800  0.16073500  0.00000000  1
  Mg  Mg3  1  0.33901000  0.66099000  0.00000000  1
  Mg  Mg4  1  0.65578600  0.81031400  0.50000000  1
  Mg  Mg5  1  0.18968600  0.34421400  0.50000000  1
  Mg  Mg6  1  0.16793200  0.83206800  0.50000000  1
  Bi  Bi7  1  0.66231000  0.33769000  0.50000000  1
