# generated using pymatgen
data_Th3O2
_symmetry_space_group_name_H-M   'P 1'
_cell_length_a   6.93256282
_cell_length_b   6.93256282
_cell_length_c   6.93256312
_cell_angle_alpha   55.02022868
_cell_angle_beta   55.02022868
_cell_angle_gamma   55.02023360
_symmetry_Int_Tables_number   1
_chemical_formula_structural   Th3O2
_chemical_formula_sum   'Th6 O4'
_cell_volume   208.30041104
_cell_formula_units_Z   2
loop_
 _symmetry_equiv_pos_site_id
 _symmetry_equiv_pos_as_xyz
  1  'x, y, z'
loop_
 _atom_site_type_symbol
 _atom_site_label
 _atom_site_symmetry_multiplicity
 _atom_site_fract_x
 _atom_site_fract_y
 _atom_site_fract_z
 _atom_site_occupancy
  Th  Th0  1  0.08277800  0.41722200  0.75000000  1
  Th  Th1  1  0.75000000  0.08277800  0.41722200  1
  Th  Th2  1  0.41722200  0.75000000  0.08277800  1
  Th  Th3  1  0.58277800  0.25000000  0.91722200  1
  Th  Th4  1  0.25000000  0.91722200  0.58277800  1
  Th  Th5  1  0.91722200  0.58277800  0.25000000  1
  O  O6  1  0.33840000  0.33840000  0.33840000  1
  O  O7  1  0.16160000  0.16160000  0.16160000  1
  O  O8  1  0.83840000  0.83840000  0.83840000  1
  O  O9  1  0.66160000  0.66160000  0.66160000  1
