# generated using pymatgen
data_CeSe2
_symmetry_space_group_name_H-M   'P 1'
_cell_length_a   14.46031345
_cell_length_b   26.65449379
_cell_length_c   26.65449379
_cell_angle_alpha   75.44152245
_cell_angle_beta   74.26105756
_cell_angle_gamma   74.26105753
_symmetry_Int_Tables_number   1
_chemical_formula_structural   CeSe2
_chemical_formula_sum   'Ce32 Se64'
_cell_volume   9340.68170500
_cell_formula_units_Z   32
loop_
 _symmetry_equiv_pos_site_id
 _symmetry_equiv_pos_as_xyz
  1  'x, y, z'
loop_
 _atom_site_type_symbol
 _atom_site_label
 _atom_site_symmetry_multiplicity
 _atom_site_fract_x
 _atom_site_fract_y
 _atom_site_fract_z
 _atom_site_occupancy
  Ce  Ce0  1  0.81708285  0.11675680  0.11675680  1
  Ce  Ce1  1  0.18291715  0.88324320  0.88324320  1
  Ce  Ce2  1  0.55059645  0.88324320  0.88324320  1
  Ce  Ce3  1  0.44940355  0.11675680  0.11675680  1
  Ce  Ce4  1  0.67996863  0.25368756  0.25368756  1
  Ce  Ce5  1  0.32003137  0.74631244  0.74631244  1
  Ce  Ce6  1  0.68734375  0.74631244  0.74631244  1
  Ce  Ce7  1  0.31265625  0.25368756  0.25368756  1
  Ce  Ce8  1  0.79011927  0.42521328  0.12691615  1
  Ce  Ce9  1  0.20988073  0.87308385  0.57478672  1
  Ce  Ce10  1  0.84224870  0.87308385  0.57478672  1
  Ce  Ce11  1  0.15775130  0.42521328  0.12691615  1
  Ce  Ce12  1  0.20988073  0.57478672  0.87308385  1
  Ce  Ce13  1  0.79011927  0.12691615  0.42521328  1
  Ce  Ce14  1  0.15775130  0.12691615  0.42521328  1
  Ce  Ce15  1  0.84224870  0.57478672  0.87308385  1
  Ce  Ce16  1  0.76579385  0.39164285  0.94440414  1
  Ce  Ce17  1  0.23420615  0.05559586  0.60835715  1
  Ce  Ce18  1  0.60184084  0.05559586  0.60835715  1
  Ce  Ce19  1  0.39815916  0.39164285  0.94440414  1
  Ce  Ce20  1  0.23420615  0.60835715  0.05559586  1
  Ce  Ce21  1  0.76579385  0.94440414  0.39164285  1
  Ce  Ce22  1  0.39815916  0.94440414  0.39164285  1
  Ce  Ce23  1  0.60184084  0.60835715  0.05559586  1
  Ce  Ce24  1  0.99730163  0.20829935  0.92152730  1
  Ce  Ce25  1  0.00269837  0.07847270  0.79170065  1
  Ce  Ce26  1  0.62712829  0.07847270  0.79170065  1
  Ce  Ce27  1  0.37287171  0.20829935  0.92152730  1
  Ce  Ce28  1  0.00269837  0.79170065  0.07847270  1
  Ce  Ce29  1  0.99730163  0.92152730  0.20829935  1
  Ce  Ce30  1  0.37287171  0.92152730  0.20829935  1
  Ce  Ce31  1  0.62712829  0.79170065  0.07847270  1
  Se  Se32  1  0.64898935  0.10101065  0.10101065  1
  Se  Se33  1  0.35101065  0.89898935  0.89898935  1
  Se  Se34  1  0.76872380  0.18524969  0.18524969  1
  Se  Se35  1  0.23127620  0.81475031  0.81475031  1
  Se  Se36  1  0.63922318  0.81475031  0.81475031  1
  Se  Se37  1  0.36077682  0.18524969  0.18524969  1
  Se  Se38  1  0.92482740  0.15881587  0.02190287  1
  Se  Se39  1  0.07517260  0.97809713  0.84118413  1
  Se  Se40  1  0.60554614  0.97809713  0.84118413  1
  Se  Se41  1  0.39445386  0.15881587  0.02190287  1
  Se  Se42  1  0.07517260  0.84118413  0.97809713  1
  Se  Se43  1  0.92482740  0.02190287  0.15881587  1
  Se  Se44  1  0.39445386  0.02190287  0.15881587  1
  Se  Se45  1  0.60554614  0.84118413  0.97809713  1
  Se  Se46  1  0.48051324  0.26948676  0.26948676  1
  Se  Se47  1  0.51948676  0.73051324  0.73051324  1
  Se  Se48  1  0.73470232  0.34864537  0.21126243  1
  Se  Se49  1  0.26529768  0.78873757  0.65135463  1
  Se  Se50  1  0.79461012  0.78873757  0.65135463  1
  Se  Se51  1  0.20538988  0.34864537  0.21126243  1
  Se  Se52  1  0.26529768  0.65135463  0.78873757  1
  Se  Se53  1  0.73470232  0.21126243  0.34864537  1
  Se  Se54  1  0.20538988  0.21126243  0.34864537  1
  Se  Se55  1  0.79461012  0.65135463  0.78873757  1
  Se  Se56  1  0.95924996  0.44667310  0.13482699  1
  Se  Se57  1  0.04075004  0.86517301  0.55332690  1
  Se  Se58  1  0.04075004  0.55332690  0.86517301  1
  Se  Se59  1  0.95924996  0.13482699  0.44667310  1
  Se  Se60  1  0.82181009  0.39049535  0.03448939  1
  Se  Se61  1  0.17818991  0.96551061  0.60950465  1
  Se  Se62  1  0.74679484  0.96551061  0.60950465  1
  Se  Se63  1  0.25320516  0.39049535  0.03448939  1
  Se  Se64  1  0.17818991  0.60950465  0.96551061  1
  Se  Se65  1  0.82181009  0.03448939  0.39049535  1
  Se  Se66  1  0.25320516  0.03448939  0.39049535  1
  Se  Se67  1  0.74679484  0.60950465  0.96551061  1
  Se  Se68  1  0.64599014  0.51592203  0.12588915  1
  Se  Se69  1  0.35400986  0.87411085  0.48407797  1
  Se  Se70  1  0.78780131  0.87411085  0.48407797  1
  Se  Se71  1  0.21219869  0.51592203  0.12588915  1
  Se  Se72  1  0.35400986  0.48407797  0.87411085  1
  Se  Se73  1  0.64599014  0.12588915  0.51592203  1
  Se  Se74  1  0.21219869  0.12588915  0.51592203  1
  Se  Se75  1  0.78780131  0.48407797  0.87411085  1
  Se  Se76  1  0.57306213  0.38497295  0.96890279  1
  Se  Se77  1  0.42693787  0.03109721  0.61502705  1
  Se  Se78  1  0.42693787  0.61502705  0.03109721  1
  Se  Se79  1  0.57306213  0.96890279  0.38497295  1
  Se  Se80  1  0.87981876  0.30695547  0.90026736  1
  Se  Se81  1  0.12018124  0.09973264  0.69304453  1
  Se  Se82  1  0.58704159  0.09973264  0.69304453  1
  Se  Se83  1  0.41295841  0.30695547  0.90026736  1
  Se  Se84  1  0.12018124  0.69304453  0.09973264  1
  Se  Se85  1  0.87981876  0.90026736  0.30695547  1
  Se  Se86  1  0.41295841  0.90026736  0.30695547  1
  Se  Se87  1  0.58704159  0.69304453  0.09973264  1
  Se  Se88  1  -0.00000000  0.14976261  0.85023739  1
  Se  Se89  1  0.50000000  0.14976261  0.85023739  1
  Se  Se90  1  0.00000000  0.85023739  0.14976261  1
  Se  Se91  1  0.50000000  0.85023739  0.14976261  1
  Se  Se92  1  0.18404107  0.21806221  0.91385564  1
  Se  Se93  1  0.81595893  0.08614436  0.78193779  1
  Se  Se94  1  0.81595893  0.78193779  0.08614436  1
  Se  Se95  1  0.18404107  0.91385564  0.21806221  1
