# generated using pymatgen
data_Sr3CaTi3MnO12
_symmetry_space_group_name_H-M   'P 1'
_cell_length_a   7.79351000
_cell_length_b   7.79937400
_cell_length_c   7.88957800
_cell_angle_alpha   90.00000000
_cell_angle_beta   90.00000000
_cell_angle_gamma   90.00000000
_symmetry_Int_Tables_number   1
_chemical_formula_structural   Sr3CaTi3MnO12
_chemical_formula_sum   'Sr6 Ca2 Ti6 Mn2 O24'
_cell_volume   479.56404812
_cell_formula_units_Z   2
loop_
 _symmetry_equiv_pos_site_id
 _symmetry_equiv_pos_as_xyz
  1  'x, y, z'
loop_
 _atom_site_type_symbol
 _atom_site_label
 _atom_site_symmetry_multiplicity
 _atom_site_fract_x
 _atom_site_fract_y
 _atom_site_fract_z
 _atom_site_occupancy
  Sr  Sr0  1  0.24676100  0.24649400  0.25000000  1
  Sr  Sr1  1  0.24675500  0.24665100  0.75000000  1
  Sr  Sr2  1  0.24649500  0.75343700  0.75000000  1
  Sr  Sr3  1  0.75324500  0.24665100  0.25000000  1
  Sr  Sr4  1  0.75323900  0.24649400  0.75000000  1
  Sr  Sr5  1  0.75350500  0.75343700  0.25000000  1
  Ca  Ca6  1  0.24654300  0.75358600  0.25000000  1
  Ca  Ca7  1  0.75345700  0.75358600  0.75000000  1
  Ti  Ti8  1  0.00000000  0.50210900  0.00000000  1
  Ti  Ti9  1  0.00000000  0.50210900  0.50000000  1
  Ti  Ti10  1  0.50000000  0.99858000  0.00000000  1
  Ti  Ti11  1  0.50000000  0.99858000  0.50000000  1
  Ti  Ti12  1  0.50000000  0.50141300  0.00000000  1
  Ti  Ti13  1  0.50000000  0.50141300  0.50000000  1
  Mn  Mn14  1  0.00000000  0.99909400  0.00000000  1
  Mn  Mn15  1  0.00000000  0.99909400  0.50000000  1
  O  O16  1  0.24775600  0.99719900  0.00201600  1
  O  O17  1  0.24775600  0.99719900  0.49798400  1
  O  O18  1  0.24949700  0.50250500  0.00160500  1
  O  O19  1  0.24949700  0.50250500  0.49839500  1
  O  O20  1  0.75224400  0.99719900  0.99798400  1
  O  O21  1  0.75224400  0.99719900  0.50201600  1
  O  O22  1  0.75050300  0.50250500  0.99839500  1
  O  O23  1  0.75050300  0.50250500  0.50160500  1
  O  O24  1  0.00000000  0.24784100  0.00000000  1
  O  O25  1  0.00000000  0.24784100  0.50000000  1
  O  O26  1  0.00000000  0.75234300  0.00000000  1
  O  O27  1  0.00000000  0.75234300  0.50000000  1
  O  O28  1  0.50000000  0.24937600  0.00000000  1
  O  O29  1  0.50000000  0.24937600  0.50000000  1
  O  O30  1  0.50000000  0.75049900  0.00000000  1
  O  O31  1  0.50000000  0.75049900  0.50000000  1
  O  O32  1  0.00285100  0.99659500  0.25000000  1
  O  O33  1  0.99714900  0.99659500  0.75000000  1
  O  O34  1  0.00171900  0.50256800  0.25000000  1
  O  O35  1  0.99828100  0.50256800  0.75000000  1
  O  O36  1  0.49835200  0.99734100  0.25000000  1
  O  O37  1  0.50164800  0.99734100  0.75000000  1
  O  O38  1  0.49827600  0.50266700  0.25000000  1
  O  O39  1  0.50172400  0.50266700  0.75000000  1
