# generated using pymatgen
data_Zr3N2
_symmetry_space_group_name_H-M   'P 1'
_cell_length_a   6.20068793
_cell_length_b   6.20068793
_cell_length_c   6.20068855
_cell_angle_alpha   54.51920014
_cell_angle_beta   54.51920014
_cell_angle_gamma   54.51920314
_symmetry_Int_Tables_number   1
_chemical_formula_structural   Zr3N2
_chemical_formula_sum   'Zr6 N4'
_cell_volume   147.04062205
_cell_formula_units_Z   2
loop_
 _symmetry_equiv_pos_site_id
 _symmetry_equiv_pos_as_xyz
  1  'x, y, z'
loop_
 _atom_site_type_symbol
 _atom_site_label
 _atom_site_symmetry_multiplicity
 _atom_site_fract_x
 _atom_site_fract_y
 _atom_site_fract_z
 _atom_site_occupancy
  Zr  Zr0  1  0.07536600  0.42463400  0.75000000  1
  Zr  Zr1  1  0.75000000  0.07536600  0.42463400  1
  Zr  Zr2  1  0.42463400  0.75000000  0.07536600  1
  Zr  Zr3  1  0.57536600  0.25000000  0.92463400  1
  Zr  Zr4  1  0.25000000  0.92463400  0.57536600  1
  Zr  Zr5  1  0.92463400  0.57536600  0.25000000  1
  N  N6  1  0.33879100  0.33879100  0.33879100  1
  N  N7  1  0.16120900  0.16120900  0.16120900  1
  N  N8  1  0.83879100  0.83879100  0.83879100  1
  N  N9  1  0.66120900  0.66120900  0.66120900  1
