# generated using pymatgen
data_La7SmMn7FeO20
_symmetry_space_group_name_H-M   'P 1'
_cell_length_a   11.40789125
_cell_length_b   11.85432524
_cell_length_c   17.77493757
_cell_angle_alpha   109.45527368
_cell_angle_beta   108.69202154
_cell_angle_gamma   90.00695526
_symmetry_Int_Tables_number   1
_chemical_formula_structural   La7SmMn7FeO20
_chemical_formula_sum   'La28 Sm4 Mn28 Fe4 O80'
_cell_volume   2131.53583260
_cell_formula_units_Z   4
loop_
 _symmetry_equiv_pos_site_id
 _symmetry_equiv_pos_as_xyz
  1  'x, y, z'
loop_
 _atom_site_type_symbol
 _atom_site_label
 _atom_site_symmetry_multiplicity
 _atom_site_fract_x
 _atom_site_fract_y
 _atom_site_fract_z
 _atom_site_occupancy
  La  La0  1  0.29601000  0.06246800  0.11016200  1
  La  La1  1  0.29877300  0.06452600  0.61113300  1
  La  La2  1  0.29875000  0.56497600  0.61187700  1
  La  La3  1  0.79865900  0.06494000  0.61170900  1
  La  La4  1  0.80260800  0.56547700  0.10953000  1
  La  La5  1  0.79894900  0.56504700  0.61211800  1
  La  La6  1  0.18704200  0.43372600  0.38778800  1
  La  La7  1  0.18387200  0.43657200  0.89114500  1
  La  La8  1  0.18612700  0.93449500  0.38653000  1
  La  La9  1  0.18809400  0.93460000  0.88886400  1
  La  La10  1  0.68679100  0.43525600  0.38773400  1
  La  La11  1  0.68624400  0.93468500  0.38758500  1
  La  La12  1  0.68670400  0.93689500  0.89100500  1
  La  La13  1  0.04715100  0.29424800  0.11123200  1
  La  La14  1  0.04885900  0.29764600  0.61221900  1
  La  La15  1  0.04842400  0.79661300  0.61140700  1
  La  La16  1  0.54886700  0.29467000  0.11054900  1
  La  La17  1  0.54880200  0.29853700  0.61360200  1
  La  La18  1  0.55005700  0.79684900  0.11106700  1
  La  La19  1  0.54889600  0.79632000  0.61168200  1
  La  La20  1  0.43699600  0.20275400  0.38766700  1
  La  La21  1  0.44033400  0.20574800  0.88889600  1
  La  La22  1  0.43583200  0.70204700  0.38614200  1
  La  La23  1  0.43854400  0.70410800  0.88954600  1
  La  La24  1  0.93525000  0.20212900  0.38654200  1
  La  La25  1  0.93484500  0.20506700  0.88977700  1
  La  La26  1  0.93593300  0.70289500  0.38711700  1
  La  La27  1  0.93405400  0.70406200  0.89025900  1
  Sm  Sm28  1  0.29233600  0.56632000  0.10998500  1
  Sm  Sm29  1  0.79734000  0.06626200  0.10985000  1
  Sm  Sm30  1  0.68988400  0.43446900  0.89139800  1
  Sm  Sm31  1  0.04670800  0.79410400  0.11038600  1
  Mn  Mn32  1  0.00128200  0.00004400  0.49949700  1
  Mn  Mn33  1  0.00140500  0.49986000  0.49966300  1
  Mn  Mn34  1  0.50112000  0.99974700  0.49950400  1
  Mn  Mn35  1  0.50311200  0.50208400  0.00159500  1
  Mn  Mn36  1  0.50138900  0.49990600  0.49981200  1
  Mn  Mn37  1  0.25260300  0.25085100  0.00129200  1
  Mn  Mn38  1  0.25094500  0.24947500  0.49936200  1
  Mn  Mn39  1  0.25152100  0.75005200  0.00114900  1
  Mn  Mn40  1  0.25145200  0.74964300  0.49951700  1
  Mn  Mn41  1  0.75239000  0.25013400  0.00095200  1
  Mn  Mn42  1  0.75123600  0.25020100  0.50012400  1
  Mn  Mn43  1  0.75085200  0.74970900  0.49940200  1
  Mn  Mn44  1  0.10382900  0.09615500  0.24727100  1
  Mn  Mn45  1  0.10872600  0.10058900  0.75116100  1
  Mn  Mn46  1  0.10909600  0.59876400  0.24896400  1
  Mn  Mn47  1  0.10794800  0.59896400  0.75109500  1
  Mn  Mn48  1  0.60821400  0.09827400  0.24851400  1
  Mn  Mn49  1  0.60841700  0.10055100  0.75061000  1
  Mn  Mn50  1  0.60408500  0.59859300  0.24644100  1
  Mn  Mn51  1  0.60848700  0.59886600  0.75242500  1
  Mn  Mn52  1  0.35721800  0.40099800  0.24770500  1
  Mn  Mn53  1  0.35991900  0.40132600  0.75197200  1
  Mn  Mn54  1  0.35474000  0.89746700  0.24717900  1
  Mn  Mn55  1  0.35835700  0.90169700  0.75068800  1
  Mn  Mn56  1  0.85693100  0.40016200  0.24884100  1
  Mn  Mn57  1  0.85614100  0.40125300  0.75151400  1
  Mn  Mn58  1  0.85825900  0.90106700  0.24730900  1
  Mn  Mn59  1  0.85797700  0.90146800  0.75137900  1
  Fe  Fe60  1  0.00301000  0.99859400  0.00166600  1
  Fe  Fe61  1  0.00296900  0.50140800  0.00165200  1
  Fe  Fe62  1  0.50401100  0.99993600  0.00029900  1
  Fe  Fe63  1  0.75449500  0.75179300  0.00084600  1
  O  O64  1  0.10953100  0.11630400  0.47293300  1
  O  O65  1  0.11021100  0.11527200  0.97666800  1
  O  O66  1  0.10949500  0.61711200  0.47363300  1
  O  O67  1  0.11020200  0.61892100  0.97994700  1
  O  O68  1  0.60966000  0.11619500  0.47292000  1
  O  O69  1  0.60959300  0.11889900  0.97567100  1
  O  O70  1  0.60987700  0.61749000  0.47468200  1
  O  O71  1  0.61559500  0.61949400  0.97418900  1
  O  O72  1  0.13544800  0.38607500  0.02630100  1
  O  O73  1  0.13614000  0.38321300  0.52590600  1
  O  O74  1  0.13205600  0.88011400  0.02844200  1
  O  O75  1  0.13569000  0.88275000  0.52459400  1
  O  O76  1  0.63602900  0.38342300  0.02389800  1
  O  O77  1  0.63549800  0.38292300  0.52592000  1
  O  O78  1  0.63971000  0.88924900  0.02582300  1
  O  O79  1  0.63632100  0.88349200  0.52566900  1
  O  O80  1  0.35960400  0.10665000  0.47369400  1
  O  O81  1  0.36390600  0.10650400  0.97573400  1
  O  O82  1  0.36006700  0.60698600  0.47406700  1
  O  O83  1  0.35916500  0.60547700  0.97317200  1
  O  O84  1  0.86013500  0.10759700  0.47433800  1
  O  O85  1  0.86151700  0.10596400  0.97762800  1
  O  O86  1  0.86007000  0.60737100  0.47403600  1
  O  O87  1  0.85960200  0.60459000  0.97409600  1
  O  O88  1  0.38497900  0.39948800  0.03059600  1
  O  O89  1  0.38542400  0.39158500  0.52438700  1
  O  O90  1  0.38771900  0.89154100  0.02550400  1
  O  O91  1  0.38652900  0.89245600  0.52615700  1
  O  O92  1  0.88583300  0.39101300  0.02176200  1
  O  O93  1  0.88596700  0.39281700  0.52570400  1
  O  O94  1  0.88826600  0.89297900  0.02965600  1
  O  O95  1  0.88526400  0.89163200  0.52420300  1
  O  O96  1  0.10448900  0.12185900  0.14069400  1
  O  O97  1  0.10432000  0.12141100  0.64112100  1
  O  O98  1  0.10693700  0.62308700  0.14076600  1
  O  O99  1  0.10416100  0.62131100  0.64148400  1
  O  O100  1  0.61286600  0.12116600  0.14134200  1
  O  O101  1  0.60411800  0.12238900  0.64091500  1
  O  O102  1  0.61279500  0.62357000  0.14077800  1
  O  O103  1  0.60483500  0.62012700  0.64247100  1
  O  O104  1  0.46277400  0.37941100  0.35776000  1
  O  O105  1  0.47430600  0.37989900  0.85921900  1
  O  O106  1  0.46047300  0.87814100  0.35798100  1
  O  O107  1  0.46105800  0.87940000  0.85999500  1
  O  O108  1  0.96265900  0.37830800  0.35853200  1
  O  O109  1  0.96233600  0.37953300  0.86025300  1
  O  O110  1  0.96290400  0.87849000  0.35703900  1
  O  O111  1  0.96212900  0.87923800  0.86085000  1
  O  O112  1  0.35615500  0.26656800  0.14094400  1
  O  O113  1  0.35501200  0.27028800  0.64155100  1
  O  O114  1  0.35817600  0.76492900  0.14043500  1
  O  O115  1  0.35432200  0.77006400  0.64129600  1
  O  O116  1  0.85391300  0.26801400  0.14023400  1
  O  O117  1  0.85318000  0.27062800  0.64180400  1
  O  O118  1  0.86191300  0.76976100  0.14032400  1
  O  O119  1  0.85471300  0.77036700  0.64159000  1
  O  O120  1  0.21111000  0.22734300  0.35699400  1
  O  O121  1  0.21647100  0.23157700  0.86054600  1
  O  O122  1  0.21433600  0.73031500  0.35849200  1
  O  O123  1  0.21248100  0.73059700  0.86014300  1
  O  O124  1  0.71277800  0.23026600  0.35834900  1
  O  O125  1  0.71395600  0.23196400  0.85986200  1
  O  O126  1  0.70982900  0.72862400  0.35742300  1
  O  O127  1  0.71191700  0.73237300  0.86086800  1
  O  O128  1  0.42273800  0.06642700  0.24911000  1
  O  O129  1  0.42299600  0.07005600  0.75056200  1
  O  O130  1  0.41552100  0.56920400  0.24372400  1
  O  O131  1  0.42194800  0.56935100  0.75008200  1
  O  O132  1  0.91587000  0.06985200  0.24443300  1
  O  O133  1  0.92306900  0.06981900  0.75084800  1
  O  O134  1  0.92438400  0.56789200  0.24937600  1
  O  O135  1  0.92198200  0.56880200  0.75097300  1
  O  O136  1  0.17283700  0.43045700  0.24972900  1
  O  O137  1  0.17367300  0.43095400  0.75143000  1
  O  O138  1  0.16605100  0.92517100  0.24403100  1
  O  O139  1  0.17247900  0.93163900  0.75036800  1
  O  O140  1  0.67149800  0.43173400  0.24925100  1
  O  O141  1  0.67250500  0.43139200  0.75637700  1
  O  O142  1  0.67379700  0.93051400  0.24956000  1
  O  O143  1  0.67225800  0.93199400  0.75026300  1
