# generated using pymatgen
data_Sr3Ca5Fe4(CoO5)4
_symmetry_space_group_name_H-M   'P 1'
_cell_length_a   10.75103635
_cell_length_b   11.25786996
_cell_length_c   17.34691127
_cell_angle_alpha   109.14165915
_cell_angle_beta   108.21124389
_cell_angle_gamma   89.52104605
_symmetry_Int_Tables_number   1
_chemical_formula_structural   Sr3Ca5Fe4(CoO5)4
_chemical_formula_sum   'Sr12 Ca20 Fe16 Co16 O80'
_cell_volume   1873.73673460
_cell_formula_units_Z   4
loop_
 _symmetry_equiv_pos_site_id
 _symmetry_equiv_pos_as_xyz
  1  'x, y, z'
loop_
 _atom_site_type_symbol
 _atom_site_label
 _atom_site_symmetry_multiplicity
 _atom_site_fract_x
 _atom_site_fract_y
 _atom_site_fract_z
 _atom_site_occupancy
  Sr  Sr0  1  0.30872251  0.56389062  0.61072280  1
  Sr  Sr1  1  0.80725145  0.06102184  0.60920271  1
  Sr  Sr2  1  0.80640523  0.56543665  0.61129968  1
  Sr  Sr3  1  0.19552159  0.43283133  0.38529499  1
  Sr  Sr4  1  0.20060111  0.43857051  0.89588682  1
  Sr  Sr5  1  0.69471354  0.93068465  0.38513832  1
  Sr  Sr6  1  0.05990722  0.29399252  0.61024600  1
  Sr  Sr7  1  0.05619385  0.79866707  0.61091972  1
  Sr  Sr8  1  0.55713944  0.29701880  0.61143471  1
  Sr  Sr9  1  0.44951071  0.20499492  0.89286423  1
  Sr  Sr10  1  0.94426540  0.20086908  0.38561647  1
  Sr  Sr11  1  0.95081042  0.20688172  0.89391415  1
  Ca  Ca12  1  0.30428944  0.06614040  0.10584420  1
  Ca  Ca13  1  0.30327727  0.06971417  0.60680428  1
  Ca  Ca14  1  0.30281090  0.56926505  0.10676635  1
  Ca  Ca15  1  0.80098892  0.06612669  0.10414735  1
  Ca  Ca16  1  0.80331785  0.56837676  0.10586950  1
  Ca  Ca17  1  0.19530213  0.92896197  0.38968267  1
  Ca  Ca18  1  0.20051089  0.93507769  0.89942126  1
  Ca  Ca19  1  0.69102658  0.43170590  0.38813215  1
  Ca  Ca20  1  0.69899492  0.43591062  0.89707857  1
  Ca  Ca21  1  0.69844532  0.93504058  0.89686699  1
  Ca  Ca22  1  0.05480929  0.28710002  0.10570582  1
  Ca  Ca23  1  0.05181745  0.78868461  0.10474032  1
  Ca  Ca24  1  0.55132412  0.28639643  0.10594400  1
  Ca  Ca25  1  0.55260938  0.78811159  0.10413295  1
  Ca  Ca26  1  0.55605604  0.78934058  0.60867690  1
  Ca  Ca27  1  0.44416866  0.21033162  0.38913079  1
  Ca  Ca28  1  0.44384462  0.70708779  0.39019181  1
  Ca  Ca29  1  0.44968169  0.71555144  0.89865799  1
  Ca  Ca30  1  0.94259921  0.71171994  0.38929589  1
  Ca  Ca31  1  0.94865140  0.71500459  0.89909068  1
  Fe  Fe32  1  0.10589745  0.08429285  0.24491826  1
  Fe  Fe33  1  0.11299604  0.08764243  0.75445030  1
  Fe  Fe34  1  0.10267735  0.59290766  0.24655599  1
  Fe  Fe35  1  0.10949316  0.59825070  0.75536775  1
  Fe  Fe36  1  0.60015494  0.09093626  0.24622836  1
  Fe  Fe37  1  0.60345873  0.08879315  0.74975541  1
  Fe  Fe38  1  0.60250786  0.58711711  0.24625484  1
  Fe  Fe39  1  0.61042284  0.60008112  0.75722517  1
  Fe  Fe40  1  0.35457801  0.40895918  0.24498111  1
  Fe  Fe41  1  0.36373428  0.41358270  0.75541242  1
  Fe  Fe42  1  0.35180128  0.90679174  0.24817747  1
  Fe  Fe43  1  0.36220251  0.90797464  0.75224592  1
  Fe  Fe44  1  0.85102103  0.41190655  0.24707558  1
  Fe  Fe45  1  0.85762569  0.41599206  0.75609465  1
  Fe  Fe46  1  0.85462480  0.90452015  0.24249618  1
  Fe  Fe47  1  0.85467525  0.90566327  0.75329269  1
  Co  Co48  1  0.00877582  0.00027294  0.00353847  1
  Co  Co49  1  0.00590375  0.99770977  0.49727787  1
  Co  Co50  1  0.00709265  0.50268603  0.00356184  1
  Co  Co51  1  0.00001653  0.49907465  0.49391265  1
  Co  Co52  1  0.50857683  0.00100302  0.00337215  1
  Co  Co53  1  0.50248980  0.99826769  0.49759712  1
  Co  Co54  1  0.50865228  0.50298766  0.00363918  1
  Co  Co55  1  0.50206260  0.49737888  0.49339727  1
  Co  Co56  1  0.25966635  0.25184918  0.00526179  1
  Co  Co57  1  0.25292086  0.24543670  0.49288172  1
  Co  Co58  1  0.25833199  0.75249642  0.00356144  1
  Co  Co59  1  0.25541502  0.75043908  0.49904956  1
  Co  Co60  1  0.75922345  0.25318352  0.00539968  1
  Co  Co61  1  0.75191448  0.24901044  0.49670385  1
  Co  Co62  1  0.75726232  0.75068366  0.00109843  1
  Co  Co63  1  0.75057644  0.74476450  0.49379515  1
  O  O64  1  0.12602663  0.11458941  0.48583996  1
  O  O65  1  0.12754715  0.11759025  0.99226617  1
  O  O66  1  0.11576425  0.61755415  0.48866663  1
  O  O67  1  0.12458694  0.62542882  0.99303863  1
  O  O68  1  0.61471810  0.11383142  0.48684985  1
  O  O69  1  0.62835340  0.11931403  0.99160658  1
  O  O70  1  0.61689502  0.61465355  0.47871324  1
  O  O71  1  0.62429961  0.62000632  0.98815049  1
  O  O72  1  0.14056939  0.38209890  0.02105695  1
  O  O73  1  0.13780696  0.36889874  0.50580458  1
  O  O74  1  0.13797066  0.87848640  0.01528571  1
  O  O75  1  0.13107192  0.88359634  0.50462622  1
  O  O76  1  0.64396128  0.37745219  0.01609763  1
  O  O77  1  0.62635095  0.38311142  0.50361146  1
  O  O78  1  0.63836225  0.87960949  0.01535771  1
  O  O79  1  0.63382159  0.86502272  0.50638280  1
  O  O80  1  0.36651976  0.12135897  0.48528690  1
  O  O81  1  0.37448883  0.11602071  0.99078423  1
  O  O82  1  0.38085188  0.61626309  0.48936504  1
  O  O83  1  0.37797364  0.62439377  0.99263893  1
  O  O84  1  0.87987055  0.11225083  0.49100394  1
  O  O85  1  0.87101526  0.12306967  0.99264065  1
  O  O86  1  0.86486885  0.62254926  0.48459361  1
  O  O87  1  0.87150988  0.61845726  0.98589193  1
  O  O88  1  0.39188582  0.38737055  0.01940258  1
  O  O89  1  0.38430946  0.37852036  0.50685333  1
  O  O90  1  0.38830185  0.88543149  0.01549462  1
  O  O91  1  0.38828959  0.88800235  0.50935189  1
  O  O92  1  0.88630350  0.38737750  0.01645841  1
  O  O93  1  0.88476691  0.38740743  0.50385055  1
  O  O94  1  0.88851406  0.88678798  0.01572959  1
  O  O95  1  0.88399160  0.87660826  0.50557952  1
  O  O96  1  0.09514520  0.10358050  0.14088171  1
  O  O97  1  0.09353000  0.09206856  0.64325519  1
  O  O98  1  0.08559787  0.60838450  0.14059430  1
  O  O99  1  0.07867111  0.59689665  0.64190340  1
  O  O100  1  0.58691758  0.10563275  0.14057701  1
  O  O101  1  0.58437313  0.09362273  0.63920519  1
  O  O102  1  0.59232081  0.60587856  0.14166215  1
  O  O103  1  0.58482117  0.60498255  0.64542396  1
  O  O104  1  0.44026619  0.39439961  0.35398075  1
  O  O105  1  0.45074223  0.40418254  0.86409250  1
  O  O106  1  0.43911164  0.89320416  0.35726886  1
  O  O107  1  0.45607510  0.89919234  0.86098287  1
  O  O108  1  0.94063514  0.40355050  0.35693293  1
  O  O109  1  0.94649382  0.40245598  0.86278043  1
  O  O110  1  0.94354315  0.89638303  0.35287123  1
  O  O111  1  0.94783914  0.89803697  0.86202975  1
  O  O112  1  0.34363298  0.28440978  0.14081007  1
  O  O113  1  0.33749505  0.29110088  0.64540841  1
  O  O114  1  0.33964567  0.78790891  0.14113002  1
  O  O115  1  0.33779597  0.79401836  0.64024212  1
  O  O116  1  0.84154064  0.28763423  0.14183869  1
  O  O117  1  0.83021984  0.30240880  0.64211407  1
  O  O118  1  0.83833476  0.78242111  0.13621159  1
  O  O119  1  0.82814632  0.79361787  0.64080300  1
  O  O120  1  0.19528933  0.20305766  0.35485989  1
  O  O121  1  0.19381660  0.20871716  0.86281254  1
  O  O122  1  0.19766785  0.70690501  0.35747630  1
  O  O123  1  0.20430171  0.71550274  0.86384860  1
  O  O124  1  0.68828819  0.20770165  0.35738107  1
  O  O125  1  0.68977945  0.21245532  0.85805661  1
  O  O126  1  0.69855819  0.70340804  0.35466716  1
  O  O127  1  0.70342350  0.71980538  0.86450725  1
  O  O128  1  0.42107148  0.06641532  0.24926732  1
  O  O129  1  0.42070214  0.06462326  0.74415788  1
  O  O130  1  0.42223686  0.57005185  0.24826799  1
  O  O131  1  0.43288778  0.57506701  0.75977071  1
  O  O132  1  0.92302597  0.06024182  0.23911681  1
  O  O133  1  0.93229514  0.05894619  0.75108585  1
  O  O134  1  0.92201916  0.57091792  0.24845985  1
  O  O135  1  0.93280961  0.57521404  0.76120862  1
  O  O136  1  0.17209201  0.43140588  0.23988559  1
  O  O137  1  0.18329176  0.44069059  0.75267904  1
  O  O138  1  0.17061866  0.92443667  0.24760673  1
  O  O139  1  0.18601216  0.93243136  0.76063229  1
  O  O140  1  0.66869613  0.42629300  0.24639695  1
  O  O141  1  0.67932309  0.44158149  0.75982776  1
  O  O142  1  0.67387486  0.93182387  0.24045966  1
  O  O143  1  0.67313539  0.93005741  0.75298570  1
