# generated using pymatgen
data_K2Na2MoW3O10
_symmetry_space_group_name_H-M   'P 1'
_cell_length_a   11.57522938
_cell_length_b   11.75397071
_cell_length_c   17.55747926
_cell_angle_alpha   109.52438285
_cell_angle_beta   109.07724644
_cell_angle_gamma   89.96248788
_symmetry_Int_Tables_number   1
_chemical_formula_structural   K2Na2MoW3O10
_chemical_formula_sum   'K16 Na16 Mo8 W24 O80'
_cell_volume   2111.90623861
_cell_formula_units_Z   8
loop_
 _symmetry_equiv_pos_site_id
 _symmetry_equiv_pos_as_xyz
  1  'x, y, z'
loop_
 _atom_site_type_symbol
 _atom_site_label
 _atom_site_symmetry_multiplicity
 _atom_site_fract_x
 _atom_site_fract_y
 _atom_site_fract_z
 _atom_site_occupancy
  K  K0  1  0.30474500  0.06765600  0.10821600  1
  K  K1  1  0.30213000  0.55997100  0.10597400  1
  K  K2  1  0.80565200  0.06330400  0.11025600  1
  K  K3  1  0.80376000  0.56220200  0.10754400  1
  K  K4  1  0.20204900  0.93423900  0.39328400  1
  K  K5  1  0.19243400  0.92843000  0.88221300  1
  K  K6  1  0.70190100  0.43683600  0.39633000  1
  K  K7  1  0.69204700  0.42862000  0.88401400  1
  K  K8  1  0.69963100  0.93286200  0.39398900  1
  K  K9  1  0.05939600  0.29395400  0.10941600  1
  K  K10  1  0.05266000  0.79116600  0.10495600  1
  K  K11  1  0.55322800  0.29215700  0.10784100  1
  K  K12  1  0.55369800  0.79421500  0.10458200  1
  K  K13  1  0.45227800  0.71274500  0.39488100  1
  K  K14  1  0.44060500  0.70568700  0.88255600  1
  K  K15  1  0.94182400  0.70323700  0.88218500  1
  Na  Na16  1  0.29963800  0.07050900  0.60311000  1
  Na  Na17  1  0.30141400  0.56362900  0.59992100  1
  Na  Na18  1  0.80170600  0.06710900  0.60317300  1
  Na  Na19  1  0.79815200  0.56836100  0.60167400  1
  Na  Na20  1  0.20401000  0.43921800  0.40632100  1
  Na  Na21  1  0.19902700  0.43445600  0.89795700  1
  Na  Na22  1  0.69698800  0.93337700  0.89654400  1
  Na  Na23  1  0.05153100  0.28208000  0.60270400  1
  Na  Na24  1  0.05023100  0.78651300  0.60049900  1
  Na  Na25  1  0.55087600  0.28507900  0.60160300  1
  Na  Na26  1  0.55284200  0.78566100  0.60226600  1
  Na  Na27  1  0.45465800  0.21557700  0.40797500  1
  Na  Na28  1  0.44714800  0.21170700  0.89700700  1
  Na  Na29  1  0.95284100  0.21799900  0.40667000  1
  Na  Na30  1  0.94926100  0.21247300  0.89718300  1
  Na  Na31  1  0.95112300  0.71711100  0.40408000  1
  Mo  Mo32  1  0.00613900  0.99811800  0.99580800  1
  Mo  Mo33  1  0.00294800  0.49524500  0.99403100  1
  Mo  Mo34  1  0.50394100  0.99767000  0.99351400  1
  Mo  Mo35  1  0.51460200  0.00588700  0.50639700  1
  Mo  Mo36  1  0.50464100  0.49584600  0.99465100  1
  Mo  Mo37  1  0.25516900  0.24885000  0.99511400  1
  Mo  Mo38  1  0.25289700  0.74441800  0.99234600  1
  Mo  Mo39  1  0.75351500  0.74808800  0.99388500  1
  W  W40  1  0.01585700  0.00191100  0.50449300  1
  W  W41  1  0.01480200  0.50222800  0.50241500  1
  W  W42  1  0.51610500  0.50178400  0.50665300  1
  W  W43  1  0.26484900  0.25434700  0.50561300  1
  W  W44  1  0.26498400  0.75000500  0.50410700  1
  W  W45  1  0.75589200  0.24402900  0.99320200  1
  W  W46  1  0.76793700  0.25156900  0.50600200  1
  W  W47  1  0.76526100  0.75346500  0.50661700  1
  W  W48  1  0.09886200  0.10901900  0.25927100  1
  W  W49  1  0.08763600  0.09813400  0.74774500  1
  W  W50  1  0.09600800  0.59299700  0.25588100  1
  W  W51  1  0.08737900  0.58275300  0.73822000  1
  W  W52  1  0.59657700  0.10150600  0.25692000  1
  W  W53  1  0.58458400  0.08878400  0.74560400  1
  W  W54  1  0.59842600  0.59246600  0.24997100  1
  W  W55  1  0.58708800  0.58956300  0.74260200  1
  W  W56  1  0.34681500  0.40352300  0.25988100  1
  W  W57  1  0.33658200  0.39976000  0.74836900  1
  W  W58  1  0.34836800  0.91216100  0.24950500  1
  W  W59  1  0.33664400  0.90793700  0.73966100  1
  W  W60  1  0.85595100  0.40473600  0.25355300  1
  W  W61  1  0.84144400  0.39941700  0.74369300  1
  W  W62  1  0.85259500  0.90931700  0.25269800  1
  W  W63  1  0.83455900  0.91170400  0.74727200  1
  O  O64  1  0.13009500  0.12419900  0.48988500  1
  O  O65  1  0.12359000  0.12169900  0.98464700  1
  O  O66  1  0.12886500  0.61632500  0.48331200  1
  O  O67  1  0.12298500  0.61277200  0.98253700  1
  O  O68  1  0.63272900  0.12529500  0.49483200  1
  O  O69  1  0.62423200  0.11491900  0.98150200  1
  O  O70  1  0.63251900  0.62279100  0.49406600  1
  O  O71  1  0.62300500  0.61788900  0.98480000  1
  O  O72  1  0.13176100  0.37650200  0.00221500  1
  O  O73  1  0.14836800  0.38782900  0.52162300  1
  O  O74  1  0.13411300  0.87511200  0.00431300  1
  O  O75  1  0.14723800  0.88206900  0.52129900  1
  O  O76  1  0.63287700  0.37327700  0.00362000  1
  O  O77  1  0.64888600  0.38478300  0.52383900  1
  O  O78  1  0.63396200  0.87759600  0.00322700  1
  O  O79  1  0.64893800  0.88840900  0.52604200  1
  O  O80  1  0.38230200  0.12282200  0.48944400  1
  O  O81  1  0.37421600  0.11902700  0.98178300  1
  O  O82  1  0.38095800  0.61631500  0.49207300  1
  O  O83  1  0.37172200  0.61345100  0.98374000  1
  O  O84  1  0.88366100  0.11984300  0.48848100  1
  O  O85  1  0.87496900  0.11478400  0.98289400  1
  O  O86  1  0.88453300  0.62237900  0.49161400  1
  O  O87  1  0.87276100  0.61629800  0.98498700  1
  O  O88  1  0.38291400  0.37696600  0.00261100  1
  O  O89  1  0.39839400  0.38599400  0.52169500  1
  O  O90  1  0.38217300  0.87757900  0.00406100  1
  O  O91  1  0.39904100  0.89027000  0.52602500  1
  O  O92  1  0.88519400  0.37558300  0.00444100  1
  O  O93  1  0.90000200  0.38618700  0.52207900  1
  O  O94  1  0.88105500  0.87778900  0.00359000  1
  O  O95  1  0.89816700  0.88655600  0.52231500  1
  O  O96  1  0.07403100  0.08220700  0.13725900  1
  O  O97  1  0.09243900  0.10738800  0.63937100  1
  O  O98  1  0.07152500  0.58437600  0.14014500  1
  O  O99  1  0.09224800  0.61227500  0.63867200  1
  O  O100  1  0.57216300  0.08217500  0.13606300  1
  O  O101  1  0.58680600  0.11185500  0.64254100  1
  O  O102  1  0.57382700  0.58907300  0.13471200  1
  O  O103  1  0.59542700  0.61309500  0.64027300  1
  O  O104  1  0.44692500  0.39104100  0.36759100  1
  O  O105  1  0.43930300  0.39291100  0.85758700  1
  O  O106  1  0.44828500  0.91601800  0.36481900  1
  O  O107  1  0.44177200  0.91316700  0.85436400  1
  O  O108  1  0.95327300  0.39243400  0.36458000  1
  O  O109  1  0.93596500  0.39667700  0.85628400  1
  O  O110  1  0.94746900  0.89778600  0.36537800  1
  O  O111  1  0.94444900  0.91084400  0.85829000  1
  O  O112  1  0.32542800  0.30937200  0.13851900  1
  O  O113  1  0.34007400  0.28245500  0.64002700  1
  O  O114  1  0.32583700  0.79736400  0.13814400  1
  O  O115  1  0.33933900  0.77590200  0.63995100  1
  O  O116  1  0.82999300  0.29905900  0.13517500  1
  O  O117  1  0.85019100  0.27635800  0.63979700  1
  O  O118  1  0.82969500  0.79971300  0.13875100  1
  O  O119  1  0.83919300  0.78667400  0.64332300  1
  O  O120  1  0.20187100  0.22604400  0.36712400  1
  O  O121  1  0.19068200  0.21283200  0.85729800  1
  O  O122  1  0.20661900  0.70538000  0.36660600  1
  O  O123  1  0.18745000  0.69124700  0.85489100  1
  O  O124  1  0.70717700  0.20875800  0.36754500  1
  O  O125  1  0.70270100  0.19489100  0.85652300  1
  O  O126  1  0.70078000  0.69925600  0.36683400  1
  O  O127  1  0.68209500  0.70663200  0.85581400  1
  O  O128  1  0.44207400  0.07896400  0.27282700  1
  O  O129  1  0.41756700  0.07020300  0.74997800  1
  O  O130  1  0.43873000  0.54519400  0.25007200  1
  O  O131  1  0.41737500  0.54040400  0.73036500  1
  O  O132  1  0.94551500  0.07466200  0.27517600  1
  O  O133  1  0.92190400  0.06594300  0.74996700  1
  O  O134  1  0.93687100  0.56876700  0.26743100  1
  O  O135  1  0.91651400  0.54361200  0.72801300  1
  O  O136  1  0.19055400  0.44845600  0.27286200  1
  O  O137  1  0.17155800  0.43261700  0.75170400  1
  O  O138  1  0.18528500  0.95542300  0.24728600  1
  O  O139  1  0.16552800  0.93858300  0.72913900  1
  O  O140  1  0.69536400  0.44985800  0.25457500  1
  O  O141  1  0.67181300  0.43538700  0.73262300  1
  O  O142  1  0.68956500  0.95352200  0.24909600  1
  O  O143  1  0.66598700  0.93445500  0.74842700  1
