# generated using pymatgen
data_La7SmTi2V6O24
_symmetry_space_group_name_H-M   'P 1'
_cell_length_a   7.93653126
_cell_length_b   7.93653126
_cell_length_c   7.89424400
_cell_angle_alpha   90.00000000
_cell_angle_beta   90.00000000
_cell_angle_gamma   90.10978338
_symmetry_Int_Tables_number   1
_chemical_formula_structural   La7SmTi2V6O24
_chemical_formula_sum   'La7 Sm1 Ti2 V6 O24'
_cell_volume   497.24590035
_cell_formula_units_Z   1
loop_
 _symmetry_equiv_pos_site_id
 _symmetry_equiv_pos_as_xyz
  1  'x, y, z'
loop_
 _atom_site_type_symbol
 _atom_site_label
 _atom_site_symmetry_multiplicity
 _atom_site_fract_x
 _atom_site_fract_y
 _atom_site_fract_z
 _atom_site_occupancy
  La  La0  1  0.25381400  0.25381400  0.00000000  1
  La  La1  1  0.74744300  0.25276800  0.00000000  1
  La  La2  1  0.25276800  0.74744300  0.00000000  1
  La  La3  1  0.74626500  0.74626500  0.00000000  1
  La  La4  1  0.74711800  0.25264600  0.50000000  1
  La  La5  1  0.25264600  0.74711800  0.50000000  1
  La  La6  1  0.74636500  0.74636500  0.50000000  1
  Sm  Sm7  1  0.25464400  0.25464400  0.50000000  1
  Ti  Ti8  1  0.00070800  0.00070800  0.74936100  1
  Ti  Ti9  1  0.00070800  0.00070800  0.25063900  1
  V  V10  1  0.49967100  0.00044400  0.74956000  1
  V  V11  1  0.00044400  0.49967100  0.74956000  1
  V  V12  1  0.49975000  0.49975000  0.74980000  1
  V  V13  1  0.49967100  0.00044400  0.25044000  1
  V  V14  1  0.00044400  0.49967100  0.25044000  1
  V  V15  1  0.49975000  0.49975000  0.25020000  1
  O  O16  1  0.00042600  0.00042600  0.00000000  1
  O  O17  1  0.50003700  0.00040500  0.00000000  1
  O  O18  1  0.00040500  0.50003700  0.00000000  1
  O  O19  1  0.49997300  0.49997300  0.00000000  1
  O  O20  1  0.00090200  0.00090200  0.50000000  1
  O  O21  1  0.49789300  0.00153100  0.50000000  1
  O  O22  1  0.00153100  0.49789300  0.50000000  1
  O  O23  1  0.49745500  0.49745500  0.50000000  1
  O  O24  1  0.00193400  0.24533200  0.74848400  1
  O  O25  1  0.49877600  0.24824300  0.74808000  1
  O  O26  1  0.99955600  0.75494000  0.74987600  1
  O  O27  1  0.49904000  0.75176500  0.74974600  1
  O  O28  1  0.00193400  0.24533200  0.25151600  1
  O  O29  1  0.49877600  0.24824300  0.25192000  1
  O  O30  1  0.99955600  0.75494000  0.25012400  1
  O  O31  1  0.49904000  0.75176500  0.25025400  1
  O  O32  1  0.24533200  0.00193400  0.74848400  1
  O  O33  1  0.75494000  0.99955600  0.74987600  1
  O  O34  1  0.24824300  0.49877600  0.74808000  1
  O  O35  1  0.75176500  0.49904000  0.74974600  1
  O  O36  1  0.24533200  0.00193400  0.25151600  1
  O  O37  1  0.75494000  0.99955600  0.25012400  1
  O  O38  1  0.24824300  0.49877600  0.25192000  1
  O  O39  1  0.75176500  0.49904000  0.25025400  1
