# generated using pymatgen
data_Sm2Ti2O5
_symmetry_space_group_name_H-M   'P 1'
_cell_length_a   8.68368211
_cell_length_b   8.68368211
_cell_length_c   8.68368211
_cell_angle_alpha   143.75564531
_cell_angle_beta   142.54437044
_cell_angle_gamma   53.10665081
_symmetry_Int_Tables_number   1
_chemical_formula_structural   Sm2Ti2O5
_chemical_formula_sum   'Sm4 Ti4 O10'
_cell_volume   233.98441641
_cell_formula_units_Z   2
loop_
 _symmetry_equiv_pos_site_id
 _symmetry_equiv_pos_as_xyz
  1  'x, y, z'
loop_
 _atom_site_type_symbol
 _atom_site_label
 _atom_site_symmetry_multiplicity
 _atom_site_fract_x
 _atom_site_fract_y
 _atom_site_fract_z
 _atom_site_occupancy
  Sm  Sm0  1  0.15301700  0.13473500  0.01828300  1
  Sm  Sm1  1  0.84698300  0.86526500  0.98171700  1
  Sm  Sm2  1  0.61645200  0.63473500  0.98171700  1
  Sm  Sm3  1  0.38354800  0.36526500  0.01828300  1
  Ti  Ti4  1  0.00000000  0.50000000  0.50000000  1
  Ti  Ti5  1  0.50000000  0.00000000  0.50000000  1
  Ti  Ti6  1  0.20080500  0.75000000  0.45080500  1
  Ti  Ti7  1  0.79919500  0.25000000  0.54919500  1
  O  O8  1  0.71659600  0.71659600  0.50000000  1
  O  O9  1  0.28340400  0.78340400  0.00000000  1
  O  O10  1  0.71659600  0.21659600  0.00000000  1
  O  O11  1  0.28340400  0.28340400  0.50000000  1
  O  O12  1  0.02968700  0.62534800  0.40433800  1
  O  O13  1  0.97031300  0.37465200  0.59566200  1
  O  O14  1  0.72101000  0.12534800  0.59566200  1
  O  O15  1  0.27899000  0.87465200  0.40433800  1
  O  O16  1  0.50000000  0.50000000  0.50000000  1
  O  O17  1  0.50000000  0.00000000  0.00000000  1
