# generated using pymatgen
data_CaSnS3
_symmetry_space_group_name_H-M   'P 1'
_cell_length_a   7.03301900
_cell_length_b   8.87926400
_cell_length_c   25.01870130
_cell_angle_alpha   76.81606831
_cell_angle_beta   90.00000000
_cell_angle_gamma   90.00000000
_symmetry_Int_Tables_number   1
_chemical_formula_structural   CaSnS3
_chemical_formula_sum   'Ca12 Sn12 S36'
_cell_volume   1521.18916957
_cell_formula_units_Z   12
loop_
 _symmetry_equiv_pos_site_id
 _symmetry_equiv_pos_as_xyz
  1  'x, y, z'
loop_
 _atom_site_type_symbol
 _atom_site_label
 _atom_site_symmetry_multiplicity
 _atom_site_fract_x
 _atom_site_fract_y
 _atom_site_fract_z
 _atom_site_occupancy
  Ca  Ca0  1  0.24064900  0.94202200  0.54744400  1
  Ca  Ca1  1  0.74064900  0.05797800  0.95255600  1
  Ca  Ca2  1  0.75935100  0.05797800  0.45255600  1
  Ca  Ca3  1  0.25935100  0.94202200  0.04744400  1
  Ca  Ca4  1  0.84900900  0.64879700  0.67405400  1
  Ca  Ca5  1  0.34900900  0.35120300  0.82594600  1
  Ca  Ca6  1  0.15099100  0.35120300  0.32594600  1
  Ca  Ca7  1  0.65099100  0.64879700  0.17405400  1
  Ca  Ca8  1  0.32791100  0.86041900  0.71285300  1
  Ca  Ca9  1  0.82791100  0.13958100  0.78714700  1
  Ca  Ca10  1  0.67208900  0.13958100  0.28714700  1
  Ca  Ca11  1  0.17208900  0.86041900  0.21285300  1
  Sn  Sn12  1  0.78186800  0.17983000  0.60048700  1
  Sn  Sn13  1  0.28186800  0.82017000  0.89951300  1
  Sn  Sn14  1  0.21813200  0.82017000  0.39951300  1
  Sn  Sn15  1  0.71813200  0.17983000  0.10048700  1
  Sn  Sn16  1  0.72362900  0.58094500  0.48474000  1
  Sn  Sn17  1  0.22362900  0.41905500  0.01526000  1
  Sn  Sn18  1  0.27637100  0.41905500  0.51526000  1
  Sn  Sn19  1  0.77637100  0.58094500  0.98474000  1
  Sn  Sn20  1  0.37916400  0.37334300  0.65075500  1
  Sn  Sn21  1  0.87916400  0.62665700  0.84924500  1
  Sn  Sn22  1  0.62083600  0.62665700  0.34924500  1
  Sn  Sn23  1  0.12083600  0.37334300  0.15075500  1
  S  S24  1  0.75001200  0.46510000  0.59620900  1
  S  S25  1  0.25001200  0.53490000  0.90379100  1
  S  S26  1  0.24998800  0.53490000  0.40379100  1
  S  S27  1  0.74998800  0.46510000  0.09620900  1
  S  S28  1  0.47428500  0.82564700  0.46890700  1
  S  S29  1  0.97428500  0.17435300  0.03109300  1
  S  S30  1  0.52571500  0.17435300  0.53109300  1
  S  S31  1  0.02571500  0.82564700  0.96890700  1
  S  S32  1  0.98914100  0.77646600  0.48867500  1
  S  S33  1  0.48914100  0.22353400  0.01132500  1
  S  S34  1  0.01085900  0.22353400  0.51132500  1
  S  S35  1  0.51085900  0.77646600  0.98867500  1
  S  S36  1  0.53191400  0.81459100  0.62183600  1
  S  S37  1  0.03191400  0.18540900  0.87816400  1
  S  S38  1  0.46808600  0.18540900  0.37816400  1
  S  S39  1  0.96808600  0.81459100  0.12183600  1
  S  S40  1  0.99884600  0.95999200  0.63853800  1
  S  S41  1  0.49884600  0.04000800  0.86146200  1
  S  S42  1  0.00115400  0.04000800  0.36146200  1
  S  S43  1  0.50115400  0.95999200  0.13853800  1
  S  S44  1  0.59804400  0.11805400  0.69470000  1
  S  S45  1  0.09804400  0.88194600  0.80530000  1
  S  S46  1  0.40195600  0.88194600  0.30530000  1
  S  S47  1  0.90195600  0.11805400  0.19470000  1
  S  S48  1  0.08635800  0.37691600  0.72997500  1
  S  S49  1  0.58635800  0.62308400  0.77002500  1
  S  S50  1  0.91364200  0.62308400  0.27002500  1
  S  S51  1  0.41364200  0.37691600  0.22997500  1
  S  S52  1  0.59555800  0.42247600  0.73554900  1
  S  S53  1  0.09555800  0.57752400  0.76445100  1
  S  S54  1  0.40444200  0.57752400  0.26445100  1
  S  S55  1  0.90444200  0.42247600  0.23554900  1
  S  S56  1  0.28914600  0.67459000  0.63268000  1
  S  S57  1  0.78914600  0.32541000  0.86732000  1
  S  S58  1  0.71085400  0.32541000  0.36732000  1
  S  S59  1  0.21085400  0.67459000  0.13268000  1
