# generated using pymatgen
data_H34C19
_symmetry_space_group_name_H-M   'P 1'
_cell_length_a   7.33459900
_cell_length_b   10.58757000
_cell_length_c   10.83892898
_cell_angle_alpha   74.20449520
_cell_angle_beta   90.00000000
_cell_angle_gamma   90.00000000
_symmetry_Int_Tables_number   1
_chemical_formula_structural   H34C19
_chemical_formula_sum   'H68 C38'
_cell_volume   809.92005750
_cell_formula_units_Z   2
loop_
 _symmetry_equiv_pos_site_id
 _symmetry_equiv_pos_as_xyz
  1  'x, y, z'
loop_
 _atom_site_type_symbol
 _atom_site_label
 _atom_site_symmetry_multiplicity
 _atom_site_fract_x
 _atom_site_fract_y
 _atom_site_fract_z
 _atom_site_occupancy
  H  H0  1  0.19122200  0.67226400  0.97359500  1
  H  H1  1  0.69122200  0.32773600  0.02640500  1
  H  H2  1  0.36739800  0.79150000  0.94264900  1
  H  H3  1  0.86739800  0.20850000  0.05735100  1
  H  H4  1  0.94303100  0.99677700  0.04404500  1
  H  H5  1  0.44303100  0.00322300  0.95595500  1
  H  H6  1  0.91994900  0.88350200  0.95185200  1
  H  H7  1  0.41994900  0.11649800  0.04814800  1
  H  H8  1  0.68530200  0.88412000  0.19381800  1
  H  H9  1  0.18530200  0.11588000  0.80618200  1
  H  H10  1  0.66274500  0.79411600  0.07968400  1
  H  H11  1  0.16274500  0.20588400  0.92031600  1
  H  H12  1  0.05963100  0.59314400  0.37816200  1
  H  H13  1  0.55963100  0.40685600  0.62183800  1
  H  H14  1  0.85321800  0.66472800  0.41090600  1
  H  H15  1  0.35321800  0.33527200  0.58909400  1
  H  H16  1  0.13548500  0.90610400  0.01717500  1
  H  H17  1  0.63548500  0.09389600  0.98282500  1
  H  H18  1  0.47246700  0.30367900  0.86259000  1
  H  H19  1  0.97246700  0.69632100  0.13741000  1
  H  H20  1  0.31824600  0.89854800  0.75840900  1
  H  H21  1  0.81824600  0.10145200  0.24159100  1
  H  H22  1  0.39330800  0.64485400  0.06732500  1
  H  H23  1  0.89330800  0.35514600  0.93267500  1
  H  H24  1  0.29144600  0.96904300  0.59235000  1
  H  H25  1  0.79144600  0.03095700  0.40765000  1
  H  H26  1  0.11737700  0.86816300  0.68191600  1
  H  H27  1  0.61737700  0.13183700  0.31808400  1
  H  H28  1  0.67515300  0.70979900  0.24509300  1
  H  H29  1  0.17515300  0.29020100  0.75490700  1
  H  H30  1  0.78619100  0.10320000  0.81284600  1
  H  H31  1  0.28619100  0.89680000  0.18715400  1
  H  H32  1  0.48372200  0.11097100  0.69900400  1
  H  H33  1  0.98372200  0.88902900  0.30099600  1
  H  H34  1  0.54890900  0.34054800  0.20224800  1
  H  H35  1  0.04890900  0.65945200  0.79775200  1
  H  H36  1  0.60047700  0.50866900  0.38854400  1
  H  H37  1  0.10047700  0.49133100  0.61145600  1
  H  H38  1  0.39703100  0.43717500  0.35144100  1
  H  H39  1  0.89703100  0.56282500  0.64855900  1
  H  H40  1  0.50510600  0.21663400  0.45831700  1
  H  H41  1  0.00510600  0.78336600  0.54168300  1
  H  H42  1  0.35830500  0.64510100  0.50763600  1
  H  H43  1  0.85830500  0.35489900  0.49236400  1
  H  H44  1  0.77924000  0.06214500  0.60244800  1
  H  H45  1  0.27924000  0.93785500  0.39755200  1
  H  H46  1  0.47777700  0.84942700  0.37863400  1
  H  H47  1  0.97777700  0.15057300  0.62136600  1
  H  H48  1  0.30645900  0.72478900  0.25588400  1
  H  H49  1  0.80645900  0.27521100  0.74411600  1
  H  H50  1  0.40060100  0.55470300  0.71118700  1
  H  H51  1  0.90060100  0.44529700  0.28881300  1
  H  H52  1  0.11575700  0.49289500  0.83339500  1
  H  H53  1  0.61575700  0.50710500  0.16660500  1
  H  H54  1  0.09332600  0.11345200  0.43543300  1
  H  H55  1  0.59332600  0.88654800  0.56456700  1
  H  H56  1  0.30669800  0.19633800  0.25589100  1
  H  H57  1  0.80669800  0.80366200  0.74410900  1
  H  H58  1  0.63649200  0.71543300  0.59367900  1
  H  H59  1  0.13649200  0.28456700  0.40632100  1
  H  H60  1  0.19629100  0.34942000  0.04970900  1
  H  H61  1  0.69629100  0.65058000  0.95029100  1
  H  H62  1  0.92408000  0.48994900  0.07092500  1
  H  H63  1  0.42408000  0.51005100  0.92907500  1
  H  H64  1  0.60808500  0.86466400  0.79910000  1
  H  H65  1  0.10808500  0.13533600  0.20090000  1
  H  H66  1  0.20100300  0.42318500  0.17779800  1
  H  H67  1  0.70100300  0.57681500  0.82220200  1
  C  C68  1  0.26552000  0.87977800  0.67046200  1
  C  C69  1  0.76552000  0.12022200  0.32953800  1
  C  C70  1  0.33958600  0.68575200  0.96983800  1
  C  C71  1  0.83958600  0.31424800  0.03016200  1
  C  C72  1  0.03782300  0.79979900  0.27986900  1
  C  C73  1  0.53782300  0.20020100  0.72013100  1
  C  C74  1  0.24614400  0.81524800  0.26989100  1
  C  C75  1  0.74614400  0.18475200  0.73010900  1
  C  C76  1  0.32856600  0.84177900  0.39086800  1
  C  C77  1  0.82856600  0.15822100  0.60913200  1
  C  C78  1  0.36047400  0.76075200  0.64213600  1
  C  C79  1  0.86047400  0.23924800  0.35786400  1
  C  C80  1  0.98877700  0.90031200  0.03653700  1
  C  C81  1  0.48877700  0.09968800  0.96346300  1
  C  C82  1  0.72898400  0.79388900  0.17096600  1
  C  C83  1  0.22898400  0.20611100  0.82903400  1
  C  C84  1  0.93707300  0.79060300  0.15626400  1
  C  C85  1  0.43707300  0.20939700  0.84373600  1
  C  C86  1  0.00113800  0.68242000  0.39689600  1
  C  C87  1  0.50113800  0.31758000  0.60310400  1
  C  C88  1  0.28582200  0.73468000  0.51455300  1
  C  C89  1  0.78582200  0.26532000  0.48544700  1
  C  C90  1  0.08034200  0.70026400  0.52294200  1
  C  C91  1  0.58034200  0.29973600  0.47705800  1
  C  C92  1  0.63150100  0.65219200  0.85781900  1
  C  C93  1  0.13150100  0.34780800  0.14218100  1
  C  C94  1  0.65948100  0.78515700  0.76055000  1
  C  C95  1  0.15948100  0.21484300  0.23945000  1
  C  C96  1  0.56815900  0.78946600  0.63218700  1
  C  C97  1  0.06815900  0.21053400  0.36781300  1
  C  C98  1  0.04557100  0.57875800  0.63551700  1
  C  C99  1  0.54557100  0.42124200  0.36448300  1
  C  C100  1  0.12943100  0.58925300  0.76188300  1
  C  C101  1  0.62943100  0.41074700  0.23811700  1
  C  C102  1  0.33137100  0.62925100  0.74880400  1
  C  C103  1  0.83137100  0.37074900  0.25119600  1
  C  C104  1  0.42870800  0.61594600  0.87904700  1
  C  C105  1  0.92870800  0.38405400  0.12095300  1
