# generated using pymatgen
data_Ca3Sn4S11
_symmetry_space_group_name_H-M   'P 1'
_cell_length_a   9.10138800
_cell_length_b   9.89385720
_cell_length_c   10.42408894
_cell_angle_alpha   99.04432235
_cell_angle_beta   100.28607208
_cell_angle_gamma   106.80523673
_symmetry_Int_Tables_number   1
_chemical_formula_structural   Ca3Sn4S11
_chemical_formula_sum   'Ca6 Sn8 S22'
_cell_volume   862.13494258
_cell_formula_units_Z   2
loop_
 _symmetry_equiv_pos_site_id
 _symmetry_equiv_pos_as_xyz
  1  'x, y, z'
loop_
 _atom_site_type_symbol
 _atom_site_label
 _atom_site_symmetry_multiplicity
 _atom_site_fract_x
 _atom_site_fract_y
 _atom_site_fract_z
 _atom_site_occupancy
  Ca  Ca0  1  0.68616000  0.84340800  0.97190700  1
  Ca  Ca1  1  0.31384000  0.15659200  0.02809300  1
  Ca  Ca2  1  0.12611600  0.71551000  0.87349500  1
  Ca  Ca3  1  0.87388400  0.28449000  0.12650500  1
  Ca  Ca4  1  0.69327800  0.39761200  0.51891800  1
  Ca  Ca5  1  0.30672200  0.60238800  0.48108200  1
  Sn  Sn6  1  0.16533100  0.14606800  0.36035600  1
  Sn  Sn7  1  0.83466900  0.85393200  0.63964400  1
  Sn  Sn8  1  0.07665000  0.24361500  0.72822900  1
  Sn  Sn9  1  0.92335000  0.75638500  0.27177100  1
  Sn  Sn10  1  0.57297300  0.95436400  0.34253200  1
  Sn  Sn11  1  0.42702700  0.04563600  0.65746800  1
  Sn  Sn12  1  0.41147000  0.57991700  0.15309200  1
  Sn  Sn13  1  0.58853000  0.42008300  0.84690800  1
  S  S14  1  0.42720700  0.82764800  0.09165300  1
  S  S15  1  0.57279300  0.17235200  0.90834700  1
  S  S16  1  0.05104400  0.93647300  0.05472600  1
  S  S17  1  0.94895600  0.06352700  0.94527400  1
  S  S18  1  0.79359300  0.64288400  0.75025900  1
  S  S19  1  0.20640700  0.35711600  0.24974100  1
  S  S20  1  0.30569800  0.88573700  0.41257400  1
  S  S21  1  0.69430200  0.11426300  0.58742600  1
  S  S22  1  0.46994100  0.16672900  0.29398900  1
  S  S23  1  0.53005900  0.83327100  0.70601100  1
  S  S24  1  0.06379800  0.57943900  0.08713900  1
  S  S25  1  0.93620200  0.42056100  0.91286100  1
  S  S26  1  0.39244400  0.65321600  0.76278300  1
  S  S27  1  0.60755600  0.34678400  0.23721700  1
  S  S28  1  0.68381400  0.60002400  0.08128300  1
  S  S29  1  0.31618600  0.39997600  0.91871700  1
  S  S30  1  0.81679200  0.02406200  0.25219000  1
  S  S31  1  0.18320800  0.97593800  0.74781000  1
  S  S32  1  0.37853900  0.28157900  0.60288600  1
  S  S33  1  0.62146100  0.71842100  0.39711400  1
  S  S34  1  0.00801400  0.60679100  0.48970500  1
  S  S35  1  0.99198600  0.39320900  0.51029500  1
