# generated using pymatgen
data_RbTh3F13
_symmetry_space_group_name_H-M   'P 1'
_cell_length_a   7.13203100
_cell_length_b   8.04958100
_cell_length_c   8.86991400
_cell_angle_alpha   90.00000000
_cell_angle_beta   90.00000000
_cell_angle_gamma   90.00000000
_symmetry_Int_Tables_number   1
_chemical_formula_structural   RbTh3F13
_chemical_formula_sum   'Rb2 Th6 F26'
_cell_volume   509.22053185
_cell_formula_units_Z   2
loop_
 _symmetry_equiv_pos_site_id
 _symmetry_equiv_pos_as_xyz
  1  'x, y, z'
loop_
 _atom_site_type_symbol
 _atom_site_label
 _atom_site_symmetry_multiplicity
 _atom_site_fract_x
 _atom_site_fract_y
 _atom_site_fract_z
 _atom_site_occupancy
  Rb  Rb0  1  0.97825900  0.50000000  0.69283200  1
  Rb  Rb1  1  0.02174100  0.50000000  0.19283200  1
  Th  Th2  1  0.47766700  0.75596200  0.92479100  1
  Th  Th3  1  0.52233300  0.24403800  0.42479100  1
  Th  Th4  1  0.47766700  0.24403800  0.92479100  1
  Th  Th5  1  0.52233300  0.75596200  0.42479100  1
  Th  Th6  1  0.98639900  0.00000000  0.04759100  1
  Th  Th7  1  0.01360100  0.00000000  0.54759100  1
  F  F8  1  0.65286700  0.50000000  0.93805100  1
  F  F9  1  0.34713300  0.50000000  0.43805100  1
  F  F10  1  0.56767400  0.68684400  0.67975200  1
  F  F11  1  0.43232600  0.31315600  0.17975200  1
  F  F12  1  0.56767400  0.31315600  0.67975200  1
  F  F13  1  0.43232600  0.68684400  0.17975200  1
  F  F14  1  0.76594000  0.22307400  0.06080100  1
  F  F15  1  0.23406000  0.77692600  0.56080100  1
  F  F16  1  0.76594000  0.77692600  0.06080100  1
  F  F17  1  0.23406000  0.22307400  0.56080100  1
  F  F18  1  0.84179100  0.24032300  0.47325300  1
  F  F19  1  0.15820900  0.75967700  0.97325300  1
  F  F20  1  0.84179100  0.75967700  0.47325300  1
  F  F21  1  0.15820900  0.24032300  0.97325300  1
  F  F22  1  0.95094300  0.84617100  0.75244300  1
  F  F23  1  0.04905700  0.15382900  0.25244300  1
  F  F24  1  0.95094300  0.15382900  0.75244300  1
  F  F25  1  0.04905700  0.84617100  0.25244300  1
  F  F26  1  0.68008100  0.50000000  0.36786200  1
  F  F27  1  0.31991900  0.50000000  0.86786200  1
  F  F28  1  0.33524200  0.00000000  0.78908300  1
  F  F29  1  0.66475800  0.00000000  0.28908300  1
  F  F30  1  0.66396100  0.00000000  0.89229300  1
  F  F31  1  0.33603900  0.00000000  0.39229300  1
  F  F32  1  0.63496900  0.00000000  0.56870700  1
  F  F33  1  0.36503100  0.00000000  0.06870700  1
