# generated using pymatgen
data_FeSCl7
_symmetry_space_group_name_H-M   'P 1'
_cell_length_a   12.59944500
_cell_length_b   7.12579900
_cell_length_c   12.17156760
_cell_angle_alpha   72.37020133
_cell_angle_beta   90.00000000
_cell_angle_gamma   90.00000000
_symmetry_Int_Tables_number   1
_chemical_formula_structural   FeSCl7
_chemical_formula_sum   'Fe4 S4 Cl28'
_cell_volume   1041.45273586
_cell_formula_units_Z   4
loop_
 _symmetry_equiv_pos_site_id
 _symmetry_equiv_pos_as_xyz
  1  'x, y, z'
loop_
 _atom_site_type_symbol
 _atom_site_label
 _atom_site_symmetry_multiplicity
 _atom_site_fract_x
 _atom_site_fract_y
 _atom_site_fract_z
 _atom_site_occupancy
  Fe  Fe0  1  0.47559700  0.86450000  0.15990400  1
  Fe  Fe1  1  0.97559700  0.13550000  0.34009600  1
  Fe  Fe2  1  0.52440300  0.13550000  0.84009600  1
  Fe  Fe3  1  0.02440300  0.86450000  0.65990400  1
  S  S4  1  0.75379100  0.54197400  0.04483300  1
  S  S5  1  0.25379100  0.45802600  0.45516700  1
  S  S6  1  0.24620900  0.45802600  0.95516700  1
  S  S7  1  0.74620900  0.54197400  0.54483300  1
  Cl  Cl8  1  0.57062300  0.59177800  0.19131400  1
  Cl  Cl9  1  0.07062300  0.40822200  0.30868600  1
  Cl  Cl10  1  0.42937700  0.40822200  0.80868600  1
  Cl  Cl11  1  0.92937700  0.59177800  0.69131400  1
  Cl  Cl12  1  0.67261400  0.70627300  0.90336000  1
  Cl  Cl13  1  0.17261400  0.29372700  0.59664000  1
  Cl  Cl14  1  0.32738600  0.29372700  0.09664000  1
  Cl  Cl15  1  0.82738600  0.70627300  0.40336000  1
  Cl  Cl16  1  0.86266200  0.41582100  0.96963300  1
  Cl  Cl17  1  0.36266200  0.58417900  0.53036700  1
  Cl  Cl18  1  0.13733800  0.58417900  0.03036700  1
  Cl  Cl19  1  0.63733800  0.41582100  0.46963300  1
  Cl  Cl20  1  0.84037400  0.74627600  0.08876900  1
  Cl  Cl21  1  0.34037400  0.25372400  0.41123100  1
  Cl  Cl22  1  0.15962600  0.25372400  0.91123100  1
  Cl  Cl23  1  0.65962600  0.74627600  0.58876900  1
  Cl  Cl24  1  0.59893300  0.10456800  0.02831300  1
  Cl  Cl25  1  0.09893300  0.89543200  0.47168700  1
  Cl  Cl26  1  0.40106700  0.89543200  0.97168700  1
  Cl  Cl27  1  0.90106700  0.10456800  0.52831300  1
  Cl  Cl28  1  0.31139400  0.75288700  0.23460000  1
  Cl  Cl29  1  0.81139400  0.24711300  0.26540000  1
  Cl  Cl30  1  0.68860600  0.24711300  0.76540000  1
  Cl  Cl31  1  0.18860600  0.75288700  0.73460000  1
  Cl  Cl32  1  0.51131700  0.01408200  0.29390200  1
  Cl  Cl33  1  0.01131700  0.98591800  0.20609800  1
  Cl  Cl34  1  0.48868300  0.98591800  0.70609800  1
  Cl  Cl35  1  0.98868300  0.01408200  0.79390200  1
