# generated using pymatgen
data_Ca2SnS4
_symmetry_space_group_name_H-M   'P 1'
_cell_length_a   7.81828784
_cell_length_b   7.81828784
_cell_length_c   7.08181200
_cell_angle_alpha   90.00000000
_cell_angle_beta   90.00000000
_cell_angle_gamma   126.18410309
_symmetry_Int_Tables_number   1
_chemical_formula_structural   Ca2SnS4
_chemical_formula_sum   'Ca4 Sn2 S8'
_cell_volume   349.38804807
_cell_formula_units_Z   2
loop_
 _symmetry_equiv_pos_site_id
 _symmetry_equiv_pos_as_xyz
  1  'x, y, z'
loop_
 _atom_site_type_symbol
 _atom_site_label
 _atom_site_symmetry_multiplicity
 _atom_site_fract_x
 _atom_site_fract_y
 _atom_site_fract_z
 _atom_site_occupancy
  Ca  Ca0  1  0.80760100  0.51284600  0.51881500  1
  Ca  Ca1  1  0.48715400  0.19239900  0.98118500  1
  Ca  Ca2  1  0.51284600  0.80760100  0.48118500  1
  Ca  Ca3  1  0.19239900  0.48715400  0.01881500  1
  Sn  Sn4  1  0.21480600  0.21480600  0.50000000  1
  Sn  Sn5  1  0.78519400  0.78519400  0.00000000  1
  S  S6  1  0.92574300  0.07425700  0.75000000  1
  S  S7  1  0.07425700  0.92574300  0.25000000  1
  S  S8  1  0.52924900  0.47075100  0.25000000  1
  S  S9  1  0.47075100  0.52924900  0.75000000  1
  S  S10  1  0.09033400  0.43458800  0.39703900  1
  S  S11  1  0.56541200  0.90966600  0.10296100  1
  S  S12  1  0.43458800  0.09033400  0.60296100  1
  S  S13  1  0.90966600  0.56541200  0.89703900  1
