# generated using pymatgen
data_CaSnS3
_symmetry_space_group_name_H-M   'P 1'
_cell_length_a   7.34034054
_cell_length_b   7.34034054
_cell_length_c   7.34034040
_cell_angle_alpha   54.81415603
_cell_angle_beta   54.81415603
_cell_angle_gamma   54.81415303
_symmetry_Int_Tables_number   1
_chemical_formula_structural   CaSnS3
_chemical_formula_sum   'Ca2 Sn2 S6'
_cell_volume   245.89291981
_cell_formula_units_Z   2
loop_
 _symmetry_equiv_pos_site_id
 _symmetry_equiv_pos_as_xyz
  1  'x, y, z'
loop_
 _atom_site_type_symbol
 _atom_site_label
 _atom_site_symmetry_multiplicity
 _atom_site_fract_x
 _atom_site_fract_y
 _atom_site_fract_z
 _atom_site_occupancy
  Ca  Ca0  1  0.63973500  0.63973500  0.63973500  1
  Ca  Ca1  1  0.36026500  0.36026500  0.36026500  1
  Sn  Sn2  1  0.84433700  0.84433700  0.84433700  1
  Sn  Sn3  1  0.15566300  0.15566300  0.15566300  1
  S  S4  1  0.44133800  0.78611100  0.03371100  1
  S  S5  1  0.78611100  0.03371100  0.44133800  1
  S  S6  1  0.03371100  0.44133800  0.78611100  1
  S  S7  1  0.55866200  0.21388900  0.96628900  1
  S  S8  1  0.21388900  0.96628900  0.55866200  1
  S  S9  1  0.96628900  0.55866200  0.21388900  1
