# generated using pymatgen
data_La7SmCrFe7O24
_symmetry_space_group_name_H-M   'P 1'
_cell_length_a   7.88570998
_cell_length_b   7.88570998
_cell_length_c   7.88571004
_cell_angle_alpha   89.99578695
_cell_angle_beta   89.99578695
_cell_angle_gamma   89.99578710
_symmetry_Int_Tables_number   1
_chemical_formula_structural   La7SmCrFe7O24
_chemical_formula_sum   'La7 Sm1 Cr1 Fe7 O24'
_cell_volume   490.36831664
_cell_formula_units_Z   1
loop_
 _symmetry_equiv_pos_site_id
 _symmetry_equiv_pos_as_xyz
  1  'x, y, z'
loop_
 _atom_site_type_symbol
 _atom_site_label
 _atom_site_symmetry_multiplicity
 _atom_site_fract_x
 _atom_site_fract_y
 _atom_site_fract_z
 _atom_site_occupancy
  La  La0  1  0.74968600  0.25032800  0.74968600  1
  La  La1  1  0.25032400  0.25032400  0.74968500  1
  La  La2  1  0.74968500  0.25032400  0.25032400  1
  La  La3  1  0.25030400  0.25030400  0.25030400  1
  La  La4  1  0.25032800  0.74968600  0.74968600  1
  La  La5  1  0.74968600  0.74968600  0.25032800  1
  La  La6  1  0.25032400  0.74968500  0.25032400  1
  Sm  Sm7  1  0.74969500  0.74969500  0.74969500  1
  Cr  Cr8  1  0.50016200  0.50016200  0.50016200  1
  Fe  Fe9  1  0.50026900  0.99972500  0.99972500  1
  Fe  Fe10  1  0.99973000  0.99973000  0.99973000  1
  Fe  Fe11  1  0.50027700  0.99972000  0.50027700  1
  Fe  Fe12  1  0.99972500  0.99972500  0.50026900  1
  Fe  Fe13  1  0.50027700  0.50027700  0.99972000  1
  Fe  Fe14  1  0.99972500  0.50026900  0.99972500  1
  Fe  Fe15  1  0.99972000  0.50027700  0.50027700  1
  O  O16  1  0.50001600  0.25028000  0.99998100  1
  O  O17  1  0.99997900  0.25012500  0.99997900  1
  O  O18  1  0.50002100  0.25065700  0.50002100  1
  O  O19  1  0.99998100  0.25028000  0.50001600  1
  O  O20  1  0.50105700  0.74972700  0.99894600  1
  O  O21  1  0.99894200  0.74987800  0.99894200  1
  O  O22  1  0.50112300  0.74928400  0.50112300  1
  O  O23  1  0.99894600  0.74972700  0.50105700  1
  O  O24  1  0.50105700  0.99894600  0.74972700  1
  O  O25  1  0.99894200  0.99894200  0.74987800  1
  O  O26  1  0.50001600  0.99998100  0.25028000  1
  O  O27  1  0.99997900  0.99997900  0.25012500  1
  O  O28  1  0.50112300  0.50112300  0.74928400  1
  O  O29  1  0.99894600  0.50105700  0.74972700  1
  O  O30  1  0.50002100  0.50002100  0.25065700  1
  O  O31  1  0.99998100  0.50001600  0.25028000  1
  O  O32  1  0.74987800  0.99894200  0.99894200  1
  O  O33  1  0.25012500  0.99997900  0.99997900  1
  O  O34  1  0.74972700  0.99894600  0.50105700  1
  O  O35  1  0.25028000  0.99998100  0.50001600  1
  O  O36  1  0.74972700  0.50105700  0.99894600  1
  O  O37  1  0.25028000  0.50001600  0.99998100  1
  O  O38  1  0.74928400  0.50112300  0.50112300  1
  O  O39  1  0.25065700  0.50002100  0.50002100  1
