# generated using pymatgen
data_Sr3CaTiMn3O12
_symmetry_space_group_name_H-M   'P 1'
_cell_length_a   7.74295600
_cell_length_b   7.74460300
_cell_length_c   7.79299000
_cell_angle_alpha   90.00000000
_cell_angle_beta   90.00000000
_cell_angle_gamma   90.00000000
_symmetry_Int_Tables_number   1
_chemical_formula_structural   Sr3CaTiMn3O12
_chemical_formula_sum   'Sr6 Ca2 Ti2 Mn6 O24'
_cell_volume   467.31537558
_cell_formula_units_Z   2
loop_
 _symmetry_equiv_pos_site_id
 _symmetry_equiv_pos_as_xyz
  1  'x, y, z'
loop_
 _atom_site_type_symbol
 _atom_site_label
 _atom_site_symmetry_multiplicity
 _atom_site_fract_x
 _atom_site_fract_y
 _atom_site_fract_z
 _atom_site_occupancy
  Sr  Sr0  1  0.24657200  0.24719000  0.75000000  1
  Sr  Sr1  1  0.24684300  0.75292700  0.75000000  1
  Sr  Sr2  1  0.75318400  0.75323600  0.75000000  1
  Sr  Sr3  1  0.24684300  0.24707300  0.25000000  1
  Sr  Sr4  1  0.24657200  0.75281000  0.25000000  1
  Sr  Sr5  1  0.75318400  0.24676400  0.25000000  1
  Ca  Ca6  1  0.75432800  0.24603300  0.75000000  1
  Ca  Ca7  1  0.75432800  0.75396700  0.25000000  1
  Ti  Ti8  1  0.50223400  0.50000000  0.00000000  1
  Ti  Ti9  1  0.50223400  0.50000000  0.50000000  1
  Mn  Mn10  1  0.99898700  0.00000000  0.00000000  1
  Mn  Mn11  1  0.99938000  0.50000000  0.00000000  1
  Mn  Mn12  1  0.50125000  0.00000000  0.00000000  1
  Mn  Mn13  1  0.99898700  0.00000000  0.50000000  1
  Mn  Mn14  1  0.99938000  0.50000000  0.50000000  1
  Mn  Mn15  1  0.50125000  0.00000000  0.50000000  1
  O  O16  1  0.99655500  0.00247800  0.75000000  1
  O  O17  1  0.99654300  0.49736700  0.75000000  1
  O  O18  1  0.50341200  0.00298500  0.75000000  1
  O  O19  1  0.50232500  0.49891800  0.75000000  1
  O  O20  1  0.99655500  0.99752200  0.25000000  1
  O  O21  1  0.99654300  0.50263300  0.25000000  1
  O  O22  1  0.50341200  0.99701500  0.25000000  1
  O  O23  1  0.50232500  0.50108200  0.25000000  1
  O  O24  1  0.24997000  0.00000000  0.00000000  1
  O  O25  1  0.24664200  0.50000000  0.00000000  1
  O  O26  1  0.74995900  0.00000000  0.00000000  1
  O  O27  1  0.75337100  0.50000000  0.00000000  1
  O  O28  1  0.24997000  0.00000000  0.50000000  1
  O  O29  1  0.24664200  0.50000000  0.50000000  1
  O  O30  1  0.74995900  0.00000000  0.50000000  1
  O  O31  1  0.75337100  0.50000000  0.50000000  1
  O  O32  1  0.99667300  0.24990600  0.99715100  1
  O  O33  1  0.99667300  0.75009400  0.00284900  1
  O  O34  1  0.50255000  0.24660400  0.99850000  1
  O  O35  1  0.50255000  0.75339600  0.00150000  1
  O  O36  1  0.99667300  0.24990600  0.50284900  1
  O  O37  1  0.99667300  0.75009400  0.49715100  1
  O  O38  1  0.50255000  0.24660400  0.50150000  1
  O  O39  1  0.50255000  0.75339600  0.49850000  1
