# generated using pymatgen
data_K5Na3Ta6Nb2O24
_symmetry_space_group_name_H-M   'P 1'
_cell_length_a   8.04841900
_cell_length_b   8.04846400
_cell_length_c   8.04944102
_cell_angle_alpha   89.99616341
_cell_angle_beta   90.00000000
_cell_angle_gamma   90.00000000
_symmetry_Int_Tables_number   1
_chemical_formula_structural   K5Na3Ta6Nb2O24
_chemical_formula_sum   'K5 Na3 Ta6 Nb2 O24'
_cell_volume   521.42194458
_cell_formula_units_Z   1
loop_
 _symmetry_equiv_pos_site_id
 _symmetry_equiv_pos_as_xyz
  1  'x, y, z'
loop_
 _atom_site_type_symbol
 _atom_site_label
 _atom_site_symmetry_multiplicity
 _atom_site_fract_x
 _atom_site_fract_y
 _atom_site_fract_z
 _atom_site_occupancy
  K  K0  1  0.00000000  0.25010500  0.74989600  1
  K  K1  1  0.00000000  0.25009900  0.25010000  1
  K  K2  1  0.50000000  0.25010300  0.74989900  1
  K  K3  1  0.50000000  0.25009800  0.25010000  1
  K  K4  1  0.50000000  0.74989000  0.25010800  1
  Na  Na5  1  0.00000000  0.74999100  0.74999200  1
  Na  Na6  1  0.00000000  0.74999300  0.25000900  1
  Na  Na7  1  0.50000000  0.74999200  0.74999200  1
  Ta  Ta8  1  0.24977800  0.99934100  0.99978000  1
  Ta  Ta9  1  0.24978200  0.50066800  0.99977900  1
  Ta  Ta10  1  0.24977800  0.99934000  0.50022300  1
  Ta  Ta11  1  0.75022200  0.99934100  0.99978000  1
  Ta  Ta12  1  0.75021800  0.50066800  0.99977900  1
  Ta  Ta13  1  0.75022200  0.99934000  0.50022300  1
  Nb  Nb14  1  0.24978000  0.50065100  0.50022000  1
  Nb  Nb15  1  0.75022000  0.50065100  0.50022000  1
  O  O16  1  0.00000000  0.99810800  0.99988600  1
  O  O17  1  0.00000000  0.50190500  0.99989100  1
  O  O18  1  0.00000000  0.99809000  0.50011100  1
  O  O19  1  0.00000000  0.50187700  0.50010000  1
  O  O20  1  0.50000000  0.99887000  0.99910100  1
  O  O21  1  0.50000000  0.50113100  0.99909000  1
  O  O22  1  0.50000000  0.99886700  0.50090400  1
  O  O23  1  0.50000000  0.50110400  0.50089500  1
  O  O24  1  0.24988700  0.99809900  0.75012200  1
  O  O25  1  0.24989500  0.50189100  0.75115800  1
  O  O26  1  0.24909600  0.99886800  0.24987400  1
  O  O27  1  0.24909700  0.50112000  0.24881600  1
  O  O28  1  0.75011300  0.99809900  0.75012200  1
  O  O29  1  0.75010500  0.50189100  0.75115800  1
  O  O30  1  0.75090400  0.99886800  0.24987400  1
  O  O31  1  0.75090300  0.50112000  0.24881600  1
  O  O32  1  0.24988400  0.24987100  0.99988400  1
  O  O33  1  0.24911500  0.75011800  0.99911400  1
  O  O34  1  0.24989000  0.24879300  0.50011200  1
  O  O35  1  0.24911500  0.75113100  0.50088300  1
  O  O36  1  0.75011600  0.24987100  0.99988400  1
  O  O37  1  0.75088500  0.75011800  0.99911400  1
  O  O38  1  0.75011000  0.24879300  0.50011200  1
  O  O39  1  0.75088500  0.75113100  0.50088300  1
