# generated using pymatgen
data_BaSr7Fe6(CoO10)2
_symmetry_space_group_name_H-M   'P 1'
_cell_length_a   11.08007514
_cell_length_b   11.46336449
_cell_length_c   17.94244339
_cell_angle_alpha   108.61192448
_cell_angle_beta   107.76847170
_cell_angle_gamma   90.28652315
_symmetry_Int_Tables_number   1
_chemical_formula_structural   BaSr7Fe6(CoO10)2
_chemical_formula_sum   'Ba4 Sr28 Fe24 Co8 O80'
_cell_volume   2043.46513528
_cell_formula_units_Z   4
loop_
 _symmetry_equiv_pos_site_id
 _symmetry_equiv_pos_as_xyz
  1  'x, y, z'
loop_
 _atom_site_type_symbol
 _atom_site_label
 _atom_site_symmetry_multiplicity
 _atom_site_fract_x
 _atom_site_fract_y
 _atom_site_fract_z
 _atom_site_occupancy
  Ba  Ba0  1  0.30867400  0.06293100  0.11477800  1
  Ba  Ba1  1  0.30972700  0.56175900  0.11357900  1
  Ba  Ba2  1  0.80825100  0.06121100  0.11424000  1
  Ba  Ba3  1  0.05613200  0.79977100  0.11373600  1
  Sr  Sr4  1  0.30932800  0.06299300  0.60818400  1
  Sr  Sr5  1  0.30578100  0.56406200  0.60888500  1
  Sr  Sr6  1  0.80252700  0.06227600  0.60823900  1
  Sr  Sr7  1  0.80679700  0.56329800  0.10920000  1
  Sr  Sr8  1  0.80586900  0.56409900  0.60891900  1
  Sr  Sr9  1  0.19837200  0.43801400  0.39196000  1
  Sr  Sr10  1  0.19795400  0.43619300  0.88919300  1
  Sr  Sr11  1  0.20287000  0.93748200  0.39447100  1
  Sr  Sr12  1  0.19951500  0.93575500  0.88881800  1
  Sr  Sr13  1  0.69711600  0.43659500  0.39135700  1
  Sr  Sr14  1  0.69642000  0.43547800  0.88846800  1
  Sr  Sr15  1  0.69537600  0.93868100  0.39314500  1
  Sr  Sr16  1  0.69215300  0.93335000  0.88832300  1
  Sr  Sr17  1  0.05699700  0.29553400  0.10872600  1
  Sr  Sr18  1  0.05561300  0.29396300  0.60924800  1
  Sr  Sr19  1  0.05532600  0.79653500  0.60913300  1
  Sr  Sr20  1  0.55640700  0.29771900  0.10812500  1
  Sr  Sr21  1  0.55634600  0.29084300  0.60820400  1
  Sr  Sr22  1  0.55849500  0.79405100  0.10943100  1
  Sr  Sr23  1  0.55705900  0.79813800  0.60888400  1
  Sr  Sr24  1  0.44804100  0.20480500  0.39527900  1
  Sr  Sr25  1  0.45026200  0.20785900  0.88868200  1
  Sr  Sr26  1  0.44803200  0.70781000  0.39461500  1
  Sr  Sr27  1  0.44721600  0.70436700  0.88853500  1
  Sr  Sr28  1  0.94954900  0.20688100  0.39392900  1
  Sr  Sr29  1  0.94423800  0.20577100  0.88763800  1
  Sr  Sr30  1  0.94911700  0.70431700  0.39279800  1
  Sr  Sr31  1  0.94239000  0.69923300  0.88805600  1
  Fe  Fe32  1  0.00365400  0.99898800  0.49928500  1
  Fe  Fe33  1  0.00470200  0.50077900  0.50128400  1
  Fe  Fe34  1  0.50486900  0.50051100  0.50148300  1
  Fe  Fe35  1  0.25151900  0.24699700  0.99213200  1
  Fe  Fe36  1  0.25589200  0.24955300  0.50085400  1
  Fe  Fe37  1  0.25647300  0.75230500  0.50196800  1
  Fe  Fe38  1  0.75295900  0.24848400  0.49968800  1
  Fe  Fe39  1  0.75254400  0.75106200  0.49877700  1
  Fe  Fe40  1  0.11488900  0.09720100  0.25891800  1
  Fe  Fe41  1  0.10715600  0.08984000  0.74806500  1
  Fe  Fe42  1  0.10611100  0.58895500  0.25242000  1
  Fe  Fe43  1  0.10671500  0.58878700  0.74776400  1
  Fe  Fe44  1  0.61483200  0.09510600  0.25600900  1
  Fe  Fe45  1  0.60643200  0.08882500  0.74715300  1
  Fe  Fe46  1  0.61507400  0.59312900  0.25525000  1
  Fe  Fe47  1  0.60519600  0.58769900  0.74620400  1
  Fe  Fe48  1  0.36056700  0.41020800  0.25380100  1
  Fe  Fe49  1  0.35636400  0.40810100  0.74658000  1
  Fe  Fe50  1  0.36821200  0.91348000  0.25854300  1
  Fe  Fe51  1  0.35620800  0.90910000  0.74720100  1
  Fe  Fe52  1  0.85864800  0.41170700  0.25143000  1
  Fe  Fe53  1  0.85577800  0.40737400  0.74676100  1
  Fe  Fe54  1  0.85920400  0.90724200  0.25633800  1
  Fe  Fe55  1  0.85642100  0.90889800  0.74762500  1
  Co  Co56  1  0.99817700  0.99452600  0.98526600  1
  Co  Co57  1  0.00112800  0.49582700  0.99620100  1
  Co  Co58  1  0.50004500  0.99759100  0.99332000  1
  Co  Co59  1  0.50482400  0.99915200  0.50001300  1
  Co  Co60  1  0.50362000  0.49835800  0.99557200  1
  Co  Co61  1  0.25271500  0.74149500  0.98929400  1
  Co  Co62  1  0.75141800  0.25341600  0.99856200  1
  Co  Co63  1  0.74682500  0.74417500  0.99173000  1
  O  O64  1  0.12537200  0.12280300  0.49321400  1
  O  O65  1  0.12400600  0.12404000  0.98768300  1
  O  O66  1  0.12488900  0.62241400  0.49315700  1
  O  O67  1  0.12966300  0.63032200  0.98830100  1
  O  O68  1  0.62358100  0.12118100  0.49329700  1
  O  O69  1  0.63274900  0.13218700  0.98989800  1
  O  O70  1  0.62516900  0.62227800  0.49251400  1
  O  O71  1  0.62874500  0.62744600  0.99096100  1
  O  O72  1  0.12773000  0.37189000  0.00113500  1
  O  O73  1  0.13210200  0.37951000  0.50903600  1
  O  O74  1  0.11453500  0.88477700  0.99925500  1
  O  O75  1  0.13356700  0.87738000  0.50883500  1
  O  O76  1  0.62991500  0.38497700  0.00682700  1
  O  O77  1  0.63327300  0.37795400  0.50877200  1
  O  O78  1  0.62395400  0.87439000  0.00302700  1
  O  O79  1  0.63125100  0.87894900  0.50865300  1
  O  O80  1  0.37707300  0.11850400  0.49358200  1
  O  O81  1  0.37501700  0.12163500  0.98903400  1
  O  O82  1  0.37466400  0.62045000  0.49311800  1
  O  O83  1  0.37961300  0.61503700  0.98838600  1
  O  O84  1  0.87517300  0.12034600  0.49365400  1
  O  O85  1  0.88195400  0.10636100  0.98823200  1
  O  O86  1  0.87560500  0.61954400  0.49345600  1
  O  O87  1  0.87038100  0.61202600  0.98729500  1
  O  O88  1  0.38021300  0.37425700  0.00133400  1
  O  O89  1  0.38374800  0.38198000  0.51064400  1
  O  O90  1  0.36961200  0.86778600  0.00184600  1
  O  O91  1  0.38447600  0.88131700  0.50879400  1
  O  O92  1  0.87487500  0.36625300  0.00328600  1
  O  O93  1  0.88372300  0.38196200  0.50942200  1
  O  O94  1  0.86676200  0.86445100  0.99919100  1
  O  O95  1  0.88313300  0.88087300  0.51025300  1
  O  O96  1  0.08473200  0.10681700  0.15300100  1
  O  O97  1  0.08214800  0.09329700  0.63969100  1
  O  O98  1  0.07435100  0.58703200  0.14304100  1
  O  O99  1  0.08096800  0.59464900  0.63938500  1
  O  O100  1  0.58307700  0.10630500  0.14966400  1
  O  O101  1  0.57765500  0.08837800  0.63667400  1
  O  O102  1  0.58995200  0.60220700  0.14909100  1
  O  O103  1  0.58027400  0.59437400  0.63801200  1
  O  O104  1  0.44067700  0.40357900  0.36246200  1
  O  O105  1  0.44162400  0.40063000  0.85230100  1
  O  O106  1  0.44560800  0.91015900  0.36866500  1
  O  O107  1  0.43937600  0.90103000  0.85358000  1
  O  O108  1  0.94225300  0.40642600  0.36041800  1
  O  O109  1  0.93945600  0.40062700  0.85277000  1
  O  O110  1  0.94148100  0.90579700  0.36607000  1
  O  O111  1  0.93870700  0.90047200  0.85475400  1
  O  O112  1  0.33418300  0.30807700  0.14242000  1
  O  O113  1  0.32963100  0.29524200  0.63757200  1
  O  O114  1  0.34226500  0.80722200  0.14989000  1
  O  O115  1  0.32991500  0.79656100  0.63782500  1
  O  O116  1  0.83487300  0.30548200  0.14153400  1
  O  O117  1  0.82942300  0.29425200  0.63799700  1
  O  O118  1  0.82923400  0.79630000  0.14798000  1
  O  O119  1  0.82957400  0.79598300  0.63917200  1
  O  O120  1  0.19611000  0.21064900  0.36792600  1
  O  O121  1  0.19128300  0.20281900  0.85661700  1
  O  O122  1  0.19205200  0.70394200  0.36081000  1
  O  O123  1  0.19066400  0.70312700  0.85569000  1
  O  O124  1  0.69912100  0.20687700  0.36592000  1
  O  O125  1  0.68948000  0.20405600  0.85339600  1
  O  O126  1  0.69757000  0.70656200  0.36526600  1
  O  O127  1  0.68749900  0.70198800  0.85383300  1
  O  O128  1  0.44768200  0.06528000  0.26231700  1
  O  O129  1  0.43357100  0.06118100  0.74822500  1
  O  O130  1  0.44602600  0.56265800  0.26108500  1
  O  O131  1  0.43230400  0.56115900  0.74731000  1
  O  O132  1  0.94585300  0.05713600  0.26079700  1
  O  O133  1  0.93354300  0.06074000  0.74821800  1
  O  O134  1  0.93210900  0.56584200  0.25313300  1
  O  O135  1  0.93334200  0.56033900  0.74767500  1
  O  O136  1  0.18556400  0.43830100  0.25161700  1
  O  O137  1  0.18318100  0.43774700  0.74817100  1
  O  O138  1  0.19904500  0.95051700  0.26039900  1
  O  O139  1  0.18332800  0.93813000  0.74854100  1
  O  O140  1  0.68540000  0.43776500  0.25164300  1
  O  O141  1  0.68221000  0.43718300  0.74731300  1
  O  O142  1  0.68612700  0.94078300  0.25285700  1
  O  O143  1  0.68385600  0.93839900  0.74890900  1
