# generated using pymatgen
data_Sr2V3O9
_symmetry_space_group_name_H-M   'P 1'
_cell_length_a   16.48215100
_cell_length_b   7.05465800
_cell_length_c   7.39493305
_cell_angle_alpha   64.00311437
_cell_angle_beta   90.00000000
_cell_angle_gamma   90.00000000
_symmetry_Int_Tables_number   1
_chemical_formula_structural   Sr2V3O9
_chemical_formula_sum   'Sr8 V12 O36'
_cell_volume   772.85104727
_cell_formula_units_Z   4
loop_
 _symmetry_equiv_pos_site_id
 _symmetry_equiv_pos_as_xyz
  1  'x, y, z'
loop_
 _atom_site_type_symbol
 _atom_site_label
 _atom_site_symmetry_multiplicity
 _atom_site_fract_x
 _atom_site_fract_y
 _atom_site_fract_z
 _atom_site_occupancy
  Sr  Sr0  1  0.04860000  0.74983600  0.99883400  1
  Sr  Sr1  1  0.62589800  0.75088300  0.99892700  1
  Sr  Sr2  1  0.45140000  0.74983600  0.49883400  1
  Sr  Sr3  1  0.87410200  0.75088300  0.49892700  1
  Sr  Sr4  1  0.37410200  0.24911700  0.00107300  1
  Sr  Sr5  1  0.95140000  0.25016400  0.00116600  1
  Sr  Sr6  1  0.54860000  0.25016400  0.50116600  1
  Sr  Sr7  1  0.12589800  0.24911700  0.50107300  1
  V  V8  1  0.24562300  0.75020700  0.22031500  1
  V  V9  1  0.84046000  0.74976800  0.00001600  1
  V  V10  1  0.42091700  0.75005100  0.99928400  1
  V  V11  1  0.25437700  0.75020700  0.72031500  1
  V  V12  1  0.07908300  0.75005100  0.49928400  1
  V  V13  1  0.65954000  0.74976800  0.50001600  1
  V  V14  1  0.74562300  0.24979300  0.27968500  1
  V  V15  1  0.57908300  0.24994900  0.00071600  1
  V  V16  1  0.15954000  0.25023200  0.99998400  1
  V  V17  1  0.75437700  0.24979300  0.77968500  1
  V  V18  1  0.34046000  0.25023200  0.49998400  1
  V  V19  1  0.92091700  0.24994900  0.50071600  1
  O  O20  1  0.01838300  0.94398500  0.33590400  1
  O  O21  1  0.72398000  0.94730400  0.33234400  1
  O  O22  1  0.90285600  0.86119500  0.11418500  1
  O  O23  1  0.35990300  0.84824100  0.14022600  1
  O  O24  1  0.48161700  0.94398500  0.83590400  1
  O  O25  1  0.77602000  0.94730400  0.83234400  1
  O  O26  1  0.13900900  0.65030900  0.35808300  1
  O  O27  1  0.59761300  0.63797400  0.38513400  1
  O  O28  1  0.21323000  0.75445600  0.99861300  1
  O  O29  1  0.59714400  0.86119500  0.61418500  1
  O  O30  1  0.14009700  0.84824100  0.64022600  1
  O  O31  1  0.77538500  0.55500100  0.16902600  1
  O  O32  1  0.48133800  0.55668000  0.16417000  1
  O  O33  1  0.98133800  0.44332000  0.33583000  1
  O  O34  1  0.27538500  0.44499900  0.33097400  1
  O  O35  1  0.36099100  0.65030900  0.85808300  1
  O  O36  1  0.90238700  0.63797400  0.88513400  1
  O  O37  1  0.28677000  0.75445600  0.49861300  1
  O  O38  1  0.09761300  0.36202600  0.11486600  1
  O  O39  1  0.63900900  0.34969100  0.14191700  1
  O  O40  1  0.72461500  0.55500100  0.66902600  1
  O  O41  1  0.01866200  0.55668000  0.66417000  1
  O  O42  1  0.51866200  0.44332000  0.83583000  1
  O  O43  1  0.22461500  0.44499900  0.83097400  1
  O  O44  1  0.85990300  0.15175900  0.35977400  1
  O  O45  1  0.40285600  0.13880500  0.38581500  1
  O  O46  1  0.78677000  0.24554400  0.00138700  1
  O  O47  1  0.40238700  0.36202600  0.61486600  1
  O  O48  1  0.86099100  0.34969100  0.64191700  1
  O  O49  1  0.22398000  0.05269600  0.16765600  1
  O  O50  1  0.51838300  0.05601500  0.16409600  1
  O  O51  1  0.64009700  0.15175900  0.85977400  1
  O  O52  1  0.09714400  0.13880500  0.88581500  1
  O  O53  1  0.71323000  0.24554400  0.50138700  1
  O  O54  1  0.27602000  0.05269600  0.66765600  1
  O  O55  1  0.98161700  0.05601500  0.66409600  1
