# generated using pymatgen
data_H6C2SBr2
_symmetry_space_group_name_H-M   'P 1'
_cell_length_a   7.55247400
_cell_length_b   7.62442100
_cell_length_c   11.61265265
_cell_angle_alpha   86.61146835
_cell_angle_beta   90.00000000
_cell_angle_gamma   90.00000000
_symmetry_Int_Tables_number   1
_chemical_formula_structural   H6C2SBr2
_chemical_formula_sum   'H24 C8 S4 Br8'
_cell_volume   667.52508807
_cell_formula_units_Z   4
loop_
 _symmetry_equiv_pos_site_id
 _symmetry_equiv_pos_as_xyz
  1  'x, y, z'
loop_
 _atom_site_type_symbol
 _atom_site_label
 _atom_site_symmetry_multiplicity
 _atom_site_fract_x
 _atom_site_fract_y
 _atom_site_fract_z
 _atom_site_occupancy
  H  H0  1  0.78305700  0.97848000  0.98355500  1
  H  H1  1  0.71694300  0.97848000  0.48355500  1
  H  H2  1  0.66496200  0.87573900  0.86988000  1
  H  H3  1  0.90193000  0.85715400  0.87941100  1
  H  H4  1  0.83503800  0.87573900  0.36988000  1
  H  H5  1  0.59807000  0.85715400  0.37941100  1
  H  H6  1  0.91695300  0.84076600  0.63930500  1
  H  H7  1  0.58304700  0.84076600  0.13930500  1
  H  H8  1  0.05032700  0.71329800  0.54539600  1
  H  H9  1  0.44967300  0.71329800  0.04539600  1
  H  H10  1  0.94581300  0.60733300  0.67029800  1
  H  H11  1  0.55418700  0.60733300  0.17029800  1
  H  H12  1  0.44581300  0.39266700  0.82970200  1
  H  H13  1  0.05418700  0.39266700  0.32970200  1
  H  H14  1  0.55032700  0.28670200  0.95460400  1
  H  H15  1  0.94967300  0.28670200  0.45460400  1
  H  H16  1  0.41695300  0.15923400  0.86069500  1
  H  H17  1  0.08304700  0.15923400  0.36069500  1
  H  H18  1  0.40193000  0.14284600  0.62058900  1
  H  H19  1  0.16496200  0.12426100  0.63012000  1
  H  H20  1  0.09807000  0.14284600  0.12058900  1
  H  H21  1  0.33503800  0.12426100  0.13012000  1
  H  H22  1  0.28305700  0.02152000  0.51644500  1
  H  H23  1  0.21694300  0.02152000  0.01644500  1
  C  C24  1  0.77892000  0.86574500  0.92877700  1
  C  C25  1  0.72108000  0.86574500  0.42877700  1
  C  C26  1  0.93390700  0.71254100  0.60224600  1
  C  C27  1  0.56609300  0.71254100  0.10224600  1
  C  C28  1  0.43390700  0.28745900  0.89775400  1
  C  C29  1  0.06609300  0.28745900  0.39775400  1
  C  C30  1  0.27892000  0.13425500  0.57122300  1
  C  C31  1  0.22108000  0.13425500  0.07122300  1
  S  S32  1  0.74250100  0.66470700  0.51721500  1
  S  S33  1  0.75749900  0.66470700  0.01721500  1
  S  S34  1  0.24250100  0.33529300  0.98278500  1
  S  S35  1  0.25749900  0.33529300  0.48278500  1
  Br  Br36  1  0.27899500  0.77619700  0.82057700  1
  Br  Br37  1  0.22100500  0.77619700  0.32057700  1
  Br  Br38  1  0.51433800  0.70785700  0.65847100  1
  Br  Br39  1  0.98566200  0.70785700  0.15847100  1
  Br  Br40  1  0.01433800  0.29214300  0.84152900  1
  Br  Br41  1  0.48566200  0.29214300  0.34152900  1
  Br  Br42  1  0.77899500  0.22380300  0.67942300  1
  Br  Br43  1  0.72100500  0.22380300  0.17942300  1
