# generated using pymatgen
data_K5Na3Ta6Nb2O20
_symmetry_space_group_name_H-M   'P 1'
_cell_length_a   11.43191406
_cell_length_b   11.47067185
_cell_length_c   17.80011152
_cell_angle_alpha   108.98381124
_cell_angle_beta   108.83193075
_cell_angle_gamma   90.14004798
_symmetry_Int_Tables_number   1
_chemical_formula_structural   K5Na3Ta6Nb2O20
_chemical_formula_sum   'K20 Na12 Ta24 Nb8 O80'
_cell_volume   2073.94309467
_cell_formula_units_Z   4
loop_
 _symmetry_equiv_pos_site_id
 _symmetry_equiv_pos_as_xyz
  1  'x, y, z'
loop_
 _atom_site_type_symbol
 _atom_site_label
 _atom_site_symmetry_multiplicity
 _atom_site_fract_x
 _atom_site_fract_y
 _atom_site_fract_z
 _atom_site_occupancy
  K  K0  1  0.30769200  0.06287000  0.12055400  1
  K  K1  1  0.30851900  0.56212300  0.12196800  1
  K  K2  1  0.80902700  0.05755100  0.11998200  1
  K  K3  1  0.80830700  0.55670700  0.12083700  1
  K  K4  1  0.81448900  0.57300100  0.62541100  1
  K  K5  1  0.18859200  0.94257100  0.38073300  1
  K  K6  1  0.19117500  0.92704800  0.87755000  1
  K  K7  1  0.69198700  0.44015900  0.38121600  1
  K  K8  1  0.68291900  0.42496900  0.87913300  1
  K  K9  1  0.68786000  0.93765300  0.37868500  1
  K  K10  1  0.69112900  0.92156100  0.87709200  1
  K  K11  1  0.05793300  0.31042200  0.12123200  1
  K  K12  1  0.05831200  0.81116600  0.12062600  1
  K  K13  1  0.55823100  0.30957000  0.12120300  1
  K  K14  1  0.55938100  0.80884400  0.12242200  1
  K  K15  1  0.43882600  0.19190300  0.38006900  1
  K  K16  1  0.43975300  0.69279400  0.37982400  1
  K  K17  1  0.44255500  0.70427900  0.89014100  1
  K  K18  1  0.94120100  0.68884400  0.38142500  1
  K  K19  1  0.93716900  0.69498600  0.87518600  1
  Na  Na20  1  0.29777600  0.07330800  0.60609000  1
  Na  Na21  1  0.30298100  0.56789100  0.60321600  1
  Na  Na22  1  0.79927300  0.06781000  0.60365600  1
  Na  Na23  1  0.19213200  0.43350000  0.38405900  1
  Na  Na24  1  0.19421700  0.43434600  0.89571800  1
  Na  Na25  1  0.04621600  0.28437700  0.60497100  1
  Na  Na26  1  0.06067400  0.79672200  0.61355700  1
  Na  Na27  1  0.55412400  0.29421900  0.60715700  1
  Na  Na28  1  0.56004900  0.79194400  0.61343000  1
  Na  Na29  1  0.44137600  0.20641400  0.89538300  1
  Na  Na30  1  0.94427400  0.19976200  0.38426200  1
  Na  Na31  1  0.94374400  0.20904200  0.89687400  1
  Ta  Ta32  1  0.99657400  0.99879100  0.99627300  1
  Ta  Ta33  1  0.00146300  0.00053100  0.50255000  1
  Ta  Ta34  1  0.99728700  0.49829100  0.99805700  1
  Ta  Ta35  1  0.00493600  0.50310900  0.50529600  1
  Ta  Ta36  1  0.49825500  0.99876500  0.99746000  1
  Ta  Ta37  1  0.50187200  0.00305700  0.50477000  1
  Ta  Ta38  1  0.49627600  0.49876800  0.99814000  1
  Ta  Ta39  1  0.50231000  0.50090400  0.50252200  1
  Ta  Ta40  1  0.24650600  0.24675200  0.99712400  1
  Ta  Ta41  1  0.25150400  0.25501700  0.50362800  1
  Ta  Ta42  1  0.24631400  0.74726700  0.99738100  1
  Ta  Ta43  1  0.25429400  0.75244000  0.50334300  1
  Ta  Ta44  1  0.74706400  0.24597900  0.99897400  1
  Ta  Ta45  1  0.75330500  0.25155400  0.50117500  1
  Ta  Ta46  1  0.74828200  0.74510900  0.99893500  1
  Ta  Ta47  1  0.75349900  0.75484400  0.50521600  1
  Ta  Ta48  1  0.11518900  0.12345200  0.25128000  1
  Ta  Ta49  1  0.11972000  0.61682600  0.25142200  1
  Ta  Ta50  1  0.62983900  0.11465800  0.25024700  1
  Ta  Ta51  1  0.62984800  0.61060300  0.25156700  1
  Ta  Ta52  1  0.36968600  0.38717100  0.25106500  1
  Ta  Ta53  1  0.36874900  0.89221200  0.25088700  1
  Ta  Ta54  1  0.88068000  0.37671000  0.25311200  1
  Ta  Ta55  1  0.87637100  0.88119900  0.25132300  1
  Nb  Nb56  1  0.09005600  0.08329300  0.74764100  1
  Nb  Nb57  1  0.14505800  0.56480600  0.74953300  1
  Nb  Nb58  1  0.58982600  0.07976700  0.74813800  1
  Nb  Nb59  1  0.58924000  0.57818500  0.74657700  1
  Nb  Nb60  1  0.34456500  0.42497800  0.74809900  1
  Nb  Nb61  1  0.38314500  0.92775600  0.74712500  1
  Nb  Nb62  1  0.86448200  0.39128900  0.74822800  1
  Nb  Nb63  1  0.88527900  0.93439100  0.74866000  1
  O  O64  1  0.12428600  0.12738200  0.50200400  1
  O  O65  1  0.11840900  0.12389500  0.99579800  1
  O  O66  1  0.12971600  0.62555600  0.50174000  1
  O  O67  1  0.12046000  0.61945400  0.99300200  1
  O  O68  1  0.62558000  0.12553200  0.50162800  1
  O  O69  1  0.61856600  0.12303600  0.99531700  1
  O  O70  1  0.62632800  0.62836900  0.50341500  1
  O  O71  1  0.62194800  0.62262600  0.99900100  1
  O  O72  1  0.12233100  0.37259800  0.99786200  1
  O  O73  1  0.12911100  0.37946400  0.50733500  1
  O  O74  1  0.12370600  0.87306700  0.99830800  1
  O  O75  1  0.13254100  0.88201900  0.51388200  1
  O  O76  1  0.61820800  0.37082700  0.99742400  1
  O  O77  1  0.62960900  0.37732000  0.50767100  1
  O  O78  1  0.62545800  0.87497100  0.00116200  1
  O  O79  1  0.62884600  0.88205900  0.50996600  1
  O  O80  1  0.37467700  0.12850400  0.50240200  1
  O  O81  1  0.37039600  0.12245600  0.99342500  1
  O  O82  1  0.37461200  0.62313300  0.49833800  1
  O  O83  1  0.36934800  0.62086200  0.99796600  1
  O  O84  1  0.87469200  0.12314900  0.49432900  1
  O  O85  1  0.86945500  0.12140500  0.99405200  1
  O  O86  1  0.88063300  0.62798600  0.50330900  1
  O  O87  1  0.87192600  0.62015700  0.99631800  1
  O  O88  1  0.36836900  0.37063400  0.99395700  1
  O  O89  1  0.37673500  0.37987100  0.50661500  1
  O  O90  1  0.37528500  0.87629000  0.00170100  1
  O  O91  1  0.37931200  0.88045300  0.50831500  1
  O  O92  1  0.87233300  0.37057700  0.99978000  1
  O  O93  1  0.88312300  0.37814200  0.50849300  1
  O  O94  1  0.87364500  0.87088000  0.99791700  1
  O  O95  1  0.87671600  0.88046900  0.50579400  1
  O  O96  1  0.06061600  0.07097500  0.12719900  1
  O  O97  1  0.05656900  0.08024800  0.63092500  1
  O  O98  1  0.06368300  0.56970100  0.12810000  1
  O  O99  1  0.08351000  0.57841300  0.63524300  1
  O  O100  1  0.56320300  0.07080600  0.12664100  1
  O  O101  1  0.56029300  0.08315100  0.63298400  1
  O  O102  1  0.56012500  0.56542400  0.12654300  1
  O  O103  1  0.56184100  0.56900800  0.62982300  1
  O  O104  1  0.43683000  0.42831200  0.37430600  1
  O  O105  1  0.42956200  0.43817300  0.86724600  1
  O  O106  1  0.43532200  0.93358800  0.37536200  1
  O  O107  1  0.43771300  0.92998400  0.86579900  1
  O  O108  1  0.94046600  0.42733000  0.37675700  1
  O  O109  1  0.93172800  0.42105900  0.87078200  1
  O  O110  1  0.94066700  0.92501800  0.37535400  1
  O  O111  1  0.93683700  0.93411400  0.86727900  1
  O  O112  1  0.30993000  0.30864300  0.12587300  1
  O  O113  1  0.31538200  0.30985000  0.63244500  1
  O  O114  1  0.30933300  0.80962600  0.12728200  1
  O  O115  1  0.33260200  0.80118400  0.63377000  1
  O  O116  1  0.81113200  0.30351600  0.12696500  1
  O  O117  1  0.82285600  0.29380400  0.62696300  1
  O  O118  1  0.81374600  0.80470000  0.12768300  1
  O  O119  1  0.82632700  0.81414100  0.63136300  1
  O  O120  1  0.18490400  0.20049300  0.37598400  1
  O  O121  1  0.17638700  0.18294900  0.86668400  1
  O  O122  1  0.18625700  0.69857800  0.37648300  1
  O  O123  1  0.19403900  0.68518400  0.86758700  1
  O  O124  1  0.68706900  0.19681400  0.37353700  1
  O  O125  1  0.67644800  0.18038200  0.86676100  1
  O  O126  1  0.68648300  0.69363400  0.37488000  1
  O  O127  1  0.67580900  0.67303700  0.86802300  1
  O  O128  1  0.50035800  0.00047100  0.25087100  1
  O  O129  1  0.41405000  0.09943300  0.74770700  1
  O  O130  1  0.49906300  0.49741800  0.25051700  1
  O  O131  1  0.41498800  0.57973900  0.73835800  1
  O  O132  1  0.99555800  0.00684300  0.25409600  1
  O  O133  1  0.91596700  0.10690900  0.74890600  1
  O  O134  1  0.99803000  0.50027600  0.25257200  1
  O  O135  1  0.97562000  0.51773500  0.74958300  1
  O  O136  1  0.24259600  0.49583000  0.25503500  1
  O  O137  1  0.16909600  0.39113200  0.74877200  1
  O  O138  1  0.24416700  0.00358600  0.25240700  1
  O  O139  1  0.20554800  0.95475900  0.73907600  1
  O  O140  1  0.75341200  0.49864700  0.25154500  1
  O  O141  1  0.70045700  0.44211500  0.73875400  1
  O  O142  1  0.75386800  0.00192800  0.25248200  1
  O  O143  1  0.70183200  0.95137400  0.73905800  1
