# generated using pymatgen
data_CoPO4
_symmetry_space_group_name_H-M   'P 1'
_cell_length_a   5.21375900
_cell_length_b   10.38731000
_cell_length_c   13.71204900
_cell_angle_alpha   90.00000000
_cell_angle_beta   90.00000000
_cell_angle_gamma   90.00000000
_symmetry_Int_Tables_number   1
_chemical_formula_structural   CoPO4
_chemical_formula_sum   'Co8 P8 O32'
_cell_volume   742.60249154
_cell_formula_units_Z   8
loop_
 _symmetry_equiv_pos_site_id
 _symmetry_equiv_pos_as_xyz
  1  'x, y, z'
loop_
 _atom_site_type_symbol
 _atom_site_label
 _atom_site_symmetry_multiplicity
 _atom_site_fract_x
 _atom_site_fract_y
 _atom_site_fract_z
 _atom_site_occupancy
  Co  Co0  1  0.06903200  0.04004300  0.24790900  1
  Co  Co1  1  0.55328800  0.22154600  0.99978400  1
  Co  Co2  1  0.55328800  0.27845400  0.49978400  1
  Co  Co3  1  0.06903200  0.45995700  0.74790900  1
  Co  Co4  1  0.93096800  0.54004300  0.24790900  1
  Co  Co5  1  0.44671200  0.72154600  0.99978400  1
  Co  Co6  1  0.44671200  0.77845400  0.49978400  1
  Co  Co7  1  0.93096800  0.95995700  0.74790900  1
  P  P8  1  0.42966100  0.02758300  0.62370600  1
  P  P9  1  0.04995600  0.21301400  0.87214900  1
  P  P10  1  0.04995600  0.28698600  0.37214900  1
  P  P11  1  0.42966100  0.47241700  0.12370600  1
  P  P12  1  0.57033900  0.52758300  0.62370600  1
  P  P13  1  0.95004400  0.71301400  0.87214900  1
  P  P14  1  0.95004400  0.78698600  0.37214900  1
  P  P15  1  0.57033900  0.97241700  0.12370600  1
  O  O16  1  0.85870200  0.99702800  0.14383200  1
  O  O17  1  0.49465300  0.04856300  0.03066900  1
  O  O18  1  0.41185300  0.01545000  0.21381400  1
  O  O19  1  0.00559100  0.06829600  0.85189900  1
  O  O20  1  0.46956900  0.17307200  0.60456500  1
  O  O21  1  0.97330900  0.20822700  0.28053800  1
  O  O22  1  0.89140800  0.25074900  0.46420800  1
  O  O23  1  0.33514000  0.24429900  0.89356100  1
  O  O24  1  0.33514000  0.25570100  0.39356100  1
  O  O25  1  0.89140800  0.24925100  0.96420800  1
  O  O26  1  0.97330900  0.29177300  0.78053800  1
  O  O27  1  0.46956900  0.32692800  0.10456500  1
  O  O28  1  0.00559100  0.43170400  0.35189900  1
  O  O29  1  0.41185300  0.48455000  0.71381400  1
  O  O30  1  0.49465300  0.45143700  0.53066900  1
  O  O31  1  0.85870200  0.50297200  0.64383200  1
  O  O32  1  0.14129800  0.49702800  0.14383200  1
  O  O33  1  0.50534700  0.54856300  0.03066900  1
  O  O34  1  0.58814700  0.51545000  0.21381400  1
  O  O35  1  0.99440900  0.56829600  0.85189900  1
  O  O36  1  0.53043100  0.67307200  0.60456500  1
  O  O37  1  0.02669100  0.70822700  0.28053800  1
  O  O38  1  0.10859200  0.75074900  0.46420800  1
  O  O39  1  0.66486000  0.74429900  0.89356100  1
  O  O40  1  0.66486000  0.75570100  0.39356100  1
  O  O41  1  0.10859200  0.74925100  0.96420800  1
  O  O42  1  0.02669100  0.79177300  0.78053800  1
  O  O43  1  0.53043100  0.82692800  0.10456500  1
  O  O44  1  0.99440900  0.93170400  0.35189900  1
  O  O45  1  0.58814700  0.98455000  0.71381400  1
  O  O46  1  0.50534700  0.95143700  0.53066900  1
  O  O47  1  0.14129800  0.00297200  0.64383200  1
