# generated using pymatgen
data_Eu2Ag2O5
_symmetry_space_group_name_H-M   'P 1'
_cell_length_a   8.98357394
_cell_length_b   8.98357394
_cell_length_c   8.98357394
_cell_angle_alpha   143.31864655
_cell_angle_beta   140.87415103
_cell_angle_gamma   54.70882624
_symmetry_Int_Tables_number   1
_chemical_formula_structural   Eu2Ag2O5
_chemical_formula_sum   'Eu4 Ag4 O10'
_cell_volume   271.39336727
_cell_formula_units_Z   2
loop_
 _symmetry_equiv_pos_site_id
 _symmetry_equiv_pos_as_xyz
  1  'x, y, z'
loop_
 _atom_site_type_symbol
 _atom_site_label
 _atom_site_symmetry_multiplicity
 _atom_site_fract_x
 _atom_site_fract_y
 _atom_site_fract_z
 _atom_site_occupancy
  Eu  Eu0  1  0.89936100  0.37200900  0.50343700  1
  Eu  Eu1  1  0.10063900  0.60407600  0.47264800  1
  Eu  Eu2  1  0.36857100  0.87200900  0.47264800  1
  Eu  Eu3  1  0.63142900  0.10407600  0.50343700  1
  Ag  Ag4  1  0.00000000  0.01554700  0.01554700  1
  Ag  Ag5  1  0.50000000  0.51554700  0.01554700  1
  Ag  Ag6  1  0.70653000  0.72456300  0.93109200  1
  Ag  Ag7  1  0.29347000  0.22456300  0.01803300  1
  O  O8  1  0.29664300  0.29172000  0.51783800  1
  O  O9  1  0.70335700  0.22119500  0.99507700  1
  O  O10  1  0.27388200  0.79172000  0.99507700  1
  O  O11  1  0.72611800  0.72119500  0.51783800  1
  O  O12  1  0.97759800  0.93689600  0.17057200  1
  O  O13  1  0.02240200  0.19297400  0.95929800  1
  O  O14  1  0.26632300  0.43689600  0.95929800  1
  O  O15  1  0.73367700  0.69297400  0.17057200  1
  O  O16  1  0.67485900  0.30502100  0.47988000  1
  O  O17  1  0.32514100  0.80502100  0.63016200  1
