# generated using pymatgen
data_Zr11VO24
_symmetry_space_group_name_H-M   'P 1'
_cell_length_a   6.82737600
_cell_length_b   7.37759609
_cell_length_c   9.64633596
_cell_angle_alpha   93.15755955
_cell_angle_beta   91.65133021
_cell_angle_gamma   116.07786744
_symmetry_Int_Tables_number   1
_chemical_formula_structural   Zr11VO24
_chemical_formula_sum   'Zr11 V1 O24'
_cell_volume   434.99321726
_cell_formula_units_Z   1
loop_
 _symmetry_equiv_pos_site_id
 _symmetry_equiv_pos_as_xyz
  1  'x, y, z'
loop_
 _atom_site_type_symbol
 _atom_site_label
 _atom_site_symmetry_multiplicity
 _atom_site_fract_x
 _atom_site_fract_y
 _atom_site_fract_z
 _atom_site_occupancy
  Zr  Zr0  1  0.21326500  0.94854500  0.00522900  1
  Zr  Zr1  1  0.11335700  0.71619600  0.32629800  1
  Zr  Zr2  1  0.74458700  0.50559600  0.03629900  1
  Zr  Zr3  1  0.55293300  0.61719700  0.34569100  1
  Zr  Zr4  1  0.07779300  0.17046700  0.37253900  1
  Zr  Zr5  1  0.41751400  0.84109500  0.70113700  1
  Zr  Zr6  1  0.58643300  0.15925400  0.29556200  1
  Zr  Zr7  1  0.44912500  0.38703700  0.65796100  1
  Zr  Zr8  1  0.25483900  0.49414800  0.96384200  1
  Zr  Zr9  1  0.88792000  0.27506600  0.67419800  1
  Zr  Zr10  1  0.78166900  0.05029500  0.98933900  1
  V  V11  1  0.93353800  0.81510000  0.63037700  1
  O  O12  1  0.11096700  0.65143700  0.09045500  1
  O  O13  1  0.46811900  0.85325000  0.31837300  1
  O  O14  1  0.86260600  0.81376300  0.01880300  1
  O  O15  1  0.18397600  0.79736900  0.54000700  1
  O  O16  1  0.47498400  0.53899600  0.13141800  1
  O  O17  1  0.19671400  0.48070800  0.35547000  1
  O  O18  1  0.13136200  0.87420200  0.78996300  1
  O  O19  1  0.88502800  0.83727700  0.41391700  1
  O  O20  1  0.54876900  0.17050700  0.06972400  1
  O  O21  1  0.21882600  0.01347200  0.24121900  1
  O  O22  1  0.55444400  0.68187900  0.57561900  1
  O  O23  1  0.78309000  0.49656800  0.26258700  1
  O  O24  1  0.21672600  0.50579600  0.73652800  1
  O  O25  1  0.78306700  0.97893700  0.75481300  1
  O  O26  1  0.44474600  0.31706700  0.42471300  1
  O  O27  1  0.44463200  0.83019800  0.92472600  1
  O  O28  1  0.11731700  0.15963800  0.59741100  1
  O  O29  1  0.85685200  0.12699100  0.20279000  1
  O  O30  1  0.80970700  0.53433000  0.64511100  1
  O  O31  1  0.52522200  0.46313400  0.86946900  1
  O  O32  1  0.80910800  0.20866700  0.46365200  1
  O  O33  1  0.13619700  0.18705000  0.98149700  1
  O  O34  1  0.53614400  0.15062300  0.68587800  1
  O  O35  1  0.88842100  0.34814500  0.90738700  1
