# generated using pymatgen
data_Zr7VO16
_symmetry_space_group_name_H-M   'P 1'
_cell_length_a   7.48548683
_cell_length_b   7.54711742
_cell_length_c   10.37438366
_cell_angle_alpha   95.22611229
_cell_angle_beta   96.92168334
_cell_angle_gamma   87.73052945
_symmetry_Int_Tables_number   1
_chemical_formula_structural   Zr7VO16
_chemical_formula_sum   'Zr14 V2 O32'
_cell_volume   579.15580862
_cell_formula_units_Z   2
loop_
 _symmetry_equiv_pos_site_id
 _symmetry_equiv_pos_as_xyz
  1  'x, y, z'
loop_
 _atom_site_type_symbol
 _atom_site_label
 _atom_site_symmetry_multiplicity
 _atom_site_fract_x
 _atom_site_fract_y
 _atom_site_fract_z
 _atom_site_occupancy
  Zr  Zr0  1  0.12077000  0.08720400  0.14037600  1
  Zr  Zr1  1  0.62073800  0.58721100  0.64038300  1
  Zr  Zr2  1  0.08798300  0.63199400  0.63921600  1
  Zr  Zr3  1  0.58798000  0.13195300  0.13917300  1
  Zr  Zr4  1  0.58397100  0.12150800  0.63876900  1
  Zr  Zr5  1  0.08398400  0.62151900  0.13877500  1
  Zr  Zr6  1  0.13256300  0.08032000  0.64537700  1
  Zr  Zr7  1  0.63256600  0.58032600  0.14543400  1
  Zr  Zr8  1  0.37007400  0.41304200  0.85719500  1
  Zr  Zr9  1  0.87011500  0.91320400  0.35721200  1
  Zr  Zr10  1  0.91497500  0.37300600  0.86355300  1
  Zr  Zr11  1  0.41498800  0.87301900  0.36354700  1
  Zr  Zr12  1  0.37450800  0.40997400  0.36200600  1
  Zr  Zr13  1  0.87447300  0.90995900  0.86202900  1
  V  V14  1  0.93090600  0.38946800  0.38446300  1
  V  V15  1  0.43111300  0.88947200  0.88453900  1
  O  O16  1  0.14301500  0.88030900  0.27576700  1
  O  O17  1  0.64301300  0.38026700  0.77576400  1
  O  O18  1  0.97417900  0.18230300  0.45601900  1
  O  O19  1  0.47425100  0.68205900  0.95604300  1
  O  O20  1  0.52070200  0.33615200  0.53126000  1
  O  O21  1  0.02064600  0.83617300  0.03127200  1
  O  O22  1  0.33525900  0.02489300  0.52916200  1
  O  O23  1  0.83522100  0.52493300  0.02914500  1
  O  O24  1  0.83863600  0.52486000  0.52780400  1
  O  O25  1  0.33864200  0.02477700  0.02777100  1
  O  O26  1  0.35717000  0.58564400  0.70883800  1
  O  O27  1  0.85715300  0.08572600  0.20884700  1
  O  O28  1  0.10864600  0.35564000  0.72536600  1
  O  O29  1  0.60869800  0.85565300  0.22536100  1
  O  O30  1  0.60177000  0.85660500  0.73227400  1
  O  O31  1  0.10179700  0.35664800  0.23225900  1
  O  O32  1  0.88413200  0.64284000  0.77110100  1
  O  O33  1  0.38416300  0.14285400  0.27111300  1
  O  O34  1  0.38388000  0.14045100  0.77726900  1
  O  O35  1  0.88390000  0.64039700  0.27732500  1
  O  O36  1  0.15817000  0.87839900  0.77862700  1
  O  O37  1  0.65812400  0.37848800  0.27864500  1
  O  O38  1  0.16290200  0.48003000  0.96909800  1
  O  O39  1  0.66290900  0.97997200  0.46913200  1
  O  O40  1  0.65504900  0.99049800  0.96399100  1
  O  O41  1  0.15506800  0.49051700  0.46404500  1
  O  O42  1  0.97790600  0.15934400  0.96712100  1
  O  O43  1  0.47789200  0.65934600  0.46715100  1
  O  O44  1  0.52106700  0.34923200  0.03282900  1
  O  O45  1  0.02109400  0.84918000  0.53283900  1
  O  O46  1  0.36162400  0.60633300  0.22235300  1
  O  O47  1  0.86161800  0.10629300  0.72235800  1
