# generated using pymatgen
data_KNaW2O5
_symmetry_space_group_name_H-M   'P 1'
_cell_length_a   11.64515372
_cell_length_b   11.75922715
_cell_length_c   17.54608300
_cell_angle_alpha   109.36880796
_cell_angle_beta   109.21147199
_cell_angle_gamma   89.96725738
_symmetry_Int_Tables_number   1
_chemical_formula_structural   KNaW2O5
_chemical_formula_sum   'K16 Na16 W32 O80'
_cell_volume   2124.55383463
_cell_formula_units_Z   16
loop_
 _symmetry_equiv_pos_site_id
 _symmetry_equiv_pos_as_xyz
  1  'x, y, z'
loop_
 _atom_site_type_symbol
 _atom_site_label
 _atom_site_symmetry_multiplicity
 _atom_site_fract_x
 _atom_site_fract_y
 _atom_site_fract_z
 _atom_site_occupancy
  K  K0  1  0.30518753  0.06743018  0.10870280  1
  K  K1  1  0.30213146  0.56016126  0.10647285  1
  K  K2  1  0.80544207  0.06266153  0.11015151  1
  K  K3  1  0.80368409  0.56116951  0.10808618  1
  K  K4  1  0.20159085  0.93475659  0.39344896  1
  K  K5  1  0.19163518  0.92772354  0.88159762  1
  K  K6  1  0.70288573  0.43767373  0.39700822  1
  K  K7  1  0.69191863  0.42807515  0.88384699  1
  K  K8  1  0.70129152  0.93370456  0.39432926  1
  K  K9  1  0.05844554  0.29338238  0.10977520  1
  K  K10  1  0.05307131  0.79111509  0.10554639  1
  K  K11  1  0.55376871  0.29100246  0.10800999  1
  K  K12  1  0.55337370  0.79413829  0.10495940  1
  K  K13  1  0.45247230  0.71315018  0.39536399  1
  K  K14  1  0.43942734  0.70618562  0.88170047  1
  K  K15  1  0.94087341  0.70385820  0.88130845  1
  Na  Na16  1  0.29944947  0.07086905  0.60443562  1
  Na  Na17  1  0.30163758  0.56347233  0.60052986  1
  Na  Na18  1  0.80362422  0.06696955  0.60393065  1
  Na  Na19  1  0.79838370  0.56841294  0.60182366  1
  Na  Na20  1  0.20403761  0.43962369  0.40613351  1
  Na  Na21  1  0.19867233  0.43483781  0.89682589  1
  Na  Na22  1  0.69703936  0.93420683  0.89540570  1
  Na  Na23  1  0.05208872  0.28274771  0.60407142  1
  Na  Na24  1  0.05059860  0.78697537  0.60089194  1
  Na  Na25  1  0.55110156  0.28567518  0.60288930  1
  Na  Na26  1  0.55322914  0.78587088  0.60272202  1
  Na  Na27  1  0.45636466  0.21626661  0.40839162  1
  Na  Na28  1  0.44838154  0.21061362  0.89635983  1
  Na  Na29  1  0.95356803  0.21864453  0.40646645  1
  Na  Na30  1  0.94691446  0.21131384  0.89574286  1
  Na  Na31  1  0.95105281  0.71751328  0.40399386  1
  W  W32  1  0.00567930  0.99820134  0.99591366  1
  W  W33  1  0.01590720  0.00209351  0.50407979  1
  W  W34  1  0.00248332  0.49545626  0.99480736  1
  W  W35  1  0.01496131  0.50242907  0.50226854  1
  W  W36  1  0.50355264  0.99773625  0.99379345  1
  W  W37  1  0.51460364  0.00607841  0.50640450  1
  W  W38  1  0.50460932  0.49567363  0.99482932  1
  W  W39  1  0.51591359  0.50165216  0.50660817  1
  W  W40  1  0.25469041  0.24919457  0.99551252  1
  W  W41  1  0.26466818  0.25462118  0.50573478  1
  W  W42  1  0.25271685  0.74431478  0.99291454  1
  W  W43  1  0.26459074  0.74963173  0.50368110  1
  W  W44  1  0.75553058  0.24387973  0.99350078  1
  W  W45  1  0.76833925  0.25198063  0.50620172  1
  W  W46  1  0.75302850  0.74765225  0.99395733  1
  W  W47  1  0.76503053  0.75297322  0.50614573  1
  W  W48  1  0.09923564  0.10896529  0.25984112  1
  W  W49  1  0.08773343  0.09807107  0.74800916  1
  W  W50  1  0.09600249  0.59298972  0.25646953  1
  W  W51  1  0.08743732  0.58189856  0.73793412  1
  W  W52  1  0.59721249  0.10167950  0.25770522  1
  W  W53  1  0.58475763  0.08833866  0.74658996  1
  W  W54  1  0.59807076  0.59216578  0.25008145  1
  W  W55  1  0.58710997  0.58844303  0.74258615  1
  W  W56  1  0.34680564  0.40407350  0.26008864  1
  W  W57  1  0.33627259  0.40027895  0.74838405  1
  W  W58  1  0.34817806  0.91245280  0.24898386  1
  W  W59  1  0.33621221  0.90794288  0.73897308  1
  W  W60  1  0.85540845  0.40451108  0.25250052  1
  W  W61  1  0.84130550  0.39937124  0.74336694  1
  W  W62  1  0.85222220  0.90853538  0.25117686  1
  W  W63  1  0.83383234  0.91188474  0.74608854  1
  O  O64  1  0.13031492  0.12455716  0.49022950  1
  O  O65  1  0.12318520  0.12132917  0.98525382  1
  O  O66  1  0.12869050  0.61598489  0.48317526  1
  O  O67  1  0.12280885  0.61293907  0.98272350  1
  O  O68  1  0.63303470  0.12553117  0.49470314  1
  O  O69  1  0.62315902  0.11522104  0.98100542  1
  O  O70  1  0.63221212  0.62236036  0.49352750  1
  O  O71  1  0.62278165  0.61778265  0.98460545  1
  O  O72  1  0.13146274  0.37639634  0.00239228  1
  O  O73  1  0.14832622  0.38811777  0.52214608  1
  O  O74  1  0.13396242  0.87513632  0.00526388  1
  O  O75  1  0.14624427  0.88098096  0.51969267  1
  O  O76  1  0.63272761  0.37325297  0.00436347  1
  O  O77  1  0.64845691  0.38461216  0.52343354  1
  O  O78  1  0.63369127  0.87755416  0.00300817  1
  O  O79  1  0.64882314  0.88787826  0.52546598  1
  O  O80  1  0.38205997  0.12298823  0.48917400  1
  O  O81  1  0.37415138  0.11892010  0.98231794  1
  O  O82  1  0.38092861  0.61661631  0.49264900  1
  O  O83  1  0.37111069  0.61275579  0.98318935  1
  O  O84  1  0.88368693  0.11992788  0.48818683  1
  O  O85  1  0.87409797  0.11524188  0.98236439  1
  O  O86  1  0.88423698  0.62250117  0.49175161  1
  O  O87  1  0.87250899  0.61619297  0.98510614  1
  O  O88  1  0.38264073  0.37703594  0.00284785  1
  O  O89  1  0.39788163  0.38560320  0.52127749  1
  O  O90  1  0.38189123  0.87718405  0.00426328  1
  O  O91  1  0.39904851  0.89054679  0.52622130  1
  O  O92  1  0.88507136  0.37572238  0.00572553  1
  O  O93  1  0.90017157  0.38586704  0.52169302  1
  O  O94  1  0.88079901  0.87804204  0.00335746  1
  O  O95  1  0.89791796  0.88611070  0.52140038  1
  O  O96  1  0.07341963  0.08166981  0.13761029  1
  O  O97  1  0.09214821  0.10599880  0.63915316  1
  O  O98  1  0.06997707  0.58319481  0.13977321  1
  O  O99  1  0.09170843  0.61253918  0.63842540  1
  O  O100  1  0.57133180  0.07980428  0.13605681  1
  O  O101  1  0.58685955  0.11015503  0.64233659  1
  O  O102  1  0.57435881  0.58884149  0.13481770  1
  O  O103  1  0.59537739  0.61245387  0.64028582  1
  O  O104  1  0.44704986  0.39147656  0.36775874  1
  O  O105  1  0.43953649  0.39381287  0.85739297  1
  O  O106  1  0.44841677  0.91657794  0.36510598  1
  O  O107  1  0.44080049  0.91455228  0.85418091  1
  O  O108  1  0.95450146  0.39442795  0.36480370  1
  O  O109  1  0.93545548  0.39848735  0.85673877  1
  O  O110  1  0.94771375  0.89950102  0.36497236  1
  O  O111  1  0.94340048  0.91286532  0.85757358  1
  O  O112  1  0.32485002  0.30905362  0.13872904  1
  O  O113  1  0.33922574  0.28211701  0.64018744  1
  O  O114  1  0.32524461  0.79790904  0.13766987  1
  O  O115  1  0.33744603  0.77613922  0.63937567  1
  O  O116  1  0.83013308  0.29651974  0.13686749  1
  O  O117  1  0.85110693  0.27671859  0.64020093  1
  O  O118  1  0.82864472  0.79846811  0.13779344  1
  O  O119  1  0.83801227  0.78582459  0.64279307  1
  O  O120  1  0.20126246  0.22685223  0.36741691  1
  O  O121  1  0.18929319  0.21211483  0.85748547  1
  O  O122  1  0.20742726  0.70546407  0.36644846  1
  O  O123  1  0.18680875  0.69048139  0.85427271  1
  O  O124  1  0.70498935  0.21051865  0.36768577  1
  O  O125  1  0.70121399  0.19592718  0.85579983  1
  O  O126  1  0.69954988  0.70122021  0.36667820  1
  O  O127  1  0.68182924  0.70576997  0.85543790  1
  O  O128  1  0.44386895  0.07832782  0.27334648  1
  O  O129  1  0.41868720  0.06988122  0.75040236  1
  O  O130  1  0.44041459  0.54430443  0.25056373  1
  O  O131  1  0.41871843  0.53920547  0.73014457  1
  O  O132  1  0.94793064  0.07353307  0.27608650  1
  O  O133  1  0.92316579  0.06551800  0.74994216  1
  O  O134  1  0.93972978  0.56960965  0.27018743  1
  O  O135  1  0.91812629  0.54222679  0.72778488  1
  O  O136  1  0.19228021  0.45018553  0.27315753  1
  O  O137  1  0.17211392  0.43224862  0.75127225  1
  O  O138  1  0.18774363  0.95658972  0.24739559  1
  O  O139  1  0.16693705  0.93973452  0.72855077  1
  O  O140  1  0.69672054  0.45102263  0.25398438  1
  O  O141  1  0.67268093  0.43531318  0.73167902  1
  O  O142  1  0.69175505  0.95459283  0.24811005  1
  O  O143  1  0.66650355  0.93398619  0.74699396  1
