# generated using pymatgen
data_KNa7V6(MoO10)2
_symmetry_space_group_name_H-M   'P 1'
_cell_length_a   11.10868128
_cell_length_b   11.44480509
_cell_length_c   16.60815751
_cell_angle_alpha   110.15241261
_cell_angle_beta   109.01087615
_cell_angle_gamma   90.08021643
_symmetry_Int_Tables_number   1
_chemical_formula_structural   KNa7V6(MoO10)2
_chemical_formula_sum   'K4 Na28 V24 Mo8 O80'
_cell_volume   1858.70028726
_cell_formula_units_Z   4
loop_
 _symmetry_equiv_pos_site_id
 _symmetry_equiv_pos_as_xyz
  1  'x, y, z'
loop_
 _atom_site_type_symbol
 _atom_site_label
 _atom_site_symmetry_multiplicity
 _atom_site_fract_x
 _atom_site_fract_y
 _atom_site_fract_z
 _atom_site_occupancy
  K  K0  1  0.30685200  0.06889200  0.11841200  1
  K  K1  1  0.80702900  0.07457400  0.11982000  1
  K  K2  1  0.05579300  0.79984900  0.11951100  1
  K  K3  1  0.55660300  0.79789300  0.11938700  1
  Na  Na4  1  0.30079400  0.07275500  0.60688100  1
  Na  Na5  1  0.30600700  0.56834500  0.11031700  1
  Na  Na6  1  0.30155100  0.56895800  0.60546000  1
  Na  Na7  1  0.80646000  0.06792700  0.60570800  1
  Na  Na8  1  0.80405800  0.56886100  0.11127700  1
  Na  Na9  1  0.80443600  0.56692000  0.60477400  1
  Na  Na10  1  0.19867600  0.43617100  0.39741000  1
  Na  Na11  1  0.19570600  0.42699300  0.88684100  1
  Na  Na12  1  0.19690800  0.93652300  0.39837100  1
  Na  Na13  1  0.19370500  0.92649700  0.88650900  1
  Na  Na14  1  0.70260400  0.43470700  0.39804100  1
  Na  Na15  1  0.69354500  0.42541400  0.88673600  1
  Na  Na16  1  0.70320800  0.92967800  0.39813300  1
  Na  Na17  1  0.69235900  0.93074700  0.88700000  1
  Na  Na18  1  0.05085100  0.29136900  0.11077600  1
  Na  Na19  1  0.05225400  0.28734300  0.60457500  1
  Na  Na20  1  0.05299600  0.78554300  0.60535300  1
  Na  Na21  1  0.55992100  0.28963900  0.10941500  1
  Na  Na22  1  0.54989300  0.28968400  0.60578500  1
  Na  Na23  1  0.55531000  0.78512000  0.60606500  1
  Na  Na24  1  0.44753400  0.21489700  0.39772400  1
  Na  Na25  1  0.45020700  0.20788800  0.88849400  1
  Na  Na26  1  0.45215100  0.70915600  0.39754800  1
  Na  Na27  1  0.44191600  0.71001300  0.88659500  1
  Na  Na28  1  0.95015000  0.21632600  0.39846200  1
  Na  Na29  1  0.93945000  0.20672800  0.88595100  1
  Na  Na30  1  0.95001500  0.71102400  0.39733300  1
  Na  Na31  1  0.94060400  0.71048500  0.88545000  1
  V  V32  1  0.00332900  0.99576900  0.50148800  1
  V  V33  1  0.00083700  0.49434700  0.50067800  1
  V  V34  1  0.50320200  0.49655800  0.50041500  1
  V  V35  1  0.25527000  0.25233400  0.50089200  1
  V  V36  1  0.25485700  0.75172800  0.50016700  1
  V  V37  1  0.75198100  0.24833400  0.99679200  1
  V  V38  1  0.75603500  0.25236000  0.50126600  1
  V  V39  1  0.75603800  0.74863600  0.50037700  1
  V  V40  1  0.11305600  0.09714700  0.25814900  1
  V  V41  1  0.10238300  0.08690000  0.74734100  1
  V  V42  1  0.10448300  0.58703400  0.25327200  1
  V  V43  1  0.10087100  0.58407200  0.74531300  1
  V  V44  1  0.61344400  0.09668600  0.25815100  1
  V  V45  1  0.60327200  0.08874900  0.74975100  1
  V  V46  1  0.60564000  0.58530000  0.25361500  1
  V  V47  1  0.60144600  0.58523300  0.74639700  1
  V  V48  1  0.35449400  0.41644000  0.25323900  1
  V  V49  1  0.35198400  0.41049600  0.74757800  1
  V  V50  1  0.36240600  0.91141000  0.25737800  1
  V  V51  1  0.35148900  0.91142200  0.74570400  1
  V  V52  1  0.85524500  0.41680300  0.25242600  1
  V  V53  1  0.85151900  0.40973900  0.74777100  1
  V  V54  1  0.86279500  0.91170200  0.25808700  1
  V  V55  1  0.85052300  0.91063900  0.74472200  1
  Mo  Mo56  1  0.99887800  0.00069500  0.99492200  1
  Mo  Mo57  1  0.00191100  0.49524800  0.99731600  1
  Mo  Mo58  1  0.50325500  0.99995400  0.99501300  1
  Mo  Mo59  1  0.50864200  0.00127600  0.50107700  1
  Mo  Mo60  1  0.50613700  0.49524600  0.99729100  1
  Mo  Mo61  1  0.25435100  0.24893300  0.99698900  1
  Mo  Mo62  1  0.25087100  0.74649000  0.99483100  1
  Mo  Mo63  1  0.75090100  0.74734100  0.99522100  1
  O  O64  1  0.13197200  0.13625800  0.49034300  1
  O  O65  1  0.11758800  0.11750300  0.98048400  1
  O  O66  1  0.13732600  0.63334200  0.48809500  1
  O  O67  1  0.11750700  0.60970900  0.98429400  1
  O  O68  1  0.62904300  0.12061400  0.48894700  1
  O  O69  1  0.62131900  0.12041200  0.98026200  1
  O  O70  1  0.63857100  0.62647700  0.48880500  1
  O  O71  1  0.62118100  0.61182500  0.98011700  1
  O  O72  1  0.13859700  0.38329700  0.01447300  1
  O  O73  1  0.13104500  0.39300500  0.51099900  1
  O  O74  1  0.12672300  0.87419900  0.00417700  1
  O  O75  1  0.13404500  0.89132800  0.51285600  1
  O  O76  1  0.64451800  0.37378500  0.00827500  1
  O  O77  1  0.62564400  0.38908800  0.51071100  1
  O  O78  1  0.63117500  0.87824700  0.00675800  1
  O  O79  1  0.64199000  0.88184700  0.51886700  1
  O  O80  1  0.37214100  0.11726300  0.48528100  1
  O  O81  1  0.36898700  0.11407200  0.97848400  1
  O  O82  1  0.38706900  0.61217000  0.48973800  1
  O  O83  1  0.36723900  0.61003100  0.98047200  1
  O  O84  1  0.88578400  0.10503900  0.49026600  1
  O  O85  1  0.86856700  0.13019100  0.98603600  1
  O  O86  1  0.88724400  0.61045800  0.48862700  1
  O  O87  1  0.86921800  0.61228900  0.97968800  1
  O  O88  1  0.39044000  0.37925900  0.01305600  1
  O  O89  1  0.37962200  0.37829200  0.51344800  1
  O  O90  1  0.38058500  0.87721400  0.00676600  1
  O  O91  1  0.38040800  0.87375600  0.51096500  1
  O  O92  1  0.88823800  0.38331600  0.00776200  1
  O  O93  1  0.88742600  0.38112500  0.51486600  1
  O  O94  1  0.87861700  0.88214200  0.00565800  1
  O  O95  1  0.88421400  0.87011200  0.51118300  1
  O  O96  1  0.07429800  0.09879500  0.14391100  1
  O  O97  1  0.08177400  0.09996200  0.64103700  1
  O  O98  1  0.07743500  0.58793700  0.14034700  1
  O  O99  1  0.08244200  0.60065700  0.64061600  1
  O  O100  1  0.57519800  0.09950600  0.14437000  1
  O  O101  1  0.58189900  0.10748100  0.64507100  1
  O  O102  1  0.58616100  0.58833800  0.14284600  1
  O  O103  1  0.58194700  0.59866300  0.64048300  1
  O  O104  1  0.43941700  0.39959000  0.35796500  1
  O  O105  1  0.43846800  0.39200500  0.85334600  1
  O  O106  1  0.44853500  0.88663300  0.35846400  1
  O  O107  1  0.43866800  0.89445100  0.85127300  1
  O  O108  1  0.94089100  0.39843600  0.35648800  1
  O  O109  1  0.93953000  0.39458100  0.85569300  1
  O  O110  1  0.94607300  0.89194900  0.36160900  1
  O  O111  1  0.93525800  0.89716700  0.85220100  1
  O  O112  1  0.33287800  0.30176400  0.14305100  1
  O  O113  1  0.33181100  0.29231800  0.64129900  1
  O  O114  1  0.32254300  0.79483000  0.14398400  1
  O  O115  1  0.33233700  0.79114800  0.63968600  1
  O  O116  1  0.83218400  0.30664500  0.14050900  1
  O  O117  1  0.83182700  0.29023200  0.64251100  1
  O  O118  1  0.82392500  0.79530500  0.14407300  1
  O  O119  1  0.83477900  0.78824200  0.64092000  1
  O  O120  1  0.19466100  0.22113600  0.36081500  1
  O  O121  1  0.18808700  0.21049600  0.85342200  1
  O  O122  1  0.19237500  0.70953900  0.35668100  1
  O  O123  1  0.18725100  0.70605700  0.85144700  1
  O  O124  1  0.69729800  0.21929800  0.36134700  1
  O  O125  1  0.69158500  0.20900900  0.85626100  1
  O  O126  1  0.69269700  0.70702900  0.35805500  1
  O  O127  1  0.68859100  0.70836100  0.85203400  1
  O  O128  1  0.45563200  0.05449400  0.26625600  1
  O  O129  1  0.43438600  0.05612900  0.74765500  1
  O  O130  1  0.43671700  0.56107500  0.25381700  1
  O  O131  1  0.43469800  0.55483000  0.74831100  1
  O  O132  1  0.95543500  0.05470100  0.26645200  1
  O  O133  1  0.93452400  0.05536800  0.74712600  1
  O  O134  1  0.93693800  0.56341300  0.25468000  1
  O  O135  1  0.93426700  0.55323700  0.74800300  1
  O  O136  1  0.18572300  0.44365600  0.25380500  1
  O  O137  1  0.18407700  0.44135800  0.74718200  1
  O  O138  1  0.20549200  0.96241200  0.26668300  1
  O  O139  1  0.18459100  0.94327700  0.74751300  1
  O  O140  1  0.68667200  0.44154900  0.25389300  1
  O  O141  1  0.68460300  0.44215600  0.74803900  1
  O  O142  1  0.70572000  0.96142300  0.26669600  1
  O  O143  1  0.68457300  0.94375900  0.74756900  1
