# generated using pymatgen
data_Cr3(CoO6)2
_symmetry_space_group_name_H-M   'P 1'
_cell_length_a   9.01564900
_cell_length_b   8.75445200
_cell_length_c   15.13154345
_cell_angle_alpha   55.30630418
_cell_angle_beta   90.00000000
_cell_angle_gamma   90.00000000
_symmetry_Int_Tables_number   1
_chemical_formula_structural   Cr3(CoO6)2
_chemical_formula_sum   'Cr12 Co8 O48'
_cell_volume   981.95183865
_cell_formula_units_Z   4
loop_
 _symmetry_equiv_pos_site_id
 _symmetry_equiv_pos_as_xyz
  1  'x, y, z'
loop_
 _atom_site_type_symbol
 _atom_site_label
 _atom_site_symmetry_multiplicity
 _atom_site_fract_x
 _atom_site_fract_y
 _atom_site_fract_z
 _atom_site_occupancy
  Cr  Cr0  1  0.75339800  0.54888500  0.49151600  1
  Cr  Cr1  1  0.62321800  0.25777100  0.85236200  1
  Cr  Cr2  1  0.88443500  0.97348800  0.14160200  1
  Cr  Cr3  1  0.12321800  0.74222900  0.64763800  1
  Cr  Cr4  1  0.38443500  0.02651200  0.35839800  1
  Cr  Cr5  1  0.25339800  0.45111500  0.00848400  1
  Cr  Cr6  1  0.74660200  0.54888500  0.99151600  1
  Cr  Cr7  1  0.61556500  0.97348800  0.64160200  1
  Cr  Cr8  1  0.87678200  0.25777100  0.35236200  1
  Cr  Cr9  1  0.11556500  0.02651200  0.85839800  1
  Cr  Cr10  1  0.37678200  0.74222900  0.14763800  1
  Cr  Cr11  1  0.24660200  0.45111500  0.50848400  1
  Co  Co12  1  0.97460300  0.36398700  0.88525300  1
  Co  Co13  1  0.47460300  0.63601300  0.61474700  1
  Co  Co14  1  0.03128800  0.87535900  0.37975500  1
  Co  Co15  1  0.53128800  0.12464100  0.12024500  1
  Co  Co16  1  0.46871200  0.87535900  0.87975500  1
  Co  Co17  1  0.96871200  0.12464100  0.62024500  1
  Co  Co18  1  0.52539700  0.36398700  0.38525300  1
  Co  Co19  1  0.02539700  0.63601300  0.11474700  1
  O  O20  1  0.12793600  0.62439500  0.44273400  1
  O  O21  1  0.11342700  0.16475300  0.90059600  1
  O  O22  1  0.33010200  0.45550600  0.60426500  1
  O  O23  1  0.42169000  0.88199800  0.18452500  1
  O  O24  1  0.62982000  0.52955900  0.58126500  1
  O  O25  1  0.81198200  0.28958000  0.84315400  1
  O  O26  1  0.57481500  0.16020600  0.97858500  1
  O  O27  1  0.99715300  0.88657900  0.24575700  1
  O  O28  1  0.70991500  0.99200200  0.17728400  1
  O  O29  1  0.84480300  0.75202300  0.43561800  1
  O  O30  1  0.53680300  0.45915100  0.77353400  1
  O  O31  1  0.03680300  0.54084900  0.72646600  1
  O  O32  1  0.93842100  0.18625200  0.04421300  1
  O  O33  1  0.43842100  0.81374800  0.45578700  1
  O  O34  1  0.34480300  0.24797700  0.06438200  1
  O  O35  1  0.20991500  0.00799800  0.32271600  1
  O  O36  1  0.07481500  0.83979400  0.52141500  1
  O  O37  1  0.49715300  0.11342100  0.25424300  1
  O  O38  1  0.31198200  0.71042000  0.65684600  1
  O  O39  1  0.12982000  0.47044100  0.91873500  1
  O  O40  1  0.83010200  0.54449400  0.89573500  1
  O  O41  1  0.61342700  0.83524700  0.59940400  1
  O  O42  1  0.92169000  0.11800200  0.31547500  1
  O  O43  1  0.62793600  0.37560500  0.05726600  1
  O  O44  1  0.37206400  0.62439500  0.94273400  1
  O  O45  1  0.07831000  0.88199800  0.68452500  1
  O  O46  1  0.38657300  0.16475300  0.40059600  1
  O  O47  1  0.16989800  0.45550600  0.10426500  1
  O  O48  1  0.87018000  0.52955900  0.08126500  1
  O  O49  1  0.68801800  0.28958000  0.34315400  1
  O  O50  1  0.50284700  0.88657900  0.74575700  1
  O  O51  1  0.92518500  0.16020600  0.47858500  1
  O  O52  1  0.79008500  0.99200200  0.67728400  1
  O  O53  1  0.65519700  0.75202300  0.93561800  1
  O  O54  1  0.56157900  0.18625200  0.54421300  1
  O  O55  1  0.06157900  0.81374800  0.95578700  1
  O  O56  1  0.96319700  0.45915100  0.27353400  1
  O  O57  1  0.46319700  0.54084900  0.22646600  1
  O  O58  1  0.15519700  0.24797700  0.56438200  1
  O  O59  1  0.29008500  0.00799800  0.82271600  1
  O  O60  1  0.00284700  0.11342100  0.75424300  1
  O  O61  1  0.42518500  0.83979400  0.02141500  1
  O  O62  1  0.18801800  0.71042000  0.15684600  1
  O  O63  1  0.37018000  0.47044100  0.41873500  1
  O  O64  1  0.57831000  0.11800200  0.81547500  1
  O  O65  1  0.66989800  0.54449400  0.39573500  1
  O  O66  1  0.88657300  0.83524700  0.09940400  1
  O  O67  1  0.87206400  0.37560500  0.55726600  1
