# generated using pymatgen
data_Ba2CaI6
_symmetry_space_group_name_H-M   'P 1'
_cell_length_a   14.34236127
_cell_length_b   14.34236127
_cell_length_c   7.83089700
_cell_angle_alpha   90.00000000
_cell_angle_beta   90.00000000
_cell_angle_gamma   119.99999664
_symmetry_Int_Tables_number   1
_chemical_formula_structural   Ba2CaI6
_chemical_formula_sum   'Ba6 Ca3 I18'
_cell_volume   1395.02976393
_cell_formula_units_Z   3
loop_
 _symmetry_equiv_pos_site_id
 _symmetry_equiv_pos_as_xyz
  1  'x, y, z'
loop_
 _atom_site_type_symbol
 _atom_site_label
 _atom_site_symmetry_multiplicity
 _atom_site_fract_x
 _atom_site_fract_y
 _atom_site_fract_z
 _atom_site_occupancy
  Ba  Ba0  1  0.00000000  0.63684000  0.00000000  1
  Ba  Ba1  1  0.00000000  0.30544500  0.50000000  1
  Ba  Ba2  1  0.36316000  0.36316000  0.00000000  1
  Ba  Ba3  1  0.30544500  0.00000000  0.50000000  1
  Ba  Ba4  1  0.69455500  0.69455500  0.50000000  1
  Ba  Ba5  1  0.63684000  0.00000000  0.00000000  1
  Ca  Ca6  1  0.33333300  0.66666700  0.49213600  1
  Ca  Ca7  1  0.00000000  0.00000000  0.00000000  1
  Ca  Ca8  1  0.66666700  0.33333300  0.50786400  1
  I  I9  1  0.08512500  0.87602500  0.77076900  1
  I  I10  1  0.23396100  0.77266600  0.25235400  1
  I  I11  1  0.13108100  0.54291200  0.73588400  1
  I  I12  1  0.41183100  0.86891900  0.73588400  1
  I  I13  1  0.22733400  0.46129500  0.25235400  1
  I  I14  1  0.12397500  0.20910000  0.77076900  1
  I  I15  1  0.53870500  0.76603900  0.25235400  1
  I  I16  1  0.20910000  0.12397500  0.22923100  1
  I  I17  1  0.45708800  0.58816900  0.73588400  1
  I  I18  1  0.79090000  0.91487500  0.77076900  1
  I  I19  1  0.46129500  0.22733400  0.74764600  1
  I  I20  1  0.58816900  0.45708800  0.26411600  1
  I  I21  1  0.54291200  0.13108100  0.26411600  1
  I  I22  1  0.76603900  0.53870500  0.74764600  1
  I  I23  1  0.91487500  0.79090000  0.22923100  1
  I  I24  1  0.77266600  0.23396100  0.74764600  1
  I  I25  1  0.86891900  0.41183100  0.26411600  1
  I  I26  1  0.87602500  0.08512500  0.22923100  1
