# generated using pymatgen
data_K2U(SO6)2
_symmetry_space_group_name_H-M   'P 1'
_cell_length_a   7.30281900
_cell_length_b   11.75282700
_cell_length_c   14.02710600
_cell_angle_alpha   90.00000000
_cell_angle_beta   90.00000000
_cell_angle_gamma   90.00000000
_symmetry_Int_Tables_number   1
_chemical_formula_structural   K2U(SO6)2
_chemical_formula_sum   'K8 U4 S8 O48'
_cell_volume   1203.92923106
_cell_formula_units_Z   4
loop_
 _symmetry_equiv_pos_site_id
 _symmetry_equiv_pos_as_xyz
  1  'x, y, z'
loop_
 _atom_site_type_symbol
 _atom_site_label
 _atom_site_symmetry_multiplicity
 _atom_site_fract_x
 _atom_site_fract_y
 _atom_site_fract_z
 _atom_site_occupancy
  K  K0  1  0.25963800  0.46908100  0.92864800  1
  K  K1  1  0.24036200  0.03091900  0.42864800  1
  K  K2  1  0.74036200  0.96908100  0.07135200  1
  K  K3  1  0.75963800  0.53091900  0.57135200  1
  K  K4  1  0.74036200  0.53091900  0.07135200  1
  K  K5  1  0.75963800  0.96908100  0.57135200  1
  K  K6  1  0.25963800  0.03091900  0.92864800  1
  K  K7  1  0.24036200  0.46908100  0.42864800  1
  U  U8  1  0.90951700  0.25000000  0.24451600  1
  U  U9  1  0.59048300  0.25000000  0.74451600  1
  U  U10  1  0.09048300  0.75000000  0.75548400  1
  U  U11  1  0.40951700  0.75000000  0.25548400  1
  S  S12  1  0.24253300  0.46896900  0.17510500  1
  S  S13  1  0.25746700  0.03103100  0.67510500  1
  S  S14  1  0.75746700  0.96896900  0.82489500  1
  S  S15  1  0.74253300  0.53103100  0.32489500  1
  S  S16  1  0.75746700  0.53103100  0.82489500  1
  S  S17  1  0.74253300  0.96896900  0.32489500  1
  S  S18  1  0.24253300  0.03103100  0.17510500  1
  S  S19  1  0.25746700  0.46896900  0.67510500  1
  O  O20  1  0.89390500  0.25000000  0.11467000  1
  O  O21  1  0.60609500  0.25000000  0.61467000  1
  O  O22  1  0.10609500  0.75000000  0.88533000  1
  O  O23  1  0.39390500  0.75000000  0.38533000  1
  O  O24  1  0.93596800  0.25000000  0.37312400  1
  O  O25  1  0.56403200  0.25000000  0.87312400  1
  O  O26  1  0.06403200  0.75000000  0.62687600  1
  O  O27  1  0.43596800  0.75000000  0.12687600  1
  O  O28  1  0.78881900  0.43540900  0.25486900  1
  O  O29  1  0.71118100  0.06459100  0.75486900  1
  O  O30  1  0.21118100  0.93540900  0.74513100  1
  O  O31  1  0.28881900  0.56459100  0.24513100  1
  O  O32  1  0.21118100  0.56459100  0.74513100  1
  O  O33  1  0.28881900  0.93540900  0.24513100  1
  O  O34  1  0.78881900  0.06459100  0.25486900  1
  O  O35  1  0.71118100  0.43540900  0.75486900  1
  O  O36  1  0.16843300  0.37575100  0.23742100  1
  O  O37  1  0.33156700  0.12424900  0.73742100  1
  O  O38  1  0.83156700  0.87575100  0.76257900  1
  O  O39  1  0.66843300  0.62424900  0.26257900  1
  O  O40  1  0.83156700  0.62424900  0.76257900  1
  O  O41  1  0.66843300  0.87575100  0.26257900  1
  O  O42  1  0.16843300  0.12424900  0.23742100  1
  O  O43  1  0.33156700  0.37575100  0.73742100  1
  O  O44  1  0.10506600  0.50854500  0.10658300  1
  O  O45  1  0.39493400  0.99145500  0.60658300  1
  O  O46  1  0.89493400  0.00854500  0.89341700  1
  O  O47  1  0.60506600  0.49145500  0.39341700  1
  O  O48  1  0.89493400  0.49145500  0.89341700  1
  O  O49  1  0.60506600  0.00854500  0.39341700  1
  O  O50  1  0.10506600  0.99145500  0.10658300  1
  O  O51  1  0.39493400  0.50854500  0.60658300  1
  O  O52  1  0.41157700  0.43287200  0.12693800  1
  O  O53  1  0.08842300  0.06712800  0.62693800  1
  O  O54  1  0.58842300  0.93287200  0.87306200  1
  O  O55  1  0.91157700  0.56712800  0.37306200  1
  O  O56  1  0.58842300  0.56712800  0.87306200  1
  O  O57  1  0.91157700  0.93287200  0.37306200  1
  O  O58  1  0.41157700  0.06712800  0.12693800  1
  O  O59  1  0.08842300  0.43287200  0.62693800  1
  O  O60  1  0.59444300  0.25000000  0.24706400  1
  O  O61  1  0.90555700  0.25000000  0.74706400  1
  O  O62  1  0.40555700  0.75000000  0.75293600  1
  O  O63  1  0.09444300  0.75000000  0.25293600  1
  O  O64  1  0.10037700  0.25000000  0.93018500  1
  O  O65  1  0.39962300  0.25000000  0.43018500  1
  O  O66  1  0.89962300  0.75000000  0.06981500  1
  O  O67  1  0.60037700  0.75000000  0.56981500  1
