# generated using pymatgen
data_La5Sm3Cr7FeO20
_symmetry_space_group_name_H-M   'P 1'
_cell_length_a   11.07724909
_cell_length_b   11.49969378
_cell_length_c   17.69464128
_cell_angle_alpha   108.76673848
_cell_angle_beta   108.14561340
_cell_angle_gamma   90.83576618
_symmetry_Int_Tables_number   1
_chemical_formula_structural   La5Sm3Cr7FeO20
_chemical_formula_sum   'La20 Sm12 Cr28 Fe4 O80'
_cell_volume   2011.49104181
_cell_formula_units_Z   4
loop_
 _symmetry_equiv_pos_site_id
 _symmetry_equiv_pos_as_xyz
  1  'x, y, z'
loop_
 _atom_site_type_symbol
 _atom_site_label
 _atom_site_symmetry_multiplicity
 _atom_site_fract_x
 _atom_site_fract_y
 _atom_site_fract_z
 _atom_site_occupancy
  La  La0  1  0.30749919  0.06262360  0.61308937  1
  La  La1  1  0.31091168  0.56199156  0.61165263  1
  La  La2  1  0.81024402  0.06295440  0.61851744  1
  La  La3  1  0.80797630  0.56555460  0.61991487  1
  La  La4  1  0.18962499  0.43396427  0.38138208  1
  La  La5  1  0.18527067  0.43793272  0.88304924  1
  La  La6  1  0.19062550  0.93478772  0.38131740  1
  La  La7  1  0.69008003  0.43696244  0.38013585  1
  La  La8  1  0.68776064  0.93498571  0.37902728  1
  La  La9  1  0.05784990  0.30712420  0.12117883  1
  La  La10  1  0.05634962  0.29763837  0.61489589  1
  La  La11  1  0.05449717  0.80809462  0.61688716  1
  La  La12  1  0.56240481  0.30055863  0.61722191  1
  La  La13  1  0.43736273  0.19351836  0.37902915  1
  La  La14  1  0.44773262  0.19898197  0.88655068  1
  La  La15  1  0.43759670  0.69126452  0.37825110  1
  La  La16  1  0.45209315  0.70071085  0.89005786  1
  La  La17  1  0.94240809  0.19976566  0.38170537  1
  La  La18  1  0.93863546  0.19199695  0.88006103  1
  La  La19  1  0.94467176  0.69369880  0.38148334  1
  Sm  Sm20  1  0.30522445  0.06298854  0.11586808  1
  Sm  Sm21  1  0.30640094  0.56334718  0.11570669  1
  Sm  Sm22  1  0.79578919  0.06234041  0.11413965  1
  Sm  Sm23  1  0.79774901  0.55935565  0.11490257  1
  Sm  Sm24  1  0.18735866  0.94026763  0.88730483  1
  Sm  Sm25  1  0.69753680  0.43564639  0.88735607  1
  Sm  Sm26  1  0.69162596  0.93545781  0.88376665  1
  Sm  Sm27  1  0.05737536  0.80082147  0.11347265  1
  Sm  Sm28  1  0.55268394  0.30283575  0.11729385  1
  Sm  Sm29  1  0.54588299  0.80214289  0.11637666  1
  Sm  Sm30  1  0.56036525  0.80047029  0.61400919  1
  Sm  Sm31  1  0.93521269  0.69726919  0.88351739  1
  Cr  Cr32  1  0.00547215  0.00021869  0.00165372  1
  Cr  Cr33  1  0.00165372  0.99829139  0.49652597  1
  Cr  Cr34  1  0.00584083  0.50205003  0.00121387  1
  Cr  Cr35  1  0.00464541  0.50387576  0.50425338  1
  Cr  Cr36  1  0.50440046  0.99950527  0.99805050  1
  Cr  Cr37  1  0.50629393  0.99711500  0.49982345  1
  Cr  Cr38  1  0.50555434  0.49917724  0.99913606  1
  Cr  Cr39  1  0.50633475  0.49991948  0.50049950  1
  Cr  Cr40  1  0.25407586  0.25050592  0.00028647  1
  Cr  Cr41  1  0.25611681  0.25081446  0.50134777  1
  Cr  Cr42  1  0.25182695  0.75093295  0.99738075  1
  Cr  Cr43  1  0.25881354  0.75067615  0.50317581  1
  Cr  Cr44  1  0.75713865  0.24779270  0.00124581  1
  Cr  Cr45  1  0.75243188  0.25092229  0.49875693  1
  Cr  Cr46  1  0.76029271  0.74942501  0.00399989  1
  Cr  Cr47  1  0.75296721  0.75008834  0.49962337  1
  Cr  Cr48  1  0.11551367  0.11789349  0.24637296  1
  Cr  Cr49  1  0.12853822  0.12257052  0.75385112  1
  Cr  Cr50  1  0.11952706  0.62503196  0.24820778  1
  Cr  Cr51  1  0.62075937  0.12232081  0.24867798  1
  Cr  Cr52  1  0.61949249  0.11786727  0.75102577  1
  Cr  Cr53  1  0.62166229  0.62419180  0.24884904  1
  Cr  Cr54  1  0.61846494  0.62131611  0.75239206  1
  Cr  Cr55  1  0.37091282  0.37735821  0.24839271  1
  Cr  Cr56  1  0.36354028  0.87669693  0.24780233  1
  Cr  Cr57  1  0.86713387  0.38000469  0.24842523  1
  Cr  Cr58  1  0.86795475  0.37899188  0.75152968  1
  Cr  Cr59  1  0.86796743  0.87379571  0.75196646  1
  Fe  Fe60  1  0.11763397  0.61176461  0.75276635  1
  Fe  Fe61  1  0.36752982  0.39725046  0.75137963  1
  Fe  Fe62  1  0.37017027  0.89345734  0.75114447  1
  Fe  Fe63  1  0.86270715  0.88798666  0.24318097  1
  O  O64  1  0.11629398  0.11688344  0.47805543  1
  O  O65  1  0.11439464  0.11268154  0.97371923  1
  O  O66  1  0.12169779  0.61944896  0.48564284  1
  O  O67  1  0.10875263  0.61896724  0.97137212  1
  O  O68  1  0.61474689  0.11490726  0.47529563  1
  O  O69  1  0.62090330  0.10940178  0.97305525  1
  O  O70  1  0.61508611  0.61662837  0.47732868  1
  O  O71  1  0.62462118  0.60944230  0.97483236  1
  O  O72  1  0.14140774  0.38969059  0.02591505  1
  O  O73  1  0.13515233  0.38986337  0.52348088  1
  O  O74  1  0.13875118  0.88595029  0.02526506  1
  O  O75  1  0.14248763  0.87777773  0.52183820  1
  O  O76  1  0.64071817  0.37245839  0.02565547  1
  O  O77  1  0.63989382  0.38741692  0.52422395  1
  O  O78  1  0.64107111  0.87185368  0.02693727  1
  O  O79  1  0.64053810  0.88150890  0.52556302  1
  O  O80  1  0.37080188  0.10447775  0.48143925  1
  O  O81  1  0.35750986  0.11166802  0.97159888  1
  O  O82  1  0.36939548  0.61085525  0.48180135  1
  O  O83  1  0.36229197  0.61704101  0.97623752  1
  O  O84  1  0.86302565  0.11829611  0.47600222  1
  O  O85  1  0.86413921  0.10303245  0.97324887  1
  O  O86  1  0.86724638  0.61686750  0.48062774  1
  O  O87  1  0.86913226  0.61003352  0.97495073  1
  O  O88  1  0.39012673  0.39137292  0.02723926  1
  O  O89  1  0.39261126  0.39029335  0.52460103  1
  O  O90  1  0.38522313  0.89156462  0.02306545  1
  O  O91  1  0.39576821  0.88473917  0.52576909  1
  O  O92  1  0.88659206  0.39789167  0.02710658  1
  O  O93  1  0.88871823  0.39089965  0.52501939  1
  O  O94  1  0.89261133  0.89425445  0.03088167  1
  O  O95  1  0.88650188  0.88704904  0.52117496  1
  O  O96  1  0.08996533  0.10585424  0.12369075  1
  O  O97  1  0.08010065  0.10224325  0.62970793  1
  O  O98  1  0.09173772  0.60890021  0.12380062  1
  O  O99  1  0.07577848  0.60940155  0.63389402  1
  O  O100  1  0.58763170  0.10927532  0.12524825  1
  O  O101  1  0.57928906  0.10085366  0.62553467  1
  O  O102  1  0.58979341  0.61147427  0.12586846  1
  O  O103  1  0.57703791  0.60631514  0.62617036  1
  O  O104  1  0.45053254  0.39764861  0.37570737  1
  O  O105  1  0.45992010  0.39406761  0.86590255  1
  O  O106  1  0.45152079  0.89406370  0.37392127  1
  O  O107  1  0.46388648  0.89073635  0.86564123  1
  O  O108  1  0.94979034  0.40417479  0.37683771  1
  O  O109  1  0.94912328  0.39544888  0.87670071  1
  O  O110  1  0.94968233  0.88802880  0.36023069  1
  O  O111  1  0.95814808  0.89212584  0.87651417  1
  O  O112  1  0.33681699  0.26449500  0.12409609  1
  O  O113  1  0.33312014  0.27972758  0.63575662  1
  O  O114  1  0.33208212  0.76717125  0.12248157  1
  O  O115  1  0.34092285  0.77960278  0.63271149  1
  O  O116  1  0.83396220  0.26378605  0.12464478  1
  O  O117  1  0.82319046  0.27343821  0.62550661  1
  O  O118  1  0.84466653  0.76518417  0.12953333  1
  O  O119  1  0.82226137  0.77371955  0.62566260  1
  O  O120  1  0.19921277  0.22492254  0.37204781  1
  O  O121  1  0.19805557  0.23475571  0.87709679  1
  O  O122  1  0.19917619  0.72496242  0.37726572  1
  O  O123  1  0.20027098  0.73215561  0.86972483  1
  O  O124  1  0.69711371  0.23056442  0.37483660  1
  O  O125  1  0.70177105  0.23136474  0.87640518  1
  O  O126  1  0.69717638  0.72820229  0.37562925  1
  O  O127  1  0.71165972  0.73377575  0.87847163  1
  O  O128  1  0.41594010  0.06276300  0.24479927  1
  O  O129  1  0.41681003  0.06865644  0.74976164  1
  O  O130  1  0.41951374  0.56573225  0.24414134  1
  O  O131  1  0.40930772  0.57724947  0.75121284  1
  O  O132  1  0.90903035  0.06463343  0.24457104  1
  O  O133  1  0.92725187  0.05842360  0.74982311  1
  O  O134  1  0.91644388  0.57189623  0.24489508  1
  O  O135  1  0.93331773  0.57059731  0.75616592  1
  O  O136  1  0.17529100  0.43902898  0.25165397  1
  O  O137  1  0.18077225  0.44108852  0.74995293  1
  O  O138  1  0.15618622  0.92664740  0.24502664  1
  O  O139  1  0.18356931  0.92119451  0.75579262  1
  O  O140  1  0.66818218  0.43180776  0.24541674  1
  O  O141  1  0.66456323  0.43033945  0.75518480  1
  O  O142  1  0.67588748  0.92636901  0.24341396  1
  O  O143  1  0.65815570  0.92205284  0.74994141  1
