# generated using pymatgen
data_NaHo4Ge2O11
_symmetry_space_group_name_H-M   'P 1'
_cell_length_a   6.78436900
_cell_length_b   6.90959600
_cell_length_c   21.84077900
_cell_angle_alpha   90.00000000
_cell_angle_beta   90.00000000
_cell_angle_gamma   90.00000000
_symmetry_Int_Tables_number   1
_chemical_formula_structural   NaHo4Ge2O11
_chemical_formula_sum   'Na4 Ho16 Ge8 O44'
_cell_volume   1023.83563346
_cell_formula_units_Z   4
loop_
 _symmetry_equiv_pos_site_id
 _symmetry_equiv_pos_as_xyz
  1  'x, y, z'
loop_
 _atom_site_type_symbol
 _atom_site_label
 _atom_site_symmetry_multiplicity
 _atom_site_fract_x
 _atom_site_fract_y
 _atom_site_fract_z
 _atom_site_occupancy
  Na  Na0  1  0.64188400  0.80497600  0.25000000  1
  Na  Na1  1  0.14188400  0.69502400  0.25000000  1
  Na  Na2  1  0.35811600  0.19502400  0.75000000  1
  Na  Na3  1  0.85811600  0.30497600  0.75000000  1
  Ho  Ho4  1  0.71790700  0.37496400  0.01323800  1
  Ho  Ho5  1  0.21790700  0.12503600  0.48676200  1
  Ho  Ho6  1  0.28209300  0.62503600  0.51323800  1
  Ho  Ho7  1  0.78209300  0.87496400  0.98676200  1
  Ho  Ho8  1  0.28209300  0.62503600  0.98676200  1
  Ho  Ho9  1  0.78209300  0.87496400  0.51323800  1
  Ho  Ho10  1  0.71790700  0.37496400  0.48676200  1
  Ho  Ho11  1  0.21790700  0.12503600  0.01323800  1
  Ho  Ho12  1  0.90747800  0.12988900  0.14952300  1
  Ho  Ho13  1  0.40747800  0.37011100  0.35047700  1
  Ho  Ho14  1  0.09252200  0.87011100  0.64952300  1
  Ho  Ho15  1  0.59252200  0.62988900  0.85047700  1
  Ho  Ho16  1  0.09252200  0.87011100  0.85047700  1
  Ho  Ho17  1  0.59252200  0.62988900  0.64952300  1
  Ho  Ho18  1  0.90747800  0.12988900  0.35047700  1
  Ho  Ho19  1  0.40747800  0.37011100  0.14952300  1
  Ge  Ge20  1  0.92111000  0.59538700  0.12637700  1
  Ge  Ge21  1  0.42111000  0.90461300  0.37362300  1
  Ge  Ge22  1  0.07889000  0.40461300  0.62637700  1
  Ge  Ge23  1  0.57889000  0.09538700  0.87362300  1
  Ge  Ge24  1  0.07889000  0.40461300  0.87362300  1
  Ge  Ge25  1  0.57889000  0.09538700  0.62637700  1
  Ge  Ge26  1  0.92111000  0.59538700  0.37362300  1
  Ge  Ge27  1  0.42111000  0.90461300  0.12637700  1
  O  O28  1  0.72113100  0.42609500  0.11804100  1
  O  O29  1  0.22113100  0.07390500  0.38195900  1
  O  O30  1  0.27886900  0.57390500  0.61804100  1
  O  O31  1  0.77886900  0.92609500  0.88195900  1
  O  O32  1  0.27886900  0.57390500  0.88195900  1
  O  O33  1  0.77886900  0.92609500  0.61804100  1
  O  O34  1  0.72113100  0.42609500  0.38195900  1
  O  O35  1  0.22113100  0.07390500  0.11804100  1
  O  O36  1  0.89177300  0.11560500  0.04444600  1
  O  O37  1  0.39177300  0.38439500  0.45555400  1
  O  O38  1  0.10822700  0.88439500  0.54444600  1
  O  O39  1  0.60822700  0.61560500  0.95555400  1
  O  O40  1  0.10822700  0.88439500  0.95555400  1
  O  O41  1  0.60822700  0.61560500  0.54444600  1
  O  O42  1  0.89177300  0.11560500  0.45555400  1
  O  O43  1  0.39177300  0.38439500  0.04444600  1
  O  O44  1  0.97765900  0.13837000  0.25000000  1
  O  O45  1  0.47765900  0.36163000  0.25000000  1
  O  O46  1  0.02234100  0.86163000  0.75000000  1
  O  O47  1  0.52234100  0.63837000  0.75000000  1
  O  O48  1  0.58332600  0.07593200  0.15979400  1
  O  O49  1  0.08332600  0.42406800  0.34020600  1
  O  O50  1  0.41667400  0.92406800  0.65979400  1
  O  O51  1  0.91667400  0.57593200  0.84020600  1
  O  O52  1  0.41667400  0.92406800  0.84020600  1
  O  O53  1  0.91667400  0.57593200  0.65979400  1
  O  O54  1  0.58332600  0.07593200  0.34020600  1
  O  O55  1  0.08332600  0.42406800  0.15979400  1
  O  O56  1  0.89599900  0.80096000  0.17139400  1
  O  O57  1  0.39599900  0.69904000  0.32860600  1
  O  O58  1  0.10400100  0.19904000  0.67139400  1
  O  O59  1  0.60400100  0.30096000  0.82860600  1
  O  O60  1  0.10400100  0.19904000  0.82860600  1
  O  O61  1  0.60400100  0.30096000  0.67139400  1
  O  O62  1  0.89599900  0.80096000  0.32860600  1
  O  O63  1  0.39599900  0.69904000  0.17139400  1
  O  O64  1  0.95444700  0.64099100  0.04602700  1
  O  O65  1  0.45444700  0.85900900  0.45397300  1
  O  O66  1  0.04555300  0.35900900  0.54602700  1
  O  O67  1  0.54555300  0.14099100  0.95397300  1
  O  O68  1  0.04555300  0.35900900  0.95397300  1
  O  O69  1  0.54555300  0.14099100  0.54602700  1
  O  O70  1  0.95444700  0.64099100  0.45397300  1
  O  O71  1  0.45444700  0.85900900  0.04602700  1
