# generated using pymatgen
data_KMg6Ti
_symmetry_space_group_name_H-M   'P 1'
_cell_length_a   6.54708242
_cell_length_b   6.54708242
_cell_length_c   5.28092400
_cell_angle_alpha   90.00000000
_cell_angle_beta   90.00000000
_cell_angle_gamma   118.95011367
_symmetry_Int_Tables_number   1
_chemical_formula_structural   KMg6Ti
_chemical_formula_sum   'K1 Mg6 Ti1'
_cell_volume   198.07705886
_cell_formula_units_Z   1
loop_
 _symmetry_equiv_pos_site_id
 _symmetry_equiv_pos_as_xyz
  1  'x, y, z'
loop_
 _atom_site_type_symbol
 _atom_site_label
 _atom_site_symmetry_multiplicity
 _atom_site_fract_x
 _atom_site_fract_y
 _atom_site_fract_z
 _atom_site_occupancy
  K  K0  1  0.58366700  0.41633300  0.50000000  1
  Mg  Mg1  1  0.93012000  0.59305300  0.00000000  1
  Mg  Mg2  1  0.40694700  0.06988000  0.00000000  1
  Mg  Mg3  1  0.40631100  0.59368900  0.00000000  1
  Mg  Mg4  1  0.60836600  0.92816700  0.50000000  1
  Mg  Mg5  1  0.07183300  0.39163400  0.50000000  1
  Mg  Mg6  1  0.07662100  0.92337900  0.50000000  1
  Ti  Ti7  1  0.91613600  0.08386400  0.00000000  1
