# generated using pymatgen
data_RbMg6Sb
_symmetry_space_group_name_H-M   'P 1'
_cell_length_a   6.94023126
_cell_length_b   6.94023126
_cell_length_c   5.30086400
_cell_angle_alpha   90.00000000
_cell_angle_beta   90.00000000
_cell_angle_gamma   121.63997942
_symmetry_Int_Tables_number   1
_chemical_formula_structural   RbMg6Sb
_chemical_formula_sum   'Rb1 Mg6 Sb1'
_cell_volume   217.37437735
_cell_formula_units_Z   1
loop_
 _symmetry_equiv_pos_site_id
 _symmetry_equiv_pos_as_xyz
  1  'x, y, z'
loop_
 _atom_site_type_symbol
 _atom_site_label
 _atom_site_symmetry_multiplicity
 _atom_site_fract_x
 _atom_site_fract_y
 _atom_site_fract_z
 _atom_site_occupancy
  Rb  Rb0  1  0.83230700  0.16769300  0.50000000  1
  Mg  Mg1  1  0.33578100  0.16966700  0.50000000  1
  Mg  Mg2  1  0.83033300  0.66421900  0.50000000  1
  Mg  Mg3  1  0.18497100  0.34132300  0.00000000  1
  Mg  Mg4  1  0.65867700  0.81502900  0.00000000  1
  Mg  Mg5  1  0.65587600  0.34412400  0.00000000  1
  Mg  Mg6  1  0.16437200  0.83562800  0.00000000  1
  Sb  Sb7  1  0.33768700  0.66231300  0.50000000  1
