# generated using pymatgen
data_Mg6CdB
_symmetry_space_group_name_H-M   'P 1'
_cell_length_a   6.07081865
_cell_length_b   6.07081865
_cell_length_c   4.90884000
_cell_angle_alpha   90.00000000
_cell_angle_beta   90.00000000
_cell_angle_gamma   118.32875148
_symmetry_Int_Tables_number   1
_chemical_formula_structural   Mg6CdB
_chemical_formula_sum   'Mg6 Cd1 B1'
_cell_volume   159.24806768
_cell_formula_units_Z   1
loop_
 _symmetry_equiv_pos_site_id
 _symmetry_equiv_pos_as_xyz
  1  'x, y, z'
loop_
 _atom_site_type_symbol
 _atom_site_label
 _atom_site_symmetry_multiplicity
 _atom_site_fract_x
 _atom_site_fract_y
 _atom_site_fract_z
 _atom_site_occupancy
  Mg  Mg0  1  0.66592400  0.83381400  0.00000000  1
  Mg  Mg1  1  0.16618600  0.33407600  0.00000000  1
  Mg  Mg2  1  0.84454300  0.67151400  0.50000000  1
  Mg  Mg3  1  0.32848600  0.15545700  0.50000000  1
  Mg  Mg4  1  0.83286600  0.16713400  0.50000000  1
  Mg  Mg5  1  0.32770300  0.67229700  0.50000000  1
  Cd  Cd6  1  0.66630700  0.33369300  0.00000000  1
  B  B7  1  0.16799100  0.83200900  0.00000000  1
