# generated using pymatgen
data_NdAsPd
_symmetry_space_group_name_H-M   'P 1'
_cell_length_a   4.39118186
_cell_length_b   4.39118186
_cell_length_c   7.82285100
_cell_angle_alpha   90.00000000
_cell_angle_beta   90.00000000
_cell_angle_gamma   119.99999785
_symmetry_Int_Tables_number   1
_chemical_formula_structural   NdAsPd
_chemical_formula_sum   'Nd2 As2 Pd2'
_cell_volume   130.63469824
_cell_formula_units_Z   2
loop_
 _symmetry_equiv_pos_site_id
 _symmetry_equiv_pos_as_xyz
  1  'x, y, z'
loop_
 _atom_site_type_symbol
 _atom_site_label
 _atom_site_symmetry_multiplicity
 _atom_site_fract_x
 _atom_site_fract_y
 _atom_site_fract_z
 _atom_site_occupancy
  Nd  Nd0  1  0.00000000  0.00000000  0.49973000  1
  Nd  Nd1  1  0.00000000  0.00000000  0.99973000  1
  As  As2  1  0.66666700  0.33333300  0.26337200  1
  As  As3  1  0.33333300  0.66666700  0.76337200  1
  Pd  Pd4  1  0.33333300  0.66666700  0.23619900  1
  Pd  Pd5  1  0.66666700  0.33333300  0.73619900  1
