# generated using pymatgen
data_CsMg6W
_symmetry_space_group_name_H-M   'P 1'
_cell_length_a   6.60031041
_cell_length_b   6.60031041
_cell_length_c   5.25251700
_cell_angle_alpha   90.00000000
_cell_angle_beta   90.00000000
_cell_angle_gamma   118.63425624
_symmetry_Int_Tables_number   1
_chemical_formula_structural   CsMg6W
_chemical_formula_sum   'Cs1 Mg6 W1'
_cell_volume   200.83556005
_cell_formula_units_Z   1
loop_
 _symmetry_equiv_pos_site_id
 _symmetry_equiv_pos_as_xyz
  1  'x, y, z'
loop_
 _atom_site_type_symbol
 _atom_site_label
 _atom_site_symmetry_multiplicity
 _atom_site_fract_x
 _atom_site_fract_y
 _atom_site_fract_z
 _atom_site_occupancy
  Cs  Cs0  1  0.35157200  0.64842800  0.50000000  1
  Mg  Mg1  1  0.88127600  0.69176700  0.50000000  1
  Mg  Mg2  1  0.30823300  0.11872400  0.50000000  1
  Mg  Mg3  1  0.82480600  0.17519400  0.50000000  1
  Mg  Mg4  1  0.69974600  0.85754000  0.00000000  1
  Mg  Mg5  1  0.14246000  0.30025400  0.00000000  1
  Mg  Mg6  1  0.65820400  0.34179600  0.00000000  1
  W  W7  1  0.13370400  0.86629600  0.00000000  1
