# generated using pymatgen
data_HoAl3
_symmetry_space_group_name_H-M   'P 1'
_cell_length_a   12.49603728
_cell_length_b   12.49603728
_cell_length_c   12.49603769
_cell_angle_alpha   28.16172366
_cell_angle_beta   28.16172366
_cell_angle_gamma   28.16172483
_symmetry_Int_Tables_number   1
_chemical_formula_structural   HoAl3
_chemical_formula_sum   'Ho5 Al15'
_cell_volume   383.97974536
_cell_formula_units_Z   5
loop_
 _symmetry_equiv_pos_site_id
 _symmetry_equiv_pos_as_xyz
  1  'x, y, z'
loop_
 _atom_site_type_symbol
 _atom_site_label
 _atom_site_symmetry_multiplicity
 _atom_site_fract_x
 _atom_site_fract_y
 _atom_site_fract_z
 _atom_site_occupancy
  Ho  Ho0  1  0.59994000  0.59994000  0.59994000  1
  Ho  Ho1  1  0.40006000  0.40006000  0.40006000  1
  Ho  Ho2  1  0.86901400  0.86901400  0.86901400  1
  Ho  Ho3  1  0.13098600  0.13098600  0.13098600  1
  Ho  Ho4  1  0.00000000  0.00000000  0.00000000  1
  Al  Al5  1  0.56648500  0.11741400  0.11741400  1
  Al  Al6  1  0.11741400  0.56648500  0.11741400  1
  Al  Al7  1  0.11741400  0.11741400  0.56648500  1
  Al  Al8  1  0.43351500  0.88258600  0.88258600  1
  Al  Al9  1  0.88258600  0.43351500  0.88258600  1
  Al  Al10  1  0.50000000  0.50000000  0.00000000  1
  Al  Al11  1  0.50000000  0.00000000  0.50000000  1
  Al  Al12  1  0.00000000  0.50000000  0.50000000  1
  Al  Al13  1  0.63522800  0.63522800  0.13092000  1
  Al  Al14  1  0.63522800  0.13092000  0.63522800  1
  Al  Al15  1  0.13092000  0.63522800  0.63522800  1
  Al  Al16  1  0.36477200  0.36477200  0.86908000  1
  Al  Al17  1  0.36477200  0.86908000  0.36477200  1
  Al  Al18  1  0.86908000  0.36477200  0.36477200  1
  Al  Al19  1  0.88258600  0.88258600  0.43351500  1
