# generated using pymatgen
data_CaSn2S5
_symmetry_space_group_name_H-M   'P 1'
_cell_length_a   7.50429200
_cell_length_b   9.53189000
_cell_length_c   10.86511400
_cell_angle_alpha   90.00000000
_cell_angle_beta   90.00000000
_cell_angle_gamma   90.00000000
_symmetry_Int_Tables_number   1
_chemical_formula_structural   CaSn2S5
_chemical_formula_sum   'Ca4 Sn8 S20'
_cell_volume   777.18253743
_cell_formula_units_Z   4
loop_
 _symmetry_equiv_pos_site_id
 _symmetry_equiv_pos_as_xyz
  1  'x, y, z'
loop_
 _atom_site_type_symbol
 _atom_site_label
 _atom_site_symmetry_multiplicity
 _atom_site_fract_x
 _atom_site_fract_y
 _atom_site_fract_z
 _atom_site_occupancy
  Ca  Ca0  1  0.50000000  0.37037300  0.17150500  1
  Ca  Ca1  1  0.50000000  0.62962700  0.82849500  1
  Ca  Ca2  1  0.50000000  0.87037300  0.32849500  1
  Ca  Ca3  1  0.50000000  0.12962700  0.67150500  1
  Sn  Sn4  1  0.73585900  0.50000000  0.50000000  1
  Sn  Sn5  1  0.26414100  0.00000000  0.00000000  1
  Sn  Sn6  1  0.26414100  0.50000000  0.50000000  1
  Sn  Sn7  1  0.73585900  0.00000000  0.00000000  1
  Sn  Sn8  1  0.00000000  0.60571300  0.14772700  1
  Sn  Sn9  1  0.00000000  0.39428700  0.85227300  1
  Sn  Sn10  1  0.00000000  0.10571300  0.35227300  1
  Sn  Sn11  1  0.00000000  0.89428700  0.64772700  1
  S  S12  1  0.72708200  0.38547400  0.71361500  1
  S  S13  1  0.72708200  0.61452600  0.28638500  1
  S  S14  1  0.27291800  0.88547400  0.78638500  1
  S  S15  1  0.27291800  0.11452600  0.21361500  1
  S  S16  1  0.27291800  0.61452600  0.28638500  1
  S  S17  1  0.27291800  0.38547400  0.71361500  1
  S  S18  1  0.72708200  0.11452600  0.21361500  1
  S  S19  1  0.72708200  0.88547400  0.78638500  1
  S  S20  1  0.77325300  0.50000000  0.00000000  1
  S  S21  1  0.22674700  0.00000000  0.50000000  1
  S  S22  1  0.22674700  0.50000000  0.00000000  1
  S  S23  1  0.77325300  0.00000000  0.50000000  1
  S  S24  1  0.50000000  0.32009900  0.43823400  1
  S  S25  1  0.50000000  0.67990100  0.56176600  1
  S  S26  1  0.50000000  0.82009900  0.06176600  1
  S  S27  1  0.50000000  0.17990100  0.93823400  1
  S  S28  1  0.00000000  0.85992700  0.09879600  1
  S  S29  1  0.00000000  0.14007300  0.90120400  1
  S  S30  1  0.00000000  0.35992700  0.40120400  1
  S  S31  1  0.00000000  0.64007300  0.59879600  1
