# generated using pymatgen
data_Ca3Sn2S7
_symmetry_space_group_name_H-M   'P 1'
_cell_length_a   6.51741786
_cell_length_b   14.42549340
_cell_length_c   16.00922340
_cell_angle_alpha   116.77814037
_cell_angle_beta   101.74474777
_cell_angle_gamma   89.99999927
_symmetry_Int_Tables_number   1
_chemical_formula_structural   Ca3Sn2S7
_chemical_formula_sum   'Ca12 Sn8 S28'
_cell_volume   1308.33091776
_cell_formula_units_Z   4
loop_
 _symmetry_equiv_pos_site_id
 _symmetry_equiv_pos_as_xyz
  1  'x, y, z'
loop_
 _atom_site_type_symbol
 _atom_site_label
 _atom_site_symmetry_multiplicity
 _atom_site_fract_x
 _atom_site_fract_y
 _atom_site_fract_z
 _atom_site_occupancy
  Ca  Ca0  1  0.50000000  0.50659700  0.00000000  1
  Ca  Ca1  1  0.00000000  0.00659700  0.00000000  1
  Ca  Ca2  1  0.25805300  0.97371600  0.50000000  1
  Ca  Ca3  1  0.74194700  0.47371600  0.50000000  1
  Ca  Ca4  1  0.33277900  0.32173600  0.65834000  1
  Ca  Ca5  1  0.66722100  0.66339600  0.34166000  1
  Ca  Ca6  1  0.17443900  0.16339600  0.34166000  1
  Ca  Ca7  1  0.82556100  0.82173600  0.65834000  1
  Ca  Ca8  1  0.89409900  0.16683600  0.78643800  1
  Ca  Ca9  1  0.10590100  0.38039800  0.21356200  1
  Ca  Ca10  1  0.60766100  0.88039800  0.21356200  1
  Ca  Ca11  1  0.39233900  0.66683600  0.78643800  1
  Sn  Sn12  1  0.67684400  0.15580700  0.50000000  1
  Sn  Sn13  1  0.32315600  0.65580700  0.50000000  1
  Sn  Sn14  1  0.33239000  0.97886800  0.78829800  1
  Sn  Sn15  1  0.66761000  0.19057000  0.21170200  1
  Sn  Sn16  1  0.04409100  0.69057000  0.21170200  1
  Sn  Sn17  1  0.95590900  0.47886800  0.78829800  1
  Sn  Sn18  1  0.50000000  0.26624000  0.00000000  1
  Sn  Sn19  1  0.00000000  0.76624000  0.00000000  1
  S  S20  1  0.57360600  0.14621300  0.63321100  1
  S  S21  1  0.42639400  0.51300200  0.36678900  1
  S  S22  1  0.44039600  0.01300200  0.36678900  1
  S  S23  1  0.55960400  0.64621300  0.63321100  1
  S  S24  1  0.50767800  0.30648700  0.50000000  1
  S  S25  1  0.49232200  0.80648700  0.50000000  1
  S  S26  1  0.04285300  0.15216500  0.50000000  1
  S  S27  1  0.95714700  0.65216500  0.50000000  1
  S  S28  1  0.08820000  0.98836500  0.65702100  1
  S  S29  1  0.91180000  0.33134400  0.34297900  1
  S  S30  1  0.93117800  0.83134400  0.34297900  1
  S  S31  1  0.06882200  0.48836500  0.65702100  1
  S  S32  1  0.13956400  0.34404100  0.80946900  1
  S  S33  1  0.86043600  0.53457200  0.19053100  1
  S  S34  1  0.83009600  0.03457200  0.19053100  1
  S  S35  1  0.16990400  0.84404100  0.80946900  1
  S  S36  1  0.20954100  0.12489000  0.92144300  1
  S  S37  1  0.79045900  0.20344700  0.07855700  1
  S  S38  1  0.78809900  0.70344700  0.07855700  1
  S  S39  1  0.21190100  0.62489000  0.92144300  1
  S  S40  1  0.70378700  0.00183000  0.81036000  1
  S  S41  1  0.29621300  0.19147000  0.18964000  1
  S  S42  1  0.39342800  0.69147000  0.18964000  1
  S  S43  1  0.60657200  0.50183000  0.81036000  1
  S  S44  1  0.65823900  0.31387300  0.90313700  1
  S  S45  1  0.34176100  0.41073600  0.09686300  1
  S  S46  1  0.25510200  0.91073600  0.09686300  1
  S  S47  1  0.74489800  0.81387300  0.90313700  1
