# generated using pymatgen
data_CaSn2S5
_symmetry_space_group_name_H-M   'P 1'
_cell_length_a   8.53144965
_cell_length_b   9.93864735
_cell_length_c   10.21357728
_cell_angle_alpha   68.34549040
_cell_angle_beta   87.45462507
_cell_angle_gamma   85.23025823
_symmetry_Int_Tables_number   1
_chemical_formula_structural   CaSn2S5
_chemical_formula_sum   'Ca4 Sn8 S20'
_cell_volume   802.02595598
_cell_formula_units_Z   4
loop_
 _symmetry_equiv_pos_site_id
 _symmetry_equiv_pos_as_xyz
  1  'x, y, z'
loop_
 _atom_site_type_symbol
 _atom_site_label
 _atom_site_symmetry_multiplicity
 _atom_site_fract_x
 _atom_site_fract_y
 _atom_site_fract_z
 _atom_site_occupancy
  Ca  Ca0  1  0.17923900  0.49984300  0.69681600  1
  Ca  Ca1  1  0.82076100  0.50015700  0.30318400  1
  Ca  Ca2  1  0.35593800  0.97473800  0.78347500  1
  Ca  Ca3  1  0.64406200  0.02526200  0.21652500  1
  Sn  Sn4  1  0.50000000  0.50000000  0.00000000  1
  Sn  Sn5  1  0.00000000  0.00000000  0.50000000  1
  Sn  Sn6  1  0.24138300  0.75359500  0.24654600  1
  Sn  Sn7  1  0.75861700  0.24640500  0.75345400  1
  Sn  Sn8  1  0.87344600  0.80079300  0.93900100  1
  Sn  Sn9  1  0.12655400  0.19920700  0.06099900  1
  Sn  Sn10  1  0.36741000  0.30258800  0.43801100  1
  Sn  Sn11  1  0.63259000  0.69741200  0.56198900  1
  S  S12  1  0.33767800  0.01006400  0.11182000  1
  S  S13  1  0.66232200  0.98993600  0.88818000  1
  S  S14  1  0.15654900  0.49140000  0.38213600  1
  S  S15  1  0.84345100  0.50860000  0.61786400  1
  S  S16  1  0.07484500  0.83800100  0.75925800  1
  S  S17  1  0.92515500  0.16199900  0.24074200  1
  S  S18  1  0.45086300  0.29415300  0.66572800  1
  S  S19  1  0.54913700  0.70584700  0.33427200  1
  S  S20  1  0.12213500  0.77201800  0.46882900  1
  S  S21  1  0.87786500  0.22798200  0.53117100  1
  S  S22  1  0.94682100  0.79937400  0.16788300  1
  S  S23  1  0.05317900  0.20062600  0.83211700  1
  S  S24  1  0.70510500  0.94177300  0.51515800  1
  S  S25  1  0.29489500  0.05822700  0.48484200  1
  S  S26  1  0.38636600  0.72661600  0.03637300  1
  S  S27  1  0.61363400  0.27338400  0.96362700  1
  S  S28  1  0.57066200  0.33215400  0.25998800  1
  S  S29  1  0.42933800  0.66784600  0.74001200  1
  S  S30  1  0.20432400  0.44404000  0.00041600  1
  S  S31  1  0.79567600  0.55596000  0.99958400  1
