# generated using pymatgen
data_BaSi4O9
_symmetry_space_group_name_H-M   'P 1'
_cell_length_a   6.57940983
_cell_length_b   6.57940983
_cell_length_c   9.46998800
_cell_angle_alpha   90.00000000
_cell_angle_beta   90.00000000
_cell_angle_gamma   119.99999824
_symmetry_Int_Tables_number   1
_chemical_formula_structural   BaSi4O9
_chemical_formula_sum   'Ba2 Si8 O18'
_cell_volume   355.02092085
_cell_formula_units_Z   2
loop_
 _symmetry_equiv_pos_site_id
 _symmetry_equiv_pos_as_xyz
  1  'x, y, z'
loop_
 _atom_site_type_symbol
 _atom_site_label
 _atom_site_symmetry_multiplicity
 _atom_site_fract_x
 _atom_site_fract_y
 _atom_site_fract_z
 _atom_site_occupancy
  Ba  Ba0  1  0.66666700  0.33333300  0.50000000  1
  Ba  Ba1  1  0.66666700  0.33333300  0.00000000  1
  Si  Si2  1  0.08915200  0.78869900  0.75000000  1
  Si  Si3  1  0.21130100  0.30045300  0.75000000  1
  Si  Si4  1  0.69954700  0.91084800  0.75000000  1
  Si  Si5  1  0.69954700  0.78869900  0.25000000  1
  Si  Si6  1  0.21130100  0.91084800  0.25000000  1
  Si  Si7  1  0.08915200  0.30045300  0.25000000  1
  Si  Si8  1  0.33333300  0.66666700  0.50000000  1
  Si  Si9  1  0.33333300  0.66666700  0.00000000  1
  O  O10  1  0.55689500  0.89387400  0.60694000  1
  O  O11  1  0.10612600  0.44310500  0.39306000  1
  O  O12  1  0.10612600  0.66302100  0.60694000  1
  O  O13  1  0.33697900  0.44310500  0.60694000  1
  O  O14  1  0.10612600  0.66302100  0.89306000  1
  O  O15  1  0.33697900  0.44310500  0.89306000  1
  O  O16  1  0.55689500  0.89387400  0.89306000  1
  O  O17  1  0.33697900  0.89387400  0.10694000  1
  O  O18  1  0.55689500  0.66302100  0.10694000  1
  O  O19  1  0.55689500  0.66302100  0.39306000  1
  O  O20  1  0.92264900  0.73565700  0.25000000  1
  O  O21  1  0.81300800  0.07735100  0.25000000  1
  O  O22  1  0.26434300  0.18699200  0.25000000  1
  O  O23  1  0.26434300  0.07735100  0.75000000  1
  O  O24  1  0.81300800  0.73565700  0.75000000  1
  O  O25  1  0.92264900  0.18699200  0.75000000  1
  O  O26  1  0.10612600  0.44310500  0.10694000  1
  O  O27  1  0.33697900  0.89387400  0.39306000  1
