# generated using pymatgen
data_CaSn5S11
_symmetry_space_group_name_H-M   'P 1'
_cell_length_a   17.30194000
_cell_length_b   9.79468300
_cell_length_c   12.97696274
_cell_angle_alpha   49.21087578
_cell_angle_beta   90.00000000
_cell_angle_gamma   90.00000000
_symmetry_Int_Tables_number   1
_chemical_formula_structural   CaSn5S11
_chemical_formula_sum   'Ca4 Sn20 S44'
_cell_volume   1665.03141128
_cell_formula_units_Z   4
loop_
 _symmetry_equiv_pos_site_id
 _symmetry_equiv_pos_as_xyz
  1  'x, y, z'
loop_
 _atom_site_type_symbol
 _atom_site_label
 _atom_site_symmetry_multiplicity
 _atom_site_fract_x
 _atom_site_fract_y
 _atom_site_fract_z
 _atom_site_occupancy
  Ca  Ca0  1  0.57305000  0.11546800  0.22355900  1
  Ca  Ca1  1  0.92695000  0.11546800  0.72355900  1
  Ca  Ca2  1  0.42695000  0.88453200  0.77644100  1
  Ca  Ca3  1  0.07305000  0.88453200  0.27644100  1
  Sn  Sn4  1  0.83062200  0.23187000  0.30284900  1
  Sn  Sn5  1  0.66937800  0.23187000  0.80284900  1
  Sn  Sn6  1  0.16937800  0.76813000  0.69715100  1
  Sn  Sn7  1  0.33062200  0.76813000  0.19715100  1
  Sn  Sn8  1  0.83227300  0.97196500  0.17175700  1
  Sn  Sn9  1  0.66772700  0.97196500  0.67175700  1
  Sn  Sn10  1  0.16772700  0.02803500  0.82824300  1
  Sn  Sn11  1  0.33227300  0.02803500  0.32824300  1
  Sn  Sn12  1  0.82796300  0.48004300  0.92169000  1
  Sn  Sn13  1  0.67203700  0.48004300  0.42169000  1
  Sn  Sn14  1  0.17203700  0.51995700  0.07831000  1
  Sn  Sn15  1  0.32796300  0.51995700  0.57831000  1
  Sn  Sn16  1  0.82755700  0.71563800  0.55613700  1
  Sn  Sn17  1  0.67244300  0.71563800  0.05613700  1
  Sn  Sn18  1  0.17244300  0.28436200  0.44386300  1
  Sn  Sn19  1  0.32755700  0.28436200  0.94386300  1
  Sn  Sn20  1  0.48972300  0.49367000  0.23663300  1
  Sn  Sn21  1  0.01027700  0.49367000  0.73663300  1
  Sn  Sn22  1  0.51027700  0.50633000  0.76336700  1
  Sn  Sn23  1  0.98972300  0.50633000  0.26336700  1
  S  S24  1  0.73609400  0.98505100  0.48586200  1
  S  S25  1  0.76390600  0.98505100  0.98586200  1
  S  S26  1  0.26390600  0.01494900  0.51413800  1
  S  S27  1  0.23609400  0.01494900  0.01413800  1
  S  S28  1  0.73786600  0.75565200  0.37299100  1
  S  S29  1  0.76213400  0.75565200  0.87299100  1
  S  S30  1  0.26213400  0.24434800  0.62700900  1
  S  S31  1  0.23786600  0.24434800  0.12700900  1
  S  S32  1  0.76369800  0.51118300  0.25559900  1
  S  S33  1  0.73630200  0.51118300  0.75559900  1
  S  S34  1  0.23630200  0.48881700  0.74440100  1
  S  S35  1  0.26369800  0.48881700  0.24440100  1
  S  S36  1  0.74555700  0.22675200  0.13670700  1
  S  S37  1  0.75444300  0.22675200  0.63670700  1
  S  S38  1  0.25444300  0.77324800  0.86329300  1
  S  S39  1  0.24555700  0.77324800  0.36329300  1
  S  S40  1  0.91506300  0.72113400  0.71818700  1
  S  S41  1  0.58493700  0.72113400  0.21818700  1
  S  S42  1  0.08493700  0.27886600  0.28181300  1
  S  S43  1  0.41506300  0.27886600  0.78181300  1
  S  S44  1  0.91243400  0.24793700  0.45596100  1
  S  S45  1  0.58756600  0.24793700  0.95596100  1
  S  S46  1  0.08756600  0.75206300  0.54403900  1
  S  S47  1  0.41243400  0.75206300  0.04403900  1
  S  S48  1  0.91700200  0.48353600  0.59365400  1
  S  S49  1  0.58299800  0.48353600  0.09365400  1
  S  S50  1  0.08299800  0.51646400  0.40634600  1
  S  S51  1  0.41700200  0.51646400  0.90634600  1
  S  S52  1  0.92059600  0.24295500  0.98624600  1
  S  S53  1  0.57940400  0.24295500  0.48624600  1
  S  S54  1  0.07940400  0.75704500  0.01375400  1
  S  S55  1  0.42059600  0.75704500  0.51375400  1
  S  S56  1  0.90908200  0.48408800  0.10408000  1
  S  S57  1  0.59091800  0.48408800  0.60408000  1
  S  S58  1  0.09091800  0.51591200  0.89592000  1
  S  S59  1  0.40908200  0.51591200  0.39592000  1
  S  S60  1  0.91010800  0.97043700  0.34687600  1
  S  S61  1  0.58989200  0.97043700  0.84687600  1
  S  S62  1  0.08989200  0.02956300  0.65312400  1
  S  S63  1  0.41010800  0.02956300  0.15312400  1
  S  S64  1  0.94887300  0.82203900  0.16048100  1
  S  S65  1  0.55112700  0.82203900  0.66048100  1
  S  S66  1  0.05112700  0.17796100  0.83951900  1
  S  S67  1  0.44887300  0.17796100  0.33951900  1
