# generated using pymatgen
data_CaSn4S9
_symmetry_space_group_name_H-M   'P 1'
_cell_length_a   3.87017900
_cell_length_b   22.27589400
_cell_length_c   9.86134400
_cell_angle_alpha   90.00000000
_cell_angle_beta   90.00000000
_cell_angle_gamma   90.00000000
_symmetry_Int_Tables_number   1
_chemical_formula_structural   CaSn4S9
_chemical_formula_sum   'Ca2 Sn8 S18'
_cell_volume   850.16320257
_cell_formula_units_Z   2
loop_
 _symmetry_equiv_pos_site_id
 _symmetry_equiv_pos_as_xyz
  1  'x, y, z'
loop_
 _atom_site_type_symbol
 _atom_site_label
 _atom_site_symmetry_multiplicity
 _atom_site_fract_x
 _atom_site_fract_y
 _atom_site_fract_z
 _atom_site_occupancy
  Ca  Ca0  1  0.75000000  0.25000000  0.58517300  1
  Ca  Ca1  1  0.25000000  0.75000000  0.41482700  1
  Sn  Sn2  1  0.25000000  0.40180800  0.81982200  1
  Sn  Sn3  1  0.25000000  0.09819200  0.81982200  1
  Sn  Sn4  1  0.75000000  0.59819200  0.18017800  1
  Sn  Sn5  1  0.75000000  0.90180800  0.18017800  1
  Sn  Sn6  1  0.25000000  0.34954700  0.22765200  1
  Sn  Sn7  1  0.25000000  0.15045300  0.22765200  1
  Sn  Sn8  1  0.75000000  0.65045300  0.77234800  1
  Sn  Sn9  1  0.75000000  0.84954700  0.77234800  1
  S  S10  1  0.25000000  0.96924300  0.16582800  1
  S  S11  1  0.25000000  0.53075700  0.16582800  1
  S  S12  1  0.75000000  0.03075700  0.83417200  1
  S  S13  1  0.75000000  0.46924300  0.83417200  1
  S  S14  1  0.25000000  0.90244800  0.67926900  1
  S  S15  1  0.25000000  0.59755200  0.67926900  1
  S  S16  1  0.75000000  0.09755200  0.32073100  1
  S  S17  1  0.75000000  0.40244800  0.32073100  1
  S  S18  1  0.25000000  0.32226500  0.99332400  1
  S  S19  1  0.25000000  0.17773500  0.99332400  1
  S  S20  1  0.75000000  0.67773500  0.00667600  1
  S  S21  1  0.75000000  0.82226500  0.00667600  1
  S  S22  1  0.25000000  0.33841100  0.62724500  1
  S  S23  1  0.25000000  0.16158900  0.62724500  1
  S  S24  1  0.75000000  0.66158900  0.37275500  1
  S  S25  1  0.75000000  0.83841100  0.37275500  1
  S  S26  1  0.25000000  0.25000000  0.34867100  1
  S  S27  1  0.75000000  0.75000000  0.65132900  1
