# generated using pymatgen
data_KBaSb
_symmetry_space_group_name_H-M   'P 1'
_cell_length_a   5.61007211
_cell_length_b   5.61007142
_cell_length_c   5.61007200
_cell_angle_alpha   59.99999659
_cell_angle_beta   60.00000067
_cell_angle_gamma   59.99999977
_symmetry_Int_Tables_number   1
_chemical_formula_structural   KBaSb
_chemical_formula_sum   'K1 Ba1 Sb1'
_cell_volume   124.85049297
_cell_formula_units_Z   1
loop_
 _symmetry_equiv_pos_site_id
 _symmetry_equiv_pos_as_xyz
  1  'x, y, z'
loop_
 _atom_site_type_symbol
 _atom_site_label
 _atom_site_symmetry_multiplicity
 _atom_site_fract_x
 _atom_site_fract_y
 _atom_site_fract_z
 _atom_site_occupancy
  K  K0  1  0.25000000  0.25000000  0.25000000  1
  Ba  Ba1  1  0.50000000  0.50000000  0.50000000  1
  Sb  Sb2  1  0.00000000  0.00000000  0.00000000  1
