# generated using pymatgen
data_Tl4SnS3
_symmetry_space_group_name_H-M   'P 1'
_cell_length_a   8.14444000
_cell_length_b   8.14444000
_cell_length_c   14.51139500
_cell_angle_alpha   90.00000000
_cell_angle_beta   90.00000000
_cell_angle_gamma   90.00000000
_symmetry_Int_Tables_number   1
_chemical_formula_structural   Tl4SnS3
_chemical_formula_sum   'Tl16 Sn4 S12'
_cell_volume   962.56844428
_cell_formula_units_Z   4
loop_
 _symmetry_equiv_pos_site_id
 _symmetry_equiv_pos_as_xyz
  1  'x, y, z'
loop_
 _atom_site_type_symbol
 _atom_site_label
 _atom_site_symmetry_multiplicity
 _atom_site_fract_x
 _atom_site_fract_y
 _atom_site_fract_z
 _atom_site_occupancy
  Tl  Tl0  1  0.14033500  0.15952600  0.60923800  1
  Tl  Tl1  1  0.85966500  0.84047400  0.60923800  1
  Tl  Tl2  1  0.15952600  0.14033500  0.89076200  1
  Tl  Tl3  1  0.65952600  0.35966500  0.60923800  1
  Tl  Tl4  1  0.34047400  0.64033500  0.60923800  1
  Tl  Tl5  1  0.35966500  0.65952600  0.89076200  1
  Tl  Tl6  1  0.64033500  0.34047400  0.89076200  1
  Tl  Tl7  1  0.84047400  0.85966500  0.89076200  1
  Tl  Tl8  1  0.35966500  0.34047400  0.39076200  1
  Tl  Tl9  1  0.64033500  0.65952600  0.39076200  1
  Tl  Tl10  1  0.34047400  0.35966500  0.10923800  1
  Tl  Tl11  1  0.84047400  0.14033500  0.39076200  1
  Tl  Tl12  1  0.15952600  0.85966500  0.39076200  1
  Tl  Tl13  1  0.14033500  0.84047400  0.10923800  1
  Tl  Tl14  1  0.85966500  0.15952600  0.10923800  1
  Tl  Tl15  1  0.65952600  0.64033500  0.10923800  1
  Sn  Sn16  1  0.50000000  0.00000000  0.74004600  1
  Sn  Sn17  1  0.00000000  0.50000000  0.75995400  1
  Sn  Sn18  1  0.00000000  0.50000000  0.25995400  1
  Sn  Sn19  1  0.50000000  0.00000000  0.24004600  1
  S  S20  1  0.17027600  0.82972400  0.75000000  1
  S  S21  1  0.67027600  0.67027600  0.75000000  1
  S  S22  1  0.32972400  0.32972400  0.75000000  1
  S  S23  1  0.82972400  0.17027600  0.75000000  1
  S  S24  1  0.32972400  0.67027600  0.25000000  1
  S  S25  1  0.82972400  0.82972400  0.25000000  1
  S  S26  1  0.17027600  0.17027600  0.25000000  1
  S  S27  1  0.50000000  0.00000000  0.41470300  1
  S  S28  1  0.67027600  0.32972400  0.25000000  1
  S  S29  1  0.00000000  0.50000000  0.58529700  1
  S  S30  1  0.00000000  0.50000000  0.08529700  1
  S  S31  1  0.50000000  0.00000000  0.91470300  1
