# generated using pymatgen
data_Mg5Sc
_symmetry_space_group_name_H-M   'P 1'
_cell_length_a   6.18077054
_cell_length_b   6.18077054
_cell_length_c   7.57704139
_cell_angle_alpha   75.48134839
_cell_angle_beta   75.48134839
_cell_angle_gamma   29.97462375
_symmetry_Int_Tables_number   1
_chemical_formula_structural   Mg5Sc
_chemical_formula_sum   'Mg5 Sc1'
_cell_volume   139.66268146
_cell_formula_units_Z   1
loop_
 _symmetry_equiv_pos_site_id
 _symmetry_equiv_pos_as_xyz
  1  'x, y, z'
loop_
 _atom_site_type_symbol
 _atom_site_label
 _atom_site_symmetry_multiplicity
 _atom_site_fract_x
 _atom_site_fract_y
 _atom_site_fract_z
 _atom_site_occupancy
  Mg  Mg0  1  0.99912400  0.99912400  0.00212700  1
  Mg  Mg1  1  0.27804200  0.27804200  0.94435800  1
  Mg  Mg2  1  0.66617000  0.66617000  0.66487900  1
  Mg  Mg3  1  0.94328900  0.94328900  0.61353300  1
  Mg  Mg4  1  0.33443000  0.33443000  0.33352800  1
  Sc  Sc5  1  0.61227900  0.61227900  0.27490800  1
