# generated using pymatgen
data_SbPH4(O2F3)2
_symmetry_space_group_name_H-M   'P 1'
_cell_length_a   5.17117075
_cell_length_b   5.17117075
_cell_length_c   14.31610721
_cell_angle_alpha   86.27013050
_cell_angle_beta   86.27013050
_cell_angle_gamma   98.08876811
_symmetry_Int_Tables_number   1
_chemical_formula_structural   SbPH4(O2F3)2
_chemical_formula_sum   'Sb2 P2 H8 O8 F12'
_cell_volume   377.14727123
_cell_formula_units_Z   2
loop_
 _symmetry_equiv_pos_site_id
 _symmetry_equiv_pos_as_xyz
  1  'x, y, z'
loop_
 _atom_site_type_symbol
 _atom_site_label
 _atom_site_symmetry_multiplicity
 _atom_site_fract_x
 _atom_site_fract_y
 _atom_site_fract_z
 _atom_site_occupancy
  Sb  Sb0  1  0.50000000  0.50000000  0.50000000  1
  Sb  Sb1  1  0.50000000  0.50000000  0.00000000  1
  P  P2  1  0.87498800  0.12501200  0.75000000  1
  P  P3  1  0.12501200  0.87498800  0.25000000  1
  H  H4  1  0.91368800  0.00239500  0.60647800  1
  H  H5  1  0.99760500  0.08631200  0.89352200  1
  H  H6  1  0.08631200  0.99760500  0.39352200  1
  H  H7  1  0.00239500  0.91368800  0.10647800  1
  H  H8  1  0.49586300  0.90288400  0.80312700  1
  H  H9  1  0.09711600  0.50413700  0.69687300  1
  H  H10  1  0.50413700  0.09711600  0.19687300  1
  H  H11  1  0.90288400  0.49586300  0.30312700  1
  O  O12  1  0.99274900  0.98738700  0.66699600  1
  O  O13  1  0.01261300  0.00725100  0.83300400  1
  O  O14  1  0.00725100  0.01261300  0.33300400  1
  O  O15  1  0.98738700  0.99274900  0.16699600  1
  O  O16  1  0.57187700  0.06902200  0.76602500  1
  O  O17  1  0.93097800  0.42812300  0.73397500  1
  O  O18  1  0.42812300  0.93097800  0.23397500  1
  O  O19  1  0.06902200  0.57187700  0.26602500  1
  F  F20  1  0.37568700  0.58921500  0.62315700  1
  F  F21  1  0.41078500  0.62431300  0.87684300  1
  F  F22  1  0.62431300  0.41078500  0.37684300  1
  F  F23  1  0.58921500  0.37568700  0.12315700  1
  F  F24  1  0.62206000  0.20000700  0.55747000  1
  F  F25  1  0.79999300  0.37794000  0.94253000  1
  F  F26  1  0.37794000  0.79999300  0.44253000  1
  F  F27  1  0.20000700  0.62206000  0.05747000  1
  F  F28  1  0.16903700  0.29226700  0.48596700  1
  F  F29  1  0.70773300  0.83096300  0.01403300  1
  F  F30  1  0.83096300  0.70773300  0.51403300  1
  F  F31  1  0.29226700  0.16903700  0.98596700  1
