# generated using pymatgen
data_Lu
_symmetry_space_group_name_H-M   'P 1'
_cell_length_a   8.58278938
_cell_length_b   8.58278938
_cell_length_c   8.58279008
_cell_angle_alpha   23.44171323
_cell_angle_beta   23.44171323
_cell_angle_gamma   23.44171467
_symmetry_Int_Tables_number   1
_chemical_formula_structural   Lu
_chemical_formula_sum   Lu3
_cell_volume   87.86046330
_cell_formula_units_Z   3
loop_
 _symmetry_equiv_pos_site_id
 _symmetry_equiv_pos_as_xyz
  1  'x, y, z'
loop_
 _atom_site_type_symbol
 _atom_site_label
 _atom_site_symmetry_multiplicity
 _atom_site_fract_x
 _atom_site_fract_y
 _atom_site_fract_z
 _atom_site_occupancy
  Lu  Lu0  1  0.00000000  0.00000000  0.00000000  1
  Lu  Lu1  1  0.22192700  0.22192700  0.22192700  1
  Lu  Lu2  1  0.77807300  0.77807300  0.77807300  1
