# generated using pymatgen
data_In3Cu
_symmetry_space_group_name_H-M   'P 1'
_cell_length_a   7.04761781
_cell_length_b   7.04761781
_cell_length_c   4.42876000
_cell_angle_alpha   90.00000000
_cell_angle_beta   90.00000000
_cell_angle_gamma   119.99999818
_symmetry_Int_Tables_number   1
_chemical_formula_structural   In3Cu
_chemical_formula_sum   'In6 Cu2'
_cell_volume   190.50109394
_cell_formula_units_Z   2
loop_
 _symmetry_equiv_pos_site_id
 _symmetry_equiv_pos_as_xyz
  1  'x, y, z'
loop_
 _atom_site_type_symbol
 _atom_site_label
 _atom_site_symmetry_multiplicity
 _atom_site_fract_x
 _atom_site_fract_y
 _atom_site_fract_z
 _atom_site_occupancy
  In  In0  1  0.18049700  0.36099500  0.25000000  1
  In  In1  1  0.63900500  0.81950300  0.25000000  1
  In  In2  1  0.18049700  0.81950300  0.25000000  1
  In  In3  1  0.81950300  0.63900500  0.75000000  1
  In  In4  1  0.36099500  0.18049700  0.75000000  1
  In  In5  1  0.81950300  0.18049700  0.75000000  1
  Cu  Cu6  1  0.33333300  0.66666700  0.75000000  1
  Cu  Cu7  1  0.66666700  0.33333300  0.25000000  1
