# generated using pymatgen
data_ReH3
_symmetry_space_group_name_H-M   'P 1'
_cell_length_a   4.40221386
_cell_length_b   4.40221386
_cell_length_c   2.90084500
_cell_angle_alpha   90.00000000
_cell_angle_beta   90.00000000
_cell_angle_gamma   119.99999796
_symmetry_Int_Tables_number   1
_chemical_formula_structural   ReH3
_chemical_formula_sum   'Re2 H6'
_cell_volume   48.68525387
_cell_formula_units_Z   2
loop_
 _symmetry_equiv_pos_site_id
 _symmetry_equiv_pos_as_xyz
  1  'x, y, z'
loop_
 _atom_site_type_symbol
 _atom_site_label
 _atom_site_symmetry_multiplicity
 _atom_site_fract_x
 _atom_site_fract_y
 _atom_site_fract_z
 _atom_site_occupancy
  Re  Re0  1  0.33333300  0.66666700  0.75000000  1
  Re  Re1  1  0.66666700  0.33333300  0.25000000  1
  H  H2  1  0.16586700  0.33173300  0.25000000  1
  H  H3  1  0.66826700  0.83413300  0.25000000  1
  H  H4  1  0.16586700  0.83413300  0.25000000  1
  H  H5  1  0.83413300  0.66826700  0.75000000  1
  H  H6  1  0.33173300  0.16586700  0.75000000  1
  H  H7  1  0.83413300  0.16586700  0.75000000  1
