# generated using pymatgen
data_K2Al2O3F2
_symmetry_space_group_name_H-M   'P 1'
_cell_length_a   7.04136567
_cell_length_b   7.04136567
_cell_length_c   6.18684024
_cell_angle_alpha   88.97840545
_cell_angle_beta   88.97840545
_cell_angle_gamma   72.08602068
_symmetry_Int_Tables_number   1
_chemical_formula_structural   K2Al2O3F2
_chemical_formula_sum   'K4 Al4 O6 F4'
_cell_volume   291.80634746
_cell_formula_units_Z   2
loop_
 _symmetry_equiv_pos_site_id
 _symmetry_equiv_pos_as_xyz
  1  'x, y, z'
loop_
 _atom_site_type_symbol
 _atom_site_label
 _atom_site_symmetry_multiplicity
 _atom_site_fract_x
 _atom_site_fract_y
 _atom_site_fract_z
 _atom_site_occupancy
  K  K0  1  0.84176400  0.84176400  0.66981800  1
  K  K1  1  0.60155700  0.60155700  0.25585800  1
  K  K2  1  0.39844300  0.39844300  0.74414200  1
  K  K3  1  0.15823600  0.15823600  0.33018200  1
  Al  Al4  1  0.92431600  0.32620200  0.85520700  1
  Al  Al5  1  0.67379800  0.07568400  0.14479300  1
  Al  Al6  1  0.32620200  0.92431600  0.85520700  1
  Al  Al7  1  0.07568400  0.67379800  0.14479300  1
  O  O8  1  0.00000000  0.50000000  0.00000000  1
  O  O9  1  0.87790500  0.87790500  0.23316700  1
  O  O10  1  0.73785300  0.26214700  0.00000000  1
  O  O11  1  0.50000000  0.00000000  0.00000000  1
  O  O12  1  0.26214700  0.73785300  0.00000000  1
  O  O13  1  0.12209500  0.12209500  0.76683300  1
  F  F14  1  0.81649100  0.44632000  0.61401900  1
  F  F15  1  0.55368000  0.18350900  0.38598100  1
  F  F16  1  0.44632000  0.81649100  0.61401900  1
  F  F17  1  0.18350900  0.55368000  0.38598100  1
