# generated using pymatgen
data_ReH6CN3O4
_symmetry_space_group_name_H-M   'P 1'
_cell_length_a   5.05466200
_cell_length_b   7.86407521
_cell_length_c   8.60249138
_cell_angle_alpha   105.18718731
_cell_angle_beta   88.75122154
_cell_angle_gamma   98.73030557
_symmetry_Int_Tables_number   1
_chemical_formula_structural   ReH6CN3O4
_chemical_formula_sum   'Re2 H12 C2 N6 O8'
_cell_volume   326.12706013
_cell_formula_units_Z   2
loop_
 _symmetry_equiv_pos_site_id
 _symmetry_equiv_pos_as_xyz
  1  'x, y, z'
loop_
 _atom_site_type_symbol
 _atom_site_label
 _atom_site_symmetry_multiplicity
 _atom_site_fract_x
 _atom_site_fract_y
 _atom_site_fract_z
 _atom_site_occupancy
  Re  Re0  1  0.00278300  0.74544400  0.68506900  1
  Re  Re1  1  0.99721700  0.25455600  0.31493100  1
  H  H2  1  0.20140200  0.39852400  0.96453300  1
  H  H3  1  0.49594000  0.75401700  0.94159600  1
  H  H4  1  0.68780900  0.10932800  0.91780400  1
  H  H5  1  0.18438000  0.39160500  0.76024200  1
  H  H6  1  0.68166000  0.10765500  0.65165100  1
  H  H7  1  0.48148500  0.23313300  0.57931700  1
  H  H8  1  0.51851500  0.76686700  0.42068300  1
  H  H9  1  0.31834000  0.89234500  0.34834900  1
  H  H10  1  0.81562000  0.60839500  0.23975800  1
  H  H11  1  0.31219100  0.89067200  0.08219600  1
  H  H12  1  0.50406000  0.24598300  0.05840400  1
  H  H13  1  0.79859800  0.60147600  0.03546700  1
  C  C14  1  0.45269800  0.24788600  0.82123900  1
  C  C15  1  0.54730200  0.75211400  0.17876100  1
  N  N16  1  0.55039400  0.19459800  0.94190100  1
  N  N17  1  0.27935200  0.36503100  0.85232900  1
  N  N18  1  0.53170200  0.18290900  0.67030700  1
  N  N19  1  0.46829800  0.81709100  0.32969300  1
  N  N20  1  0.72064800  0.63496900  0.14767100  1
  N  N21  1  0.44960600  0.80540200  0.05809900  1
  O  O22  1  0.86165500  0.60687600  0.80590600  1
  O  O23  1  0.93570500  0.96337700  0.76579300  1
  O  O24  1  0.35147500  0.75567500  0.68517500  1
  O  O25  1  0.12453700  0.33613000  0.51320700  1
  O  O26  1  0.87546300  0.66387000  0.48679300  1
  O  O27  1  0.64852500  0.24432500  0.31482500  1
  O  O28  1  0.06429500  0.03662300  0.23420700  1
  O  O29  1  0.13834500  0.39312400  0.19409400  1
