# generated using pymatgen
data_Rb3Mg
_symmetry_space_group_name_H-M   'P 1'
_cell_length_a   8.55258981
_cell_length_b   8.55258981
_cell_length_c   8.55258981
_cell_angle_alpha   145.76094741
_cell_angle_beta   128.56540041
_cell_angle_gamma   63.24959141
_symmetry_Int_Tables_number   1
_chemical_formula_structural   Rb3Mg
_chemical_formula_sum   'Rb3 Mg1'
_cell_volume   272.17368824
_cell_formula_units_Z   1
loop_
 _symmetry_equiv_pos_site_id
 _symmetry_equiv_pos_as_xyz
  1  'x, y, z'
loop_
 _atom_site_type_symbol
 _atom_site_label
 _atom_site_symmetry_multiplicity
 _atom_site_fract_x
 _atom_site_fract_y
 _atom_site_fract_z
 _atom_site_occupancy
  Rb  Rb0  1  0.75948400  0.70863300  0.05085100  1
  Rb  Rb1  1  0.09038300  0.50000000  0.59038300  1
  Rb  Rb2  1  0.34221900  0.29136700  0.05085100  1
  Mg  Mg3  1  0.64124400  0.00000000  0.64124400  1
