# generated using pymatgen
data_RbHg3
_symmetry_space_group_name_H-M   'P 1'
_cell_length_a   7.64303794
_cell_length_b   7.64303794
_cell_length_c   5.64681800
_cell_angle_alpha   90.00000000
_cell_angle_beta   90.00000000
_cell_angle_gamma   119.99999947
_symmetry_Int_Tables_number   1
_chemical_formula_structural   RbHg3
_chemical_formula_sum   'Rb2 Hg6'
_cell_volume   285.67119742
_cell_formula_units_Z   2
loop_
 _symmetry_equiv_pos_site_id
 _symmetry_equiv_pos_as_xyz
  1  'x, y, z'
loop_
 _atom_site_type_symbol
 _atom_site_label
 _atom_site_symmetry_multiplicity
 _atom_site_fract_x
 _atom_site_fract_y
 _atom_site_fract_z
 _atom_site_occupancy
  Rb  Rb0  1  0.33333300  0.66666700  0.75000000  1
  Rb  Rb1  1  0.66666700  0.33333300  0.25000000  1
  Hg  Hg2  1  0.14477900  0.28955700  0.25000000  1
  Hg  Hg3  1  0.71044300  0.85522100  0.25000000  1
  Hg  Hg4  1  0.14477900  0.85522100  0.25000000  1
  Hg  Hg5  1  0.85522100  0.71044300  0.75000000  1
  Hg  Hg6  1  0.28955700  0.14477900  0.75000000  1
  Hg  Hg7  1  0.85522100  0.14477900  0.75000000  1
