# generated using pymatgen
data_RbF3
_symmetry_space_group_name_H-M   'P 1'
_cell_length_a   5.91934180
_cell_length_b   5.91934180
_cell_length_c   5.41516400
_cell_angle_alpha   90.00000000
_cell_angle_beta   90.00000000
_cell_angle_gamma   117.13571499
_symmetry_Int_Tables_number   1
_chemical_formula_structural   RbF3
_chemical_formula_sum   'Rb2 F6'
_cell_volume   168.85489266
_cell_formula_units_Z   2
loop_
 _symmetry_equiv_pos_site_id
 _symmetry_equiv_pos_as_xyz
  1  'x, y, z'
loop_
 _atom_site_type_symbol
 _atom_site_label
 _atom_site_symmetry_multiplicity
 _atom_site_fract_x
 _atom_site_fract_y
 _atom_site_fract_z
 _atom_site_occupancy
  Rb  Rb0  1  0.85441800  0.14558200  0.25000000  1
  Rb  Rb1  1  0.14558200  0.85441800  0.75000000  1
  F  F2  1  0.64544500  0.87603000  0.75000000  1
  F  F3  1  0.12397000  0.35455500  0.75000000  1
  F  F4  1  0.75508200  0.24491800  0.75000000  1
  F  F5  1  0.35455500  0.12397000  0.25000000  1
  F  F6  1  0.87603000  0.64544500  0.25000000  1
  F  F7  1  0.24491800  0.75508200  0.25000000  1
