# generated using pymatgen
data_Pr3Cl
_symmetry_space_group_name_H-M   'P 1'
_cell_length_a   7.03893070
_cell_length_b   7.03893070
_cell_length_c   5.68750600
_cell_angle_alpha   90.00000000
_cell_angle_beta   90.00000000
_cell_angle_gamma   120.00000655
_symmetry_Int_Tables_number   1
_chemical_formula_structural   Pr3Cl
_chemical_formula_sum   'Pr6 Cl2'
_cell_volume   244.04271585
_cell_formula_units_Z   2
loop_
 _symmetry_equiv_pos_site_id
 _symmetry_equiv_pos_as_xyz
  1  'x, y, z'
loop_
 _atom_site_type_symbol
 _atom_site_label
 _atom_site_symmetry_multiplicity
 _atom_site_fract_x
 _atom_site_fract_y
 _atom_site_fract_z
 _atom_site_occupancy
  Pr  Pr0  1  0.16847000  0.33694100  0.25000000  1
  Pr  Pr1  1  0.66305900  0.83153000  0.25000000  1
  Pr  Pr2  1  0.16847000  0.83153000  0.25000000  1
  Pr  Pr3  1  0.83153000  0.66305900  0.75000000  1
  Pr  Pr4  1  0.33694100  0.16847000  0.75000000  1
  Pr  Pr5  1  0.83153000  0.16847000  0.75000000  1
  Cl  Cl6  1  0.33333300  0.66666700  0.75000000  1
  Cl  Cl7  1  0.66666700  0.33333300  0.25000000  1
