# generated using pymatgen
data_ReO3
_symmetry_space_group_name_H-M   'P 1'
_cell_length_a   4.91557490
_cell_length_b   4.91557490
_cell_length_c   4.50536300
_cell_angle_alpha   90.00000000
_cell_angle_beta   90.00000000
_cell_angle_gamma   120.00001214
_symmetry_Int_Tables_number   1
_chemical_formula_structural   ReO3
_chemical_formula_sum   'Re2 O6'
_cell_volume   94.27770522
_cell_formula_units_Z   2
loop_
 _symmetry_equiv_pos_site_id
 _symmetry_equiv_pos_as_xyz
  1  'x, y, z'
loop_
 _atom_site_type_symbol
 _atom_site_label
 _atom_site_symmetry_multiplicity
 _atom_site_fract_x
 _atom_site_fract_y
 _atom_site_fract_z
 _atom_site_occupancy
  Re  Re0  1  0.66666700  0.33333300  0.75000000  1
  Re  Re1  1  0.33333300  0.66666700  0.25000000  1
  O  O2  1  0.62507500  0.00000000  0.50000000  1
  O  O3  1  0.62507500  0.62507500  0.00000000  1
  O  O4  1  0.37492500  0.00000000  0.00000000  1
  O  O5  1  0.37492500  0.37492500  0.50000000  1
  O  O6  1  0.00000000  0.62507500  0.50000000  1
  O  O7  1  0.00000000  0.37492500  0.00000000  1
