# generated using pymatgen
data_La3Sn4
_symmetry_space_group_name_H-M   'P 1'
_cell_length_a   6.42683411
_cell_length_b   6.42683411
_cell_length_c   16.03025900
_cell_angle_alpha   90.00000000
_cell_angle_beta   90.00000000
_cell_angle_gamma   138.35861850
_symmetry_Int_Tables_number   1
_chemical_formula_structural   La3Sn4
_chemical_formula_sum   'La6 Sn8'
_cell_volume   439.95430284
_cell_formula_units_Z   2
loop_
 _symmetry_equiv_pos_site_id
 _symmetry_equiv_pos_as_xyz
  1  'x, y, z'
loop_
 _atom_site_type_symbol
 _atom_site_label
 _atom_site_symmetry_multiplicity
 _atom_site_fract_x
 _atom_site_fract_y
 _atom_site_fract_z
 _atom_site_occupancy
  La  La0  1  0.67180000  0.32820000  0.09755700  1
  La  La1  1  0.95728500  0.04271500  0.25000000  1
  La  La2  1  0.67180000  0.32820000  0.40244300  1
  La  La3  1  0.32820000  0.67180000  0.59755700  1
  La  La4  1  0.04271500  0.95728500  0.75000000  1
  La  La5  1  0.32820000  0.67180000  0.90244300  1
  Sn  Sn6  1  0.00000000  0.00000000  0.00000000  1
  Sn  Sn7  1  0.38367700  0.61632300  0.10702400  1
  Sn  Sn8  1  0.22721000  0.77279000  0.25000000  1
  Sn  Sn9  1  0.38367700  0.61632300  0.39297600  1
  Sn  Sn10  1  0.00000000  0.00000000  0.50000000  1
  Sn  Sn11  1  0.61632300  0.38367700  0.60702400  1
  Sn  Sn12  1  0.77279000  0.22721000  0.75000000  1
  Sn  Sn13  1  0.61632300  0.38367700  0.89297600  1
