# generated using pymatgen
data_Ni3Hg
_symmetry_space_group_name_H-M   'P 1'
_cell_length_a   5.33630638
_cell_length_b   5.33630638
_cell_length_c   4.27025000
_cell_angle_alpha   90.00000000
_cell_angle_beta   90.00000000
_cell_angle_gamma   120.00000474
_symmetry_Int_Tables_number   1
_chemical_formula_structural   Ni3Hg
_chemical_formula_sum   'Ni6 Hg2'
_cell_volume   105.30898461
_cell_formula_units_Z   2
loop_
 _symmetry_equiv_pos_site_id
 _symmetry_equiv_pos_as_xyz
  1  'x, y, z'
loop_
 _atom_site_type_symbol
 _atom_site_label
 _atom_site_symmetry_multiplicity
 _atom_site_fract_x
 _atom_site_fract_y
 _atom_site_fract_z
 _atom_site_occupancy
  Ni  Ni0  1  0.15556100  0.31112100  0.25000000  1
  Ni  Ni1  1  0.68887900  0.84443900  0.25000000  1
  Ni  Ni2  1  0.15556100  0.84443900  0.25000000  1
  Ni  Ni3  1  0.84443900  0.68887900  0.75000000  1
  Ni  Ni4  1  0.31112100  0.15556100  0.75000000  1
  Ni  Ni5  1  0.84443900  0.15556100  0.75000000  1
  Hg  Hg6  1  0.33333300  0.66666700  0.75000000  1
  Hg  Hg7  1  0.66666700  0.33333300  0.25000000  1
