# generated using pymatgen
data_MgPb5
_symmetry_space_group_name_H-M   'P 1'
_cell_length_a   9.14640357
_cell_length_b   9.14640357
_cell_length_c   5.77074700
_cell_angle_alpha   90.00000000
_cell_angle_beta   90.00000000
_cell_angle_gamma   157.73789080
_symmetry_Int_Tables_number   1
_chemical_formula_structural   MgPb5
_chemical_formula_sum   'Mg1 Pb5'
_cell_volume   182.89145603
_cell_formula_units_Z   1
loop_
 _symmetry_equiv_pos_site_id
 _symmetry_equiv_pos_as_xyz
  1  'x, y, z'
loop_
 _atom_site_type_symbol
 _atom_site_label
 _atom_site_symmetry_multiplicity
 _atom_site_fract_x
 _atom_site_fract_y
 _atom_site_fract_z
 _atom_site_occupancy
  Mg  Mg0  1  0.77769100  0.22230900  0.00000000  1
  Pb  Pb1  1  0.00049600  0.99950400  0.50000000  1
  Pb  Pb2  1  0.33065000  0.66935000  0.50000000  1
  Pb  Pb3  1  0.66821400  0.33178600  0.50000000  1
  Pb  Pb4  1  0.43810100  0.56189900  0.00000000  1
  Pb  Pb5  1  0.11817200  0.88182800  0.00000000  1
