# generated using pymatgen
data_MgRh5
_symmetry_space_group_name_H-M   'P 1'
_cell_length_a   5.14888581
_cell_length_b   5.14888581
_cell_length_c   6.59040402
_cell_angle_alpha   76.11211486
_cell_angle_beta   76.11211486
_cell_angle_gamma   31.25193699
_symmetry_Int_Tables_number   1
_chemical_formula_structural   MgRh5
_chemical_formula_sum   'Mg1 Rh5'
_cell_volume   87.78382350
_cell_formula_units_Z   1
loop_
 _symmetry_equiv_pos_site_id
 _symmetry_equiv_pos_as_xyz
  1  'x, y, z'
loop_
 _atom_site_type_symbol
 _atom_site_label
 _atom_site_symmetry_multiplicity
 _atom_site_fract_x
 _atom_site_fract_y
 _atom_site_fract_z
 _atom_site_occupancy
  Mg  Mg0  1  0.61364500  0.61364500  0.27861100  1
  Rh  Rh1  1  0.99549500  0.99549500  0.99712400  1
  Rh  Rh2  1  0.27549800  0.27549800  0.94573500  1
  Rh  Rh3  1  0.66728900  0.66728900  0.66927000  1
  Rh  Rh4  1  0.94215900  0.94215900  0.61270000  1
  Rh  Rh5  1  0.33924700  0.33924700  0.32989400  1
