# generated using pymatgen
data_Zr2ZnAg2F14
_symmetry_space_group_name_H-M   'P 1'
_cell_length_a   5.61036316
_cell_length_b   5.61036316
_cell_length_c   9.43057275
_cell_angle_alpha   89.24576961
_cell_angle_beta   89.24576961
_cell_angle_gamma   73.56189772
_symmetry_Int_Tables_number   1
_chemical_formula_structural   Zr2ZnAg2F14
_chemical_formula_sum   'Zr2 Zn1 Ag2 F14'
_cell_volume   284.66693204
_cell_formula_units_Z   1
loop_
 _symmetry_equiv_pos_site_id
 _symmetry_equiv_pos_as_xyz
  1  'x, y, z'
loop_
 _atom_site_type_symbol
 _atom_site_label
 _atom_site_symmetry_multiplicity
 _atom_site_fract_x
 _atom_site_fract_y
 _atom_site_fract_z
 _atom_site_occupancy
  Zr  Zr0  1  0.88431900  0.88431900  0.19814700  1
  Zr  Zr1  1  0.11568100  0.11568100  0.80185300  1
  Zn  Zn2  1  0.50000000  0.50000000  0.00000000  1
  Ag  Ag3  1  0.30747500  0.30747500  0.38444100  1
  Ag  Ag4  1  0.69252500  0.69252500  0.61555900  1
  F  F5  1  0.00000000  0.00000000  0.00000000  1
  F  F6  1  0.59211000  0.17976300  0.12400600  1
  F  F7  1  0.17976300  0.59211000  0.12400600  1
  F  F8  1  0.66500500  0.66500500  0.14460600  1
  F  F9  1  0.09484900  0.09484900  0.27661500  1
  F  F10  1  0.63976400  0.00382800  0.37455700  1
  F  F11  1  0.00382800  0.63976400  0.37455700  1
  F  F12  1  0.50000000  0.50000000  0.50000000  1
  F  F13  1  0.99617200  0.36023600  0.62544300  1
  F  F14  1  0.36023600  0.99617200  0.62544300  1
  F  F15  1  0.90515100  0.90515100  0.72338500  1
  F  F16  1  0.33499500  0.33499500  0.85539400  1
  F  F17  1  0.82023700  0.40789000  0.87599400  1
  F  F18  1  0.40789000  0.82023700  0.87599400  1
