# generated using pymatgen
data_PrLu3
_symmetry_space_group_name_H-M   'P 1'
_cell_length_a   7.16205785
_cell_length_b   7.16205785
_cell_length_c   5.62593800
_cell_angle_alpha   90.00000000
_cell_angle_beta   90.00000000
_cell_angle_gamma   119.99999863
_symmetry_Int_Tables_number   1
_chemical_formula_structural   PrLu3
_chemical_formula_sum   'Pr2 Lu6'
_cell_volume   249.92012469
_cell_formula_units_Z   2
loop_
 _symmetry_equiv_pos_site_id
 _symmetry_equiv_pos_as_xyz
  1  'x, y, z'
loop_
 _atom_site_type_symbol
 _atom_site_label
 _atom_site_symmetry_multiplicity
 _atom_site_fract_x
 _atom_site_fract_y
 _atom_site_fract_z
 _atom_site_occupancy
  Pr  Pr0  1  0.33333300  0.66666700  0.75000000  1
  Pr  Pr1  1  0.66666700  0.33333300  0.25000000  1
  Lu  Lu2  1  0.16391700  0.32783400  0.25000000  1
  Lu  Lu3  1  0.67216600  0.83608300  0.25000000  1
  Lu  Lu4  1  0.16391700  0.83608300  0.25000000  1
  Lu  Lu5  1  0.83608300  0.67216600  0.75000000  1
  Lu  Lu6  1  0.32783400  0.16391700  0.75000000  1
  Lu  Lu7  1  0.83608300  0.16391700  0.75000000  1
