# generated using pymatgen
data_PrMo3
_symmetry_space_group_name_H-M   'P 1'
_cell_length_a   6.80663627
_cell_length_b   6.80663627
_cell_length_c   4.42783700
_cell_angle_alpha   90.00000000
_cell_angle_beta   90.00000000
_cell_angle_gamma   120.00000261
_symmetry_Int_Tables_number   1
_chemical_formula_structural   PrMo3
_chemical_formula_sum   'Pr2 Mo6'
_cell_volume   177.65904868
_cell_formula_units_Z   2
loop_
 _symmetry_equiv_pos_site_id
 _symmetry_equiv_pos_as_xyz
  1  'x, y, z'
loop_
 _atom_site_type_symbol
 _atom_site_label
 _atom_site_symmetry_multiplicity
 _atom_site_fract_x
 _atom_site_fract_y
 _atom_site_fract_z
 _atom_site_occupancy
  Pr  Pr0  1  0.33333300  0.66666700  0.75000000  1
  Pr  Pr1  1  0.66666700  0.33333300  0.25000000  1
  Mo  Mo2  1  0.12976500  0.25953000  0.25000000  1
  Mo  Mo3  1  0.74047000  0.87023500  0.25000000  1
  Mo  Mo4  1  0.12976500  0.87023500  0.25000000  1
  Mo  Mo5  1  0.87023500  0.74047000  0.75000000  1
  Mo  Mo6  1  0.25953000  0.12976500  0.75000000  1
  Mo  Mo7  1  0.87023500  0.12976500  0.75000000  1
