# generated using pymatgen
data_Si(H3C)4
_symmetry_space_group_name_H-M   'P 1'
_cell_length_a   10.54898400
_cell_length_b   10.54898400
_cell_length_c   10.54898400
_cell_angle_alpha   90.00000000
_cell_angle_beta   90.00000000
_cell_angle_gamma   90.00000000
_symmetry_Int_Tables_number   1
_chemical_formula_structural   Si(H3C)4
_chemical_formula_sum   'Si8 H96 C32'
_cell_volume   1173.90215765
_cell_formula_units_Z   8
loop_
 _symmetry_equiv_pos_site_id
 _symmetry_equiv_pos_as_xyz
  1  'x, y, z'
loop_
 _atom_site_type_symbol
 _atom_site_label
 _atom_site_symmetry_multiplicity
 _atom_site_fract_x
 _atom_site_fract_y
 _atom_site_fract_z
 _atom_site_occupancy
  Si  Si0  1  0.13420300  0.13420300  0.13420300  1
  Si  Si1  1  0.36579700  0.86579700  0.63420300  1
  Si  Si2  1  0.63420300  0.36579700  0.86579700  1
  Si  Si3  1  0.86579700  0.63420300  0.36579700  1
  Si  Si4  1  0.86579700  0.86579700  0.86579700  1
  Si  Si5  1  0.63420300  0.13420300  0.36579700  1
  Si  Si6  1  0.36579700  0.63420300  0.13420300  1
  Si  Si7  1  0.13420300  0.36579700  0.63420300  1
  H  H8  1  0.09086000  0.96878900  0.29838900  1
  H  H9  1  0.40914000  0.03121100  0.79838900  1
  H  H10  1  0.59086000  0.53121100  0.70161100  1
  H  H11  1  0.90914000  0.46878900  0.20161100  1
  H  H12  1  0.29838900  0.09086000  0.96878900  1
  H  H13  1  0.96878900  0.29838900  0.09086000  1
  H  H14  1  0.20161100  0.90914000  0.46878900  1
  H  H15  1  0.03121100  0.79838900  0.40914000  1
  H  H16  1  0.79838900  0.40914000  0.03121100  1
  H  H17  1  0.53121100  0.70161100  0.59086000  1
  H  H18  1  0.70161100  0.59086000  0.53121100  1
  H  H19  1  0.46878900  0.20161100  0.90914000  1
  H  H20  1  0.90914000  0.03121100  0.70161100  1
  H  H21  1  0.59086000  0.96878900  0.20161100  1
  H  H22  1  0.40914000  0.46878900  0.29838900  1
  H  H23  1  0.09086000  0.53121100  0.79838900  1
  H  H24  1  0.70161100  0.90914000  0.03121100  1
  H  H25  1  0.03121100  0.70161100  0.90914000  1
  H  H26  1  0.79838900  0.09086000  0.53121100  1
  H  H27  1  0.96878900  0.20161100  0.59086000  1
  H  H28  1  0.20161100  0.59086000  0.96878900  1
  H  H29  1  0.46878900  0.29838900  0.40914000  1
  H  H30  1  0.29838900  0.40914000  0.46878900  1
  H  H31  1  0.53121100  0.79838900  0.09086000  1
  H  H32  1  0.31499400  0.28173900  0.18316600  1
  H  H33  1  0.18500600  0.71826100  0.68316600  1
  H  H34  1  0.81499400  0.21826100  0.81683400  1
  H  H35  1  0.68500600  0.78173900  0.31683400  1
  H  H36  1  0.18316600  0.31499400  0.28173900  1
  H  H37  1  0.28173900  0.18316600  0.31499400  1
  H  H38  1  0.31683400  0.68500600  0.78173900  1
  H  H39  1  0.71826100  0.68316600  0.18500600  1
  H  H40  1  0.68316600  0.18500600  0.71826100  1
  H  H41  1  0.21826100  0.81683400  0.81499400  1
  H  H42  1  0.81683400  0.81499400  0.21826100  1
  H  H43  1  0.78173900  0.31683400  0.68500600  1
  H  H44  1  0.68500600  0.71826100  0.81683400  1
  H  H45  1  0.81499400  0.28173900  0.31683400  1
  H  H46  1  0.18500600  0.78173900  0.18316600  1
  H  H47  1  0.31499400  0.21826100  0.68316600  1
  H  H48  1  0.81683400  0.68500600  0.71826100  1
  H  H49  1  0.71826100  0.81683400  0.68500600  1
  H  H50  1  0.68316600  0.31499400  0.21826100  1
  H  H51  1  0.28173900  0.31683400  0.81499400  1
  H  H52  1  0.31683400  0.81499400  0.28173900  1
  H  H53  1  0.78173900  0.18316600  0.18500600  1
  H  H54  1  0.18316600  0.18500600  0.78173900  1
  H  H55  1  0.21826100  0.68316600  0.31499400  1
  H  H56  1  0.96784400  0.96947800  0.18404600  1
  H  H57  1  0.53215600  0.03052200  0.68404600  1
  H  H58  1  0.46784400  0.53052200  0.81595400  1
  H  H59  1  0.03215600  0.46947800  0.31595400  1
  H  H60  1  0.18404600  0.96784400  0.96947800  1
  H  H61  1  0.96947800  0.18404600  0.96784400  1
  H  H62  1  0.31595400  0.03215600  0.46947800  1
  H  H63  1  0.03052200  0.68404600  0.53215600  1
  H  H64  1  0.68404600  0.53215600  0.03052200  1
  H  H65  1  0.53052200  0.81595400  0.46784400  1
  H  H66  1  0.81595400  0.46784400  0.53052200  1
  H  H67  1  0.46947800  0.31595400  0.03215600  1
  H  H68  1  0.03215600  0.03052200  0.81595400  1
  H  H69  1  0.46784400  0.96947800  0.31595400  1
  H  H70  1  0.53215600  0.46947800  0.18404600  1
  H  H71  1  0.96784400  0.53052200  0.68404600  1
  H  H72  1  0.81595400  0.03215600  0.03052200  1
  H  H73  1  0.03052200  0.81595400  0.03215600  1
  H  H74  1  0.68404600  0.96784400  0.53052200  1
  H  H75  1  0.96947800  0.31595400  0.46784400  1
  H  H76  1  0.31595400  0.46784400  0.96947800  1
  H  H77  1  0.46947800  0.18404600  0.53215600  1
  H  H78  1  0.18404600  0.53215600  0.46947800  1
  H  H79  1  0.53052200  0.68404600  0.96784400  1
  H  H80  1  0.97231800  0.08740400  0.30342700  1
  H  H81  1  0.52768200  0.91259600  0.80342700  1
  H  H82  1  0.47231800  0.41259600  0.69657300  1
  H  H83  1  0.02768200  0.58740400  0.19657300  1
  H  H84  1  0.30342700  0.97231800  0.08740400  1
  H  H85  1  0.08740400  0.30342700  0.97231800  1
  H  H86  1  0.19657300  0.02768200  0.58740400  1
  H  H87  1  0.91259600  0.80342700  0.52768200  1
  H  H88  1  0.80342700  0.52768200  0.91259600  1
  H  H89  1  0.41259600  0.69657300  0.47231800  1
  H  H90  1  0.69657300  0.47231800  0.41259600  1
  H  H91  1  0.58740400  0.19657300  0.02768200  1
  H  H92  1  0.02768200  0.91259600  0.69657300  1
  H  H93  1  0.47231800  0.08740400  0.19657300  1
  H  H94  1  0.52768200  0.58740400  0.30342700  1
  H  H95  1  0.97231800  0.41259600  0.80342700  1
  H  H96  1  0.69657300  0.02768200  0.91259600  1
  H  H97  1  0.91259600  0.69657300  0.02768200  1
  H  H98  1  0.80342700  0.97231800  0.41259600  1
  H  H99  1  0.08740400  0.19657300  0.47231800  1
  H  H100  1  0.19657300  0.47231800  0.08740400  1
  H  H101  1  0.58740400  0.30342700  0.52768200  1
  H  H102  1  0.30342700  0.52768200  0.58740400  1
  H  H103  1  0.41259600  0.80342700  0.97231800  1
  C  C104  1  0.03130000  0.03082800  0.23878500  1
  C  C105  1  0.46870000  0.96917200  0.73878500  1
  C  C106  1  0.53130000  0.46917200  0.76121500  1
  C  C107  1  0.96870000  0.53082800  0.26121500  1
  C  C108  1  0.23878500  0.03130000  0.03082800  1
  C  C109  1  0.03082800  0.23878500  0.03130000  1
  C  C110  1  0.26121500  0.96870000  0.53082800  1
  C  C111  1  0.96917200  0.73878500  0.46870000  1
  C  C112  1  0.73878500  0.46870000  0.96917200  1
  C  C113  1  0.46917200  0.76121500  0.53130000  1
  C  C114  1  0.76121500  0.53130000  0.46917200  1
  C  C115  1  0.53082800  0.26121500  0.96870000  1
  C  C116  1  0.96870000  0.96917200  0.76121500  1
  C  C117  1  0.53130000  0.03082800  0.26121500  1
  C  C118  1  0.46870000  0.53082800  0.23878500  1
  C  C119  1  0.03130000  0.46917200  0.73878500  1
  C  C120  1  0.76121500  0.96870000  0.96917200  1
  C  C121  1  0.96917200  0.76121500  0.96870000  1
  C  C122  1  0.73878500  0.03130000  0.46917200  1
  C  C123  1  0.03082800  0.26121500  0.53130000  1
  C  C124  1  0.26121500  0.53130000  0.03082800  1
  C  C125  1  0.53082800  0.23878500  0.46870000  1
  C  C126  1  0.23878500  0.46870000  0.53082800  1
  C  C127  1  0.46917200  0.73878500  0.03130000  1
  C  C128  1  0.23789000  0.23789000  0.23789000  1
  C  C129  1  0.26211000  0.76211000  0.73789000  1
  C  C130  1  0.73789000  0.26211000  0.76211000  1
  C  C131  1  0.76211000  0.73789000  0.26211000  1
  C  C132  1  0.76211000  0.76211000  0.76211000  1
  C  C133  1  0.73789000  0.23789000  0.26211000  1
  C  C134  1  0.26211000  0.73789000  0.23789000  1
  C  C135  1  0.23789000  0.26211000  0.73789000  1
