# generated using pymatgen
data_Si(H3C)2
_symmetry_space_group_name_H-M   'P 1'
_cell_length_a   9.03357100
_cell_length_b   9.24677082
_cell_length_c   9.71668402
_cell_angle_alpha   76.69316515
_cell_angle_beta   82.15680227
_cell_angle_gamma   65.91625067
_symmetry_Int_Tables_number   1
_chemical_formula_structural   Si(H3C)2
_chemical_formula_sum   'Si8 H48 C16'
_cell_volume   720.27219603
_cell_formula_units_Z   8
loop_
 _symmetry_equiv_pos_site_id
 _symmetry_equiv_pos_as_xyz
  1  'x, y, z'
loop_
 _atom_site_type_symbol
 _atom_site_label
 _atom_site_symmetry_multiplicity
 _atom_site_fract_x
 _atom_site_fract_y
 _atom_site_fract_z
 _atom_site_occupancy
  Si  Si0  1  0.82818600  0.33879100  0.33250500  1
  Si  Si1  1  0.17181400  0.66120900  0.66749500  1
  Si  Si2  1  0.01495100  0.64263200  0.07075800  1
  Si  Si3  1  0.98504900  0.35736800  0.92924200  1
  Si  Si4  1  0.03535200  0.37064500  0.16177900  1
  Si  Si5  1  0.96464800  0.62935500  0.83822100  1
  Si  Si6  1  0.29755800  0.18300200  0.23953100  1
  Si  Si7  1  0.70244200  0.81699800  0.76046900  1
  H  H8  1  0.44304800  0.18765300  0.99743800  1
  H  H9  1  0.55695200  0.81234700  0.00256200  1
  H  H10  1  0.26096300  0.20132300  0.50020000  1
  H  H11  1  0.73903700  0.79867700  0.49980000  1
  H  H12  1  0.42995600  0.87997600  0.30469700  1
  H  H13  1  0.57004400  0.12002400  0.69530300  1
  H  H14  1  0.46810700  0.13445900  0.44266600  1
  H  H15  1  0.53189300  0.86554100  0.55733400  1
  H  H16  1  0.34034000  0.34115300  0.39922900  1
  H  H17  1  0.65966000  0.65884700  0.60077100  1
  H  H18  1  0.21833100  0.94509100  0.34289300  1
  H  H19  1  0.78166900  0.05490900  0.65710700  1
  H  H20  1  0.29618200  0.93895400  0.16642400  1
  H  H21  1  0.70381800  0.06104600  0.83357600  1
  H  H22  1  0.93873400  0.03563300  0.36240600  1
  H  H23  1  0.06126600  0.96436700  0.63759400  1
  H  H24  1  0.79525900  0.12800000  0.22999500  1
  H  H25  1  0.20474100  0.87200000  0.77000500  1
  H  H26  1  0.72844600  0.11209300  0.41049200  1
  H  H27  1  0.27155400  0.88790700  0.58950800  1
  H  H28  1  0.58200200  0.51829300  0.18549900  1
  H  H29  1  0.41799800  0.48170700  0.81450100  1
  H  H30  1  0.61352600  0.62141700  0.30349300  1
  H  H31  1  0.38647400  0.37858300  0.69650700  1
  H  H32  1  0.52637400  0.47700100  0.36749800  1
  H  H33  1  0.47362600  0.52299900  0.63250200  1
  H  H34  1  0.58078500  0.11547000  0.13406200  1
  H  H35  1  0.41921500  0.88453000  0.86593800  1
  H  H36  1  0.46521100  0.32499100  0.08508000  1
  H  H37  1  0.53478900  0.67500900  0.91492000  1
  H  H38  1  0.89283700  0.45171700  0.51966300  1
  H  H39  1  0.10716300  0.54828300  0.48033700  1
  H  H40  1  0.98276500  0.23823600  0.55591000  1
  H  H41  1  0.01723500  0.76176400  0.44409000  1
  H  H42  1  0.72516100  0.80165900  0.15105100  1
  H  H43  1  0.27483900  0.19834100  0.84894900  1
  H  H44  1  0.83726400  0.92571100  0.10015100  1
  H  H45  1  0.16273600  0.07428900  0.89984900  1
  H  H46  1  0.86482600  0.79339400  0.26690900  1
  H  H47  1  0.13517400  0.20660600  0.73309100  1
  H  H48  1  0.24805800  0.64893200  0.18457700  1
  H  H49  1  0.75194200  0.35106800  0.81542300  1
  H  H50  1  0.77278000  0.33887300  0.59288300  1
  H  H51  1  0.22722000  0.66112700  0.40711700  1
  H  H52  1  0.19093400  0.80281900  0.03183900  1
  H  H53  1  0.80906600  0.19718100  0.96816100  1
  H  H54  1  0.30971300  0.60117000  0.01413300  1
  H  H55  1  0.69028700  0.39883000  0.98586700  1
  C  C56  1  0.31117500  0.96779500  0.26587500  1
  C  C57  1  0.68882500  0.03220500  0.73412500  1
  C  C58  1  0.87386600  0.34213800  0.51663900  1
  C  C59  1  0.12613400  0.65786200  0.48336100  1
  C  C60  1  0.20875300  0.67598600  0.07631600  1
  C  C61  1  0.79124700  0.32401400  0.92368400  1
  C  C62  1  0.84428800  0.80496400  0.15543400  1
  C  C63  1  0.15571200  0.19503600  0.84456600  1
  C  C64  1  0.34522100  0.21789600  0.41125500  1
  C  C65  1  0.65477900  0.78210400  0.58874500  1
  C  C66  1  0.46057900  0.20497700  0.10101900  1
  C  C67  1  0.53942100  0.79502300  0.89898100  1
  C  C68  1  0.61918500  0.50335900  0.29217400  1
  C  C69  1  0.38081500  0.49664100  0.70782600  1
  C  C70  1  0.82200700  0.13527500  0.33443000  1
  C  C71  1  0.17799300  0.86472500  0.66557000  1
