# generated using pymatgen
data_Sr3SiO5
_symmetry_space_group_name_H-M   'P 1'
_cell_length_a   7.34293301
_cell_length_b   7.34293301
_cell_length_c   7.34293301
_cell_angle_alpha   123.51466122
_cell_angle_beta   123.51466122
_cell_angle_gamma   84.01312189
_symmetry_Int_Tables_number   1
_chemical_formula_structural   Sr3SiO5
_chemical_formula_sum   'Sr6 Si2 O10'
_cell_volume   263.51152233
_cell_formula_units_Z   2
loop_
 _symmetry_equiv_pos_site_id
 _symmetry_equiv_pos_as_xyz
  1  'x, y, z'
loop_
 _atom_site_type_symbol
 _atom_site_label
 _atom_site_symmetry_multiplicity
 _atom_site_fract_x
 _atom_site_fract_y
 _atom_site_fract_z
 _atom_site_occupancy
  Sr  Sr0  1  0.25000000  0.25000000  0.00000000  1
  Sr  Sr1  1  0.75000000  0.75000000  0.00000000  1
  Sr  Sr2  1  0.31659700  0.81659700  0.13319400  1
  Sr  Sr3  1  0.68340300  0.18340300  0.86680600  1
  Sr  Sr4  1  0.18340300  0.31659700  0.50000000  1
  Sr  Sr5  1  0.81659700  0.68340300  0.50000000  1
  Si  Si6  1  0.75000000  0.25000000  0.50000000  1
  Si  Si7  1  0.25000000  0.75000000  0.50000000  1
  O  O8  1  0.00000000  0.00000000  0.00000000  1
  O  O9  1  0.50000000  0.50000000  0.00000000  1
  O  O10  1  0.79053800  0.02488400  0.50000000  1
  O  O11  1  0.52488400  0.29053800  0.50000000  1
  O  O12  1  0.70946200  0.20946200  0.23434600  1
  O  O13  1  0.97511600  0.47511600  0.76565400  1
  O  O14  1  0.47511600  0.70946200  0.50000000  1
  O  O15  1  0.20946200  0.97511600  0.50000000  1
  O  O16  1  0.29053800  0.79053800  0.76565400  1
  O  O17  1  0.02488400  0.52488400  0.23434600  1
