# generated using pymatgen
data_YAs3
_symmetry_space_group_name_H-M   'P 1'
_cell_length_a   6.02554385
_cell_length_b   6.02554385
_cell_length_c   5.56636800
_cell_angle_alpha   90.00000000
_cell_angle_beta   90.00000000
_cell_angle_gamma   119.99999833
_symmetry_Int_Tables_number   1
_chemical_formula_structural   YAs3
_chemical_formula_sum   'Y2 As6'
_cell_volume   175.02297277
_cell_formula_units_Z   2
loop_
 _symmetry_equiv_pos_site_id
 _symmetry_equiv_pos_as_xyz
  1  'x, y, z'
loop_
 _atom_site_type_symbol
 _atom_site_label
 _atom_site_symmetry_multiplicity
 _atom_site_fract_x
 _atom_site_fract_y
 _atom_site_fract_z
 _atom_site_occupancy
  Y  Y0  1  0.33333300  0.66666700  0.75000000  1
  Y  Y1  1  0.66666700  0.33333300  0.25000000  1
  As  As2  1  0.18609700  0.37219500  0.25000000  1
  As  As3  1  0.62780500  0.81390300  0.25000000  1
  As  As4  1  0.18609700  0.81390300  0.25000000  1
  As  As5  1  0.81390300  0.62780500  0.75000000  1
  As  As6  1  0.37219500  0.18609700  0.75000000  1
  As  As7  1  0.81390300  0.18609700  0.75000000  1
