# generated using pymatgen
data_Pm3Zn
_symmetry_space_group_name_H-M   'P 1'
_cell_length_a   6.03861290
_cell_length_b   6.03861290
_cell_length_c   6.03861290
_cell_angle_alpha   133.39465221
_cell_angle_beta   133.39465221
_cell_angle_gamma   68.03504667
_symmetry_Int_Tables_number   1
_chemical_formula_structural   Pm3Zn
_chemical_formula_sum   'Pm3 Zn1'
_cell_volume   114.24657076
_cell_formula_units_Z   1
loop_
 _symmetry_equiv_pos_site_id
 _symmetry_equiv_pos_as_xyz
  1  'x, y, z'
loop_
 _atom_site_type_symbol
 _atom_site_label
 _atom_site_symmetry_multiplicity
 _atom_site_fract_x
 _atom_site_fract_y
 _atom_site_fract_z
 _atom_site_occupancy
  Pm  Pm0  1  0.75000000  0.25000000  0.50000000  1
  Pm  Pm1  1  0.25000000  0.75000000  0.50000000  1
  Pm  Pm2  1  0.50000000  0.50000000  0.00000000  1
  Zn  Zn3  1  0.00000000  0.00000000  0.00000000  1
