# generated using pymatgen
data_HoGa3
_symmetry_space_group_name_H-M   'P 1'
_cell_length_a   6.25055799
_cell_length_b   6.25055799
_cell_length_c   4.58462400
_cell_angle_alpha   90.00000000
_cell_angle_beta   90.00000000
_cell_angle_gamma   119.99999985
_symmetry_Int_Tables_number   1
_chemical_formula_structural   HoGa3
_chemical_formula_sum   'Ho2 Ga6'
_cell_volume   155.12147756
_cell_formula_units_Z   2
loop_
 _symmetry_equiv_pos_site_id
 _symmetry_equiv_pos_as_xyz
  1  'x, y, z'
loop_
 _atom_site_type_symbol
 _atom_site_label
 _atom_site_symmetry_multiplicity
 _atom_site_fract_x
 _atom_site_fract_y
 _atom_site_fract_z
 _atom_site_occupancy
  Ho  Ho0  1  0.33333300  0.66666700  0.75000000  1
  Ho  Ho1  1  0.66666700  0.33333300  0.25000000  1
  Ga  Ga2  1  0.14953200  0.29906500  0.25000000  1
  Ga  Ga3  1  0.70093500  0.85046800  0.25000000  1
  Ga  Ga4  1  0.14953200  0.85046800  0.25000000  1
  Ga  Ga5  1  0.85046800  0.70093500  0.75000000  1
  Ga  Ga6  1  0.29906500  0.14953200  0.75000000  1
  Ga  Ga7  1  0.85046800  0.14953200  0.75000000  1
