# generated using pymatgen
data_HPd3
_symmetry_space_group_name_H-M   'P 1'
_cell_length_a   5.55072624
_cell_length_b   5.55072624
_cell_length_c   4.08100200
_cell_angle_alpha   90.00000000
_cell_angle_beta   90.00000000
_cell_angle_gamma   120.00000283
_symmetry_Int_Tables_number   1
_chemical_formula_structural   HPd3
_chemical_formula_sum   'H2 Pd6'
_cell_volume   108.89226810
_cell_formula_units_Z   2
loop_
 _symmetry_equiv_pos_site_id
 _symmetry_equiv_pos_as_xyz
  1  'x, y, z'
loop_
 _atom_site_type_symbol
 _atom_site_label
 _atom_site_symmetry_multiplicity
 _atom_site_fract_x
 _atom_site_fract_y
 _atom_site_fract_z
 _atom_site_occupancy
  H  H0  1  0.33333300  0.66666700  0.75000000  1
  H  H1  1  0.66666700  0.33333300  0.25000000  1
  Pd  Pd2  1  0.17444100  0.34888100  0.25000000  1
  Pd  Pd3  1  0.65111900  0.82555900  0.25000000  1
  Pd  Pd4  1  0.17444100  0.82555900  0.25000000  1
  Pd  Pd5  1  0.82555900  0.65111900  0.75000000  1
  Pd  Pd6  1  0.34888100  0.17444100  0.75000000  1
  Pd  Pd7  1  0.82555900  0.17444100  0.75000000  1
