# generated using pymatgen
data_Sm3Si
_symmetry_space_group_name_H-M   'P 1'
_cell_length_a   6.93564049
_cell_length_b   6.93564049
_cell_length_c   5.07528500
_cell_angle_alpha   90.00000000
_cell_angle_beta   90.00000000
_cell_angle_gamma   120.00000470
_symmetry_Int_Tables_number   1
_chemical_formula_structural   Sm3Si
_chemical_formula_sum   'Sm6 Si2'
_cell_volume   211.42882340
_cell_formula_units_Z   2
loop_
 _symmetry_equiv_pos_site_id
 _symmetry_equiv_pos_as_xyz
  1  'x, y, z'
loop_
 _atom_site_type_symbol
 _atom_site_label
 _atom_site_symmetry_multiplicity
 _atom_site_fract_x
 _atom_site_fract_y
 _atom_site_fract_z
 _atom_site_occupancy
  Sm  Sm0  1  0.17992400  0.35984800  0.25000000  1
  Sm  Sm1  1  0.64015200  0.82007600  0.25000000  1
  Sm  Sm2  1  0.17992400  0.82007600  0.25000000  1
  Sm  Sm3  1  0.82007600  0.64015200  0.75000000  1
  Sm  Sm4  1  0.35984800  0.17992400  0.75000000  1
  Sm  Sm5  1  0.82007600  0.17992400  0.75000000  1
  Si  Si6  1  0.33333300  0.66666700  0.75000000  1
  Si  Si7  1  0.66666700  0.33333300  0.25000000  1
