# generated using pymatgen
data_CuBSe2
_symmetry_space_group_name_H-M   'P 1'
_cell_length_a   6.14948658
_cell_length_b   6.14948658
_cell_length_c   6.14948658
_cell_angle_alpha   128.66107534
_cell_angle_beta   128.66107534
_cell_angle_gamma   75.55653249
_symmetry_Int_Tables_number   1
_chemical_formula_structural   CuBSe2
_chemical_formula_sum   'Cu2 B2 Se4'
_cell_volume   137.95927924
_cell_formula_units_Z   2
loop_
 _symmetry_equiv_pos_site_id
 _symmetry_equiv_pos_as_xyz
  1  'x, y, z'
loop_
 _atom_site_type_symbol
 _atom_site_label
 _atom_site_symmetry_multiplicity
 _atom_site_fract_x
 _atom_site_fract_y
 _atom_site_fract_z
 _atom_site_occupancy
  Cu  Cu0  1  0.00000000  0.00000000  0.00000000  1
  Cu  Cu1  1  0.75000000  0.25000000  0.50000000  1
  B  B2  1  0.50000000  0.50000000  0.00000000  1
  B  B3  1  0.25000000  0.75000000  0.50000000  1
  Se  Se4  1  0.87500000  0.82750100  0.45250100  1
  Se  Se5  1  0.37500000  0.42249900  0.54749900  1
  Se  Se6  1  0.17249900  0.62500000  0.04749900  1
  Se  Se7  1  0.57750100  0.12500000  0.95250100  1
