# generated using pymatgen
data_Ce3Pa
_symmetry_space_group_name_H-M   'P 1'
_cell_length_a   6.50597781
_cell_length_b   6.50597781
_cell_length_c   5.66567800
_cell_angle_alpha   90.00000000
_cell_angle_beta   90.00000000
_cell_angle_gamma   119.99999802
_symmetry_Int_Tables_number   1
_chemical_formula_structural   Ce3Pa
_chemical_formula_sum   'Ce6 Pa2'
_cell_volume   207.68622075
_cell_formula_units_Z   2
loop_
 _symmetry_equiv_pos_site_id
 _symmetry_equiv_pos_as_xyz
  1  'x, y, z'
loop_
 _atom_site_type_symbol
 _atom_site_label
 _atom_site_symmetry_multiplicity
 _atom_site_fract_x
 _atom_site_fract_y
 _atom_site_fract_z
 _atom_site_occupancy
  Ce  Ce0  1  0.83024300  0.16975700  0.75000000  1
  Ce  Ce1  1  0.33951500  0.16975700  0.75000000  1
  Ce  Ce2  1  0.83024300  0.66048500  0.75000000  1
  Ce  Ce3  1  0.16975700  0.83024300  0.25000000  1
  Ce  Ce4  1  0.66048500  0.83024300  0.25000000  1
  Ce  Ce5  1  0.16975700  0.33951500  0.25000000  1
  Pa  Pa6  1  0.66666700  0.33333300  0.25000000  1
  Pa  Pa7  1  0.33333300  0.66666700  0.75000000  1
