# generated using pymatgen
data_Ac3Pr
_symmetry_space_group_name_H-M   'P 1'
_cell_length_a   7.89222222
_cell_length_b   7.89222222
_cell_length_c   6.36921700
_cell_angle_alpha   90.00000000
_cell_angle_beta   90.00000000
_cell_angle_gamma   120.00000186
_symmetry_Int_Tables_number   1
_chemical_formula_structural   Ac3Pr
_chemical_formula_sum   'Ac6 Pr2'
_cell_volume   343.57003533
_cell_formula_units_Z   2
loop_
 _symmetry_equiv_pos_site_id
 _symmetry_equiv_pos_as_xyz
  1  'x, y, z'
loop_
 _atom_site_type_symbol
 _atom_site_label
 _atom_site_symmetry_multiplicity
 _atom_site_fract_x
 _atom_site_fract_y
 _atom_site_fract_z
 _atom_site_occupancy
  Ac  Ac0  1  0.16816400  0.33632800  0.25000000  1
  Ac  Ac1  1  0.66367200  0.83183600  0.25000000  1
  Ac  Ac2  1  0.16816400  0.83183600  0.25000000  1
  Ac  Ac3  1  0.83183600  0.66367200  0.75000000  1
  Ac  Ac4  1  0.33632800  0.16816400  0.75000000  1
  Ac  Ac5  1  0.83183600  0.16816400  0.75000000  1
  Pr  Pr6  1  0.33333300  0.66666700  0.75000000  1
  Pr  Pr7  1  0.66666700  0.33333300  0.25000000  1
