# generated using pymatgen
data_Zn6HO6
_symmetry_space_group_name_H-M   'P 1'
_cell_length_a   6.65865850
_cell_length_b   5.77060523
_cell_length_c   41.60345415
_cell_angle_alpha   89.92720420
_cell_angle_beta   89.95884414
_cell_angle_gamma   89.99547632
_symmetry_Int_Tables_number   1
_chemical_formula_structural   Zn6HO6
_chemical_formula_sum   'Zn24 H4 O24'
_cell_volume   1598.58978201
_cell_formula_units_Z   4
loop_
 _symmetry_equiv_pos_site_id
 _symmetry_equiv_pos_as_xyz
  1  'x, y, z'
loop_
 _atom_site_type_symbol
 _atom_site_label
 _atom_site_symmetry_multiplicity
 _atom_site_fract_x
 _atom_site_fract_y
 _atom_site_fract_z
 _atom_site_occupancy
  Zn  Zn0  1  0.00148173  0.33307082  0.14263381  1
  Zn  Zn1  1  0.50150072  0.33302607  0.14262752  1
  Zn  Zn2  1  0.25148001  0.83329738  0.14243179  1
  Zn  Zn3  1  0.75146249  0.83330839  0.14242890  1
  Zn  Zn4  1  0.25135793  0.16654432  0.20656604  1
  Zn  Zn5  1  0.75150185  0.16653136  0.20656605  1
  Zn  Zn6  1  0.00147268  0.66662940  0.20653369  1
  Zn  Zn7  1  0.50148207  0.66676357  0.20656495  1
  Zn  Zn8  1  0.00138591  0.33314190  0.26987860  1
  Zn  Zn9  1  0.50137170  0.33252252  0.26966066  1
  Zn  Zn10  1  0.25085828  0.83326640  0.26960805  1
  Zn  Zn11  1  0.75181872  0.83327338  0.26961043  1
  Zn  Zn12  1  0.25084791  0.16382440  0.33268903  1
  Zn  Zn13  1  0.75018128  0.16380800  0.33269146  1
  Zn  Zn14  1  0.00052359  0.66510866  0.33277887  1
  Zn  Zn15  1  0.50053623  0.66493424  0.33180991  1
  Zn  Zn16  1  0.00014331  0.33028843  0.39422891  1
  Zn  Zn17  1  0.50014333  0.33813356  0.39494906  1
  Zn  Zn18  1  0.25380477  0.82883381  0.39542729  1
  Zn  Zn19  1  0.74653762  0.82879554  0.39543368  1
  Zn  Zn20  1  0.25429783  0.16346794  0.45246506  1
  Zn  Zn21  1  0.74576714  0.16347132  0.45247064  1
  Zn  Zn22  1  0.00006492  0.66374593  0.45290465  1
  Zn  Zn23  1  0.50001014  0.66661194  0.46216758  1
  H  H24  1  0.25142781  0.16900571  0.09962577  1
  H  H25  1  0.75170277  0.16900398  0.09961781  1
  H  H26  1  0.00157196  0.66433833  0.09961380  1
  H  H27  1  0.50153670  0.66436921  0.09961033  1
  O  O28  1  0.25154906  0.16733848  0.12337068  1
  O  O29  1  0.75164576  0.16733287  0.12336846  1
  O  O30  1  0.00156424  0.66592053  0.12335671  1
  O  O31  1  0.50155608  0.66592412  0.12335514  1
  O  O32  1  0.00152412  0.33352935  0.18956984  1
  O  O33  1  0.50153162  0.33353604  0.18957956  1
  O  O34  1  0.25155274  0.83361846  0.18943585  1
  O  O35  1  0.75156700  0.83361964  0.18943310  1
  O  O36  1  0.25115151  0.16659367  0.25443196  1
  O  O37  1  0.75181038  0.16658913  0.25443182  1
  O  O38  1  0.50144744  0.66637028  0.25447103  1
  O  O39  1  0.00144092  0.66586765  0.25439347  1
  O  O40  1  0.00058972  0.33162034  0.31866745  1
  O  O41  1  0.50060073  0.33035177  0.31832197  1
  O  O42  1  0.24960325  0.83184621  0.31823072  1
  O  O43  1  0.75160790  0.83184679  0.31823084  1
  O  O44  1  0.25155630  0.16391688  0.38230143  1
  O  O45  1  0.74887204  0.16389824  0.38230484  1
  O  O46  1  0.00023838  0.66549959  0.38239659  1
  O  O47  1  0.50024400  0.66629885  0.38077848  1
  O  O48  1  0.00004970  0.32804228  0.44607266  1
  O  O49  1  0.50005056  0.34114357  0.44603323  1
  O  O50  1  0.25340911  0.82804781  0.44658772  1
  O  O51  1  0.74673302  0.82804494  0.44659509  1
