# generated using pymatgen
data_TaAgO3
_symmetry_space_group_name_H-M   'P 1'
_cell_length_a   5.65097476
_cell_length_b   5.65097476
_cell_length_c   5.65097556
_cell_angle_alpha   59.12014481
_cell_angle_beta   59.12014481
_cell_angle_gamma   59.12013817
_symmetry_Int_Tables_number   1
_chemical_formula_structural   TaAgO3
_chemical_formula_sum   'Ta2 Ag2 O6'
_cell_volume   125.04217013
_cell_formula_units_Z   2
loop_
 _symmetry_equiv_pos_site_id
 _symmetry_equiv_pos_as_xyz
  1  'x, y, z'
loop_
 _atom_site_type_symbol
 _atom_site_label
 _atom_site_symmetry_multiplicity
 _atom_site_fract_x
 _atom_site_fract_y
 _atom_site_fract_z
 _atom_site_occupancy
  Ta  Ta0  1  0.00000000  0.00000000  0.00000000  1
  Ta  Ta1  1  0.50000000  0.50000000  0.50000000  1
  Ag  Ag2  1  0.25000000  0.25000000  0.25000000  1
  Ag  Ag3  1  0.75000000  0.75000000  0.75000000  1
  O  O4  1  0.75000000  0.30652600  0.19347400  1
  O  O5  1  0.19347400  0.75000000  0.30652600  1
  O  O6  1  0.30652600  0.19347400  0.75000000  1
  O  O7  1  0.25000000  0.69347400  0.80652600  1
  O  O8  1  0.69347400  0.80652600  0.25000000  1
  O  O9  1  0.80652600  0.25000000  0.69347400  1
