# generated using pymatgen
data_B2(CN2)3
_symmetry_space_group_name_H-M   'P 1'
_cell_length_a   9.96848505
_cell_length_b   9.96848505
_cell_length_c   6.96416166
_cell_angle_alpha   81.24858646
_cell_angle_beta   81.24858646
_cell_angle_gamma   25.25115148
_symmetry_Int_Tables_number   1
_chemical_formula_structural   B2(CN2)3
_chemical_formula_sum   'B8 C12 N24'
_cell_volume   291.60202352
_cell_formula_units_Z   4
loop_
 _symmetry_equiv_pos_site_id
 _symmetry_equiv_pos_as_xyz
  1  'x, y, z'
loop_
 _atom_site_type_symbol
 _atom_site_label
 _atom_site_symmetry_multiplicity
 _atom_site_fract_x
 _atom_site_fract_y
 _atom_site_fract_z
 _atom_site_occupancy
  B  B0  1  0.63180400  0.99433200  0.03191500  1
  B  B1  1  0.73365900  0.38827500  0.44635200  1
  B  B2  1  0.61172500  0.26634100  0.05364800  1
  B  B3  1  0.38827500  0.73365900  0.94635200  1
  B  B4  1  0.99433200  0.63180400  0.53191500  1
  B  B5  1  0.36819600  0.00566800  0.96808500  1
  B  B6  1  0.26634100  0.61172500  0.55364800  1
  B  B7  1  0.00566800  0.36819600  0.46808500  1
  C  C8  1  0.80821700  0.09787500  0.68884000  1
  C  C9  1  0.11858500  0.46024700  0.21689100  1
  C  C10  1  0.18456100  0.56373400  0.91631100  1
  C  C11  1  0.43626600  0.81543900  0.58368900  1
  C  C12  1  0.56373400  0.18456100  0.41631100  1
  C  C13  1  0.88141500  0.53975300  0.78310900  1
  C  C14  1  0.53975300  0.88141500  0.28310900  1
  C  C15  1  0.81543900  0.43626600  0.08368900  1
  C  C16  1  0.90212500  0.19178300  0.81116000  1
  C  C17  1  0.46024700  0.11858500  0.71689100  1
  C  C18  1  0.09787500  0.80821700  0.18884000  1
  C  C19  1  0.19178300  0.90212500  0.31116000  1
  N  N20  1  0.96916300  0.66435200  0.03661200  1
  N  N21  1  0.47023500  0.21869100  0.86426900  1
  N  N22  1  0.93466800  0.24368900  0.28423300  1
  N  N23  1  0.19393400  0.86104200  0.11795300  1
  N  N24  1  0.06533200  0.75631100  0.71576700  1
  N  N25  1  0.75631100  0.06533200  0.21576700  1
  N  N26  1  0.28027800  0.57109700  0.04264100  1
  N  N27  1  0.57996000  0.88515900  0.82162600  1
  N  N28  1  0.57109700  0.28027800  0.54264100  1
  N  N29  1  0.86104200  0.19393400  0.61795300  1
  N  N30  1  0.42004000  0.11484100  0.17837400  1
  N  N31  1  0.42890300  0.71972200  0.45735900  1
  N  N32  1  0.11484100  0.42004000  0.67837400  1
  N  N33  1  0.66435200  0.96916300  0.53661200  1
  N  N34  1  0.80606600  0.13895800  0.88204700  1
  N  N35  1  0.21869100  0.47023500  0.36426900  1
  N  N36  1  0.78130900  0.52976500  0.63573100  1
  N  N37  1  0.24368900  0.93466800  0.78423300  1
  N  N38  1  0.33564800  0.03083700  0.46338800  1
  N  N39  1  0.71972200  0.42890300  0.95735900  1
  N  N40  1  0.88515900  0.57996000  0.32162600  1
  N  N41  1  0.13895800  0.80606600  0.38204700  1
  N  N42  1  0.03083700  0.33564800  0.96338800  1
  N  N43  1  0.52976500  0.78130900  0.13573100  1
