# generated using pymatgen
data_B2(CN2)3
_symmetry_space_group_name_H-M   'P 1'
_cell_length_a   4.87134800
_cell_length_b   6.71425991
_cell_length_c   8.71649795
_cell_angle_alpha   91.00049257
_cell_angle_beta   90.22678453
_cell_angle_gamma   101.40209138
_symmetry_Int_Tables_number   1
_chemical_formula_structural   B2(CN2)3
_chemical_formula_sum   'B8 C12 N24'
_cell_volume   279.41759148
_cell_formula_units_Z   4
loop_
 _symmetry_equiv_pos_site_id
 _symmetry_equiv_pos_as_xyz
  1  'x, y, z'
loop_
 _atom_site_type_symbol
 _atom_site_label
 _atom_site_symmetry_multiplicity
 _atom_site_fract_x
 _atom_site_fract_y
 _atom_site_fract_z
 _atom_site_occupancy
  B  B0  1  0.21405500  0.89148800  0.41710200  1
  B  B1  1  0.12682600  0.94834500  0.91159500  1
  B  B2  1  0.78594500  0.10851200  0.58289800  1
  B  B3  1  0.87317400  0.05165500  0.08840500  1
  B  B4  1  0.71023500  0.39339600  0.16076100  1
  B  B5  1  0.28976500  0.60660400  0.83923900  1
  B  B6  1  0.34029400  0.57775700  0.32955400  1
  B  B7  1  0.65970600  0.42224300  0.67044600  1
  C  C8  1  0.39265800  0.06598200  0.18372100  1
  C  C9  1  0.05656300  0.72471500  0.65822700  1
  C  C10  1  0.95857100  0.27917900  0.84018700  1
  C  C11  1  0.55612100  0.73026800  0.58618300  1
  C  C12  1  0.21458900  0.38460100  0.08805000  1
  C  C13  1  0.94343700  0.27528500  0.34177300  1
  C  C14  1  0.04142900  0.72082100  0.15981300  1
  C  C15  1  0.73977500  0.90172700  0.32679000  1
  C  C16  1  0.60734200  0.93401800  0.81627900  1
  C  C17  1  0.44387900  0.26973200  0.41381700  1
  C  C18  1  0.78541100  0.61539900  0.91195000  1
  C  C19  1  0.26022500  0.09827300  0.67321000  1
  N  N20  1  0.73759900  0.40627100  0.82740700  1
  N  N21  1  0.36977700  0.04627400  0.82272000  1
  N  N22  1  0.51410200  0.23633700  0.58344600  1
  N  N23  1  0.22330600  0.38690800  0.39837100  1
  N  N24  1  0.18434900  0.40737700  0.92293200  1
  N  N25  1  0.26240100  0.59372900  0.17259300  1
  N  N26  1  0.66771000  0.91948100  0.65916500  1
  N  N27  1  0.48589800  0.76366300  0.41655400  1
  N  N28  1  0.81565100  0.59262300  0.07706800  1
  N  N29  1  0.29044700  0.61475800  0.65863300  1
  N  N30  1  0.63022300  0.95372600  0.17728000  1
  N  N31  1  0.03548500  0.21860700  0.68553000  1
  N  N32  1  0.44187900  0.26728100  0.11051300  1
  N  N33  1  0.77669400  0.61309200  0.60162900  1
  N  N34  1  0.86367000  0.06579600  0.90955700  1
  N  N35  1  0.04021800  0.73555400  0.84373600  1
  N  N36  1  0.33229000  0.08051900  0.34083500  1
  N  N37  1  0.84497900  0.08626600  0.41683100  1
  N  N38  1  0.13633000  0.93420400  0.09044300  1
  N  N39  1  0.95978200  0.26444600  0.15626400  1
  N  N40  1  0.70955300  0.38524200  0.34136700  1
  N  N41  1  0.15502100  0.91373400  0.58316900  1
  N  N42  1  0.96451500  0.78139300  0.31447000  1
  N  N43  1  0.55812100  0.73271900  0.88948700  1
