# generated using pymatgen
data_LaMoN3
_symmetry_space_group_name_H-M   'P 1'
_cell_length_a   5.74091048
_cell_length_b   5.74091048
_cell_length_c   5.74090964
_cell_angle_alpha   59.84629482
_cell_angle_beta   59.84629482
_cell_angle_gamma   59.84629786
_symmetry_Int_Tables_number   1
_chemical_formula_structural   LaMoN3
_chemical_formula_sum   'La2 Mo2 N6'
_cell_volume   133.32442033
_cell_formula_units_Z   2
loop_
 _symmetry_equiv_pos_site_id
 _symmetry_equiv_pos_as_xyz
  1  'x, y, z'
loop_
 _atom_site_type_symbol
 _atom_site_label
 _atom_site_symmetry_multiplicity
 _atom_site_fract_x
 _atom_site_fract_y
 _atom_site_fract_z
 _atom_site_occupancy
  La  La0  1  0.73969000  0.73969000  0.73969000  1
  La  La1  1  0.23969000  0.23969000  0.23969000  1
  Mo  Mo2  1  0.48841000  0.48841000  0.48841000  1
  Mo  Mo3  1  0.98841000  0.98841000  0.98841000  1
  N  N4  1  0.82212000  0.70542000  0.26266000  1
  N  N5  1  0.26266000  0.82212000  0.70542000  1
  N  N6  1  0.70542000  0.26266000  0.82212000  1
  N  N7  1  0.20542000  0.32212000  0.76266000  1
  N  N8  1  0.76266000  0.20542000  0.32212000  1
  N  N9  1  0.32212000  0.76266000  0.20542000  1
