# generated using pymatgen
data_LaOsN3
_symmetry_space_group_name_H-M   'P 1'
_cell_length_a   5.57031831
_cell_length_b   5.57031831
_cell_length_c   5.57031855
_cell_angle_alpha   60.29869774
_cell_angle_beta   60.29869774
_cell_angle_gamma   60.29869398
_symmetry_Int_Tables_number   1
_chemical_formula_structural   LaOsN3
_chemical_formula_sum   'La2 Os2 N6'
_cell_volume   123.04124639
_cell_formula_units_Z   2
loop_
 _symmetry_equiv_pos_site_id
 _symmetry_equiv_pos_as_xyz
  1  'x, y, z'
loop_
 _atom_site_type_symbol
 _atom_site_label
 _atom_site_symmetry_multiplicity
 _atom_site_fract_x
 _atom_site_fract_y
 _atom_site_fract_z
 _atom_site_occupancy
  La  La0  1  0.25000000  0.25000000  0.25000000  1
  La  La1  1  0.75000000  0.75000000  0.75000000  1
  Os  Os2  1  0.00000000  0.00000000  0.00000000  1
  Os  Os3  1  0.50000000  0.50000000  0.50000000  1
  N  N4  1  0.70607200  0.79392800  0.25000000  1
  N  N5  1  0.79392800  0.25000000  0.70607200  1
  N  N6  1  0.29392800  0.20607200  0.75000000  1
  N  N7  1  0.25000000  0.70607200  0.79392800  1
  N  N8  1  0.75000000  0.29392800  0.20607200  1
  N  N9  1  0.20607200  0.75000000  0.29392800  1
