# generated using pymatgen
data_DyBC
_symmetry_space_group_name_H-M   'P 1'
_cell_length_a   9.68788832
_cell_length_b   9.68788832
_cell_length_c   3.52650400
_cell_angle_alpha   90.00000000
_cell_angle_beta   90.00000000
_cell_angle_gamma   159.84964517
_symmetry_Int_Tables_number   1
_chemical_formula_structural   DyBC
_chemical_formula_sum   'Dy2 B2 C2'
_cell_volume   114.01783961
_cell_formula_units_Z   2
loop_
 _symmetry_equiv_pos_site_id
 _symmetry_equiv_pos_as_xyz
  1  'x, y, z'
loop_
 _atom_site_type_symbol
 _atom_site_label
 _atom_site_symmetry_multiplicity
 _atom_site_fract_x
 _atom_site_fract_y
 _atom_site_fract_z
 _atom_site_occupancy
  Dy  Dy0  1  0.84373400  0.15626600  0.00000000  1
  Dy  Dy1  1  0.15626600  0.84373400  0.00000000  1
  B  B2  1  0.27668900  0.72331100  0.50000000  1
  B  B3  1  0.72331100  0.27668900  0.50000000  1
  C  C4  1  0.64512500  0.35487500  0.50000000  1
  C  C5  1  0.35487500  0.64512500  0.50000000  1
