# generated using pymatgen
data_SiH6CI3N
_symmetry_space_group_name_H-M   'P 1'
_cell_length_a   8.58244400
_cell_length_b   8.59336955
_cell_length_c   12.95676875
_cell_angle_alpha   89.96988168
_cell_angle_beta   88.90604087
_cell_angle_gamma   88.83689848
_symmetry_Int_Tables_number   1
_chemical_formula_structural   SiH6CI3N
_chemical_formula_sum   'Si4 H24 C4 I12 N4'
_cell_volume   955.21803747
_cell_formula_units_Z   4
loop_
 _symmetry_equiv_pos_site_id
 _symmetry_equiv_pos_as_xyz
  1  'x, y, z'
loop_
 _atom_site_type_symbol
 _atom_site_label
 _atom_site_symmetry_multiplicity
 _atom_site_fract_x
 _atom_site_fract_y
 _atom_site_fract_z
 _atom_site_occupancy
  Si  Si0  1  0.00056100  0.02217300  0.96372600  1
  Si  Si1  1  0.47805400  0.49173600  0.46346000  1
  Si  Si2  1  0.97665200  0.99844400  0.46360300  1
  Si  Si3  1  0.50102900  0.52179100  0.96364400  1
  H  H4  1  0.91819300  0.41805900  0.29418500  1
  H  H5  1  0.96339000  0.62117800  0.29283200  1
  H  H6  1  0.03466800  0.39543700  0.12149100  1
  H  H7  1  0.08314500  0.58124100  0.12008900  1
  H  H8  1  0.89593500  0.53469900  0.12064800  1
  H  H9  1  0.41484200  0.92224400  0.29616000  1
  H  H10  1  0.46955300  0.12276300  0.29275700  1
  H  H11  1  0.52682400  0.89164000  0.12254600  1
  H  H12  1  0.58329500  0.07522900  0.11977600  1
  H  H13  1  0.39422300  0.03687200  0.12207700  1
  H  H14  1  0.48998900  0.88343700  0.79586800  1
  H  H15  1  0.39527200  0.07137400  0.79230300  1
  H  H16  1  0.59265200  0.92925500  0.62214200  1
  H  H17  1  0.51062900  0.10593700  0.61878000  1
  H  H18  1  0.40005900  0.94818500  0.62222300  1
  H  H19  1  0.91485000  0.42313900  0.79555700  1
  H  H20  1  0.97479300  0.62217500  0.79276700  1
  H  H21  1  0.02326500  0.39295900  0.62098000  1
  H  H22  1  0.08387700  0.57513300  0.61890800  1
  H  H23  1  0.89431200  0.54087900  0.62219000  1
  H  H24  1  0.60427800  0.05615600  0.79247700  1
  H  H25  1  0.61710800  0.97202200  0.29329900  1
  H  H26  1  0.11759700  0.47723700  0.29363400  1
  H  H27  1  0.11853700  0.46795700  0.79132100  1
  C  C28  1  0.00170400  0.50384800  0.76612800  1
  C  C29  1  0.50007700  0.00440600  0.26695500  1
  C  C30  1  0.49703300  0.00248800  0.76646900  1
  C  C31  1  0.00004700  0.50499500  0.26636500  1
  I  I32  1  0.00361500  0.00878800  0.76096400  1
  I  I33  1  0.49822100  0.50127400  0.26140100  1
  I  I34  1  0.99806200  0.00039700  0.26151600  1
  I  I35  1  0.50537000  0.50337200  0.76095400  1
  I  I36  1  0.75920600  0.23535100  0.99419800  1
  I  I37  1  0.25606900  0.74537400  0.49566000  1
  I  I38  1  0.22983000  0.22714900  0.99296400  1
  I  I39  1  0.76399800  0.76513900  0.49362300  1
  I  I40  1  0.25767500  0.73372500  0.99182300  1
  I  I41  1  0.75431400  0.24340600  0.49144900  1
  I  I42  1  0.72807700  0.72907400  0.99136400  1
  I  I43  1  0.26242800  0.26633700  0.49046700  1
  N  N44  1  0.00079700  0.50232200  0.65118100  1
  N  N45  1  0.50102900  0.00194800  0.15199200  1
  N  N46  1  0.50033700  0.99676900  0.65156300  1
  N  N47  1  0.00331100  0.50381800  0.15135400  1
