# generated using pymatgen
data_H6PbCI3N
_symmetry_space_group_name_H-M   'P 1'
_cell_length_a   8.85946666
_cell_length_b   8.85946666
_cell_length_c   13.05495364
_cell_angle_alpha   89.56886521
_cell_angle_beta   89.56886521
_cell_angle_gamma   89.95641942
_symmetry_Int_Tables_number   1
_chemical_formula_structural   H6PbCI3N
_chemical_formula_sum   'H24 Pb4 C4 I12 N4'
_cell_volume   1024.62699057
_cell_formula_units_Z   4
loop_
 _symmetry_equiv_pos_site_id
 _symmetry_equiv_pos_as_xyz
  1  'x, y, z'
loop_
 _atom_site_type_symbol
 _atom_site_label
 _atom_site_symmetry_multiplicity
 _atom_site_fract_x
 _atom_site_fract_y
 _atom_site_fract_z
 _atom_site_occupancy
  H  H0  1  0.01973500  0.64760400  0.22797800  1
  H  H1  1  0.03464900  0.51572200  0.33286900  1
  H  H2  1  0.15907800  0.50073900  0.22399200  1
  H  H3  1  0.82353800  0.45185200  0.21943800  1
  H  H4  1  0.94058200  0.43900200  0.11937100  1
  H  H5  1  0.95420300  0.31464700  0.21576300  1
  H  H6  1  0.59574500  0.93546000  0.11671400  1
  H  H7  1  0.71865500  0.95139500  0.21253500  1
  H  H8  1  0.58932900  0.81265600  0.21440800  1
  H  H9  1  0.52097000  0.14511300  0.22672100  1
  H  H10  1  0.38317500  0.99694400  0.22873000  1
  H  H11  1  0.51338800  0.01441100  0.33285900  1
  H  H12  1  0.31464700  0.95420300  0.71576300  1
  H  H13  1  0.43900200  0.94058200  0.61937100  1
  H  H14  1  0.45185200  0.82353800  0.71943800  1
  H  H15  1  0.50073900  0.15907800  0.72399200  1
  H  H16  1  0.51572200  0.03464900  0.83286900  1
  H  H17  1  0.64760400  0.01973500  0.72797800  1
  H  H18  1  0.95139500  0.71865500  0.71253500  1
  H  H19  1  0.93546000  0.59574500  0.61671400  1
  H  H20  1  0.81265600  0.58932900  0.71440800  1
  H  H21  1  0.14511300  0.52097000  0.72672100  1
  H  H22  1  0.01441100  0.51338800  0.83285900  1
  H  H23  1  0.99694400  0.38317500  0.72873000  1
  Pb  Pb24  1  0.51663500  0.50820400  0.98860700  1
  Pb  Pb25  1  0.50820400  0.51663500  0.48860700  1
  Pb  Pb26  1  0.01173200  0.02919300  0.48953400  1
  Pb  Pb27  1  0.02919300  0.01173200  0.98953400  1
  C  C28  1  0.49839900  0.02786400  0.24990800  1
  C  C29  1  0.04491400  0.53032200  0.24955200  1
  C  C30  1  0.53032200  0.04491400  0.74955200  1
  C  C31  1  0.02786400  0.49839900  0.74990800  1
  I  I32  1  0.83100100  0.70206600  0.99460000  1
  I  I33  1  0.20917400  0.32376800  0.99738900  1
  I  I34  1  0.72032200  0.20653100  0.99812500  1
  I  I35  1  0.34352100  0.82950000  0.98970200  1
  I  I36  1  0.82950000  0.34352100  0.48970200  1
  I  I37  1  0.20653100  0.72032200  0.49812500  1
  I  I38  1  0.70206600  0.83100100  0.49460000  1
  I  I39  1  0.32376800  0.20917400  0.49738900  1
  I  I40  1  0.53179300  0.52278000  0.24012600  1
  I  I41  1  0.52278000  0.53179300  0.74012600  1
  I  I42  1  0.02235300  0.00550000  0.74178300  1
  I  I43  1  0.00550000  0.02235300  0.24178300  1
  N  N44  1  0.60699000  0.92602600  0.19566900  1
  N  N45  1  0.93448500  0.42805700  0.19857900  1
  N  N46  1  0.42805700  0.93448500  0.69857900  1
  N  N47  1  0.92602600  0.60699000  0.69566900  1
