# generated using pymatgen
data_RbSrSiHO4
_symmetry_space_group_name_H-M   'P 1'
_cell_length_a   7.91372200
_cell_length_b   5.90488600
_cell_length_c   5.94749337
_cell_angle_alpha   59.22427323
_cell_angle_beta   90.00000000
_cell_angle_gamma   90.00000000
_symmetry_Int_Tables_number   1
_chemical_formula_structural   RbSrSiHO4
_chemical_formula_sum   'Rb2 Sr2 Si2 H2 O8'
_cell_volume   238.78596017
_cell_formula_units_Z   2
loop_
 _symmetry_equiv_pos_site_id
 _symmetry_equiv_pos_as_xyz
  1  'x, y, z'
loop_
 _atom_site_type_symbol
 _atom_site_label
 _atom_site_symmetry_multiplicity
 _atom_site_fract_x
 _atom_site_fract_y
 _atom_site_fract_z
 _atom_site_occupancy
  Rb  Rb0  1  0.23135900  0.64143900  0.64027100  1
  Rb  Rb1  1  0.73135900  0.35856100  0.35972900  1
  Sr  Sr2  1  0.48448300  0.00369800  0.98734700  1
  Sr  Sr3  1  0.98448300  0.99630200  0.01265300  1
  Si  Si4  1  0.24564500  0.31037300  0.31134700  1
  Si  Si5  1  0.74564500  0.68962700  0.68865300  1
  H  H6  1  0.00653400  0.04672300  0.49224300  1
  H  H7  1  0.50653400  0.95327700  0.50775700  1
  O  O8  1  0.23826500  0.63300200  0.14956800  1
  O  O9  1  0.73826500  0.36699800  0.85043200  1
  O  O10  1  0.23976000  0.18300600  0.12173800  1
  O  O11  1  0.73976000  0.81699400  0.87826200  1
  O  O12  1  0.40232100  0.18489100  0.52291400  1
  O  O13  1  0.90232100  0.81510900  0.47708600  1
  O  O14  1  0.06863500  0.18948000  0.50898800  1
  O  O15  1  0.56863500  0.81052000  0.49101200  1
