# generated using pymatgen
data_H2C3
_symmetry_space_group_name_H-M   'P 1'
_cell_length_a   7.37220312
_cell_length_b   7.37220312
_cell_length_c   3.97218403
_cell_angle_alpha   81.73568763
_cell_angle_beta   81.73568763
_cell_angle_gamma   107.17345534
_symmetry_Int_Tables_number   1
_chemical_formula_structural   H2C3
_chemical_formula_sum   'H8 C12'
_cell_volume   200.12211666
_cell_formula_units_Z   4
loop_
 _symmetry_equiv_pos_site_id
 _symmetry_equiv_pos_as_xyz
  1  'x, y, z'
loop_
 _atom_site_type_symbol
 _atom_site_label
 _atom_site_symmetry_multiplicity
 _atom_site_fract_x
 _atom_site_fract_y
 _atom_site_fract_z
 _atom_site_occupancy
  H  H0  1  0.54698400  0.69568100  0.76357200  1
  H  H1  1  0.30431900  0.45301600  0.73642800  1
  H  H2  1  0.45301600  0.30431900  0.23642800  1
  H  H3  1  0.69568100  0.54698400  0.26357200  1
  H  H4  1  0.82926300  0.97627600  0.47980100  1
  H  H5  1  0.02372400  0.17073700  0.02019900  1
  H  H6  1  0.17073700  0.02372400  0.52019900  1
  H  H7  1  0.97627600  0.82926300  0.97980100  1
  C  C8  1  0.33463600  0.83550700  0.66520800  1
  C  C9  1  0.16449300  0.66536400  0.83479200  1
  C  C10  1  0.66536400  0.16449300  0.33479200  1
  C  C11  1  0.83550700  0.33463600  0.16520800  1
  C  C12  1  0.52432700  0.82820800  0.64537300  1
  C  C13  1  0.17179200  0.47567300  0.85462700  1
  C  C14  1  0.47567300  0.17179200  0.35462700  1
  C  C15  1  0.82820800  0.52432700  0.14537300  1
  C  C16  1  0.68489900  0.98801200  0.48473800  1
  C  C17  1  0.01198800  0.31510100  0.01526200  1
  C  C18  1  0.31510100  0.01198800  0.51526200  1
  C  C19  1  0.98801200  0.68489900  0.98473800  1
