# generated using pymatgen
data_TiReN3
_symmetry_space_group_name_H-M   'P 1'
_cell_length_a   5.57519311
_cell_length_b   5.57519311
_cell_length_c   5.57519244
_cell_angle_alpha   54.48762034
_cell_angle_beta   54.48762034
_cell_angle_gamma   54.48761985
_symmetry_Int_Tables_number   1
_chemical_formula_structural   TiReN3
_chemical_formula_sum   'Ti2 Re2 N6'
_cell_volume   106.78808008
_cell_formula_units_Z   2
loop_
 _symmetry_equiv_pos_site_id
 _symmetry_equiv_pos_as_xyz
  1  'x, y, z'
loop_
 _atom_site_type_symbol
 _atom_site_label
 _atom_site_symmetry_multiplicity
 _atom_site_fract_x
 _atom_site_fract_y
 _atom_site_fract_z
 _atom_site_occupancy
  Ti  Ti0  1  0.00618900  0.00618900  0.00618900  1
  Ti  Ti1  1  0.50618900  0.50618900  0.50618900  1
  Re  Re2  1  0.70162900  0.70162900  0.70162900  1
  Re  Re3  1  0.20162900  0.20162900  0.20162900  1
  N  N4  1  0.92875000  0.58793600  0.29378600  1
  N  N5  1  0.58793600  0.29378600  0.92875000  1
  N  N6  1  0.79378600  0.08793600  0.42875000  1
  N  N7  1  0.08793600  0.42875000  0.79378600  1
  N  N8  1  0.29378600  0.92875000  0.58793600  1
  N  N9  1  0.42875000  0.79378600  0.08793600  1
