# generated using pymatgen
data_AgAuO2
_symmetry_space_group_name_H-M   'P 1'
_cell_length_a   6.40462644
_cell_length_b   6.40462644
_cell_length_c   6.40462644
_cell_angle_alpha   136.01088905
_cell_angle_beta   136.01088905
_cell_angle_gamma   63.96350104
_symmetry_Int_Tables_number   1
_chemical_formula_structural   AgAuO2
_chemical_formula_sum   'Ag2 Au2 O4'
_cell_volume   125.02440962
_cell_formula_units_Z   2
loop_
 _symmetry_equiv_pos_site_id
 _symmetry_equiv_pos_as_xyz
  1  'x, y, z'
loop_
 _atom_site_type_symbol
 _atom_site_label
 _atom_site_symmetry_multiplicity
 _atom_site_fract_x
 _atom_site_fract_y
 _atom_site_fract_z
 _atom_site_occupancy
  Ag  Ag0  1  0.75000000  0.25000000  0.50000000  1
  Ag  Ag1  1  0.00000000  0.00000000  0.00000000  1
  Au  Au2  1  0.25000000  0.75000000  0.50000000  1
  Au  Au3  1  0.50000000  0.50000000  0.00000000  1
  O  O4  1  0.59487100  0.62500000  0.46987100  1
  O  O5  1  0.37500000  0.40512900  0.53012900  1
  O  O6  1  0.87500000  0.84487100  0.46987100  1
  O  O7  1  0.15512900  0.12500000  0.53012900  1
