# generated using pymatgen
data_H6CIN
_symmetry_space_group_name_H-M   'P 1'
_cell_length_a   7.15377800
_cell_length_b   7.23905500
_cell_length_c   8.89135300
_cell_angle_alpha   90.00000000
_cell_angle_beta   90.00000000
_cell_angle_gamma   90.00000000
_symmetry_Int_Tables_number   1
_chemical_formula_structural   H6CIN
_chemical_formula_sum   'H24 C4 I4 N4'
_cell_volume   460.45287369
_cell_formula_units_Z   4
loop_
 _symmetry_equiv_pos_site_id
 _symmetry_equiv_pos_as_xyz
  1  'x, y, z'
loop_
 _atom_site_type_symbol
 _atom_site_label
 _atom_site_symmetry_multiplicity
 _atom_site_fract_x
 _atom_site_fract_y
 _atom_site_fract_z
 _atom_site_occupancy
  H  H0  1  0.25000000  0.16720900  0.16766400  1
  H  H1  1  0.75000000  0.83279100  0.83233600  1
  H  H2  1  0.25000000  0.66720900  0.83233600  1
  H  H3  1  0.75000000  0.33279100  0.16766400  1
  H  H4  1  0.36822600  0.96596700  0.16591300  1
  H  H5  1  0.63177400  0.03403300  0.83408700  1
  H  H6  1  0.86822600  0.03403300  0.83408700  1
  H  H7  1  0.13177400  0.96596700  0.16591300  1
  H  H8  1  0.13177400  0.46596700  0.83408700  1
  H  H9  1  0.86822600  0.53403300  0.16591300  1
  H  H10  1  0.63177400  0.53403300  0.16591300  1
  H  H11  1  0.36822600  0.46596700  0.83408700  1
  H  H12  1  0.25000000  0.88566800  0.41328100  1
  H  H13  1  0.75000000  0.11433200  0.58671900  1
  H  H14  1  0.25000000  0.38566800  0.58671900  1
  H  H15  1  0.75000000  0.61433200  0.41328100  1
  H  H16  1  0.12456800  0.09976100  0.41562700  1
  H  H17  1  0.87543200  0.90023900  0.58437300  1
  H  H18  1  0.62456800  0.90023900  0.58437300  1
  H  H19  1  0.37543200  0.09976100  0.41562700  1
  H  H20  1  0.37543200  0.59976100  0.58437300  1
  H  H21  1  0.62456800  0.40023900  0.41562700  1
  H  H22  1  0.87543200  0.40023900  0.41562700  1
  H  H23  1  0.12456800  0.59976100  0.58437300  1
  C  C24  1  0.25000000  0.02925600  0.37532000  1
  C  C25  1  0.75000000  0.97074400  0.62468000  1
  C  C26  1  0.25000000  0.52925600  0.62468000  1
  C  C27  1  0.75000000  0.47074400  0.37532000  1
  I  I28  1  0.25000000  0.02723500  0.80983100  1
  I  I29  1  0.75000000  0.97276500  0.19016900  1
  I  I30  1  0.25000000  0.52723500  0.19016900  1
  I  I31  1  0.75000000  0.47276500  0.80983100  1
  N  N32  1  0.25000000  0.03179400  0.20778500  1
  N  N33  1  0.75000000  0.96820600  0.79221500  1
  N  N34  1  0.25000000  0.53179400  0.79221500  1
  N  N35  1  0.75000000  0.46820600  0.20778500  1
