# generated using pymatgen
data_CsSnF3
_symmetry_space_group_name_H-M   'P 1'
_cell_length_a   6.78023066
_cell_length_b   6.78023066
_cell_length_c   6.78023044
_cell_angle_alpha   64.01676665
_cell_angle_beta   64.01676665
_cell_angle_gamma   64.01676431
_symmetry_Int_Tables_number   1
_chemical_formula_structural   CsSnF3
_chemical_formula_sum   'Cs2 Sn2 F6'
_cell_volume   239.89853221
_cell_formula_units_Z   2
loop_
 _symmetry_equiv_pos_site_id
 _symmetry_equiv_pos_as_xyz
  1  'x, y, z'
loop_
 _atom_site_type_symbol
 _atom_site_label
 _atom_site_symmetry_multiplicity
 _atom_site_fract_x
 _atom_site_fract_y
 _atom_site_fract_z
 _atom_site_occupancy
  Cs  Cs0  1  0.25468700  0.25468700  0.25468700  1
  Cs  Cs1  1  0.75468700  0.75468700  0.75468700  1
  Sn  Sn2  1  0.00312200  0.00312200  0.00312200  1
  Sn  Sn3  1  0.50312200  0.50312200  0.50312200  1
  F  F4  1  0.87503500  0.17837600  0.71728000  1
  F  F5  1  0.71728000  0.87503500  0.17837600  1
  F  F6  1  0.17837600  0.71728000  0.87503500  1
  F  F7  1  0.37503500  0.21728000  0.67837600  1
  F  F8  1  0.21728000  0.67837600  0.37503500  1
  F  F9  1  0.67837600  0.37503500  0.21728000  1
