# generated using pymatgen
data_NiAgF3
_symmetry_space_group_name_H-M   'P 1'
_cell_length_a   5.67314249
_cell_length_b   5.67314249
_cell_length_c   7.63391100
_cell_angle_alpha   90.00000000
_cell_angle_beta   90.00000000
_cell_angle_gamma   148.82498593
_symmetry_Int_Tables_number   1
_chemical_formula_structural   NiAgF3
_chemical_formula_sum   'Ni2 Ag2 F6'
_cell_volume   127.18444673
_cell_formula_units_Z   2
loop_
 _symmetry_equiv_pos_site_id
 _symmetry_equiv_pos_as_xyz
  1  'x, y, z'
loop_
 _atom_site_type_symbol
 _atom_site_label
 _atom_site_symmetry_multiplicity
 _atom_site_fract_x
 _atom_site_fract_y
 _atom_site_fract_z
 _atom_site_occupancy
  Ni  Ni0  1  0.00000000  0.00000000  0.50000000  1
  Ni  Ni1  1  0.00000000  0.00000000  0.00000000  1
  Ag  Ag2  1  0.74549900  0.25450100  0.75000000  1
  Ag  Ag3  1  0.25450100  0.74549900  0.25000000  1
  F  F4  1  0.62028500  0.37971500  0.45201800  1
  F  F5  1  0.37971500  0.62028500  0.95201800  1
  F  F6  1  0.62028500  0.37971500  0.04798200  1
  F  F7  1  0.37971500  0.62028500  0.54798200  1
  F  F8  1  0.06070800  0.93929200  0.75000000  1
  F  F9  1  0.93929200  0.06070800  0.25000000  1
