# generated using pymatgen
data_LaCrTeO6
_symmetry_space_group_name_H-M   'P 1'
_cell_length_a   5.54433669
_cell_length_b   5.52194617
_cell_length_c   5.49464986
_cell_angle_alpha   60.15054465
_cell_angle_beta   120.16039453
_cell_angle_gamma   89.79757898
_symmetry_Int_Tables_number   1
_chemical_formula_structural   LaCrTeO6
_chemical_formula_sum   'La1 Cr1 Te1 O6'
_cell_volume   118.72017075
_cell_formula_units_Z   1
loop_
 _symmetry_equiv_pos_site_id
 _symmetry_equiv_pos_as_xyz
  1  'x, y, z'
loop_
 _atom_site_type_symbol
 _atom_site_label
 _atom_site_symmetry_multiplicity
 _atom_site_fract_x
 _atom_site_fract_y
 _atom_site_fract_z
 _atom_site_occupancy
  La  La0  1  0.76159100  0.25727900  0.50265900  1
  Cr  Cr1  1  0.00183200  0.51053000  0.99772400  1
  Te  Te2  1  0.50264900  0.00929500  0.00152600  1
  O  O3  1  0.33495600  0.24971000  0.51192300  1
  O  O4  1  0.21591300  0.29849500  0.91603200  1
  O  O5  1  0.77305800  0.71075400  0.08141100  1
  O  O6  1  0.20724000  0.81438700  0.92512400  1
  O  O7  1  0.78395600  0.21777000  0.07333400  1
  O  O8  1  0.67904300  0.77318900  0.49067900  1
