# generated using pymatgen
data_LaCrBiO6
_symmetry_space_group_name_H-M   'P 1'
_cell_length_a   6.69049500
_cell_length_b   5.85384300
_cell_length_c   9.36226675
_cell_angle_alpha   52.93523456
_cell_angle_beta   90.00000000
_cell_angle_gamma   90.00000000
_symmetry_Int_Tables_number   1
_chemical_formula_structural   LaCrBiO6
_chemical_formula_sum   'La2 Cr2 Bi2 O12'
_cell_volume   292.58939649
_cell_formula_units_Z   2
loop_
 _symmetry_equiv_pos_site_id
 _symmetry_equiv_pos_as_xyz
  1  'x, y, z'
loop_
 _atom_site_type_symbol
 _atom_site_label
 _atom_site_symmetry_multiplicity
 _atom_site_fract_x
 _atom_site_fract_y
 _atom_site_fract_z
 _atom_site_occupancy
  La  La0  1  0.40459300  0.72773600  0.25683900  1
  La  La1  1  0.59540700  0.72773600  0.75683900  1
  Cr  Cr2  1  0.18859200  0.01977100  0.51534000  1
  Cr  Cr3  1  0.81140800  0.01977100  0.01534000  1
  Bi  Bi4  1  0.11488100  0.54554200  0.01151300  1
  Bi  Bi5  1  0.88511900  0.54554200  0.51151300  1
  O  O6  1  0.84657200  0.42018400  0.78066600  1
  O  O7  1  0.03127300  0.05953200  0.08194200  1
  O  O8  1  0.15202100  0.88902200  0.39264400  1
  O  O9  1  0.59532000  0.17814200  0.02529300  1
  O  O10  1  0.60533100  0.73582500  0.47622500  1
  O  O11  1  0.25220300  0.68448500  0.70933000  1
  O  O12  1  0.15342800  0.42018400  0.28066600  1
  O  O13  1  0.96872700  0.05953200  0.58194200  1
  O  O14  1  0.84797900  0.88902200  0.89264400  1
  O  O15  1  0.40468000  0.17814200  0.52529300  1
  O  O16  1  0.39466900  0.73582500  0.97622500  1
  O  O17  1  0.74779700  0.68448500  0.20933000  1
