# generated using pymatgen
data_LaMnCrO6
_symmetry_space_group_name_H-M   'P 1'
_cell_length_a   5.37366150
_cell_length_b   5.48889475
_cell_length_c   5.26783429
_cell_angle_alpha   61.84561431
_cell_angle_beta   119.62837046
_cell_angle_gamma   87.51886856
_symmetry_Int_Tables_number   1
_chemical_formula_structural   LaMnCrO6
_chemical_formula_sum   'La1 Mn1 Cr1 O6'
_cell_volume   111.05762929
_cell_formula_units_Z   1
loop_
 _symmetry_equiv_pos_site_id
 _symmetry_equiv_pos_as_xyz
  1  'x, y, z'
loop_
 _atom_site_type_symbol
 _atom_site_label
 _atom_site_symmetry_multiplicity
 _atom_site_fract_x
 _atom_site_fract_y
 _atom_site_fract_z
 _atom_site_occupancy
  La  La0  1  0.74878900  0.28393900  0.48894300  1
  Mn  Mn1  1  0.49942400  0.04021800  0.98188200  1
  Cr  Cr2  1  0.99254300  0.55567800  0.97229300  1
  O  O3  1  0.29853600  0.24182000  0.49756600  1
  O  O4  1  0.22431400  0.27063400  0.96628000  1
  O  O5  1  0.77649000  0.71626400  0.05956200  1
  O  O6  1  0.22701200  0.76765200  0.96797100  1
  O  O7  1  0.77907800  0.22170200  0.05469900  1
  O  O8  1  0.71405100  0.74350500  0.51121600  1
