# generated using pymatgen
data_ZnSn2P2O9
_symmetry_space_group_name_H-M   'P 1'
_cell_length_a   6.44205700
_cell_length_b   8.16937100
_cell_length_c   16.27933700
_cell_angle_alpha   90.00000000
_cell_angle_beta   90.00000000
_cell_angle_gamma   90.00000000
_symmetry_Int_Tables_number   1
_chemical_formula_structural   ZnSn2P2O9
_chemical_formula_sum   'Zn4 Sn8 P8 O36'
_cell_volume   856.74168113
_cell_formula_units_Z   4
loop_
 _symmetry_equiv_pos_site_id
 _symmetry_equiv_pos_as_xyz
  1  'x, y, z'
loop_
 _atom_site_type_symbol
 _atom_site_label
 _atom_site_symmetry_multiplicity
 _atom_site_fract_x
 _atom_site_fract_y
 _atom_site_fract_z
 _atom_site_occupancy
  Zn  Zn0  1  0.75000000  0.51330700  0.81212000  1
  Zn  Zn1  1  0.75000000  0.98669300  0.31212000  1
  Zn  Zn2  1  0.25000000  0.01330700  0.68788000  1
  Zn  Zn3  1  0.25000000  0.48669300  0.18788000  1
  Sn  Sn4  1  0.75000000  0.87914400  0.88544500  1
  Sn  Sn5  1  0.25000000  0.12085600  0.11455500  1
  Sn  Sn6  1  0.25000000  0.37914400  0.61455500  1
  Sn  Sn7  1  0.75000000  0.62085600  0.38544500  1
  Sn  Sn8  1  0.50000000  0.50000000  0.00000000  1
  Sn  Sn9  1  0.50000000  0.00000000  0.50000000  1
  Sn  Sn10  1  0.00000000  0.00000000  0.50000000  1
  Sn  Sn11  1  0.00000000  0.50000000  0.00000000  1
  P  P12  1  0.25000000  0.88769200  0.93637700  1
  P  P13  1  0.75000000  0.11230800  0.06362300  1
  P  P14  1  0.75000000  0.38769200  0.56362300  1
  P  P15  1  0.25000000  0.61230800  0.43637700  1
  P  P16  1  0.75000000  0.90065800  0.71030400  1
  P  P17  1  0.75000000  0.59934200  0.21030400  1
  P  P18  1  0.25000000  0.40065800  0.78969600  1
  P  P19  1  0.25000000  0.09934200  0.28969600  1
  O  O20  1  0.04891200  0.07548800  0.34205400  1
  O  O21  1  0.54891200  0.92451200  0.65794600  1
  O  O22  1  0.95108800  0.57548800  0.15794600  1
  O  O23  1  0.45108800  0.42451200  0.84205400  1
  O  O24  1  0.95108800  0.92451200  0.65794600  1
  O  O25  1  0.45108800  0.07548800  0.34205400  1
  O  O26  1  0.04891200  0.42451200  0.84205400  1
  O  O27  1  0.54891200  0.57548800  0.15794600  1
  O  O28  1  0.25000000  0.77715400  0.48351900  1
  O  O29  1  0.75000000  0.22284600  0.51648100  1
  O  O30  1  0.75000000  0.27715400  0.01648100  1
  O  O31  1  0.25000000  0.72284600  0.98351900  1
  O  O32  1  0.75000000  0.64228200  0.91946400  1
  O  O33  1  0.25000000  0.35771800  0.08053600  1
  O  O34  1  0.25000000  0.14228200  0.58053600  1
  O  O35  1  0.75000000  0.85771800  0.41946400  1
  O  O36  1  0.75000000  0.73181700  0.75602400  1
  O  O37  1  0.25000000  0.26818300  0.24397600  1
  O  O38  1  0.25000000  0.23181700  0.74397600  1
  O  O39  1  0.75000000  0.76818300  0.25602400  1
  O  O40  1  0.43606900  0.59678200  0.37702600  1
  O  O41  1  0.93606900  0.40321800  0.62297400  1
  O  O42  1  0.56393100  0.09678200  0.12297400  1
  O  O43  1  0.06393100  0.90321800  0.87702600  1
  O  O44  1  0.56393100  0.40321800  0.62297400  1
  O  O45  1  0.06393100  0.59678200  0.37702600  1
  O  O46  1  0.43606900  0.90321800  0.87702600  1
  O  O47  1  0.93606900  0.09678200  0.12297400  1
  O  O48  1  0.75000000  0.96694600  0.00246700  1
  O  O49  1  0.25000000  0.52784300  0.71674500  1
  O  O50  1  0.25000000  0.97215700  0.21674500  1
  O  O51  1  0.75000000  0.02784300  0.78325500  1
  O  O52  1  0.75000000  0.53305400  0.50246700  1
  O  O53  1  0.25000000  0.46694600  0.49753300  1
  O  O54  1  0.25000000  0.03305400  0.99753300  1
  O  O55  1  0.75000000  0.47215700  0.28325500  1
