# generated using pymatgen
data_MgMo2P2O9
_symmetry_space_group_name_H-M   'P 1'
_cell_length_a   6.65639200
_cell_length_b   7.22830100
_cell_length_c   14.91539200
_cell_angle_alpha   90.00000000
_cell_angle_beta   90.00000000
_cell_angle_gamma   90.00000000
_symmetry_Int_Tables_number   1
_chemical_formula_structural   MgMo2P2O9
_chemical_formula_sum   'Mg4 Mo8 P8 O36'
_cell_volume   717.64521068
_cell_formula_units_Z   4
loop_
 _symmetry_equiv_pos_site_id
 _symmetry_equiv_pos_as_xyz
  1  'x, y, z'
loop_
 _atom_site_type_symbol
 _atom_site_label
 _atom_site_symmetry_multiplicity
 _atom_site_fract_x
 _atom_site_fract_y
 _atom_site_fract_z
 _atom_site_occupancy
  Mg  Mg0  1  0.75000000  0.92827400  0.77064000  1
  Mg  Mg1  1  0.75000000  0.57172600  0.27064000  1
  Mg  Mg2  1  0.25000000  0.42827400  0.72936000  1
  Mg  Mg3  1  0.25000000  0.07172600  0.22936000  1
  Mo  Mo4  1  0.75000000  0.37117700  0.87589500  1
  Mo  Mo5  1  0.25000000  0.62882300  0.12410500  1
  Mo  Mo6  1  0.25000000  0.87117700  0.62410500  1
  Mo  Mo7  1  0.75000000  0.12882300  0.37589500  1
  Mo  Mo8  1  0.50000000  0.00000000  0.00000000  1
  Mo  Mo9  1  0.50000000  0.50000000  0.50000000  1
  Mo  Mo10  1  0.00000000  0.50000000  0.50000000  1
  Mo  Mo11  1  0.00000000  0.00000000  0.00000000  1
  P  P12  1  0.25000000  0.37845600  0.92093100  1
  P  P13  1  0.75000000  0.62154400  0.07906900  1
  P  P14  1  0.75000000  0.87845600  0.57906900  1
  P  P15  1  0.25000000  0.12154400  0.42093100  1
  P  P16  1  0.75000000  0.39753400  0.69161200  1
  P  P17  1  0.75000000  0.10246600  0.19161200  1
  P  P18  1  0.25000000  0.89753400  0.80838800  1
  P  P19  1  0.25000000  0.60246600  0.30838800  1
  O  O20  1  0.05066600  0.60378700  0.36326500  1
  O  O21  1  0.55066600  0.39621300  0.63673500  1
  O  O22  1  0.94933400  0.10378700  0.13673500  1
  O  O23  1  0.44933400  0.89621300  0.86326500  1
  O  O24  1  0.94933400  0.39621300  0.63673500  1
  O  O25  1  0.44933400  0.60378700  0.36326500  1
  O  O26  1  0.05066600  0.89621300  0.86326500  1
  O  O27  1  0.55066600  0.10378700  0.13673500  1
  O  O28  1  0.25000000  0.31353000  0.47059700  1
  O  O29  1  0.75000000  0.68647000  0.52940300  1
  O  O30  1  0.75000000  0.81353000  0.02940300  1
  O  O31  1  0.25000000  0.18647000  0.97059700  1
  O  O32  1  0.75000000  0.11432600  0.93477100  1
  O  O33  1  0.25000000  0.88567400  0.06522900  1
  O  O34  1  0.25000000  0.61432600  0.56522900  1
  O  O35  1  0.75000000  0.38567400  0.43477100  1
  O  O36  1  0.75000000  0.21807800  0.75154700  1
  O  O37  1  0.25000000  0.78192200  0.24845300  1
  O  O38  1  0.25000000  0.71807800  0.74845300  1
  O  O39  1  0.75000000  0.28192200  0.25154700  1
  O  O40  1  0.42932400  0.11237000  0.35456900  1
  O  O41  1  0.92932400  0.88763000  0.64543100  1
  O  O42  1  0.57067600  0.61237000  0.14543100  1
  O  O43  1  0.07067600  0.38763000  0.85456900  1
  O  O44  1  0.57067600  0.88763000  0.64543100  1
  O  O45  1  0.07067600  0.11237000  0.35456900  1
  O  O46  1  0.42932400  0.38763000  0.85456900  1
  O  O47  1  0.92932400  0.61237000  0.14543100  1
  O  O48  1  0.75000000  0.47022600  0.00976900  1
  O  O49  1  0.25000000  0.06358300  0.74096300  1
  O  O50  1  0.25000000  0.43641700  0.24096300  1
  O  O51  1  0.75000000  0.56358300  0.75903700  1
  O  O52  1  0.75000000  0.02977400  0.50976900  1
  O  O53  1  0.25000000  0.97022600  0.49023100  1
  O  O54  1  0.25000000  0.52977400  0.99023100  1
  O  O55  1  0.75000000  0.93641700  0.25903700  1
