# generated using pymatgen
data_MgCu2(SbO4)2
_symmetry_space_group_name_H-M   'P 1'
_cell_length_a   8.71332300
_cell_length_b   6.58257900
_cell_length_c   12.30505213
_cell_angle_alpha   88.19019379
_cell_angle_beta   90.00000000
_cell_angle_gamma   90.00000000
_symmetry_Int_Tables_number   1
_chemical_formula_structural   MgCu2(SbO4)2
_chemical_formula_sum   'Mg4 Cu8 Sb8 O32'
_cell_volume   705.41819634
_cell_formula_units_Z   4
loop_
 _symmetry_equiv_pos_site_id
 _symmetry_equiv_pos_as_xyz
  1  'x, y, z'
loop_
 _atom_site_type_symbol
 _atom_site_label
 _atom_site_symmetry_multiplicity
 _atom_site_fract_x
 _atom_site_fract_y
 _atom_site_fract_z
 _atom_site_occupancy
  Mg  Mg0  1  0.83449100  0.89241700  0.05071800  1
  Mg  Mg1  1  0.16550900  0.10758300  0.94928200  1
  Mg  Mg2  1  0.33449100  0.10758300  0.44928200  1
  Mg  Mg3  1  0.66550900  0.89241700  0.55071800  1
  Cu  Cu4  1  0.82065400  0.23980900  0.87105600  1
  Cu  Cu5  1  0.94060800  0.62101300  0.62433500  1
  Cu  Cu6  1  0.05939200  0.37898700  0.37566500  1
  Cu  Cu7  1  0.17934600  0.76019100  0.12894400  1
  Cu  Cu8  1  0.67934600  0.23980900  0.37105600  1
  Cu  Cu9  1  0.55939200  0.62101300  0.12433500  1
  Cu  Cu10  1  0.32065400  0.76019100  0.62894400  1
  Cu  Cu11  1  0.44060800  0.37898700  0.87566500  1
  Sb  Sb12  1  0.54675100  0.90262300  0.84252200  1
  Sb  Sb13  1  0.95324900  0.90262300  0.34252200  1
  Sb  Sb14  1  0.91394000  0.39201300  0.13475200  1
  Sb  Sb15  1  0.04675100  0.09737700  0.65747800  1
  Sb  Sb16  1  0.08606000  0.60798700  0.86524800  1
  Sb  Sb17  1  0.41394000  0.60798700  0.36524800  1
  Sb  Sb18  1  0.58606000  0.39201300  0.63475200  1
  Sb  Sb19  1  0.45324900  0.09737700  0.15747800  1
  O  O20  1  0.75407900  0.96701300  0.39845700  1
  O  O21  1  0.97755200  0.34491700  0.58974200  1
  O  O22  1  0.42533700  0.81260200  0.47460500  1
  O  O23  1  0.92533700  0.18739800  0.02539500  1
  O  O24  1  0.74592100  0.96701300  0.89845700  1
  O  O25  1  0.24592100  0.03298700  0.60154300  1
  O  O26  1  0.89169700  0.90912100  0.61240200  1
  O  O27  1  0.11881800  0.48523000  0.14834200  1
  O  O28  1  0.38118200  0.48523000  0.64834200  1
  O  O29  1  0.12600900  0.70275200  0.71461900  1
  O  O30  1  0.62600900  0.29724800  0.78538100  1
  O  O31  1  0.88118200  0.51477000  0.85165800  1
  O  O32  1  0.10830300  0.09087900  0.38759800  1
  O  O33  1  0.46128400  0.12287600  0.31031300  1
  O  O34  1  0.72520700  0.59288000  0.57959900  1
  O  O35  1  0.77479300  0.59288000  0.07959900  1
  O  O36  1  0.96128400  0.87712400  0.18968700  1
  O  O37  1  0.61881800  0.51477000  0.35165800  1
  O  O38  1  0.53871600  0.87712400  0.68968700  1
  O  O39  1  0.57466300  0.18739800  0.52539500  1
  O  O40  1  0.52244800  0.34491700  0.08974200  1
  O  O41  1  0.87399100  0.29724800  0.28538100  1
  O  O42  1  0.25407900  0.03298700  0.10154300  1
  O  O43  1  0.60830300  0.90912100  0.11240200  1
  O  O44  1  0.07466300  0.81260200  0.97460500  1
  O  O45  1  0.22520700  0.40712000  0.92040100  1
  O  O46  1  0.02244800  0.65508300  0.41025800  1
  O  O47  1  0.47755200  0.65508300  0.91025800  1
  O  O48  1  0.39169700  0.09087900  0.88759800  1
  O  O49  1  0.27479300  0.40712000  0.42040100  1
  O  O50  1  0.37399100  0.70275200  0.21461900  1
  O  O51  1  0.03871600  0.12287600  0.81031300  1
