# generated using pymatgen
data_VO2
_symmetry_space_group_name_H-M   'P 1'
_cell_length_a   6.01084800
_cell_length_b   6.01993577
_cell_length_c   14.18855464
_cell_angle_alpha   90.23895965
_cell_angle_beta   90.36271075
_cell_angle_gamma   119.71236736
_symmetry_Int_Tables_number   1
_chemical_formula_structural   VO2
_chemical_formula_sum   'V12 O24'
_cell_volume   445.88594199
_cell_formula_units_Z   12
loop_
 _symmetry_equiv_pos_site_id
 _symmetry_equiv_pos_as_xyz
  1  'x, y, z'
loop_
 _atom_site_type_symbol
 _atom_site_label
 _atom_site_symmetry_multiplicity
 _atom_site_fract_x
 _atom_site_fract_y
 _atom_site_fract_z
 _atom_site_occupancy
  V  V0  1  0.31103600  0.63478000  0.83387000  1
  V  V1  1  0.86338800  0.67473200  0.83452900  1
  V  V2  1  0.97841500  0.97325000  0.50725400  1
  V  V3  1  0.82296000  0.18510300  0.83511800  1
  V  V4  1  0.53034700  0.00975400  0.50345100  1
  V  V5  1  0.31163700  0.16112000  0.34597000  1
  V  V6  1  0.33220300  0.16676000  0.71561200  1
  V  V7  1  0.65304700  0.31693600  0.18069800  1
  V  V8  1  0.49941200  0.52462400  0.50287300  1
  V  V9  1  0.17528500  0.33214000  0.16560400  1
  V  V10  1  0.17332100  0.84686000  0.16273000  1
  V  V11  1  0.66499100  0.83061800  0.04390700  1
  O  O12  1  0.69996300  0.33728700  0.90229400  1
  O  O13  1  0.99602500  0.49527700  0.75712700  1
  O  O14  1  0.16521900  0.36322400  0.90191700  1
  O  O15  1  0.13771300  0.79833800  0.90317900  1
  O  O16  1  0.35483900  0.67040500  0.56365900  1
  O  O17  1  0.50638500  0.49855800  0.75810200  1
  O  O18  1  0.66997200  0.83661200  0.42714200  1
  O  O19  1  0.48496800  0.98856600  0.76082800  1
  O  O20  1  0.66686900  0.83249000  0.90979500  1
  O  O21  1  0.83534600  0.68580100  0.56688300  1
  O  O22  1  0.81684000  0.14999100  0.56741400  1
  O  O23  1  0.00260400  0.00557600  0.76182000  1
  O  O24  1  0.05525600  0.02781900  0.24901900  1
  O  O25  1  0.19577800  0.88246600  0.42036400  1
  O  O26  1  0.17699100  0.30270200  0.42034400  1
  O  O27  1  0.35472100  0.17968900  0.09743500  1
  O  O28  1  0.33380700  0.17012100  0.58250000  1
  O  O29  1  0.48495300  0.02665300  0.25104200  1
  O  O30  1  0.48165500  0.44977900  0.25288100  1
  O  O31  1  0.60895300  0.31339400  0.42075800  1
  O  O32  1  0.82006700  0.13781000  0.08946700  1
  O  O33  1  0.81891900  0.67735800  0.08788100  1
  O  O34  1  0.99533700  0.50338800  0.21845100  1
  O  O35  1  0.35409800  0.67668200  0.08766700  1
