# generated using pymatgen
data_Mo2P2O9
_symmetry_space_group_name_H-M   'P 1'
_cell_length_a   6.54698700
_cell_length_b   7.96781100
_cell_length_c   14.51581700
_cell_angle_alpha   90.00000000
_cell_angle_beta   90.00000000
_cell_angle_gamma   90.00000000
_symmetry_Int_Tables_number   1
_chemical_formula_structural   Mo2P2O9
_chemical_formula_sum   'Mo8 P8 O36'
_cell_volume   757.21984427
_cell_formula_units_Z   4
loop_
 _symmetry_equiv_pos_site_id
 _symmetry_equiv_pos_as_xyz
  1  'x, y, z'
loop_
 _atom_site_type_symbol
 _atom_site_label
 _atom_site_symmetry_multiplicity
 _atom_site_fract_x
 _atom_site_fract_y
 _atom_site_fract_z
 _atom_site_occupancy
  Mo  Mo0  1  0.25000000  0.85642300  0.37256000  1
  Mo  Mo1  1  0.75000000  0.14357700  0.62744000  1
  Mo  Mo2  1  0.75000000  0.35642300  0.12744000  1
  Mo  Mo3  1  0.25000000  0.64357700  0.87256000  1
  Mo  Mo4  1  0.00000000  0.50000000  0.50000000  1
  Mo  Mo5  1  0.00000000  0.00000000  0.00000000  1
  Mo  Mo6  1  0.50000000  0.00000000  0.00000000  1
  Mo  Mo7  1  0.50000000  0.50000000  0.50000000  1
  P  P8  1  0.75000000  0.85629100  0.43789000  1
  P  P9  1  0.25000000  0.14370900  0.56211000  1
  P  P10  1  0.25000000  0.35629100  0.06211000  1
  P  P11  1  0.75000000  0.64370900  0.93789000  1
  P  P12  1  0.25000000  0.89987700  0.18938300  1
  P  P13  1  0.25000000  0.60012300  0.68938300  1
  P  P14  1  0.75000000  0.39987700  0.31061700  1
  P  P15  1  0.75000000  0.10012300  0.81061700  1
  O  O16  1  0.55783900  0.09768000  0.87345100  1
  O  O17  1  0.05783900  0.90232000  0.12654900  1
  O  O18  1  0.44216100  0.59768000  0.62654900  1
  O  O19  1  0.94216100  0.40232000  0.37345100  1
  O  O20  1  0.44216100  0.90232000  0.12654900  1
  O  O21  1  0.94216100  0.09768000  0.87345100  1
  O  O22  1  0.55783900  0.40232000  0.37345100  1
  O  O23  1  0.05783900  0.59768000  0.62654900  1
  O  O24  1  0.75000000  0.82709500  0.98264000  1
  O  O25  1  0.25000000  0.17290500  0.01736000  1
  O  O26  1  0.25000000  0.32709500  0.51736000  1
  O  O27  1  0.75000000  0.67290500  0.48264000  1
  O  O28  1  0.25000000  0.63106100  0.45302500  1
  O  O29  1  0.75000000  0.36893900  0.54697500  1
  O  O30  1  0.75000000  0.13106100  0.04697500  1
  O  O31  1  0.25000000  0.86893900  0.95302500  1
  O  O32  1  0.25000000  0.73512800  0.25063600  1
  O  O33  1  0.75000000  0.26487200  0.74936400  1
  O  O34  1  0.75000000  0.23512800  0.24936400  1
  O  O35  1  0.25000000  0.76487200  0.75063600  1
  O  O36  1  0.94119500  0.63302500  0.87790400  1
  O  O37  1  0.44119500  0.36697500  0.12209600  1
  O  O38  1  0.05880500  0.13302500  0.62209600  1
  O  O39  1  0.55880500  0.86697500  0.37790400  1
  O  O40  1  0.05880500  0.36697500  0.12209600  1
  O  O41  1  0.55880500  0.63302500  0.87790400  1
  O  O42  1  0.94119500  0.86697500  0.37790400  1
  O  O43  1  0.44119500  0.13302500  0.62209600  1
  O  O44  1  0.25000000  0.01127900  0.48694500  1
  O  O45  1  0.75000000  0.53723500  0.23557500  1
  O  O46  1  0.75000000  0.96276500  0.73557500  1
  O  O47  1  0.25000000  0.03723500  0.26442500  1
  O  O48  1  0.25000000  0.48872100  0.98694500  1
  O  O49  1  0.75000000  0.51127900  0.01305500  1
  O  O50  1  0.75000000  0.98872100  0.51305500  1
  O  O51  1  0.25000000  0.46276500  0.76442500  1
