# generated using pymatgen
data_ZnCu2(BiO4)2
_symmetry_space_group_name_H-M   'P 1'
_cell_length_a   8.60732700
_cell_length_b   6.43188500
_cell_length_c   13.79293636
_cell_angle_alpha   86.65625955
_cell_angle_beta   90.00000000
_cell_angle_gamma   90.00000000
_symmetry_Int_Tables_number   1
_chemical_formula_structural   ZnCu2(BiO4)2
_chemical_formula_sum   'Zn4 Cu8 Bi8 O32'
_cell_volume   762.29544436
_cell_formula_units_Z   4
loop_
 _symmetry_equiv_pos_site_id
 _symmetry_equiv_pos_as_xyz
  1  'x, y, z'
loop_
 _atom_site_type_symbol
 _atom_site_label
 _atom_site_symmetry_multiplicity
 _atom_site_fract_x
 _atom_site_fract_y
 _atom_site_fract_z
 _atom_site_occupancy
  Zn  Zn0  1  0.85232500  0.89483900  0.04814900  1
  Zn  Zn1  1  0.14767500  0.10516100  0.95185100  1
  Zn  Zn2  1  0.35232500  0.10516100  0.45185100  1
  Zn  Zn3  1  0.64767500  0.89483900  0.54814900  1
  Cu  Cu4  1  0.80532700  0.25048400  0.88986200  1
  Cu  Cu5  1  0.93677900  0.64446700  0.61326200  1
  Cu  Cu6  1  0.06322100  0.35553300  0.38673800  1
  Cu  Cu7  1  0.19467300  0.74951600  0.11013800  1
  Cu  Cu8  1  0.69467300  0.25048400  0.38986200  1
  Cu  Cu9  1  0.56322100  0.64446700  0.11326200  1
  Cu  Cu10  1  0.30532700  0.74951600  0.61013800  1
  Cu  Cu11  1  0.43677900  0.35553300  0.88673800  1
  Bi  Bi12  1  0.55933600  0.89713600  0.83359700  1
  Bi  Bi13  1  0.94066400  0.89713600  0.33359700  1
  Bi  Bi14  1  0.90134100  0.37002200  0.13778900  1
  Bi  Bi15  1  0.05933600  0.10286400  0.66640300  1
  Bi  Bi16  1  0.09865900  0.62997800  0.86221100  1
  Bi  Bi17  1  0.40134100  0.62997800  0.36221100  1
  Bi  Bi18  1  0.59865900  0.37002200  0.63778900  1
  Bi  Bi19  1  0.44066400  0.10286400  0.16640300  1
  O  O20  1  0.73607100  0.96688400  0.40770900  1
  O  O21  1  0.96035400  0.36407000  0.59425700  1
  O  O22  1  0.43034300  0.80263700  0.49613800  1
  O  O23  1  0.93034300  0.19736300  0.00386200  1
  O  O24  1  0.76392900  0.96688400  0.90770900  1
  O  O25  1  0.26392900  0.03311600  0.59229100  1
  O  O26  1  0.88084500  0.92228400  0.60936000  1
  O  O27  1  0.12857300  0.48576700  0.14325600  1
  O  O28  1  0.37142700  0.48576700  0.64325600  1
  O  O29  1  0.11833700  0.71473200  0.68121000  1
  O  O30  1  0.61833700  0.28526800  0.81879000  1
  O  O31  1  0.87142700  0.51423300  0.85674400  1
  O  O32  1  0.11915500  0.07771600  0.39064000  1
  O  O33  1  0.45823700  0.11730100  0.31381900  1
  O  O34  1  0.73811100  0.61082700  0.56468800  1
  O  O35  1  0.76188900  0.61082700  0.06468800  1
  O  O36  1  0.95823700  0.88269900  0.18618100  1
  O  O37  1  0.62857300  0.51423300  0.35674400  1
  O  O38  1  0.54176300  0.88269900  0.68618100  1
  O  O39  1  0.56965700  0.19736300  0.50386200  1
  O  O40  1  0.53964600  0.36407000  0.09425700  1
  O  O41  1  0.88166300  0.28526800  0.31879000  1
  O  O42  1  0.23607100  0.03311600  0.09229100  1
  O  O43  1  0.61915500  0.92228400  0.10936000  1
  O  O44  1  0.06965700  0.80263700  0.99613800  1
  O  O45  1  0.23811100  0.38917300  0.93531200  1
  O  O46  1  0.03964600  0.63593000  0.40574300  1
  O  O47  1  0.46035400  0.63593000  0.90574300  1
  O  O48  1  0.38084500  0.07771600  0.89064000  1
  O  O49  1  0.26188900  0.38917300  0.43531200  1
  O  O50  1  0.38166300  0.71473200  0.18121000  1
  O  O51  1  0.04176300  0.11730100  0.81381900  1
