# generated using pymatgen
data_MgP2W2O9
_symmetry_space_group_name_H-M   'P 1'
_cell_length_a   6.70668300
_cell_length_b   7.17398400
_cell_length_c   15.03611500
_cell_angle_alpha   90.00000000
_cell_angle_beta   90.00000000
_cell_angle_gamma   90.00000000
_symmetry_Int_Tables_number   1
_chemical_formula_structural   MgP2W2O9
_chemical_formula_sum   'Mg4 P8 W8 O36'
_cell_volume   723.44217201
_cell_formula_units_Z   4
loop_
 _symmetry_equiv_pos_site_id
 _symmetry_equiv_pos_as_xyz
  1  'x, y, z'
loop_
 _atom_site_type_symbol
 _atom_site_label
 _atom_site_symmetry_multiplicity
 _atom_site_fract_x
 _atom_site_fract_y
 _atom_site_fract_z
 _atom_site_occupancy
  Mg  Mg0  1  0.25000000  0.42011100  0.76799900  1
  Mg  Mg1  1  0.25000000  0.07988900  0.26799900  1
  Mg  Mg2  1  0.75000000  0.92011100  0.73200100  1
  Mg  Mg3  1  0.75000000  0.57988900  0.23200100  1
  P  P4  1  0.75000000  0.87801300  0.92111700  1
  P  P5  1  0.25000000  0.12198700  0.07888300  1
  P  P6  1  0.25000000  0.37801300  0.57888300  1
  P  P7  1  0.75000000  0.62198700  0.42111700  1
  P  P8  1  0.25000000  0.89979000  0.69136900  1
  P  P9  1  0.25000000  0.60021000  0.19136900  1
  P  P10  1  0.75000000  0.39979000  0.80863100  1
  P  P11  1  0.75000000  0.10021000  0.30863100  1
  W  W12  1  0.25000000  0.87408700  0.87512700  1
  W  W13  1  0.75000000  0.12591300  0.12487300  1
  W  W14  1  0.75000000  0.37408700  0.62487300  1
  W  W15  1  0.25000000  0.62591300  0.37512700  1
  W  W16  1  0.00000000  0.50000000  0.00000000  1
  W  W17  1  0.00000000  0.00000000  0.50000000  1
  W  W18  1  0.50000000  0.00000000  0.50000000  1
  W  W19  1  0.50000000  0.50000000  0.00000000  1
  O  O20  1  0.55172300  0.10016500  0.36250400  1
  O  O21  1  0.05172300  0.89983500  0.63749600  1
  O  O22  1  0.44827700  0.60016500  0.13749600  1
  O  O23  1  0.94827700  0.39983500  0.86250400  1
  O  O24  1  0.44827700  0.89983500  0.63749600  1
  O  O25  1  0.94827700  0.10016500  0.36250400  1
  O  O26  1  0.55172300  0.39983500  0.86250400  1
  O  O27  1  0.05172300  0.60016500  0.13749600  1
  O  O28  1  0.75000000  0.81528500  0.47029500  1
  O  O29  1  0.25000000  0.18471500  0.52970500  1
  O  O30  1  0.25000000  0.31528500  0.02970500  1
  O  O31  1  0.75000000  0.68471500  0.97029500  1
  O  O32  1  0.25000000  0.61502200  0.93537400  1
  O  O33  1  0.75000000  0.38497800  0.06462600  1
  O  O34  1  0.75000000  0.11502200  0.56462600  1
  O  O35  1  0.25000000  0.88497800  0.43537400  1
  O  O36  1  0.25000000  0.71910800  0.75092600  1
  O  O37  1  0.75000000  0.28089200  0.24907400  1
  O  O38  1  0.75000000  0.21910800  0.74907400  1
  O  O39  1  0.25000000  0.78089200  0.25092600  1
  O  O40  1  0.92838100  0.61360200  0.35525800  1
  O  O41  1  0.42838100  0.38639800  0.64474200  1
  O  O42  1  0.07161900  0.11360200  0.14474200  1
  O  O43  1  0.57161900  0.88639800  0.85525800  1
  O  O44  1  0.07161900  0.38639800  0.64474200  1
  O  O45  1  0.57161900  0.61360200  0.35525800  1
  O  O46  1  0.92838100  0.88639800  0.85525800  1
  O  O47  1  0.42838100  0.11360200  0.14474200  1
  O  O48  1  0.25000000  0.97096000  0.00962100  1
  O  O49  1  0.75000000  0.56780600  0.74116200  1
  O  O50  1  0.75000000  0.93219400  0.24116200  1
  O  O51  1  0.25000000  0.06780600  0.75883800  1
  O  O52  1  0.25000000  0.52904000  0.50962100  1
  O  O53  1  0.75000000  0.47096000  0.49037900  1
  O  O54  1  0.75000000  0.02904000  0.99037900  1
  O  O55  1  0.25000000  0.43219400  0.25883800  1
