# generated using pymatgen
data_CuSbO4
_symmetry_space_group_name_H-M   'P 1'
_cell_length_a   9.04538700
_cell_length_b   6.85649900
_cell_length_c   11.03420730
_cell_angle_alpha   88.65916910
_cell_angle_beta   90.00000000
_cell_angle_gamma   90.00000000
_symmetry_Int_Tables_number   1
_chemical_formula_structural   CuSbO4
_chemical_formula_sum   'Cu8 Sb8 O32'
_cell_volume   684.15070208
_cell_formula_units_Z   8
loop_
 _symmetry_equiv_pos_site_id
 _symmetry_equiv_pos_as_xyz
  1  'x, y, z'
loop_
 _atom_site_type_symbol
 _atom_site_label
 _atom_site_symmetry_multiplicity
 _atom_site_fract_x
 _atom_site_fract_y
 _atom_site_fract_z
 _atom_site_occupancy
  Cu  Cu0  1  0.88481600  0.16145600  0.89099500  1
  Cu  Cu1  1  0.96205200  0.61857000  0.62662100  1
  Cu  Cu2  1  0.03794800  0.38143000  0.37337900  1
  Cu  Cu3  1  0.11518400  0.83854400  0.10900500  1
  Cu  Cu4  1  0.61518400  0.16145600  0.39099500  1
  Cu  Cu5  1  0.53794800  0.61857000  0.12662100  1
  Cu  Cu6  1  0.38481600  0.83854400  0.60900500  1
  Cu  Cu7  1  0.46205200  0.38143000  0.87337900  1
  Sb  Sb8  1  0.57864400  0.89069400  0.88025900  1
  Sb  Sb9  1  0.92135600  0.89069400  0.38025900  1
  Sb  Sb10  1  0.87645500  0.42163800  0.10527800  1
  Sb  Sb11  1  0.07864400  0.10930600  0.61974100  1
  Sb  Sb12  1  0.12354500  0.57836200  0.89472200  1
  Sb  Sb13  1  0.37645500  0.57836200  0.39472200  1
  Sb  Sb14  1  0.62354500  0.42163800  0.60527800  1
  Sb  Sb15  1  0.42135600  0.10930600  0.11974100  1
  O  O16  1  0.70926400  0.92386800  0.36506900  1
  O  O17  1  0.98479400  0.36073100  0.58455000  1
  O  O18  1  0.30951700  0.82816200  0.45507000  1
  O  O19  1  0.80951700  0.17183800  0.04493000  1
  O  O20  1  0.79073600  0.92386800  0.86506900  1
  O  O21  1  0.29073600  0.07613200  0.63493100  1
  O  O22  1  0.94397400  0.88819500  0.57748000  1
  O  O23  1  0.06949800  0.57016700  0.08859200  1
  O  O24  1  0.43050200  0.57016700  0.58859200  1
  O  O25  1  0.12536800  0.66097100  0.72383600  1
  O  O26  1  0.62536800  0.33902900  0.77616400  1
  O  O27  1  0.93050200  0.42983300  0.91140800  1
  O  O28  1  0.05602600  0.11180500  0.42252000  1
  O  O29  1  0.45977600  0.11044100  0.29142000  1
  O  O30  1  0.76032400  0.63085500  0.59713600  1
  O  O31  1  0.73967600  0.63085500  0.09713600  1
  O  O32  1  0.95977600  0.88955900  0.20858000  1
  O  O33  1  0.56949800  0.42983300  0.41140800  1
  O  O34  1  0.54022400  0.88955900  0.70858000  1
  O  O35  1  0.69048300  0.17183800  0.54493000  1
  O  O36  1  0.51520600  0.36073100  0.08455000  1
  O  O37  1  0.87463200  0.33902900  0.27616400  1
  O  O38  1  0.20926400  0.07613200  0.13493100  1
  O  O39  1  0.55602600  0.88819500  0.07748000  1
  O  O40  1  0.19048300  0.82816200  0.95507000  1
  O  O41  1  0.26032400  0.36914500  0.90286400  1
  O  O42  1  0.01520600  0.63926900  0.41545000  1
  O  O43  1  0.48479400  0.63926900  0.91545000  1
  O  O44  1  0.44397400  0.11180500  0.92252000  1
  O  O45  1  0.23967600  0.36914500  0.40286400  1
  O  O46  1  0.37463200  0.66097100  0.22383600  1
  O  O47  1  0.04022400  0.11044100  0.79142000  1
