# generated using pymatgen
data_HoMgV2O6
_symmetry_space_group_name_H-M   'P 1'
_cell_length_a   5.21294000
_cell_length_b   5.47437956
_cell_length_c   7.59234043
_cell_angle_alpha   89.79779393
_cell_angle_beta   89.91039254
_cell_angle_gamma   89.81820235
_symmetry_Int_Tables_number   1
_chemical_formula_structural   HoMgV2O6
_chemical_formula_sum   'Ho2 Mg2 V4 O12'
_cell_volume   216.66456561
_cell_formula_units_Z   2
loop_
 _symmetry_equiv_pos_site_id
 _symmetry_equiv_pos_as_xyz
  1  'x, y, z'
loop_
 _atom_site_type_symbol
 _atom_site_label
 _atom_site_symmetry_multiplicity
 _atom_site_fract_x
 _atom_site_fract_y
 _atom_site_fract_z
 _atom_site_occupancy
  Ho  Ho0  1  0.01610100  0.06861500  0.25128900  1
  Ho  Ho1  1  0.51426400  0.43244500  0.74992100  1
  Mg  Mg2  1  0.49051600  0.55105700  0.25029600  1
  Mg  Mg3  1  0.98401500  0.94433600  0.74854700  1
  V  V4  1  0.99924800  0.50740500  0.00056300  1
  V  V5  1  0.00014800  0.50559100  0.50063000  1
  V  V6  1  0.49835600  0.99120000  0.50106700  1
  V  V7  1  0.49937100  0.99125700  0.00068100  1
  O  O8  1  0.10893000  0.56050200  0.74963700  1
  O  O9  1  0.20646300  0.81643500  0.05749100  1
  O  O10  1  0.19774300  0.80084400  0.43440000  1
  O  O11  1  0.31566000  0.31291400  0.06270300  1
  O  O12  1  0.32968700  0.29688800  0.43932700  1
  O  O13  1  0.36611300  0.04283000  0.74855800  1
  O  O14  1  0.61523500  0.93996900  0.24998500  1
  O  O15  1  0.68194500  0.71119600  0.56149300  1
  O  O16  1  0.68952500  0.69767900  0.93684500  1
  O  O17  1  0.79847500  0.17935400  0.94063300  1
  O  O18  1  0.81448000  0.19025000  0.56446000  1
  O  O19  1  0.87372500  0.45923400  0.25147300  1
