# generated using pymatgen
data_CaMn2O4
_symmetry_space_group_name_H-M   'P 1'
_cell_length_a   6.56464298
_cell_length_b   6.56464298
_cell_length_c   15.54912230
_cell_angle_alpha   83.52045124
_cell_angle_beta   83.52045124
_cell_angle_gamma   54.37769200
_symmetry_Int_Tables_number   1
_chemical_formula_structural   CaMn2O4
_chemical_formula_sum   'Ca6 Mn12 O24'
_cell_volume   540.29122640
_cell_formula_units_Z   6
loop_
 _symmetry_equiv_pos_site_id
 _symmetry_equiv_pos_as_xyz
  1  'x, y, z'
loop_
 _atom_site_type_symbol
 _atom_site_label
 _atom_site_symmetry_multiplicity
 _atom_site_fract_x
 _atom_site_fract_y
 _atom_site_fract_z
 _atom_site_occupancy
  Ca  Ca0  1  0.17109500  0.17109500  0.95362900  1
  Ca  Ca1  1  0.50214100  0.50214100  0.62069100  1
  Ca  Ca2  1  0.49753000  0.49753000  0.00044900  1
  Ca  Ca3  1  0.83585300  0.83585300  0.28342100  1
  Ca  Ca4  1  0.16666200  0.16666200  0.71498700  1
  Ca  Ca5  1  0.49642700  0.49642700  0.37573800  1
  Mn  Mn6  1  0.17072500  0.67438700  0.83324400  1
  Mn  Mn7  1  0.66900300  0.66900300  0.82457300  1
  Mn  Mn8  1  0.49925700  0.99843200  0.49981100  1
  Mn  Mn9  1  0.67438700  0.17072500  0.83324400  1
  Mn  Mn10  1  0.83761100  0.83761100  0.66442400  1
  Mn  Mn11  1  0.99772900  0.99772900  0.49948800  1
  Mn  Mn12  1  0.83486000  0.33129500  0.16841400  1
  Mn  Mn13  1  0.99843200  0.49925700  0.49981100  1
  Mn  Mn14  1  0.33129500  0.83486000  0.16841400  1
  Mn  Mn15  1  0.16200400  0.16200400  0.33696000  1
  Mn  Mn16  1  0.32519800  0.32519800  0.17294800  1
  Mn  Mn17  1  0.82999900  0.82999900  0.04879600  1
  O  O18  1  0.35780200  0.35780200  0.90401800  1
  O  O19  1  0.49531000  0.49531000  0.76194600  1
  O  O20  1  0.35287400  0.81427400  0.89063600  1
  O  O21  1  0.81427400  0.35287400  0.89063600  1
  O  O22  1  0.55681200  0.98218500  0.75311200  1
  O  O23  1  0.69080100  0.69080100  0.57679400  1
  O  O24  1  0.98218500  0.55681200  0.75311200  1
  O  O25  1  0.84867400  0.84867400  0.91012600  1
  O  O26  1  0.69487600  0.12063900  0.57663800  1
  O  O27  1  0.82420800  0.82420800  0.43045300  1
  O  O28  1  0.97622900  0.97622900  0.75616400  1
  O  O29  1  0.12063900  0.69487600  0.57663800  1
  O  O30  1  0.87437900  0.30264900  0.42443200  1
  O  O31  1  0.02532000  0.02532000  0.24595700  1
  O  O32  1  0.30264900  0.87437900  0.42443200  1
  O  O33  1  0.17411100  0.17411100  0.56961600  1
  O  O34  1  0.15623100  0.15623100  0.09968300  1
  O  O35  1  0.02163900  0.44518800  0.25098600  1
  O  O36  1  0.30817800  0.30817800  0.42414400  1
  O  O37  1  0.44518800  0.02163900  0.25098600  1
  O  O38  1  0.16837400  0.64546400  0.10337200  1
  O  O39  1  0.50602700  0.50602700  0.23301100  1
  O  O40  1  0.64546400  0.16837400  0.10337200  1
  O  O41  1  0.65129800  0.65129800  0.09171100  1
