# generated using pymatgen
data_CaCu2(SbO4)2
_symmetry_space_group_name_H-M   'P 1'
_cell_length_a   9.12161500
_cell_length_b   6.69058400
_cell_length_c   12.72305921
_cell_angle_alpha   87.72556387
_cell_angle_beta   90.00000000
_cell_angle_gamma   90.00000000
_symmetry_Int_Tables_number   1
_chemical_formula_structural   CaCu2(SbO4)2
_chemical_formula_sum   'Ca4 Cu8 Sb8 O32'
_cell_volume   775.86300159
_cell_formula_units_Z   4
loop_
 _symmetry_equiv_pos_site_id
 _symmetry_equiv_pos_as_xyz
  1  'x, y, z'
loop_
 _atom_site_type_symbol
 _atom_site_label
 _atom_site_symmetry_multiplicity
 _atom_site_fract_x
 _atom_site_fract_y
 _atom_site_fract_z
 _atom_site_occupancy
  Ca  Ca0  1  0.16581100  0.12486800  0.03489800  1
  Ca  Ca1  1  0.83418900  0.87513200  0.96510200  1
  Ca  Ca2  1  0.66581100  0.87513200  0.46510200  1
  Ca  Ca3  1  0.33418900  0.12486800  0.53489800  1
  Cu  Cu4  1  0.18083100  0.75723800  0.84890200  1
  Cu  Cu5  1  0.05570000  0.39226800  0.62901200  1
  Cu  Cu6  1  0.94430000  0.60773200  0.37098800  1
  Cu  Cu7  1  0.81916900  0.24276200  0.15109800  1
  Cu  Cu8  1  0.31916900  0.75723800  0.34890200  1
  Cu  Cu9  1  0.44430000  0.39226800  0.12901200  1
  Cu  Cu10  1  0.68083100  0.24276200  0.65109800  1
  Cu  Cu11  1  0.55570000  0.60773200  0.87098800  1
  Sb  Sb12  1  0.45882800  0.09125600  0.83896900  1
  Sb  Sb13  1  0.04117200  0.09125600  0.33896900  1
  Sb  Sb14  1  0.08535000  0.59903800  0.14237400  1
  Sb  Sb15  1  0.95882800  0.90874400  0.66103100  1
  Sb  Sb16  1  0.91465000  0.40096200  0.85762600  1
  Sb  Sb17  1  0.58535000  0.40096200  0.35762600  1
  Sb  Sb18  1  0.41465000  0.59903800  0.64237400  1
  Sb  Sb19  1  0.54117200  0.90874400  0.16103100  1
  O  O20  1  0.23804400  0.01652000  0.37675900  1
  O  O21  1  0.00460700  0.66604900  0.59415200  1
  O  O22  1  0.57389300  0.19411900  0.46388800  1
  O  O23  1  0.07389300  0.80588100  0.03611200  1
  O  O24  1  0.26195600  0.01652000  0.87675900  1
  O  O25  1  0.76195600  0.98348000  0.62324100  1
  O  O26  1  0.09727100  0.10595400  0.60994800  1
  O  O27  1  0.88571100  0.51116300  0.14452400  1
  O  O28  1  0.61428900  0.51116300  0.64452400  1
  O  O29  1  0.87938800  0.31226600  0.71456800  1
  O  O30  1  0.37938800  0.68773400  0.78543200  1
  O  O31  1  0.11428900  0.48883700  0.85547600  1
  O  O32  1  0.90272900  0.89404600  0.39005200  1
  O  O33  1  0.51975500  0.86379000  0.30981900  1
  O  O34  1  0.26359500  0.42831400  0.59586300  1
  O  O35  1  0.23640500  0.42831400  0.09586300  1
  O  O36  1  0.01975500  0.13621000  0.19018100  1
  O  O37  1  0.38571100  0.48883700  0.35547600  1
  O  O38  1  0.48024500  0.13621000  0.69018100  1
  O  O39  1  0.42610700  0.80588100  0.53611200  1
  O  O40  1  0.49539300  0.66604900  0.09415200  1
  O  O41  1  0.12061200  0.68773400  0.28543200  1
  O  O42  1  0.73804400  0.98348000  0.12324100  1
  O  O43  1  0.40272900  0.10595400  0.10994800  1
  O  O44  1  0.92610700  0.19411900  0.96388800  1
  O  O45  1  0.76359500  0.57168600  0.90413700  1
  O  O46  1  0.99539300  0.33395100  0.40584800  1
  O  O47  1  0.50460700  0.33395100  0.90584800  1
  O  O48  1  0.59727100  0.89404600  0.89005200  1
  O  O49  1  0.73640500  0.57168600  0.40413700  1
  O  O50  1  0.62061200  0.31226600  0.21456800  1
  O  O51  1  0.98024500  0.86379000  0.80981900  1
