# generated using pymatgen
data_MgMn2O4
_symmetry_space_group_name_H-M   'P 1'
_cell_length_a   6.18655644
_cell_length_b   6.18655644
_cell_length_c   14.84078394
_cell_angle_alpha   86.37987683
_cell_angle_beta   86.37987683
_cell_angle_gamma   57.04825879
_symmetry_Int_Tables_number   1
_chemical_formula_structural   MgMn2O4
_chemical_formula_sum   'Mg6 Mn12 O24'
_cell_volume   475.40000282
_cell_formula_units_Z   6
loop_
 _symmetry_equiv_pos_site_id
 _symmetry_equiv_pos_as_xyz
  1  'x, y, z'
loop_
 _atom_site_type_symbol
 _atom_site_label
 _atom_site_symmetry_multiplicity
 _atom_site_fract_x
 _atom_site_fract_y
 _atom_site_fract_z
 _atom_site_occupancy
  Mg  Mg0  1  0.16326500  0.16326500  0.95260300  1
  Mg  Mg1  1  0.50658600  0.50658600  0.61917000  1
  Mg  Mg2  1  0.84045200  0.84045200  0.66502500  1
  Mg  Mg3  1  0.83107400  0.83107400  0.29045500  1
  Mg  Mg4  1  0.49603900  0.49603900  0.99922900  1
  Mg  Mg5  1  0.50296000  0.50296000  0.37722700  1
  Mn  Mn6  1  0.66750400  0.66750400  0.83371800  1
  Mn  Mn7  1  0.66606400  0.17041400  0.83314800  1
  Mn  Mn8  1  0.00452100  0.00452100  0.50029300  1
  Mn  Mn9  1  0.17041400  0.66606400  0.83314800  1
  Mn  Mn10  1  0.00606400  0.50962500  0.50153500  1
  Mn  Mn11  1  0.16696500  0.16696500  0.33403600  1
  Mn  Mn12  1  0.17140800  0.17140800  0.71282800  1
  Mn  Mn13  1  0.33049700  0.33049700  0.16804500  1
  Mn  Mn14  1  0.50962500  0.00606400  0.50153500  1
  Mn  Mn15  1  0.32624500  0.83053400  0.16529600  1
  Mn  Mn16  1  0.83053400  0.32624500  0.16529600  1
  Mn  Mn17  1  0.83075300  0.83075300  0.04707700  1
  O  O18  1  0.34821200  0.34821200  0.90977200  1
  O  O19  1  0.49498500  0.49498500  0.75684800  1
  O  O20  1  0.34594500  0.80644700  0.90609000  1
  O  O21  1  0.80644700  0.34594500  0.90609000  1
  O  O22  1  0.68880300  0.68880300  0.58048400  1
  O  O23  1  0.53557300  0.00065600  0.76335600  1
  O  O24  1  0.82859200  0.82859200  0.42550900  1
  O  O25  1  0.00065600  0.53557300  0.76335600  1
  O  O26  1  0.84334700  0.84334700  0.90894200  1
  O  O27  1  0.69353400  0.15231000  0.57663500  1
  O  O28  1  0.15231000  0.69353400  0.57663500  1
  O  O29  1  0.98508200  0.98508200  0.75775100  1
  O  O30  1  0.00994400  0.00994400  0.24227000  1
  O  O31  1  0.86515500  0.31548500  0.41786700  1
  O  O32  1  0.31548500  0.86515500  0.41786700  1
  O  O33  1  0.15446900  0.15446900  0.08980400  1
  O  O34  1  0.18000300  0.18000300  0.57429900  1
  O  O35  1  0.01602500  0.46912000  0.24748200  1
  O  O36  1  0.46912000  0.01602500  0.24748200  1
  O  O37  1  0.32417300  0.32417300  0.42313400  1
  O  O38  1  0.18862400  0.64239800  0.09063800  1
  O  O39  1  0.64239800  0.18862400  0.09063800  1
  O  O40  1  0.50710100  0.50710100  0.24103900  1
  O  O41  1  0.64514100  0.64514100  0.08723600  1
