# generated using pymatgen
data_MgSb4O9
_symmetry_space_group_name_H-M   'P 1'
_cell_length_a   9.30202400
_cell_length_b   9.30202400
_cell_length_c   5.09795500
_cell_angle_alpha   90.00000000
_cell_angle_beta   90.00000000
_cell_angle_gamma   90.00000000
_symmetry_Int_Tables_number   1
_chemical_formula_structural   MgSb4O9
_chemical_formula_sum   'Mg2 Sb8 O18'
_cell_volume   441.11406849
_cell_formula_units_Z   2
loop_
 _symmetry_equiv_pos_site_id
 _symmetry_equiv_pos_as_xyz
  1  'x, y, z'
loop_
 _atom_site_type_symbol
 _atom_site_label
 _atom_site_symmetry_multiplicity
 _atom_site_fract_x
 _atom_site_fract_y
 _atom_site_fract_z
 _atom_site_occupancy
  Mg  Mg0  1  0.50000000  0.00000000  0.09208200  1
  Mg  Mg1  1  0.00000000  0.50000000  0.90791800  1
  Sb  Sb2  1  0.58070000  0.27402800  0.64162500  1
  Sb  Sb3  1  0.72597200  0.58070000  0.35837500  1
  Sb  Sb4  1  0.22597200  0.08070000  0.64162500  1
  Sb  Sb5  1  0.08070000  0.77402800  0.35837500  1
  Sb  Sb6  1  0.41930000  0.72597200  0.64162500  1
  Sb  Sb7  1  0.77402800  0.91930000  0.64162500  1
  Sb  Sb8  1  0.91930000  0.22597200  0.35837500  1
  Sb  Sb9  1  0.27402800  0.41930000  0.35837500  1
  O  O10  1  0.50000000  0.50000000  0.50000000  1
  O  O11  1  0.00000000  0.00000000  0.50000000  1
  O  O12  1  0.21335800  0.44249900  0.00508400  1
  O  O13  1  0.94249900  0.28664200  0.00508400  1
  O  O14  1  0.05750100  0.71335800  0.00508400  1
  O  O15  1  0.78664200  0.55750100  0.00508400  1
  O  O16  1  0.28664200  0.05750100  0.99491600  1
  O  O17  1  0.55750100  0.21335800  0.99491600  1
  O  O18  1  0.44249900  0.78664200  0.99491600  1
  O  O19  1  0.71335800  0.94249900  0.99491600  1
  O  O20  1  0.60807700  0.80659200  0.47881500  1
  O  O21  1  0.30659200  0.89192300  0.47881500  1
  O  O22  1  0.69340800  0.10807700  0.47881500  1
  O  O23  1  0.39192300  0.19340800  0.47881500  1
  O  O24  1  0.10807700  0.30659200  0.52118500  1
  O  O25  1  0.19340800  0.60807700  0.52118500  1
  O  O26  1  0.80659200  0.39192300  0.52118500  1
  O  O27  1  0.89192300  0.69340800  0.52118500  1
