# generated using pymatgen
data_Mg(MoO2)2
_symmetry_space_group_name_H-M   'P 1'
_cell_length_a   6.33981100
_cell_length_b   6.39424155
_cell_length_c   15.36916714
_cell_angle_alpha   88.34323440
_cell_angle_beta   89.07087483
_cell_angle_gamma   60.64613036
_symmetry_Int_Tables_number   1
_chemical_formula_structural   Mg(MoO2)2
_chemical_formula_sum   'Mg6 Mo12 O24'
_cell_volume   542.81831119
_cell_formula_units_Z   6
loop_
 _symmetry_equiv_pos_site_id
 _symmetry_equiv_pos_as_xyz
  1  'x, y, z'
loop_
 _atom_site_type_symbol
 _atom_site_label
 _atom_site_symmetry_multiplicity
 _atom_site_fract_x
 _atom_site_fract_y
 _atom_site_fract_z
 _atom_site_occupancy
  Mg  Mg0  1  0.82744500  0.84052000  0.95441400  1
  Mg  Mg1  1  0.50050300  0.49463800  0.62188200  1
  Mg  Mg2  1  0.16557200  0.16565100  0.66403700  1
  Mg  Mg3  1  0.17162200  0.16363900  0.29224600  1
  Mg  Mg4  1  0.49653400  0.50381800  0.99503000  1
  Mg  Mg5  1  0.50424300  0.49540300  0.37803100  1
  Mo  Mo6  1  0.32458500  0.34231400  0.83438800  1
  Mo  Mo7  1  0.82061800  0.34244600  0.83251500  1
  Mo  Mo8  1  0.00539100  0.99394000  0.50298600  1
  Mo  Mo9  1  0.32538400  0.83844400  0.83294700  1
  Mo  Mo10  1  0.50141900  0.99393300  0.50294500  1
  Mo  Mo11  1  0.83778900  0.83045100  0.33460400  1
  Mo  Mo12  1  0.83109900  0.82975300  0.71404200  1
  Mo  Mo13  1  0.67158300  0.66783000  0.16589800  1
  Mo  Mo14  1  0.00680600  0.48724400  0.50139800  1
  Mo  Mo15  1  0.17293100  0.66757400  0.16630400  1
  Mo  Mo16  1  0.67158700  0.16885100  0.16611400  1
  Mo  Mo17  1  0.16440400  0.16840300  0.04662200  1
  O  O18  1  0.65085900  0.66423800  0.91169000  1
  O  O19  1  0.48958500  0.51307400  0.75668300  1
  O  O20  1  0.18050000  0.65841100  0.91550100  1
  O  O21  1  0.64304200  0.19657300  0.91625000  1
  O  O22  1  0.33031300  0.31349600  0.58021800  1
  O  O23  1  0.01730900  0.46482900  0.74502900  1
  O  O24  1  0.17302500  0.16210100  0.42449500  1
  O  O25  1  0.46868100  0.03327400  0.75514700  1
  O  O26  1  0.15090800  0.16489100  0.90641800  1
  O  O27  1  0.85541500  0.31109700  0.58193100  1
  O  O28  1  0.32132600  0.85130900  0.58603800  1
  O  O29  1  0.99261000  0.02827200  0.75566000  1
  O  O30  1  0.99920300  0.98860800  0.24483000  1
  O  O31  1  0.68438300  0.13930100  0.41816800  1
  O  O32  1  0.15115600  0.67642400  0.41924900  1
  O  O33  1  0.83793500  0.83998000  0.08926800  1
  O  O34  1  0.84273700  0.80888600  0.57643100  1
  O  O35  1  0.52356700  0.98519700  0.24598800  1
  O  O36  1  0.99330700  0.51787000  0.24747200  1
  O  O37  1  0.67721100  0.67306000  0.42084100  1
  O  O38  1  0.35627300  0.81013800  0.08245900  1
  O  O39  1  0.80565500  0.35871900  0.08155600  1
  O  O40  1  0.50542500  0.49469100  0.24257100  1
  O  O41  1  0.35006000  0.35070800  0.08970500  1
