# generated using pymatgen
data_HoCr2O6
_symmetry_space_group_name_H-M   'P 1'
_cell_length_a   5.11840300
_cell_length_b   5.45324700
_cell_length_c   7.44139800
_cell_angle_alpha   90.00000000
_cell_angle_beta   90.00000000
_cell_angle_gamma   90.00000000
_symmetry_Int_Tables_number   1
_chemical_formula_structural   HoCr2O6
_chemical_formula_sum   'Ho2 Cr4 O12'
_cell_volume   207.70367444
_cell_formula_units_Z   2
loop_
 _symmetry_equiv_pos_site_id
 _symmetry_equiv_pos_as_xyz
  1  'x, y, z'
loop_
 _atom_site_type_symbol
 _atom_site_label
 _atom_site_symmetry_multiplicity
 _atom_site_fract_x
 _atom_site_fract_y
 _atom_site_fract_z
 _atom_site_occupancy
  Ho  Ho0  1  0.01678500  0.66201000  0.00000000  1
  Ho  Ho1  1  0.51678500  0.33799000  0.50000000  1
  Cr  Cr2  1  0.02353600  0.22061700  0.75575100  1
  Cr  Cr3  1  0.02353600  0.22061700  0.24424900  1
  Cr  Cr4  1  0.52353600  0.77938300  0.25575100  1
  Cr  Cr5  1  0.52353600  0.77938300  0.74424900  1
  O  O6  1  0.09500400  0.22198200  0.50000000  1
  O  O7  1  0.19453400  0.93920000  0.80520900  1
  O  O8  1  0.19453400  0.93920000  0.19479100  1
  O  O9  1  0.27862200  0.45629000  0.78827400  1
  O  O10  1  0.27862200  0.45629000  0.21172600  1
  O  O11  1  0.41510800  0.73951800  0.50000000  1
  O  O12  1  0.59500400  0.77801800  0.00000000  1
  O  O13  1  0.69453400  0.06080000  0.30520900  1
  O  O14  1  0.69453400  0.06080000  0.69479100  1
  O  O15  1  0.77862200  0.54371000  0.71172600  1
  O  O16  1  0.77862200  0.54371000  0.28827400  1
  O  O17  1  0.91510800  0.26048200  0.00000000  1
