# generated using pymatgen
data_Ca(MoO2)2
_symmetry_space_group_name_H-M   'P 1'
_cell_length_a   6.57471097
_cell_length_b   6.57471097
_cell_length_c   16.15019400
_cell_angle_alpha   90.00000000
_cell_angle_beta   90.00000000
_cell_angle_gamma   120.00000974
_symmetry_Int_Tables_number   1
_chemical_formula_structural   Ca(MoO2)2
_chemical_formula_sum   'Ca6 Mo12 O24'
_cell_volume   604.59097999
_cell_formula_units_Z   6
loop_
 _symmetry_equiv_pos_site_id
 _symmetry_equiv_pos_as_xyz
  1  'x, y, z'
loop_
 _atom_site_type_symbol
 _atom_site_label
 _atom_site_symmetry_multiplicity
 _atom_site_fract_x
 _atom_site_fract_y
 _atom_site_fract_z
 _atom_site_occupancy
  Ca  Ca0  1  0.33333300  0.66666700  0.95360000  1
  Ca  Ca1  1  0.00000000  0.00000000  0.62147700  1
  Ca  Ca2  1  0.66666700  0.33333300  0.66248600  1
  Ca  Ca3  1  0.66666700  0.33333300  0.29195000  1
  Ca  Ca4  1  0.00000000  0.00000000  0.99879000  1
  Ca  Ca5  1  0.00000000  0.00000000  0.37978000  1
  Mo  Mo6  1  0.83480900  0.16519100  0.83413500  1
  Mo  Mo7  1  0.83480900  0.66961900  0.83413500  1
  Mo  Mo8  1  0.49992500  0.50007500  0.49928800  1
  Mo  Mo9  1  0.33038100  0.16519100  0.83413500  1
  Mo  Mo10  1  0.49992500  0.99985000  0.49928800  1
  Mo  Mo11  1  0.33333300  0.66666700  0.33413700  1
  Mo  Mo12  1  0.33333300  0.66666700  0.71867500  1
  Mo  Mo13  1  0.16966600  0.83033400  0.16826200  1
  Mo  Mo14  1  0.00015000  0.50007500  0.49928800  1
  Mo  Mo15  1  0.16966600  0.33933300  0.16826200  1
  Mo  Mo16  1  0.66066700  0.83033400  0.16826200  1
  Mo  Mo17  1  0.66666700  0.33333300  0.05219100  1
  O  O18  1  0.15220700  0.84779300  0.90459300  1
  O  O19  1  0.00000000  0.00000000  0.76516800  1
  O  O20  1  0.15220700  0.30441400  0.90459300  1
  O  O21  1  0.69558600  0.84779300  0.90459300  1
  O  O22  1  0.82094300  0.17905700  0.56884800  1
  O  O23  1  0.98722500  0.49361200  0.75755500  1
  O  O24  1  0.66666700  0.33333300  0.42983000  1
  O  O25  1  0.50638800  0.01277500  0.75755500  1
  O  O26  1  0.66666700  0.33333300  0.90426400  1
  O  O27  1  0.82094300  0.64188500  0.56884800  1
  O  O28  1  0.35811500  0.17905700  0.56884800  1
  O  O29  1  0.50638800  0.49361200  0.75755500  1
  O  O30  1  0.48116200  0.51883800  0.24275100  1
  O  O31  1  0.62316600  0.81158300  0.41872700  1
  O  O32  1  0.18841700  0.37683400  0.41872700  1
  O  O33  1  0.33333300  0.66666700  0.09892200  1
  O  O34  1  0.33333300  0.66666700  0.57131900  1
  O  O35  1  0.48116200  0.96232400  0.24275100  1
  O  O36  1  0.03767600  0.51883800  0.24275100  1
  O  O37  1  0.18841700  0.81158300  0.41872700  1
  O  O38  1  0.32408800  0.16204400  0.09251900  1
  O  O39  1  0.83795600  0.67591200  0.09251900  1
  O  O40  1  0.00000000  0.00000000  0.23390000  1
  O  O41  1  0.83795600  0.16204400  0.09251900  1
