# generated using pymatgen
data_CaCu2(SnO4)2
_symmetry_space_group_name_H-M   'P 1'
_cell_length_a   9.00564200
_cell_length_b   6.31695900
_cell_length_c   12.96868294
_cell_angle_alpha   86.00247831
_cell_angle_beta   90.00000000
_cell_angle_gamma   90.00000000
_symmetry_Int_Tables_number   1
_chemical_formula_structural   CaCu2(SnO4)2
_chemical_formula_sum   'Ca4 Cu8 Sn8 O32'
_cell_volume   735.97101795
_cell_formula_units_Z   4
loop_
 _symmetry_equiv_pos_site_id
 _symmetry_equiv_pos_as_xyz
  1  'x, y, z'
loop_
 _atom_site_type_symbol
 _atom_site_label
 _atom_site_symmetry_multiplicity
 _atom_site_fract_x
 _atom_site_fract_y
 _atom_site_fract_z
 _atom_site_occupancy
  Ca  Ca0  1  0.16931600  0.12348000  0.01520600  1
  Ca  Ca1  1  0.83068400  0.87652000  0.98479400  1
  Ca  Ca2  1  0.66931600  0.87652000  0.48479400  1
  Ca  Ca3  1  0.33068400  0.12348000  0.51520600  1
  Cu  Cu4  1  0.19283600  0.73624300  0.83306500  1
  Cu  Cu5  1  0.06044300  0.39010900  0.62178300  1
  Cu  Cu6  1  0.93955700  0.60989100  0.37821700  1
  Cu  Cu7  1  0.80716400  0.26375700  0.16693500  1
  Cu  Cu8  1  0.30716400  0.73624300  0.33306500  1
  Cu  Cu9  1  0.43955700  0.39010900  0.12178300  1
  Cu  Cu10  1  0.69283600  0.26375700  0.66693500  1
  Cu  Cu11  1  0.56044300  0.60989100  0.87821700  1
  Sn  Sn12  1  0.45302000  0.08716200  0.82742800  1
  Sn  Sn13  1  0.04698000  0.08716200  0.32742800  1
  Sn  Sn14  1  0.07642700  0.56309200  0.15253000  1
  Sn  Sn15  1  0.95302000  0.91283800  0.67257200  1
  Sn  Sn16  1  0.92357300  0.43690800  0.84747000  1
  Sn  Sn17  1  0.57642700  0.43690800  0.34747000  1
  Sn  Sn18  1  0.42357300  0.56309200  0.65253000  1
  Sn  Sn19  1  0.54698000  0.91283800  0.17257200  1
  O  O20  1  0.25882700  0.01597000  0.35440200  1
  O  O21  1  0.99507900  0.66469200  0.59122400  1
  O  O22  1  0.56187300  0.19645900  0.44923700  1
  O  O23  1  0.06187300  0.80354100  0.05076300  1
  O  O24  1  0.24117300  0.01597000  0.85440200  1
  O  O25  1  0.74117300  0.98403000  0.64559800  1
  O  O26  1  0.10874600  0.10604400  0.61312900  1
  O  O27  1  0.85224500  0.54124700  0.17356800  1
  O  O28  1  0.64775500  0.54124700  0.67356800  1
  O  O29  1  0.89222800  0.30087900  0.70547700  1
  O  O30  1  0.39222800  0.69912100  0.79452300  1
  O  O31  1  0.14775500  0.45875300  0.82643200  1
  O  O32  1  0.89125400  0.89395600  0.38687100  1
  O  O33  1  0.51717300  0.78457900  0.32197700  1
  O  O34  1  0.25006800  0.45057100  0.57567900  1
  O  O35  1  0.24993200  0.45057100  0.07567900  1
  O  O36  1  0.01717300  0.21542100  0.17802300  1
  O  O37  1  0.35224500  0.45875300  0.32643200  1
  O  O38  1  0.48282700  0.21542100  0.67802300  1
  O  O39  1  0.43812700  0.80354100  0.55076300  1
  O  O40  1  0.50492100  0.66469200  0.09122400  1
  O  O41  1  0.10777200  0.69912100  0.29452300  1
  O  O42  1  0.75882700  0.98403000  0.14559800  1
  O  O43  1  0.39125400  0.10604400  0.11312900  1
  O  O44  1  0.93812700  0.19645900  0.94923700  1
  O  O45  1  0.75006800  0.54942900  0.92432100  1
  O  O46  1  0.00492100  0.33530800  0.40877600  1
  O  O47  1  0.49507900  0.33530800  0.90877600  1
  O  O48  1  0.60874600  0.89395600  0.88687100  1
  O  O49  1  0.74993200  0.54942900  0.42432100  1
  O  O50  1  0.60777200  0.30087900  0.20547700  1
  O  O51  1  0.98282700  0.78457900  0.82197700  1
