# generated using pymatgen
data_BaZnSbF7
_symmetry_space_group_name_H-M   'P 1'
_cell_length_a   10.69806900
_cell_length_b   5.77918700
_cell_length_c   10.00765114
_cell_angle_alpha   86.70262477
_cell_angle_beta   90.00000000
_cell_angle_gamma   90.00000000
_symmetry_Int_Tables_number   1
_chemical_formula_structural   BaZnSbF7
_chemical_formula_sum   'Ba4 Zn4 Sb4 F28'
_cell_volume   617.71010920
_cell_formula_units_Z   4
loop_
 _symmetry_equiv_pos_site_id
 _symmetry_equiv_pos_as_xyz
  1  'x, y, z'
loop_
 _atom_site_type_symbol
 _atom_site_label
 _atom_site_symmetry_multiplicity
 _atom_site_fract_x
 _atom_site_fract_y
 _atom_site_fract_z
 _atom_site_occupancy
  Ba  Ba0  1  0.33070400  0.73642200  0.49011400  1
  Ba  Ba1  1  0.83070400  0.26357800  0.00988600  1
  Ba  Ba2  1  0.66929600  0.26357800  0.50988600  1
  Ba  Ba3  1  0.16929600  0.73642200  0.99011400  1
  Zn  Zn4  1  0.38077700  0.31471500  0.80829000  1
  Zn  Zn5  1  0.88077700  0.68528500  0.69171000  1
  Zn  Zn6  1  0.11922300  0.31471500  0.30829000  1
  Zn  Zn7  1  0.61922300  0.68528500  0.19171000  1
  Sb  Sb8  1  0.59410000  0.79137200  0.82984700  1
  Sb  Sb9  1  0.40590000  0.20862800  0.17015300  1
  Sb  Sb10  1  0.90590000  0.79137200  0.32984700  1
  Sb  Sb11  1  0.09410000  0.20862800  0.67015300  1
  F  F12  1  0.46168700  0.86731900  0.13044800  1
  F  F13  1  0.10300000  0.61125800  0.40340700  1
  F  F14  1  0.72027100  0.50850400  0.76471000  1
  F  F15  1  0.27972900  0.49149600  0.23529000  1
  F  F16  1  0.46170000  0.09276000  0.36617600  1
  F  F17  1  0.79202400  0.80989700  0.51825000  1
  F  F18  1  0.76172300  0.96509900  0.76846600  1
  F  F19  1  0.96170000  0.90724000  0.13382400  1
  F  F20  1  0.39700000  0.61125800  0.90340700  1
  F  F21  1  0.22027100  0.49149600  0.73529000  1
  F  F22  1  0.03831300  0.86731900  0.63044800  1
  F  F23  1  0.53831300  0.13268100  0.86955200  1
  F  F24  1  0.26172300  0.03490100  0.73153400  1
  F  F25  1  0.96456800  0.58060400  0.86137800  1
  F  F26  1  0.53830000  0.90724000  0.63382400  1
  F  F27  1  0.03830000  0.09276000  0.86617600  1
  F  F28  1  0.23827700  0.03490100  0.23153400  1
  F  F29  1  0.96168700  0.13268100  0.36955200  1
  F  F30  1  0.46456800  0.41939600  0.63862200  1
  F  F31  1  0.89700000  0.38874200  0.59659300  1
  F  F32  1  0.03543200  0.41939600  0.13862200  1
  F  F33  1  0.73827700  0.96509900  0.26846600  1
  F  F34  1  0.53543200  0.58060400  0.36137800  1
  F  F35  1  0.29202400  0.19010300  0.98175000  1
  F  F36  1  0.20797600  0.19010300  0.48175000  1
  F  F37  1  0.70797600  0.80989700  0.01825000  1
  F  F38  1  0.60300000  0.38874200  0.09659300  1
  F  F39  1  0.77972900  0.50850400  0.26471000  1
