# generated using pymatgen
data_Zn(WO2)2
_symmetry_space_group_name_H-M   'P 1'
_cell_length_a   6.47284371
_cell_length_b   6.47284371
_cell_length_c   15.32254000
_cell_angle_alpha   90.00000000
_cell_angle_beta   90.00000000
_cell_angle_gamma   119.99999700
_symmetry_Int_Tables_number   1
_chemical_formula_structural   Zn(WO2)2
_chemical_formula_sum   'Zn6 W12 O24'
_cell_volume   555.97037396
_cell_formula_units_Z   6
loop_
 _symmetry_equiv_pos_site_id
 _symmetry_equiv_pos_as_xyz
  1  'x, y, z'
loop_
 _atom_site_type_symbol
 _atom_site_label
 _atom_site_symmetry_multiplicity
 _atom_site_fract_x
 _atom_site_fract_y
 _atom_site_fract_z
 _atom_site_occupancy
  Zn  Zn0  1  0.00000000  0.00000000  0.94915700  1
  Zn  Zn1  1  0.66666700  0.33333300  0.61860500  1
  Zn  Zn2  1  0.33333300  0.66666700  0.65933600  1
  Zn  Zn3  1  0.33333300  0.66666700  0.29238700  1
  Zn  Zn4  1  0.66666700  0.33333300  0.99305400  1
  Zn  Zn5  1  0.66666700  0.33333300  0.38054800  1
  W  W6  1  0.99652300  0.49826200  0.83296500  1
  W  W7  1  0.50173800  0.49826200  0.83296500  1
  W  W8  1  0.66147600  0.83073800  0.50263800  1
  W  W9  1  0.50173800  0.00347700  0.83296500  1
  W  W10  1  0.16926200  0.83073800  0.50263800  1
  W  W11  1  0.00000000  0.00000000  0.33480300  1
  W  W12  1  0.00000000  0.00000000  0.73079600  1
  W  W13  1  0.33660200  0.16830100  0.16656400  1
  W  W14  1  0.16926200  0.33852400  0.50263800  1
  W  W15  1  0.83169900  0.16830100  0.16656400  1
  W  W16  1  0.83169900  0.66339800  0.16656400  1
  W  W17  1  0.33333300  0.66666700  0.06038200  1
  O  O18  1  0.35533800  0.17766900  0.91355500  1
  O  O19  1  0.66666700  0.33333300  0.75713000  1
  O  O20  1  0.82233100  0.17766900  0.91355500  1
  O  O21  1  0.82233100  0.64466200  0.91355500  1
  O  O22  1  0.01430800  0.50715400  0.58169200  1
  O  O23  1  0.17868600  0.35737300  0.75015000  1
  O  O24  1  0.33333300  0.66666700  0.42455700  1
  O  O25  1  0.17868600  0.82131400  0.75015000  1
  O  O26  1  0.33333300  0.66666700  0.90363100  1
  O  O27  1  0.49284600  0.50715400  0.58169200  1
  O  O28  1  0.49284600  0.98569200  0.58169200  1
  O  O29  1  0.64262700  0.82131400  0.75015000  1
  O  O30  1  0.68867600  0.84433800  0.24555200  1
  O  O31  1  0.84184300  0.68368700  0.41947900  1
  O  O32  1  0.84184300  0.15815700  0.41947900  1
  O  O33  1  0.00000000  0.00000000  0.08976000  1
  O  O34  1  0.00000000  0.00000000  0.57454300  1
  O  O35  1  0.15566200  0.84433800  0.24555200  1
  O  O36  1  0.15566200  0.31132400  0.24555200  1
  O  O37  1  0.31631300  0.15815700  0.41947900  1
  O  O38  1  0.51340500  0.02681000  0.08367300  1
  O  O39  1  0.51340500  0.48659500  0.08367300  1
  O  O40  1  0.66666700  0.33333300  0.24122200  1
  O  O41  1  0.97319000  0.48659500  0.08367300  1
