# generated using pymatgen
data_BaCaSbF7
_symmetry_space_group_name_H-M   'P 1'
_cell_length_a   10.70726100
_cell_length_b   6.05096400
_cell_length_c   10.13950335
_cell_angle_alpha   86.42661451
_cell_angle_beta   90.00000000
_cell_angle_gamma   90.00000000
_symmetry_Int_Tables_number   1
_chemical_formula_structural   BaCaSbF7
_chemical_formula_sum   'Ba4 Ca4 Sb4 F28'
_cell_volume   655.65361286
_cell_formula_units_Z   4
loop_
 _symmetry_equiv_pos_site_id
 _symmetry_equiv_pos_as_xyz
  1  'x, y, z'
loop_
 _atom_site_type_symbol
 _atom_site_label
 _atom_site_symmetry_multiplicity
 _atom_site_fract_x
 _atom_site_fract_y
 _atom_site_fract_z
 _atom_site_occupancy
  Ba  Ba0  1  0.32463500  0.73174600  0.49680600  1
  Ba  Ba1  1  0.82463500  0.26825400  0.00319400  1
  Ba  Ba2  1  0.67536500  0.26825400  0.50319400  1
  Ba  Ba3  1  0.17536500  0.73174600  0.99680600  1
  Ca  Ca4  1  0.40559800  0.31334800  0.82125800  1
  Ca  Ca5  1  0.90559800  0.68665200  0.67874200  1
  Ca  Ca6  1  0.09440200  0.31334800  0.32125800  1
  Ca  Ca7  1  0.59440200  0.68665200  0.17874200  1
  Sb  Sb8  1  0.60099600  0.78584800  0.80185500  1
  Sb  Sb9  1  0.39900400  0.21415200  0.19814500  1
  Sb  Sb10  1  0.89900400  0.78584800  0.30185500  1
  Sb  Sb11  1  0.10099600  0.21415200  0.69814500  1
  F  F12  1  0.43117200  0.91582500  0.11886300  1
  F  F13  1  0.07772600  0.64490400  0.41931300  1
  F  F14  1  0.74043900  0.48047600  0.76108800  1
  F  F15  1  0.25956100  0.51952400  0.23891200  1
  F  F16  1  0.48579700  0.02635900  0.36235500  1
  F  F17  1  0.78815800  0.75352200  0.48570500  1
  F  F18  1  0.76300600  0.95658200  0.73319500  1
  F  F19  1  0.98579700  0.97364100  0.13764500  1
  F  F20  1  0.42227400  0.64490400  0.91931300  1
  F  F21  1  0.24043900  0.51952400  0.73891200  1
  F  F22  1  0.06882800  0.91582500  0.61886300  1
  F  F23  1  0.56882800  0.08417500  0.88113700  1
  F  F24  1  0.26300600  0.04341800  0.76680500  1
  F  F25  1  0.99284100  0.52239500  0.85985100  1
  F  F26  1  0.51420300  0.97364100  0.63764500  1
  F  F27  1  0.01420300  0.02635900  0.86235500  1
  F  F28  1  0.23699400  0.04341800  0.26680500  1
  F  F29  1  0.93117200  0.08417500  0.38113700  1
  F  F30  1  0.49284100  0.47760500  0.64014900  1
  F  F31  1  0.92227400  0.35509600  0.58068700  1
  F  F32  1  0.00715900  0.47760500  0.14014900  1
  F  F33  1  0.73699400  0.95658200  0.23319500  1
  F  F34  1  0.50715900  0.52239500  0.35985100  1
  F  F35  1  0.28815800  0.24647800  0.01429500  1
  F  F36  1  0.21184200  0.24647800  0.51429500  1
  F  F37  1  0.71184200  0.75352200  0.98570500  1
  F  F38  1  0.57772600  0.35509600  0.08068700  1
  F  F39  1  0.75956100  0.48047600  0.26108800  1
