# generated using pymatgen
data_BaCaTiF7
_symmetry_space_group_name_H-M   'P 1'
_cell_length_a   10.40383500
_cell_length_b   5.91487200
_cell_length_c   10.09196094
_cell_angle_alpha   87.25854516
_cell_angle_beta   90.00000000
_cell_angle_gamma   90.00000000
_symmetry_Int_Tables_number   1
_chemical_formula_structural   BaCaTiF7
_chemical_formula_sum   'Ba4 Ca4 Ti4 F28'
_cell_volume   620.32180338
_cell_formula_units_Z   4
loop_
 _symmetry_equiv_pos_site_id
 _symmetry_equiv_pos_as_xyz
  1  'x, y, z'
loop_
 _atom_site_type_symbol
 _atom_site_label
 _atom_site_symmetry_multiplicity
 _atom_site_fract_x
 _atom_site_fract_y
 _atom_site_fract_z
 _atom_site_occupancy
  Ba  Ba0  1  0.32528400  0.72883700  0.50301800  1
  Ba  Ba1  1  0.82528400  0.27116300  0.99698200  1
  Ba  Ba2  1  0.67471600  0.27116300  0.49698200  1
  Ba  Ba3  1  0.17471600  0.72883700  0.00301800  1
  Ca  Ca4  1  0.40577500  0.30021800  0.81800400  1
  Ca  Ca5  1  0.90577500  0.69978200  0.68199600  1
  Ca  Ca6  1  0.09422500  0.30021800  0.31800400  1
  Ca  Ca7  1  0.59422500  0.69978200  0.18199600  1
  Ti  Ti8  1  0.61729500  0.80995800  0.80839200  1
  Ti  Ti9  1  0.38270500  0.19004200  0.19160800  1
  Ti  Ti10  1  0.88270500  0.80995800  0.30839200  1
  Ti  Ti11  1  0.11729500  0.19004200  0.69160800  1
  F  F12  1  0.42438900  0.89542700  0.10904900  1
  F  F13  1  0.04652000  0.65480600  0.37129000  1
  F  F14  1  0.70542900  0.52374400  0.74378100  1
  F  F15  1  0.29457100  0.47625600  0.25621900  1
  F  F16  1  0.45975100  0.09552800  0.35854500  1
  F  F17  1  0.80006000  0.72604400  0.47951700  1
  F  F18  1  0.77636700  0.98822600  0.74605300  1
  F  F19  1  0.95975100  0.90447200  0.14145500  1
  F  F20  1  0.45348000  0.65480600  0.87129000  1
  F  F21  1  0.20542900  0.47625600  0.75621900  1
  F  F22  1  0.07561100  0.89542700  0.60904900  1
  F  F23  1  0.57561100  0.10457300  0.89095100  1
  F  F24  1  0.27636700  0.01177400  0.75394700  1
  F  F25  1  0.96098300  0.60427100  0.88483900  1
  F  F26  1  0.54024900  0.90447200  0.64145500  1
  F  F27  1  0.04024900  0.09552800  0.85854500  1
  F  F28  1  0.22363300  0.01177400  0.25394700  1
  F  F29  1  0.92438900  0.10457300  0.39095100  1
  F  F30  1  0.46098300  0.39572900  0.61516100  1
  F  F31  1  0.95348000  0.34519400  0.62871000  1
  F  F32  1  0.03901700  0.39572900  0.11516100  1
  F  F33  1  0.72363300  0.98822600  0.24605300  1
  F  F34  1  0.53901700  0.60427100  0.38483900  1
  F  F35  1  0.30006000  0.27395600  0.02048300  1
  F  F36  1  0.19994000  0.27395600  0.52048300  1
  F  F37  1  0.69994000  0.72604400  0.97951700  1
  F  F38  1  0.54652000  0.34519400  0.12871000  1
  F  F39  1  0.79457100  0.52374400  0.24378100  1
