# generated using pymatgen
data_CrCuO4
_symmetry_space_group_name_H-M   'P 1'
_cell_length_a   8.54506400
_cell_length_b   6.46322500
_cell_length_c   11.74340302
_cell_angle_alpha   89.87938675
_cell_angle_beta   90.00000000
_cell_angle_gamma   90.00000000
_symmetry_Int_Tables_number   1
_chemical_formula_structural   CrCuO4
_chemical_formula_sum   'Cr8 Cu8 O32'
_cell_volume   648.57110795
_cell_formula_units_Z   8
loop_
 _symmetry_equiv_pos_site_id
 _symmetry_equiv_pos_as_xyz
  1  'x, y, z'
loop_
 _atom_site_type_symbol
 _atom_site_label
 _atom_site_symmetry_multiplicity
 _atom_site_fract_x
 _atom_site_fract_y
 _atom_site_fract_z
 _atom_site_occupancy
  Cr  Cr0  1  0.54272700  0.89529600  0.84920500  1
  Cr  Cr1  1  0.95727300  0.89529600  0.34920500  1
  Cr  Cr2  1  0.90250900  0.40369300  0.13822800  1
  Cr  Cr3  1  0.04272700  0.10470400  0.65079500  1
  Cr  Cr4  1  0.09749100  0.59630700  0.86177200  1
  Cr  Cr5  1  0.40250900  0.59630700  0.36177200  1
  Cr  Cr6  1  0.59749100  0.40369300  0.63822800  1
  Cr  Cr7  1  0.45727300  0.10470400  0.15079500  1
  Cu  Cu8  1  0.82912200  0.22311900  0.87605400  1
  Cu  Cu9  1  0.94954000  0.62195900  0.62532600  1
  Cu  Cu10  1  0.05046000  0.37804100  0.37467400  1
  Cu  Cu11  1  0.17087800  0.77688100  0.12394600  1
  Cu  Cu12  1  0.67087800  0.22311900  0.37605400  1
  Cu  Cu13  1  0.55046000  0.62195900  0.12532600  1
  Cu  Cu14  1  0.32912200  0.77688100  0.62394600  1
  Cu  Cu15  1  0.44954000  0.37804100  0.87467400  1
  O  O16  1  0.77122300  0.96006800  0.37771700  1
  O  O17  1  0.99571700  0.33633400  0.58972100  1
  O  O18  1  0.38464100  0.78693100  0.45476900  1
  O  O19  1  0.88464100  0.21306900  0.04523100  1
  O  O20  1  0.72877700  0.96006800  0.87771700  1
  O  O21  1  0.22877700  0.03993200  0.62228300  1
  O  O22  1  0.92052100  0.91623200  0.60861900  1
  O  O23  1  0.08437900  0.50257100  0.13091100  1
  O  O24  1  0.41562100  0.50257100  0.63091100  1
  O  O25  1  0.13302200  0.67479400  0.72165200  1
  O  O26  1  0.63302200  0.32520600  0.77834800  1
  O  O27  1  0.91562100  0.49742900  0.86908900  1
  O  O28  1  0.07947900  0.08376800  0.39138100  1
  O  O29  1  0.47816100  0.12667400  0.28983000  1
  O  O30  1  0.72680800  0.58417700  0.60639800  1
  O  O31  1  0.77319200  0.58417700  0.10639800  1
  O  O32  1  0.97816100  0.87332600  0.21017000  1
  O  O33  1  0.58437900  0.49742900  0.36908900  1
  O  O34  1  0.52183900  0.87332600  0.71017000  1
  O  O35  1  0.61535900  0.21306900  0.54523100  1
  O  O36  1  0.50428300  0.33633400  0.08972100  1
  O  O37  1  0.86697800  0.32520600  0.27834800  1
  O  O38  1  0.27122300  0.03993200  0.12228300  1
  O  O39  1  0.57947900  0.91623200  0.10861900  1
  O  O40  1  0.11535900  0.78693100  0.95476900  1
  O  O41  1  0.22680800  0.41582300  0.89360200  1
  O  O42  1  0.00428300  0.66366600  0.41027900  1
  O  O43  1  0.49571700  0.66366600  0.91027900  1
  O  O44  1  0.42052100  0.08376800  0.89138100  1
  O  O45  1  0.27319200  0.41582300  0.39360200  1
  O  O46  1  0.36697800  0.67479400  0.22165200  1
  O  O47  1  0.02183900  0.12667400  0.78983000  1
