# generated using pymatgen
data_CaSn4O9
_symmetry_space_group_name_H-M   'P 1'
_cell_length_a   8.31306200
_cell_length_b   8.31306200
_cell_length_c   5.11389400
_cell_angle_alpha   90.00000000
_cell_angle_beta   90.00000000
_cell_angle_gamma   90.00000000
_symmetry_Int_Tables_number   1
_chemical_formula_structural   CaSn4O9
_chemical_formula_sum   'Ca2 Sn8 O18'
_cell_volume   353.40587172
_cell_formula_units_Z   2
loop_
 _symmetry_equiv_pos_site_id
 _symmetry_equiv_pos_as_xyz
  1  'x, y, z'
loop_
 _atom_site_type_symbol
 _atom_site_label
 _atom_site_symmetry_multiplicity
 _atom_site_fract_x
 _atom_site_fract_y
 _atom_site_fract_z
 _atom_site_occupancy
  Ca  Ca0  1  0.00000000  0.50000000  0.72335300  1
  Ca  Ca1  1  0.50000000  0.00000000  0.27664700  1
  Sn  Sn2  1  0.68722400  0.39144900  0.26851100  1
  Sn  Sn3  1  0.39144900  0.31277600  0.73148900  1
  Sn  Sn4  1  0.89144900  0.81277600  0.26851100  1
  Sn  Sn5  1  0.18722400  0.89144900  0.73148900  1
  Sn  Sn6  1  0.31277600  0.60855100  0.26851100  1
  Sn  Sn7  1  0.10855100  0.18722400  0.26851100  1
  Sn  Sn8  1  0.81277600  0.10855100  0.73148900  1
  Sn  Sn9  1  0.60855100  0.68722400  0.73148900  1
  O  O10  1  0.50000000  0.50000000  0.50000000  1
  O  O11  1  0.00000000  0.00000000  0.50000000  1
  O  O12  1  0.49723400  0.73661900  0.08270500  1
  O  O13  1  0.76338100  0.99723400  0.08270500  1
  O  O14  1  0.23661900  0.00276600  0.08270500  1
  O  O15  1  0.50276600  0.26338100  0.08270500  1
  O  O16  1  0.00276600  0.76338100  0.91729500  1
  O  O17  1  0.73661900  0.50276600  0.91729500  1
  O  O18  1  0.26338100  0.49723400  0.91729500  1
  O  O19  1  0.99723400  0.23661900  0.91729500  1
  O  O20  1  0.21092700  0.39175700  0.42911500  1
  O  O21  1  0.10824300  0.71092700  0.42911500  1
  O  O22  1  0.89175700  0.28907300  0.42911500  1
  O  O23  1  0.78907300  0.60824300  0.42911500  1
  O  O24  1  0.71092700  0.89175700  0.57088500  1
  O  O25  1  0.39175700  0.78907300  0.57088500  1
  O  O26  1  0.60824300  0.21092700  0.57088500  1
  O  O27  1  0.28907300  0.10824300  0.57088500  1
