# generated using pymatgen
data_Mg(WO2)2
_symmetry_space_group_name_H-M   'P 1'
_cell_length_a   6.33811600
_cell_length_b   6.49891066
_cell_length_c   15.37623200
_cell_angle_alpha   92.07211564
_cell_angle_beta   90.18534058
_cell_angle_gamma   119.13597463
_symmetry_Int_Tables_number   1
_chemical_formula_structural   Mg(WO2)2
_chemical_formula_sum   'Mg6 W12 O24'
_cell_volume   552.69959861
_cell_formula_units_Z   6
loop_
 _symmetry_equiv_pos_site_id
 _symmetry_equiv_pos_as_xyz
  1  'x, y, z'
loop_
 _atom_site_type_symbol
 _atom_site_label
 _atom_site_symmetry_multiplicity
 _atom_site_fract_x
 _atom_site_fract_y
 _atom_site_fract_z
 _atom_site_occupancy
  Mg  Mg0  1  0.83324400  0.16798900  0.95501200  1
  Mg  Mg1  1  0.50652300  0.51015000  0.62158000  1
  Mg  Mg2  1  0.17115000  0.84014300  0.66390300  1
  Mg  Mg3  1  0.16140700  0.82375900  0.29191500  1
  Mg  Mg4  1  0.49589900  0.49607600  0.99539400  1
  Mg  Mg5  1  0.50061100  0.49872100  0.37783600  1
  W  W6  1  0.33867600  0.66958800  0.83447100  1
  W  W7  1  0.33937300  0.17536600  0.83191500  1
  W  W8  1  0.00668600  0.00481300  0.50330000  1
  W  W9  1  0.83561900  0.66986400  0.83429100  1
  W  W10  1  0.00811900  0.51225500  0.50140000  1
  W  W11  1  0.83080800  0.15916200  0.33417400  1
  W  W12  1  0.84139500  0.18169000  0.71463700  1
  W  W13  1  0.65547000  0.31939800  0.16596700  1
  W  W14  1  0.50247500  0.00505300  0.50323400  1
  W  W15  1  0.65466500  0.81829200  0.16467700  1
  W  W16  1  0.15772600  0.32088000  0.16502700  1
  W  W17  1  0.15529900  0.83112400  0.04473600  1
  O  O18  1  0.66889800  0.35375900  0.91222300  1
  O  O19  1  0.50019800  0.49637000  0.75695000  1
  O  O20  1  0.65807700  0.80969800  0.92040600  1
  O  O21  1  0.18496700  0.35132800  0.91160200  1
  O  O22  1  0.33753600  0.69281500  0.58135000  1
  O  O23  1  0.48361000  0.97711700  0.75702800  1
  O  O24  1  0.16668100  0.83017300  0.42438700  1
  O  O25  1  0.02605600  0.54765900  0.74330600  1
  O  O26  1  0.18427900  0.86188800  0.90808300  1
  O  O27  1  0.32913800  0.15291500  0.58775800  1
  O  O28  1  0.85768000  0.69136000  0.58090500  1
  O  O29  1  0.99794200  0.97668400  0.75602300  1
  O  O30  1  0.99095300  0.00092500  0.24330500  1
  O  O31  1  0.15101000  0.31864700  0.42085000  1
  O  O32  1  0.67917800  0.85451700  0.41739200  1
  O  O33  1  0.81761500  0.14258200  0.08906300  1
  O  O34  1  0.85117600  0.19663200  0.57660500  1
  O  O35  1  0.98133900  0.46685300  0.24995000  1
  O  O36  1  0.50868300  0.00236600  0.24495100  1
  O  O37  1  0.67165400  0.31860200  0.42064700  1
  O  O38  1  0.80131300  0.62598100  0.08898400  1
  O  O39  1  0.34540000  0.19676700  0.07416600  1
  O  O40  1  0.49673600  0.49995500  0.24219300  1
  O  O41  1  0.31473500  0.63008600  0.08840400  1
