# generated using pymatgen
data_CaV2(CuO4)2
_symmetry_space_group_name_H-M   'P 1'
_cell_length_a   8.78781900
_cell_length_b   6.61291200
_cell_length_c   12.36059078
_cell_angle_alpha   86.80284953
_cell_angle_beta   90.00000000
_cell_angle_gamma   90.00000000
_symmetry_Int_Tables_number   1
_chemical_formula_structural   CaV2(CuO4)2
_chemical_formula_sum   'Ca4 V8 Cu8 O32'
_cell_volume   717.19389857
_cell_formula_units_Z   4
loop_
 _symmetry_equiv_pos_site_id
 _symmetry_equiv_pos_as_xyz
  1  'x, y, z'
loop_
 _atom_site_type_symbol
 _atom_site_label
 _atom_site_symmetry_multiplicity
 _atom_site_fract_x
 _atom_site_fract_y
 _atom_site_fract_z
 _atom_site_occupancy
  Ca  Ca0  1  0.16719300  0.13479100  0.03667100  1
  Ca  Ca1  1  0.83280700  0.86520900  0.96332900  1
  Ca  Ca2  1  0.66719300  0.86520900  0.46332900  1
  Ca  Ca3  1  0.33280700  0.13479100  0.53667100  1
  V  V4  1  0.46290500  0.09251200  0.84104500  1
  V  V5  1  0.03709500  0.09251200  0.34104500  1
  V  V6  1  0.09097200  0.60573700  0.14098300  1
  V  V7  1  0.96290500  0.90748800  0.65895500  1
  V  V8  1  0.90902800  0.39426300  0.85901700  1
  V  V9  1  0.59097200  0.39426300  0.35901700  1
  V  V10  1  0.40902800  0.60573700  0.64098300  1
  V  V11  1  0.53709500  0.90748800  0.15895500  1
  Cu  Cu12  1  0.18324300  0.76199800  0.85204800  1
  Cu  Cu13  1  0.05221000  0.39377000  0.63351800  1
  Cu  Cu14  1  0.94779000  0.60623000  0.36648200  1
  Cu  Cu15  1  0.81675700  0.23800200  0.14795200  1
  Cu  Cu16  1  0.31675700  0.76199800  0.35204800  1
  Cu  Cu17  1  0.44779000  0.39377000  0.13351800  1
  Cu  Cu18  1  0.68324300  0.23800200  0.64795200  1
  Cu  Cu19  1  0.55221000  0.60623000  0.86648200  1
  O  O20  1  0.22509100  0.01924200  0.37726100  1
  O  O21  1  0.00281400  0.67757900  0.60375600  1
  O  O22  1  0.58461800  0.19452500  0.45727100  1
  O  O23  1  0.08461800  0.80547500  0.04272900  1
  O  O24  1  0.27490900  0.01924200  0.87726100  1
  O  O25  1  0.77490900  0.98075800  0.62273900  1
  O  O26  1  0.08920800  0.10307900  0.61298000  1
  O  O27  1  0.91304800  0.49688600  0.13321300  1
  O  O28  1  0.58695200  0.49688600  0.63321300  1
  O  O29  1  0.87327800  0.33021900  0.72106200  1
  O  O30  1  0.37327800  0.66978100  0.77893800  1
  O  O31  1  0.08695200  0.50311400  0.86678700  1
  O  O32  1  0.91079200  0.89692100  0.38702000  1
  O  O33  1  0.51853600  0.87802700  0.29919700  1
  O  O34  1  0.26678000  0.43998400  0.60455500  1
  O  O35  1  0.23322000  0.43998400  0.10455500  1
  O  O36  1  0.01853600  0.12197300  0.20080300  1
  O  O37  1  0.41304800  0.50311400  0.36678700  1
  O  O38  1  0.48146400  0.12197300  0.70080300  1
  O  O39  1  0.41538200  0.80547500  0.54272900  1
  O  O40  1  0.49718600  0.67757900  0.10375600  1
  O  O41  1  0.12672200  0.66978100  0.27893800  1
  O  O42  1  0.72509100  0.98075800  0.12273900  1
  O  O43  1  0.41079200  0.10307900  0.11298000  1
  O  O44  1  0.91538200  0.19452500  0.95727100  1
  O  O45  1  0.76678000  0.56001600  0.89544500  1
  O  O46  1  0.99718600  0.32242100  0.39624400  1
  O  O47  1  0.50281400  0.32242100  0.89624400  1
  O  O48  1  0.58920800  0.89692100  0.88702000  1
  O  O49  1  0.73322000  0.56001600  0.39544500  1
  O  O50  1  0.62672200  0.33021900  0.22106200  1
  O  O51  1  0.98146400  0.87802700  0.79919700  1
