# generated using pymatgen
data_ZnMo4O9
_symmetry_space_group_name_H-M   'P 1'
_cell_length_a   8.80565500
_cell_length_b   8.80565500
_cell_length_c   4.98639700
_cell_angle_alpha   90.00000000
_cell_angle_beta   90.00000000
_cell_angle_gamma   90.00000000
_symmetry_Int_Tables_number   1
_chemical_formula_structural   ZnMo4O9
_chemical_formula_sum   'Zn2 Mo8 O18'
_cell_volume   386.64302926
_cell_formula_units_Z   2
loop_
 _symmetry_equiv_pos_site_id
 _symmetry_equiv_pos_as_xyz
  1  'x, y, z'
loop_
 _atom_site_type_symbol
 _atom_site_label
 _atom_site_symmetry_multiplicity
 _atom_site_fract_x
 _atom_site_fract_y
 _atom_site_fract_z
 _atom_site_occupancy
  Zn  Zn0  1  0.50000000  0.00000000  0.10011900  1
  Zn  Zn1  1  0.00000000  0.50000000  0.89988100  1
  Mo  Mo2  1  0.59698800  0.28928500  0.66087300  1
  Mo  Mo3  1  0.71071500  0.59698800  0.33912700  1
  Mo  Mo4  1  0.21071500  0.09698800  0.66087300  1
  Mo  Mo5  1  0.09698800  0.78928500  0.33912700  1
  Mo  Mo6  1  0.40301200  0.71071500  0.66087300  1
  Mo  Mo7  1  0.78928500  0.90301200  0.66087300  1
  Mo  Mo8  1  0.90301200  0.21071500  0.33912700  1
  Mo  Mo9  1  0.28928500  0.40301200  0.33912700  1
  O  O10  1  0.50000000  0.50000000  0.50000000  1
  O  O11  1  0.00000000  0.00000000  0.50000000  1
  O  O12  1  0.22602800  0.45028600  0.99944700  1
  O  O13  1  0.95028600  0.27397200  0.99944700  1
  O  O14  1  0.04971400  0.72602800  0.99944700  1
  O  O15  1  0.77397200  0.54971400  0.99944700  1
  O  O16  1  0.27397200  0.04971400  0.00055300  1
  O  O17  1  0.54971400  0.22602800  0.00055300  1
  O  O18  1  0.45028600  0.77397200  0.00055300  1
  O  O19  1  0.72602800  0.95028600  0.00055300  1
  O  O20  1  0.61016500  0.79289900  0.49399500  1
  O  O21  1  0.29289900  0.88983500  0.49399500  1
  O  O22  1  0.70710100  0.11016500  0.49399500  1
  O  O23  1  0.38983500  0.20710100  0.49399500  1
  O  O24  1  0.11016500  0.29289900  0.50600500  1
  O  O25  1  0.20710100  0.61016500  0.50600500  1
  O  O26  1  0.79289900  0.38983500  0.50600500  1
  O  O27  1  0.88983500  0.70710100  0.50600500  1
