# generated using pymatgen
data_MgP3W3O13
_symmetry_space_group_name_H-M   'P 1'
_cell_length_a   6.69232100
_cell_length_b   7.91990600
_cell_length_c   10.46359631
_cell_angle_alpha   81.18448519
_cell_angle_beta   90.00000000
_cell_angle_gamma   90.00000000
_symmetry_Int_Tables_number   1
_chemical_formula_structural   MgP3W3O13
_chemical_formula_sum   'Mg2 P6 W6 O26'
_cell_volume   548.04581749
_cell_formula_units_Z   2
loop_
 _symmetry_equiv_pos_site_id
 _symmetry_equiv_pos_as_xyz
  1  'x, y, z'
loop_
 _atom_site_type_symbol
 _atom_site_label
 _atom_site_symmetry_multiplicity
 _atom_site_fract_x
 _atom_site_fract_y
 _atom_site_fract_z
 _atom_site_occupancy
  Mg  Mg0  1  0.75000000  0.39609900  0.18159500  1
  Mg  Mg1  1  0.25000000  0.60390100  0.81840500  1
  P  P2  1  0.25000000  0.78379800  0.50821700  1
  P  P3  1  0.75000000  0.21620200  0.49178300  1
  P  P4  1  0.25000000  0.26649000  0.76510700  1
  P  P5  1  0.75000000  0.73351000  0.23489300  1
  P  P6  1  0.75000000  0.67611700  0.89684300  1
  P  P7  1  0.25000000  0.32388300  0.10315700  1
  W  W8  1  0.25000000  0.64265500  0.20641000  1
  W  W9  1  0.75000000  0.35734500  0.79359000  1
  W  W10  1  0.25000000  0.23228600  0.43411900  1
  W  W11  1  0.50000000  0.00000000  0.00000000  1
  W  W12  1  0.75000000  0.76771400  0.56588100  1
  W  W13  1  0.00000000  0.00000000  0.00000000  1
  O  O14  1  0.75000000  0.63454400  0.75459100  1
  O  O15  1  0.56865300  0.25684700  0.39783900  1
  O  O16  1  0.25000000  0.19606500  0.63980600  1
  O  O17  1  0.55174400  0.77149400  0.91055300  1
  O  O18  1  0.75000000  0.34027100  0.59269100  1
  O  O19  1  0.75000000  0.11361400  0.89726900  1
  O  O20  1  0.25000000  0.65972900  0.40730900  1
  O  O21  1  0.05174400  0.22850600  0.08944700  1
  O  O22  1  0.25000000  0.96822800  0.43689200  1
  O  O23  1  0.75000000  0.03177200  0.56310800  1
  O  O24  1  0.07277900  0.38828500  0.78488000  1
  O  O25  1  0.25000000  0.88638600  0.10273100  1
  O  O26  1  0.57277900  0.61171500  0.21512000  1
  O  O27  1  0.75000000  0.49203600  0.97759700  1
  O  O28  1  0.75000000  0.80393500  0.36019400  1
  O  O29  1  0.44825600  0.22850600  0.08944700  1
  O  O30  1  0.93134700  0.25684700  0.39783900  1
  O  O31  1  0.43134700  0.74315300  0.60216100  1
  O  O32  1  0.42722100  0.38828500  0.78488000  1
  O  O33  1  0.25000000  0.36545600  0.24540900  1
  O  O34  1  0.75000000  0.89111700  0.12314700  1
  O  O35  1  0.25000000  0.10888300  0.87685300  1
  O  O36  1  0.92722100  0.61171500  0.21512000  1
  O  O37  1  0.94825600  0.77149400  0.91055300  1
  O  O38  1  0.06865300  0.74315300  0.60216100  1
  O  O39  1  0.25000000  0.50796400  0.02240300  1
