# generated using pymatgen
data_CaCr2(CuO4)2
_symmetry_space_group_name_H-M   'P 1'
_cell_length_a   8.67753600
_cell_length_b   6.64878900
_cell_length_c   12.34043332
_cell_angle_alpha   86.97454188
_cell_angle_beta   90.00000000
_cell_angle_gamma   90.00000000
_symmetry_Int_Tables_number   1
_chemical_formula_structural   CaCr2(CuO4)2
_chemical_formula_sum   'Ca4 Cr8 Cu8 O32'
_cell_volume   710.99023301
_cell_formula_units_Z   4
loop_
 _symmetry_equiv_pos_site_id
 _symmetry_equiv_pos_as_xyz
  1  'x, y, z'
loop_
 _atom_site_type_symbol
 _atom_site_label
 _atom_site_symmetry_multiplicity
 _atom_site_fract_x
 _atom_site_fract_y
 _atom_site_fract_z
 _atom_site_occupancy
  Ca  Ca0  1  0.16748600  0.12816100  0.04348500  1
  Ca  Ca1  1  0.83251400  0.87183900  0.95651500  1
  Ca  Ca2  1  0.66748600  0.87183900  0.45651500  1
  Ca  Ca3  1  0.33251400  0.12816100  0.54348500  1
  Cr  Cr4  1  0.46198700  0.09961900  0.84537000  1
  Cr  Cr5  1  0.03801300  0.09961900  0.34537000  1
  Cr  Cr6  1  0.08492700  0.60608700  0.13636400  1
  Cr  Cr7  1  0.96198700  0.90038100  0.65463000  1
  Cr  Cr8  1  0.91507300  0.39391300  0.86363600  1
  Cr  Cr9  1  0.58492700  0.39391300  0.36363600  1
  Cr  Cr10  1  0.41507300  0.60608700  0.63636400  1
  Cr  Cr11  1  0.53801300  0.90038100  0.15463000  1
  Cu  Cu12  1  0.18488600  0.76133300  0.85711600  1
  Cu  Cu13  1  0.04949700  0.39203200  0.62869300  1
  Cu  Cu14  1  0.95050300  0.60796800  0.37130700  1
  Cu  Cu15  1  0.81511400  0.23866700  0.14288400  1
  Cu  Cu16  1  0.31511400  0.76133300  0.35711600  1
  Cu  Cu17  1  0.45050300  0.39203200  0.12869300  1
  Cu  Cu18  1  0.68488600  0.23866700  0.64288400  1
  Cu  Cu19  1  0.54949700  0.60796800  0.87130700  1
  O  O20  1  0.21980600  0.02398200  0.38141900  1
  O  O21  1  0.00094400  0.68012000  0.59963900  1
  O  O22  1  0.58063400  0.19921400  0.46130200  1
  O  O23  1  0.08063400  0.80078600  0.03869800  1
  O  O24  1  0.28019400  0.02398200  0.88141900  1
  O  O25  1  0.78019400  0.97601800  0.61858100  1
  O  O26  1  0.08580600  0.08827700  0.61315500  1
  O  O27  1  0.90880400  0.50339000  0.13527200  1
  O  O28  1  0.59119600  0.50339000  0.63527200  1
  O  O29  1  0.87576100  0.32030600  0.73663600  1
  O  O30  1  0.37576100  0.67969400  0.76336400  1
  O  O31  1  0.09119600  0.49661000  0.86472800  1
  O  O32  1  0.91419400  0.91172300  0.38684500  1
  O  O33  1  0.52315900  0.87097800  0.29081100  1
  O  O34  1  0.27634200  0.44141900  0.60133300  1
  O  O35  1  0.22365800  0.44141900  0.10133300  1
  O  O36  1  0.02315900  0.12902200  0.20918900  1
  O  O37  1  0.40880400  0.49661000  0.36472800  1
  O  O38  1  0.47684100  0.12902200  0.70918900  1
  O  O39  1  0.41936600  0.80078600  0.53869800  1
  O  O40  1  0.49905600  0.68012000  0.09963900  1
  O  O41  1  0.12423900  0.67969400  0.26336400  1
  O  O42  1  0.71980600  0.97601800  0.11858100  1
  O  O43  1  0.41419400  0.08827700  0.11315500  1
  O  O44  1  0.91936600  0.19921400  0.96130200  1
  O  O45  1  0.77634200  0.55858100  0.89866700  1
  O  O46  1  0.99905600  0.31988000  0.40036100  1
  O  O47  1  0.50094400  0.31988000  0.90036100  1
  O  O48  1  0.58580600  0.91172300  0.88684500  1
  O  O49  1  0.72365800  0.55858100  0.39866700  1
  O  O50  1  0.62423900  0.32030600  0.23663600  1
  O  O51  1  0.97684100  0.87097800  0.79081100  1
