# generated using pymatgen
data_MgCo3P3O13
_symmetry_space_group_name_H-M   'P 1'
_cell_length_a   6.28561000
_cell_length_b   7.52057300
_cell_length_c   10.04732530
_cell_angle_alpha   79.61009721
_cell_angle_beta   90.00000000
_cell_angle_gamma   90.00000000
_symmetry_Int_Tables_number   1
_chemical_formula_structural   MgCo3P3O13
_chemical_formula_sum   'Mg2 Co6 P6 O26'
_cell_volume   467.16337661
_cell_formula_units_Z   2
loop_
 _symmetry_equiv_pos_site_id
 _symmetry_equiv_pos_as_xyz
  1  'x, y, z'
loop_
 _atom_site_type_symbol
 _atom_site_label
 _atom_site_symmetry_multiplicity
 _atom_site_fract_x
 _atom_site_fract_y
 _atom_site_fract_z
 _atom_site_occupancy
  Mg  Mg0  1  0.75000000  0.36909300  0.17870800  1
  Mg  Mg1  1  0.25000000  0.63090700  0.82129200  1
  Co  Co2  1  0.25000000  0.64919800  0.20203300  1
  Co  Co3  1  0.75000000  0.35080200  0.79796700  1
  Co  Co4  1  0.25000000  0.20994100  0.43220800  1
  Co  Co5  1  0.50000000  0.00000000  0.00000000  1
  Co  Co6  1  0.75000000  0.79005900  0.56779200  1
  Co  Co7  1  0.00000000  0.00000000  0.00000000  1
  P  P8  1  0.25000000  0.77903400  0.49613200  1
  P  P9  1  0.75000000  0.22096600  0.50386800  1
  P  P10  1  0.25000000  0.26669200  0.76157500  1
  P  P11  1  0.75000000  0.73330800  0.23842500  1
  P  P12  1  0.75000000  0.68211600  0.88845400  1
  P  P13  1  0.25000000  0.31788400  0.11154600  1
  O  O14  1  0.75000000  0.62986300  0.74562500  1
  O  O15  1  0.55938800  0.25329600  0.40513900  1
  O  O16  1  0.25000000  0.21794700  0.62121900  1
  O  O17  1  0.54102400  0.78895900  0.90104200  1
  O  O18  1  0.75000000  0.34724500  0.60697600  1
  O  O19  1  0.75000000  0.12434800  0.90720500  1
  O  O20  1  0.25000000  0.65275500  0.39302400  1
  O  O21  1  0.04102400  0.21104100  0.09895800  1
  O  O22  1  0.25000000  0.97594000  0.41236700  1
  O  O23  1  0.75000000  0.02406000  0.58763300  1
  O  O24  1  0.06179500  0.38896000  0.78871700  1
  O  O25  1  0.25000000  0.87565200  0.09279500  1
  O  O26  1  0.56179500  0.61104000  0.21128300  1
  O  O27  1  0.75000000  0.49132400  0.97777700  1
  O  O28  1  0.75000000  0.78205300  0.37878100  1
  O  O29  1  0.45897600  0.21104100  0.09895800  1
  O  O30  1  0.94061200  0.25329600  0.40513900  1
  O  O31  1  0.44061200  0.74670400  0.59486100  1
  O  O32  1  0.43820500  0.38896000  0.78871700  1
  O  O33  1  0.25000000  0.37013700  0.25437500  1
  O  O34  1  0.75000000  0.91119500  0.13039700  1
  O  O35  1  0.25000000  0.08880500  0.86960300  1
  O  O36  1  0.93820500  0.61104000  0.21128300  1
  O  O37  1  0.95897600  0.78895900  0.90104200  1
  O  O38  1  0.05938800  0.74670400  0.59486100  1
  O  O39  1  0.25000000  0.50867600  0.02222300  1
