# generated using pymatgen
data_BaMgMnF7
_symmetry_space_group_name_H-M   'P 1'
_cell_length_a   9.96885400
_cell_length_b   5.77480100
_cell_length_c   9.58921840
_cell_angle_alpha   86.24004151
_cell_angle_beta   90.00000000
_cell_angle_gamma   90.00000000
_symmetry_Int_Tables_number   1
_chemical_formula_structural   BaMgMnF7
_chemical_formula_sum   'Ba4 Mg4 Mn4 F28'
_cell_volume   550.84531491
_cell_formula_units_Z   4
loop_
 _symmetry_equiv_pos_site_id
 _symmetry_equiv_pos_as_xyz
  1  'x, y, z'
loop_
 _atom_site_type_symbol
 _atom_site_label
 _atom_site_symmetry_multiplicity
 _atom_site_fract_x
 _atom_site_fract_y
 _atom_site_fract_z
 _atom_site_occupancy
  Ba  Ba0  1  0.31619200  0.72749200  0.50010400  1
  Ba  Ba1  1  0.81619200  0.27250800  0.99989600  1
  Ba  Ba2  1  0.68380800  0.27250800  0.49989600  1
  Ba  Ba3  1  0.18380800  0.72749200  0.00010400  1
  Mg  Mg4  1  0.39793300  0.30695800  0.80947300  1
  Mg  Mg5  1  0.89793300  0.69304200  0.69052700  1
  Mg  Mg6  1  0.10206700  0.30695800  0.30947300  1
  Mg  Mg7  1  0.60206700  0.69304200  0.19052700  1
  Mn  Mn8  1  0.61026800  0.80753700  0.81209600  1
  Mn  Mn9  1  0.38973200  0.19246300  0.18790400  1
  Mn  Mn10  1  0.88973200  0.80753700  0.31209600  1
  Mn  Mn11  1  0.11026800  0.19246300  0.68790400  1
  F  F12  1  0.44374200  0.86995500  0.12450500  1
  F  F13  1  0.04652600  0.62826400  0.36707900  1
  F  F14  1  0.72232700  0.52105300  0.74345000  1
  F  F15  1  0.27767300  0.47894700  0.25655000  1
  F  F16  1  0.45851000  0.11523500  0.36451000  1
  F  F17  1  0.81357900  0.73980700  0.49273700  1
  F  F18  1  0.77894000  0.96631100  0.74875300  1
  F  F19  1  0.95851000  0.88476500  0.13549000  1
  F  F20  1  0.45347400  0.62826400  0.86707900  1
  F  F21  1  0.22232700  0.47894700  0.75655000  1
  F  F22  1  0.05625800  0.86995500  0.62450500  1
  F  F23  1  0.55625800  0.13004500  0.87549500  1
  F  F24  1  0.27894000  0.03368900  0.75124700  1
  F  F25  1  0.95910900  0.61812500  0.87805300  1
  F  F26  1  0.54149000  0.88476500  0.63549000  1
  F  F27  1  0.04149000  0.11523500  0.86451000  1
  F  F28  1  0.22106000  0.03368900  0.25124700  1
  F  F29  1  0.94374200  0.13004500  0.37549500  1
  F  F30  1  0.45910900  0.38187500  0.62194700  1
  F  F31  1  0.95347400  0.37173600  0.63292100  1
  F  F32  1  0.04089100  0.38187500  0.12194700  1
  F  F33  1  0.72106000  0.96631100  0.24875300  1
  F  F34  1  0.54089100  0.61812500  0.37805300  1
  F  F35  1  0.31357900  0.26019300  0.00726300  1
  F  F36  1  0.18642100  0.26019300  0.50726300  1
  F  F37  1  0.68642100  0.73980700  0.99273700  1
  F  F38  1  0.54652600  0.37173600  0.13292100  1
  F  F39  1  0.77767300  0.52105300  0.24345000  1
