# generated using pymatgen
data_ZnCo3P3O13
_symmetry_space_group_name_H-M   'P 1'
_cell_length_a   6.29419000
_cell_length_b   7.49787500
_cell_length_c   10.04703078
_cell_angle_alpha   79.63642915
_cell_angle_beta   90.00000000
_cell_angle_gamma   90.00000000
_symmetry_Int_Tables_number   1
_chemical_formula_structural   ZnCo3P3O13
_chemical_formula_sum   'Zn2 Co6 P6 O26'
_cell_volume   466.41476357
_cell_formula_units_Z   2
loop_
 _symmetry_equiv_pos_site_id
 _symmetry_equiv_pos_as_xyz
  1  'x, y, z'
loop_
 _atom_site_type_symbol
 _atom_site_label
 _atom_site_symmetry_multiplicity
 _atom_site_fract_x
 _atom_site_fract_y
 _atom_site_fract_z
 _atom_site_occupancy
  Zn  Zn0  1  0.75000000  0.37171100  0.17807300  1
  Zn  Zn1  1  0.25000000  0.62828900  0.82192700  1
  Co  Co2  1  0.25000000  0.64884500  0.20288400  1
  Co  Co3  1  0.75000000  0.35115500  0.79711600  1
  Co  Co4  1  0.25000000  0.20866400  0.43167800  1
  Co  Co5  1  0.50000000  0.00000000  0.00000000  1
  Co  Co6  1  0.75000000  0.79133600  0.56832200  1
  Co  Co7  1  0.00000000  0.00000000  0.00000000  1
  P  P8  1  0.25000000  0.77658200  0.49714400  1
  P  P9  1  0.75000000  0.22341800  0.50285600  1
  P  P10  1  0.25000000  0.26555100  0.76057100  1
  P  P11  1  0.75000000  0.73444900  0.23942900  1
  P  P12  1  0.75000000  0.68260000  0.88927200  1
  P  P13  1  0.25000000  0.31740000  0.11072800  1
  O  O14  1  0.75000000  0.63138300  0.74661400  1
  O  O15  1  0.55870000  0.25402600  0.40500600  1
  O  O16  1  0.25000000  0.21680600  0.62102000  1
  O  O17  1  0.54163000  0.78974900  0.90322500  1
  O  O18  1  0.75000000  0.35165300  0.60534500  1
  O  O19  1  0.75000000  0.12370800  0.90577000  1
  O  O20  1  0.25000000  0.64834700  0.39465500  1
  O  O21  1  0.04163000  0.21025100  0.09677500  1
  O  O22  1  0.25000000  0.97373300  0.41262000  1
  O  O23  1  0.75000000  0.02626700  0.58738000  1
  O  O24  1  0.06138800  0.38817800  0.78860400  1
  O  O25  1  0.25000000  0.87629200  0.09423000  1
  O  O26  1  0.56138800  0.61182200  0.21139600  1
  O  O27  1  0.75000000  0.48962700  0.97735400  1
  O  O28  1  0.75000000  0.78319400  0.37898000  1
  O  O29  1  0.45837000  0.21025100  0.09677500  1
  O  O30  1  0.94130000  0.25402600  0.40500600  1
  O  O31  1  0.44130000  0.74597400  0.59499400  1
  O  O32  1  0.43861200  0.38817800  0.78860400  1
  O  O33  1  0.25000000  0.36861700  0.25338600  1
  O  O34  1  0.75000000  0.91222600  0.13124000  1
  O  O35  1  0.25000000  0.08777400  0.86876000  1
  O  O36  1  0.93861200  0.61182200  0.21139600  1
  O  O37  1  0.95837000  0.78974900  0.90322500  1
  O  O38  1  0.05870000  0.74597400  0.59499400  1
  O  O39  1  0.25000000  0.51037300  0.02264600  1
