# generated using pymatgen
data_CaMo4O9
_symmetry_space_group_name_H-M   'P 1'
_cell_length_a   8.80427200
_cell_length_b   8.80427200
_cell_length_c   5.07886200
_cell_angle_alpha   90.00000000
_cell_angle_beta   90.00000000
_cell_angle_gamma   90.00000000
_symmetry_Int_Tables_number   1
_chemical_formula_structural   CaMo4O9
_chemical_formula_sum   'Ca2 Mo8 O18'
_cell_volume   393.68903138
_cell_formula_units_Z   2
loop_
 _symmetry_equiv_pos_site_id
 _symmetry_equiv_pos_as_xyz
  1  'x, y, z'
loop_
 _atom_site_type_symbol
 _atom_site_label
 _atom_site_symmetry_multiplicity
 _atom_site_fract_x
 _atom_site_fract_y
 _atom_site_fract_z
 _atom_site_occupancy
  Ca  Ca0  1  0.00000000  0.50000000  0.80163900  1
  Ca  Ca1  1  0.50000000  0.00000000  0.19836100  1
  Mo  Mo2  1  0.70351300  0.39746200  0.32849900  1
  Mo  Mo3  1  0.39746200  0.29648700  0.67150100  1
  Mo  Mo4  1  0.89746200  0.79648700  0.32849900  1
  Mo  Mo5  1  0.20351300  0.89746200  0.67150100  1
  Mo  Mo6  1  0.29648700  0.60253800  0.32849900  1
  Mo  Mo7  1  0.10253800  0.20351300  0.32849900  1
  Mo  Mo8  1  0.79648700  0.10253800  0.67150100  1
  Mo  Mo9  1  0.60253800  0.70351300  0.67150100  1
  O  O10  1  0.50000000  0.50000000  0.50000000  1
  O  O11  1  0.00000000  0.00000000  0.50000000  1
  O  O12  1  0.54508200  0.75579600  0.00111200  1
  O  O13  1  0.74420400  0.04508200  0.00111200  1
  O  O14  1  0.25579600  0.95491800  0.00111200  1
  O  O15  1  0.45491800  0.24420400  0.00111200  1
  O  O16  1  0.95491800  0.74420400  0.99888800  1
  O  O17  1  0.75579600  0.45491800  0.99888800  1
  O  O18  1  0.24420400  0.54508200  0.99888800  1
  O  O19  1  0.04508200  0.25579600  0.99888800  1
  O  O20  1  0.20310300  0.39003700  0.49843600  1
  O  O21  1  0.10996300  0.70310300  0.49843600  1
  O  O22  1  0.89003700  0.29689700  0.49843600  1
  O  O23  1  0.79689700  0.60996300  0.49843600  1
  O  O24  1  0.70310300  0.89003700  0.50156400  1
  O  O25  1  0.39003700  0.79689700  0.50156400  1
  O  O26  1  0.60996300  0.20310300  0.50156400  1
  O  O27  1  0.29689700  0.10996300  0.50156400  1
