# generated using pymatgen
data_BaZnNiF7
_symmetry_space_group_name_H-M   'P 1'
_cell_length_a   10.00391100
_cell_length_b   5.61615500
_cell_length_c   9.57620546
_cell_angle_alpha   87.31468718
_cell_angle_beta   90.00000000
_cell_angle_gamma   90.00000000
_symmetry_Int_Tables_number   1
_chemical_formula_structural   BaZnNiF7
_chemical_formula_sum   'Ba4 Zn4 Ni4 F28'
_cell_volume   537.43408552
_cell_formula_units_Z   4
loop_
 _symmetry_equiv_pos_site_id
 _symmetry_equiv_pos_as_xyz
  1  'x, y, z'
loop_
 _atom_site_type_symbol
 _atom_site_label
 _atom_site_symmetry_multiplicity
 _atom_site_fract_x
 _atom_site_fract_y
 _atom_site_fract_z
 _atom_site_occupancy
  Ba  Ba0  1  0.31467800  0.74021300  0.50026700  1
  Ba  Ba1  1  0.81467800  0.25978700  0.99973300  1
  Ba  Ba2  1  0.68532200  0.25978700  0.49973300  1
  Ba  Ba3  1  0.18532200  0.74021300  0.00026700  1
  Zn  Zn4  1  0.39926900  0.30198600  0.80967500  1
  Zn  Zn5  1  0.89926900  0.69801400  0.69032500  1
  Zn  Zn6  1  0.10073100  0.30198600  0.30967500  1
  Zn  Zn7  1  0.60073100  0.69801400  0.19032500  1
  Ni  Ni8  1  0.61248000  0.80478500  0.81125300  1
  Ni  Ni9  1  0.38752000  0.19521500  0.18874700  1
  Ni  Ni10  1  0.88752000  0.80478500  0.31125300  1
  Ni  Ni11  1  0.11248000  0.19521500  0.68874700  1
  F  F12  1  0.44258900  0.89444700  0.12238400  1
  F  F13  1  0.05180300  0.63500100  0.37090700  1
  F  F14  1  0.70537100  0.52705700  0.74999900  1
  F  F15  1  0.29462900  0.47294300  0.25000100  1
  F  F16  1  0.45516700  0.11662000  0.36336800  1
  F  F17  1  0.80998300  0.74211800  0.49198800  1
  F  F18  1  0.77962500  0.98031700  0.75012900  1
  F  F19  1  0.95516700  0.88338000  0.13663200  1
  F  F20  1  0.44819700  0.63500100  0.87090700  1
  F  F21  1  0.20537100  0.47294300  0.75000100  1
  F  F22  1  0.05741100  0.89444700  0.62238400  1
  F  F23  1  0.55741100  0.10555300  0.87761600  1
  F  F24  1  0.27962500  0.01968300  0.74987100  1
  F  F25  1  0.95728200  0.61785900  0.88076000  1
  F  F26  1  0.54483300  0.88338000  0.63663200  1
  F  F27  1  0.04483300  0.11662000  0.86336800  1
  F  F28  1  0.22037500  0.01968300  0.24987100  1
  F  F29  1  0.94258900  0.10555300  0.37761600  1
  F  F30  1  0.45728200  0.38214100  0.61924000  1
  F  F31  1  0.94819700  0.36499900  0.62909300  1
  F  F32  1  0.04271800  0.38214100  0.11924000  1
  F  F33  1  0.72037500  0.98031700  0.25012900  1
  F  F34  1  0.54271800  0.61785900  0.38076000  1
  F  F35  1  0.30998300  0.25788200  0.00801200  1
  F  F36  1  0.19001700  0.25788200  0.50801200  1
  F  F37  1  0.69001700  0.74211800  0.99198800  1
  F  F38  1  0.55180300  0.36499900  0.12909300  1
  F  F39  1  0.79462900  0.52705700  0.24999900  1
