# generated using pymatgen
data_BaZnCrF7
_symmetry_space_group_name_H-M   'P 1'
_cell_length_a   10.06583000
_cell_length_b   5.67203400
_cell_length_c   9.71492670
_cell_angle_alpha   86.91360049
_cell_angle_beta   90.00000000
_cell_angle_gamma   90.00000000
_symmetry_Int_Tables_number   1
_chemical_formula_structural   BaZnCrF7
_chemical_formula_sum   'Ba4 Zn4 Cr4 F28'
_cell_volume   553.85685425
_cell_formula_units_Z   4
loop_
 _symmetry_equiv_pos_site_id
 _symmetry_equiv_pos_as_xyz
  1  'x, y, z'
loop_
 _atom_site_type_symbol
 _atom_site_label
 _atom_site_symmetry_multiplicity
 _atom_site_fract_x
 _atom_site_fract_y
 _atom_site_fract_z
 _atom_site_occupancy
  Ba  Ba0  1  0.32018300  0.73930400  0.49885100  1
  Ba  Ba1  1  0.82018300  0.26069600  0.00114900  1
  Ba  Ba2  1  0.67981700  0.26069600  0.50114900  1
  Ba  Ba3  1  0.17981700  0.73930400  0.99885100  1
  Zn  Zn4  1  0.39906500  0.30369800  0.81090500  1
  Zn  Zn5  1  0.89906500  0.69630200  0.68909500  1
  Zn  Zn6  1  0.10093500  0.30369800  0.31090500  1
  Zn  Zn7  1  0.60093500  0.69630200  0.18909500  1
  Cr  Cr8  1  0.61282500  0.80478600  0.81276400  1
  Cr  Cr9  1  0.38717500  0.19521400  0.18723600  1
  Cr  Cr10  1  0.88717500  0.80478600  0.31276400  1
  Cr  Cr11  1  0.11282500  0.19521400  0.68723600  1
  F  F12  1  0.44384000  0.89155500  0.12220500  1
  F  F13  1  0.04918600  0.63882900  0.37015200  1
  F  F14  1  0.70641300  0.52432400  0.75197700  1
  F  F15  1  0.29358700  0.47567600  0.24802300  1
  F  F16  1  0.45774400  0.11076600  0.36630600  1
  F  F17  1  0.80825000  0.73926700  0.49755600  1
  F  F18  1  0.77583600  0.97592800  0.75289500  1
  F  F19  1  0.95774400  0.88923400  0.13369400  1
  F  F20  1  0.45081400  0.63882900  0.87015200  1
  F  F21  1  0.20641300  0.47567600  0.74802300  1
  F  F22  1  0.05616000  0.89155500  0.62220500  1
  F  F23  1  0.55616000  0.10844500  0.87779500  1
  F  F24  1  0.27583600  0.02407200  0.74710500  1
  F  F25  1  0.95721600  0.61203300  0.87585900  1
  F  F26  1  0.54225600  0.88923400  0.63369400  1
  F  F27  1  0.04225600  0.11076600  0.86630600  1
  F  F28  1  0.22416400  0.02407200  0.24710500  1
  F  F29  1  0.94384000  0.10844500  0.37779500  1
  F  F30  1  0.45721600  0.38796700  0.62414100  1
  F  F31  1  0.95081400  0.36117100  0.62984800  1
  F  F32  1  0.04278400  0.38796700  0.12414100  1
  F  F33  1  0.72416400  0.97592800  0.25289500  1
  F  F34  1  0.54278400  0.61203300  0.37585900  1
  F  F35  1  0.30825000  0.26073300  0.00244400  1
  F  F36  1  0.19175000  0.26073300  0.50244400  1
  F  F37  1  0.69175000  0.73926700  0.99755600  1
  F  F38  1  0.54918600  0.36117100  0.12984800  1
  F  F39  1  0.79358700  0.52432400  0.25197700  1
