# generated using pymatgen
data_BaCaCrF7
_symmetry_space_group_name_H-M   'P 1'
_cell_length_a   10.48143100
_cell_length_b   5.78169800
_cell_length_c   10.06927246
_cell_angle_alpha   87.65359247
_cell_angle_beta   90.00000000
_cell_angle_gamma   90.00000000
_symmetry_Int_Tables_number   1
_chemical_formula_structural   BaCaCrF7
_chemical_formula_sum   'Ba4 Ca4 Cr4 F28'
_cell_volume   609.69101301
_cell_formula_units_Z   4
loop_
 _symmetry_equiv_pos_site_id
 _symmetry_equiv_pos_as_xyz
  1  'x, y, z'
loop_
 _atom_site_type_symbol
 _atom_site_label
 _atom_site_symmetry_multiplicity
 _atom_site_fract_x
 _atom_site_fract_y
 _atom_site_fract_z
 _atom_site_occupancy
  Ba  Ba0  1  0.33358400  0.73991900  0.50352300  1
  Ba  Ba1  1  0.83358400  0.26008100  0.99647700  1
  Ba  Ba2  1  0.66641600  0.26008100  0.49647700  1
  Ba  Ba3  1  0.16641600  0.73991900  0.00352300  1
  Ca  Ca4  1  0.40425800  0.29992400  0.81805700  1
  Ca  Ca5  1  0.90425800  0.70007600  0.68194300  1
  Ca  Ca6  1  0.09574200  0.29992400  0.31805700  1
  Ca  Ca7  1  0.59574200  0.70007600  0.18194300  1
  Cr  Cr8  1  0.61990900  0.81082200  0.81099600  1
  Cr  Cr9  1  0.38009100  0.18917800  0.18900400  1
  Cr  Cr10  1  0.88009100  0.81082200  0.31099600  1
  Cr  Cr11  1  0.11990900  0.18917800  0.68900400  1
  F  F12  1  0.42708600  0.90080800  0.11197600  1
  F  F13  1  0.03806100  0.65987400  0.36935300  1
  F  F14  1  0.70163100  0.53071600  0.74295100  1
  F  F15  1  0.29836900  0.46928400  0.25704900  1
  F  F16  1  0.45891300  0.09431600  0.35771200  1
  F  F17  1  0.79974300  0.72468200  0.48176200  1
  F  F18  1  0.77193200  0.98551800  0.75112600  1
  F  F19  1  0.95891300  0.90568400  0.14228800  1
  F  F20  1  0.46193900  0.65987400  0.86935300  1
  F  F21  1  0.20163100  0.46928400  0.75704900  1
  F  F22  1  0.07291400  0.90080800  0.61197600  1
  F  F23  1  0.57291400  0.09919200  0.88802400  1
  F  F24  1  0.27193200  0.01448200  0.74887400  1
  F  F25  1  0.95809600  0.60507200  0.88483700  1
  F  F26  1  0.54108700  0.90568400  0.64228800  1
  F  F27  1  0.04108700  0.09431600  0.85771200  1
  F  F28  1  0.22806800  0.01448200  0.24887400  1
  F  F29  1  0.92708600  0.09919200  0.38802400  1
  F  F30  1  0.45809600  0.39492800  0.61516300  1
  F  F31  1  0.96193900  0.34012600  0.63064700  1
  F  F32  1  0.04190400  0.39492800  0.11516300  1
  F  F33  1  0.72806800  0.98551800  0.25112600  1
  F  F34  1  0.54190400  0.60507200  0.38483700  1
  F  F35  1  0.29974300  0.27531800  0.01823800  1
  F  F36  1  0.20025700  0.27531800  0.51823800  1
  F  F37  1  0.70025700  0.72468200  0.98176200  1
  F  F38  1  0.53806100  0.34012600  0.13064700  1
  F  F39  1  0.79836900  0.53071600  0.24295100  1
