# generated using pymatgen
data_Sr2Ti2GaO7
_symmetry_space_group_name_H-M   'P 1'
_cell_length_a   11.60851972
_cell_length_b   11.60851972
_cell_length_c   5.58911525
_cell_angle_alpha   76.31574814
_cell_angle_beta   76.31574814
_cell_angle_gamma   140.17126221
_symmetry_Int_Tables_number   1
_chemical_formula_structural   Sr2Ti2GaO7
_chemical_formula_sum   'Sr4 Ti4 Ga2 O14'
_cell_volume   347.06863027
_cell_formula_units_Z   2
loop_
 _symmetry_equiv_pos_site_id
 _symmetry_equiv_pos_as_xyz
  1  'x, y, z'
loop_
 _atom_site_type_symbol
 _atom_site_label
 _atom_site_symmetry_multiplicity
 _atom_site_fract_x
 _atom_site_fract_y
 _atom_site_fract_z
 _atom_site_occupancy
  Sr  Sr0  1  0.16374300  0.36934800  0.97806400  1
  Sr  Sr1  1  0.83980300  0.63381300  0.00743900  1
  Sr  Sr2  1  0.63381300  0.83980300  0.00743900  1
  Sr  Sr3  1  0.36934800  0.16374300  0.97806400  1
  Ti  Ti4  1  0.93410200  0.58487900  0.47094500  1
  Ti  Ti5  1  0.58487900  0.93410200  0.47094500  1
  Ti  Ti6  1  0.43247600  0.08193600  0.47340300  1
  Ti  Ti7  1  0.08193600  0.43247600  0.47340300  1
  Ga  Ga8  1  0.82772200  0.82772200  0.38192700  1
  Ga  Ga9  1  0.17113200  0.17113200  0.54034500  1
  O  O10  1  0.32745700  0.68321200  0.50596700  1
  O  O11  1  0.88052100  0.88052100  0.99362300  1
  O  O12  1  0.30872700  0.66454300  0.02635300  1
  O  O13  1  0.37054800  0.21480900  0.48189200  1
  O  O14  1  0.17311700  0.83338400  0.50724300  1
  O  O15  1  0.16257500  0.82321400  0.01942600  1
  O  O16  1  0.12117500  0.12117500  0.25333900  1
  O  O17  1  0.68321200  0.32745700  0.50596700  1
  O  O18  1  0.66454300  0.30872700  0.02635300  1
  O  O19  1  0.78398000  0.62871400  0.56616400  1
  O  O20  1  0.62871400  0.78398000  0.56616400  1
  O  O21  1  0.21480900  0.37054800  0.48189200  1
  O  O22  1  0.82321400  0.16257500  0.01942600  1
  O  O23  1  0.83338400  0.17311700  0.50724300  1
