# generated using pymatgen
data_Sr2YAlSn2O7
_symmetry_space_group_name_H-M   'P 1'
_cell_length_a   11.56159504
_cell_length_b   11.56159504
_cell_length_c   11.56159504
_cell_angle_alpha   150.47947684
_cell_angle_beta   145.05451106
_cell_angle_gamma   46.37965628
_symmetry_Int_Tables_number   1
_chemical_formula_structural   Sr2YAlSn2O7
_chemical_formula_sum   'Sr4 Y2 Al2 Sn4 O14'
_cell_volume   434.67917429
_cell_formula_units_Z   2
loop_
 _symmetry_equiv_pos_site_id
 _symmetry_equiv_pos_as_xyz
  1  'x, y, z'
loop_
 _atom_site_type_symbol
 _atom_site_label
 _atom_site_symmetry_multiplicity
 _atom_site_fract_x
 _atom_site_fract_y
 _atom_site_fract_z
 _atom_site_occupancy
  Sr  Sr0  1  0.76588500  0.83297600  0.92234200  1
  Sr  Sr1  1  0.23411500  0.15645700  0.06709100  1
  Sr  Sr2  1  0.58936600  0.65645700  0.92234200  1
  Sr  Sr3  1  0.41063400  0.33297600  0.06709100  1
  Y  Y4  1  0.50000000  0.44291200  0.94291200  1
  Y  Y5  1  0.00000000  0.94291200  0.94291200  1
  Al  Al6  1  0.14323300  0.76093500  0.40416900  1
  Al  Al7  1  0.85676700  0.26093500  0.61770200  1
  Sn  Sn8  1  0.92409100  0.39704600  0.47938800  1
  Sn  Sn9  1  0.07590900  0.55529700  0.47295500  1
  Sn  Sn10  1  0.58234200  0.05529700  0.47938800  1
  Sn  Sn11  1  0.41765800  0.89704600  0.47295500  1
  O  O12  1  0.93863100  0.56121900  0.99985000  1
  O  O13  1  0.06136900  0.06121900  0.62258800  1
  O  O14  1  0.70090600  0.75696000  0.60081200  1
  O  O15  1  0.29909400  0.89990700  0.05605400  1
  O  O16  1  0.34385300  0.39990700  0.60081200  1
  O  O17  1  0.65614700  0.25696000  0.05605400  1
  O  O18  1  0.03373800  0.06403100  0.25409300  1
  O  O19  1  0.96626200  0.22035500  0.03029300  1
  O  O20  1  0.69006200  0.72035500  0.25409300  1
  O  O21  1  0.30993800  0.56403100  0.03029300  1
  O  O22  1  0.36671300  0.78199500  0.51662500  1
  O  O23  1  0.63328700  0.14991200  0.41528200  1
  O  O24  1  0.23463000  0.64991200  0.51662500  1
  O  O25  1  0.76537000  0.28199500  0.41528200  1
