# generated using pymatgen
data_Ca(FeO2)2
_symmetry_space_group_name_H-M   'P 1'
_cell_length_a   6.13951696
_cell_length_b   6.13951696
_cell_length_c   6.13951696
_cell_angle_alpha   121.11422129
_cell_angle_beta   121.11422129
_cell_angle_gamma   88.08070852
_symmetry_Int_Tables_number   1
_chemical_formula_structural   Ca(FeO2)2
_chemical_formula_sum   'Ca2 Fe4 O8'
_cell_volume   160.78543275
_cell_formula_units_Z   2
loop_
 _symmetry_equiv_pos_site_id
 _symmetry_equiv_pos_as_xyz
  1  'x, y, z'
loop_
 _atom_site_type_symbol
 _atom_site_label
 _atom_site_symmetry_multiplicity
 _atom_site_fract_x
 _atom_site_fract_y
 _atom_site_fract_z
 _atom_site_occupancy
  Ca  Ca0  1  0.00000000  0.00000000  0.00000000  1
  Ca  Ca1  1  0.75000000  0.25000000  0.50000000  1
  Fe  Fe2  1  0.87500000  0.62500000  0.25000000  1
  Fe  Fe3  1  0.37500000  0.62500000  0.75000000  1
  Fe  Fe4  1  0.37500000  0.62500000  0.25000000  1
  Fe  Fe5  1  0.37500000  0.12500000  0.75000000  1
  O  O6  1  0.61333100  0.39945200  0.21387900  1
  O  O7  1  0.60054800  0.38666900  0.78612100  1
  O  O8  1  0.60054800  0.81442800  0.21387900  1
  O  O9  1  0.56442800  0.85054800  0.71387900  1
  O  O10  1  0.14945200  0.43557200  0.28612100  1
  O  O11  1  0.14945200  0.86333100  0.71387900  1
  O  O12  1  0.18557200  0.39945200  0.78612100  1
  O  O13  1  0.13666900  0.85054800  0.28612100  1
