# generated using pymatgen
data_CaFeWO6
_symmetry_space_group_name_H-M   'P 1'
_cell_length_a   5.54489916
_cell_length_b   5.54489916
_cell_length_c   5.54366925
_cell_angle_alpha   60.00872051
_cell_angle_beta   60.00872051
_cell_angle_gamma   59.98187481
_symmetry_Int_Tables_number   1
_chemical_formula_structural   CaFeWO6
_chemical_formula_sum   'Ca1 Fe1 W1 O6'
_cell_volume   120.52227180
_cell_formula_units_Z   1
loop_
 _symmetry_equiv_pos_site_id
 _symmetry_equiv_pos_as_xyz
  1  'x, y, z'
loop_
 _atom_site_type_symbol
 _atom_site_label
 _atom_site_symmetry_multiplicity
 _atom_site_fract_x
 _atom_site_fract_y
 _atom_site_fract_z
 _atom_site_occupancy
  Ca  Ca0  1  0.75119600  0.75119600  0.73246800  1
  Fe  Fe1  1  0.49998800  0.49998800  0.47488600  1
  W  W2  1  0.00010000  0.00010000  0.97525500  1
  O  O3  1  0.24610500  0.24610500  0.72105300  1
  O  O4  1  0.75364200  0.75364200  0.22662500  1
  O  O5  1  0.25181600  0.75614100  0.21492700  1
  O  O6  1  0.75614100  0.25181600  0.21492700  1
  O  O7  1  0.24004100  0.75057300  0.73040100  1
  O  O8  1  0.75057300  0.24004100  0.73040100  1
