# generated using pymatgen
data_Al(CoO2)2
_symmetry_space_group_name_H-M   'P 1'
_cell_length_a   5.84780561
_cell_length_b   5.84780561
_cell_length_c   5.84780561
_cell_angle_alpha   60.00000000
_cell_angle_beta   60.00000000
_cell_angle_gamma   60.00000000
_symmetry_Int_Tables_number   1
_chemical_formula_structural   Al(CoO2)2
_chemical_formula_sum   'Al2 Co4 O8'
_cell_volume   141.40468032
_cell_formula_units_Z   2
loop_
 _symmetry_equiv_pos_site_id
 _symmetry_equiv_pos_as_xyz
  1  'x, y, z'
loop_
 _atom_site_type_symbol
 _atom_site_label
 _atom_site_symmetry_multiplicity
 _atom_site_fract_x
 _atom_site_fract_y
 _atom_site_fract_z
 _atom_site_occupancy
  Al  Al0  1  0.75000000  0.75000000  0.75000000  1
  Al  Al1  1  0.50000000  0.50000000  0.50000000  1
  Co  Co2  1  0.12500000  0.12500000  0.62500000  1
  Co  Co3  1  0.12500000  0.12500000  0.12500000  1
  Co  Co4  1  0.12500000  0.62500000  0.12500000  1
  Co  Co5  1  0.62500000  0.12500000  0.12500000  1
  O  O6  1  0.87598500  0.37204400  0.87598500  1
  O  O7  1  0.87795600  0.37401500  0.37401500  1
  O  O8  1  0.37401500  0.37401500  0.87795600  1
  O  O9  1  0.37401500  0.37401500  0.37401500  1
  O  O10  1  0.37204400  0.87598500  0.87598500  1
  O  O11  1  0.37401500  0.87795600  0.37401500  1
  O  O12  1  0.87598500  0.87598500  0.37204400  1
  O  O13  1  0.87598500  0.87598500  0.87598500  1
