# generated using pymatgen
data_CaMn4O8
_symmetry_space_group_name_H-M   'P 1'
_cell_length_a   6.60825118
_cell_length_b   6.60825118
_cell_length_c   6.60825034
_cell_angle_alpha   53.90729929
_cell_angle_beta   53.90729929
_cell_angle_gamma   53.90729762
_symmetry_Int_Tables_number   1
_chemical_formula_structural   CaMn4O8
_chemical_formula_sum   'Ca1 Mn4 O8'
_cell_volume   175.00490781
_cell_formula_units_Z   1
loop_
 _symmetry_equiv_pos_site_id
 _symmetry_equiv_pos_as_xyz
  1  'x, y, z'
loop_
 _atom_site_type_symbol
 _atom_site_label
 _atom_site_symmetry_multiplicity
 _atom_site_fract_x
 _atom_site_fract_y
 _atom_site_fract_z
 _atom_site_occupancy
  Ca  Ca0  1  0.50000000  0.50000000  0.50000000  1
  Mn  Mn1  1  0.00000000  0.50000000  0.50000000  1
  Mn  Mn2  1  0.50000000  0.00000000  0.50000000  1
  Mn  Mn3  1  0.50000000  0.50000000  0.00000000  1
  Mn  Mn4  1  0.00000000  0.00000000  0.00000000  1
  O  O5  1  0.30143600  0.75853700  0.75853700  1
  O  O6  1  0.24146300  0.24146300  0.69856400  1
  O  O7  1  0.69856400  0.24146300  0.24146300  1
  O  O8  1  0.24146300  0.69856400  0.24146300  1
  O  O9  1  0.27496000  0.27496000  0.27496000  1
  O  O10  1  0.72504000  0.72504000  0.72504000  1
  O  O11  1  0.75853700  0.30143600  0.75853700  1
  O  O12  1  0.75853700  0.75853700  0.30143600  1
