# generated using pymatgen
data_Ca2CrN3
_symmetry_space_group_name_H-M   'P 1'
_cell_length_a   6.66035385
_cell_length_b   6.66035385
_cell_length_c   4.94690600
_cell_angle_alpha   90.00000000
_cell_angle_beta   90.00000000
_cell_angle_gamma   106.27434036
_symmetry_Int_Tables_number   1
_chemical_formula_structural   Ca2CrN3
_chemical_formula_sum   'Ca4 Cr2 N6'
_cell_volume   210.65328286
_cell_formula_units_Z   2
loop_
 _symmetry_equiv_pos_site_id
 _symmetry_equiv_pos_as_xyz
  1  'x, y, z'
loop_
 _atom_site_type_symbol
 _atom_site_label
 _atom_site_symmetry_multiplicity
 _atom_site_fract_x
 _atom_site_fract_y
 _atom_site_fract_z
 _atom_site_occupancy
  Ca  Ca0  1  0.88622400  0.11377600  0.00000000  1
  Ca  Ca1  1  0.39779400  0.19414100  0.00000000  1
  Ca  Ca2  1  0.10008500  0.89991500  0.50000000  1
  Ca  Ca3  1  0.80585900  0.60220600  0.00000000  1
  Cr  Cr4  1  0.29961600  0.70038400  0.00000000  1
  Cr  Cr5  1  0.71466100  0.28533900  0.50000000  1
  N  N6  1  0.19384900  0.44112000  0.00000000  1
  N  N7  1  0.87567000  0.12433000  0.50000000  1
  N  N8  1  0.12912700  0.87087300  0.00000000  1
  N  N9  1  0.44843800  0.17528000  0.50000000  1
  N  N10  1  0.82472000  0.55156200  0.50000000  1
  N  N11  1  0.55888000  0.80615100  0.00000000  1
