# generated using pymatgen
data_V2CoO7
_symmetry_space_group_name_H-M   'P 1'
_cell_length_a   15.00652300
_cell_length_b   6.55959700
_cell_length_c   11.09412299
_cell_angle_alpha   77.73921970
_cell_angle_beta   90.00000000
_cell_angle_gamma   90.00000000
_symmetry_Int_Tables_number   1
_chemical_formula_structural   V2CoO7
_chemical_formula_sum   'V16 Co8 O56'
_cell_volume   1067.16051009
_cell_formula_units_Z   8
loop_
 _symmetry_equiv_pos_site_id
 _symmetry_equiv_pos_as_xyz
  1  'x, y, z'
loop_
 _atom_site_type_symbol
 _atom_site_label
 _atom_site_symmetry_multiplicity
 _atom_site_fract_x
 _atom_site_fract_y
 _atom_site_fract_z
 _atom_site_occupancy
  V  V0  1  0.85762100  0.14699700  0.98279700  1
  V  V1  1  0.00385300  0.57364800  0.68001600  1
  V  V2  1  0.49614700  0.57364800  0.18001600  1
  V  V3  1  0.99614700  0.42635200  0.31998400  1
  V  V4  1  0.70121800  0.49292300  0.80149500  1
  V  V5  1  0.20121800  0.50707700  0.69850500  1
  V  V6  1  0.29878200  0.50707700  0.19850500  1
  V  V7  1  0.79878200  0.49292300  0.30149500  1
  V  V8  1  0.50385300  0.42635200  0.81998400  1
  V  V9  1  0.13867700  0.12516800  0.48151800  1
  V  V10  1  0.63867700  0.87483200  0.01848200  1
  V  V11  1  0.86132300  0.87483200  0.51848200  1
  V  V12  1  0.35762100  0.85300300  0.51720300  1
  V  V13  1  0.64237900  0.14699700  0.48279700  1
  V  V14  1  0.14237900  0.85300300  0.01720300  1
  V  V15  1  0.36132300  0.12516800  0.98151800  1
  Co  Co16  1  0.67733200  0.36302700  0.07582600  1
  Co  Co17  1  0.17733200  0.63697300  0.42417400  1
  Co  Co18  1  0.32266800  0.63697300  0.92417400  1
  Co  Co19  1  0.82266800  0.36302700  0.57582600  1
  Co  Co20  1  0.75366600  0.01088800  0.24988300  1
  Co  Co21  1  0.25366600  0.98911200  0.25011700  1
  Co  Co22  1  0.24633400  0.98911200  0.75011700  1
  Co  Co23  1  0.74633400  0.01088800  0.74988300  1
  O  O24  1  0.95931800  0.23173400  0.96334600  1
  O  O25  1  0.45931800  0.76826600  0.53665400  1
  O  O26  1  0.04068200  0.76826600  0.03665400  1
  O  O27  1  0.54068200  0.23173400  0.46334600  1
  O  O28  1  0.83035600  0.00653900  0.86718300  1
  O  O29  1  0.33035600  0.99346100  0.63281700  1
  O  O30  1  0.16964400  0.99346100  0.13281700  1
  O  O31  1  0.66964400  0.00653900  0.36718300  1
  O  O32  1  0.84106000  0.00782800  0.13613400  1
  O  O33  1  0.34106000  0.99217200  0.36386600  1
  O  O34  1  0.15894000  0.99217200  0.86386600  1
  O  O35  1  0.65894000  0.00782800  0.63613400  1
  O  O36  1  0.29884700  0.34774000  0.94857300  1
  O  O37  1  0.79884700  0.65226000  0.55142700  1
  O  O38  1  0.70115300  0.65226000  0.05142700  1
  O  O39  1  0.20115300  0.34774000  0.44857300  1
  O  O40  1  0.34544800  0.00028800  0.13286700  1
  O  O41  1  0.84544800  0.99971200  0.36713300  1
  O  O42  1  0.65455200  0.99971200  0.86713300  1
  O  O43  1  0.15455200  0.00028800  0.63286700  1
  O  O44  1  0.33211800  0.93896200  0.88407300  1
  O  O45  1  0.42343400  0.61423700  0.83780500  1
  O  O46  1  0.83211800  0.06103800  0.61592700  1
  O  O47  1  0.16788200  0.93896200  0.38407300  1
  O  O48  1  0.46766800  0.30065500  0.72003500  1
  O  O49  1  0.96766800  0.69934500  0.77996500  1
  O  O50  1  0.53233200  0.69934500  0.27996500  1
  O  O51  1  0.03233200  0.30065500  0.22003500  1
  O  O52  1  0.47001700  0.21631100  0.96204100  1
  O  O53  1  0.97001700  0.78368900  0.53795900  1
  O  O54  1  0.52998300  0.78368900  0.03795900  1
  O  O55  1  0.02998300  0.21631100  0.46204100  1
  O  O56  1  0.89829900  0.56065200  0.22118900  1
  O  O57  1  0.39829900  0.43934800  0.27881100  1
  O  O58  1  0.10170100  0.43934800  0.77881100  1
  O  O59  1  0.60170100  0.56065200  0.72118900  1
  O  O60  1  0.75147900  0.30751500  0.21372500  1
  O  O61  1  0.25147900  0.69248500  0.28627500  1
  O  O62  1  0.24852100  0.69248500  0.78627500  1
  O  O63  1  0.74852100  0.30751500  0.71372500  1
  O  O64  1  0.72749800  0.35556700  0.45934700  1
  O  O65  1  0.22749800  0.64443300  0.04065300  1
  O  O66  1  0.27250200  0.64443300  0.54065300  1
  O  O67  1  0.77250200  0.35556700  0.95934700  1
  O  O68  1  0.74345700  0.72116600  0.27906500  1
  O  O69  1  0.24345700  0.27883400  0.22093500  1
  O  O70  1  0.25654300  0.27883400  0.72093500  1
  O  O71  1  0.75654300  0.72116600  0.77906500  1
  O  O72  1  0.88279400  0.41679600  0.42750800  1
  O  O73  1  0.38279400  0.58320400  0.07249200  1
  O  O74  1  0.11720600  0.58320400  0.57249200  1
  O  O75  1  0.61720600  0.41679600  0.92750800  1
  O  O76  1  0.07656600  0.61423700  0.33780500  1
  O  O77  1  0.57656600  0.38576300  0.16219500  1
  O  O78  1  0.92343400  0.38576300  0.66219500  1
  O  O79  1  0.66788200  0.06103800  0.11592700  1
