# generated using pymatgen
data_CaCoO2
_symmetry_space_group_name_H-M   'P 1'
_cell_length_a   3.24538300
_cell_length_b   8.07631752
_cell_length_c   8.32079353
_cell_angle_alpha   97.85547009
_cell_angle_beta   91.63854044
_cell_angle_gamma   91.64254719
_symmetry_Int_Tables_number   1
_chemical_formula_structural   CaCoO2
_chemical_formula_sum   'Ca4 Co4 O8'
_cell_volume   215.84237885
_cell_formula_units_Z   4
loop_
 _symmetry_equiv_pos_site_id
 _symmetry_equiv_pos_as_xyz
  1  'x, y, z'
loop_
 _atom_site_type_symbol
 _atom_site_label
 _atom_site_symmetry_multiplicity
 _atom_site_fract_x
 _atom_site_fract_y
 _atom_site_fract_z
 _atom_site_occupancy
  Ca  Ca0  1  0.27844000  0.72596000  0.93859000  1
  Ca  Ca1  1  0.68547200  0.24368800  0.08095600  1
  Ca  Ca2  1  0.70936600  0.93335400  0.31525200  1
  Ca  Ca3  1  0.26559900  0.03626100  0.70478600  1
  Co  Co4  1  0.93914100  0.38145200  0.72908300  1
  Co  Co5  1  0.68458400  0.70324600  0.59606200  1
  Co  Co6  1  0.29588200  0.26652200  0.42295400  1
  Co  Co7  1  0.06915900  0.58815200  0.28653500  1
  O  O8  1  0.55283600  0.44457400  0.31241000  1
  O  O9  1  0.79845600  0.17997400  0.54648200  1
  O  O10  1  0.18283400  0.78880800  0.47228200  1
  O  O11  1  0.45208400  0.52524300  0.71235600  1
  O  O12  1  0.17255000  0.26202800  0.89489400  1
  O  O13  1  0.76376600  0.87158200  0.79767400  1
  O  O14  1  0.79005800  0.70510200  0.12619400  1
  O  O15  1  0.20846800  0.09799500  0.22192800  1
