# generated using pymatgen
data_Ca(FeO2)4
_symmetry_space_group_name_H-M   'P 1'
_cell_length_a   6.48383367
_cell_length_b   6.48383367
_cell_length_c   6.48383336
_cell_angle_alpha   53.27026563
_cell_angle_beta   53.27026563
_cell_angle_gamma   53.27026832
_symmetry_Int_Tables_number   1
_chemical_formula_structural   Ca(FeO2)4
_chemical_formula_sum   'Ca1 Fe4 O8'
_cell_volume   162.36838858
_cell_formula_units_Z   1
loop_
 _symmetry_equiv_pos_site_id
 _symmetry_equiv_pos_as_xyz
  1  'x, y, z'
loop_
 _atom_site_type_symbol
 _atom_site_label
 _atom_site_symmetry_multiplicity
 _atom_site_fract_x
 _atom_site_fract_y
 _atom_site_fract_z
 _atom_site_occupancy
  Ca  Ca0  1  0.50000000  0.50000000  0.50000000  1
  Fe  Fe1  1  0.00000000  0.50000000  0.50000000  1
  Fe  Fe2  1  0.50000000  0.00000000  0.50000000  1
  Fe  Fe3  1  0.50000000  0.50000000  0.00000000  1
  Fe  Fe4  1  0.00000000  0.00000000  0.00000000  1
  O  O5  1  0.27684300  0.77068300  0.77068300  1
  O  O6  1  0.22931700  0.22931700  0.72315700  1
  O  O7  1  0.72315700  0.22931700  0.22931700  1
  O  O8  1  0.22931700  0.72315700  0.22931700  1
  O  O9  1  0.27268000  0.27268000  0.27268000  1
  O  O10  1  0.72732000  0.72732000  0.72732000  1
  O  O11  1  0.77068300  0.27684300  0.77068300  1
  O  O12  1  0.77068300  0.77068300  0.27684300  1
