# generated using pymatgen
data_VBiO5
_symmetry_space_group_name_H-M   'P 1'
_cell_length_a   10.70117300
_cell_length_b   5.46888700
_cell_length_c   8.83869939
_cell_angle_alpha   71.24333085
_cell_angle_beta   90.00000000
_cell_angle_gamma   90.00000000
_symmetry_Int_Tables_number   1
_chemical_formula_structural   VBiO5
_chemical_formula_sum   'V4 Bi4 O20'
_cell_volume   489.80077797
_cell_formula_units_Z   4
loop_
 _symmetry_equiv_pos_site_id
 _symmetry_equiv_pos_as_xyz
  1  'x, y, z'
loop_
 _atom_site_type_symbol
 _atom_site_label
 _atom_site_symmetry_multiplicity
 _atom_site_fract_x
 _atom_site_fract_y
 _atom_site_fract_z
 _atom_site_occupancy
  V  V0  1  0.35054200  0.16540900  0.05294400  1
  V  V1  1  0.64945800  0.83459100  0.94705600  1
  V  V2  1  0.85054200  0.83459100  0.44705600  1
  V  V3  1  0.14945800  0.16540900  0.55294400  1
  Bi  Bi4  1  0.90865900  0.00247700  0.82506000  1
  Bi  Bi5  1  0.09134100  0.99752300  0.17494000  1
  Bi  Bi6  1  0.59134100  0.00247700  0.32506000  1
  Bi  Bi7  1  0.40865900  0.99752300  0.67494000  1
  O  O8  1  0.90780400  0.83138400  0.63646000  1
  O  O9  1  0.03446900  0.27576800  0.66020500  1
  O  O10  1  0.78703200  0.13529100  0.32876800  1
  O  O11  1  0.44526700  0.81375300  0.49047200  1
  O  O12  1  0.71886700  0.65204600  0.46779400  1
  O  O13  1  0.78113300  0.65204600  0.96779400  1
  O  O14  1  0.46553100  0.27576800  0.16020500  1
  O  O15  1  0.53446900  0.72423200  0.83979500  1
  O  O16  1  0.55473300  0.18624700  0.50952800  1
  O  O17  1  0.40780400  0.16861600  0.86354000  1
  O  O18  1  0.28113300  0.34795400  0.53220600  1
  O  O19  1  0.09219600  0.16861600  0.36354000  1
  O  O20  1  0.59219600  0.83138400  0.13646000  1
  O  O21  1  0.21886700  0.34795400  0.03220600  1
  O  O22  1  0.94526700  0.18624700  0.00952800  1
  O  O23  1  0.05473300  0.81375300  0.99047200  1
  O  O24  1  0.21296800  0.86470900  0.67123200  1
  O  O25  1  0.96553100  0.72423200  0.33979500  1
  O  O26  1  0.28703200  0.86470900  0.17123200  1
  O  O27  1  0.71296800  0.13529100  0.82876800  1
