# generated using pymatgen
data_Ca3Cu6(PO4)8
_symmetry_space_group_name_H-M   'P 1'
_cell_length_a   4.90528000
_cell_length_b   9.19730353
_cell_length_c   14.55826296
_cell_angle_alpha   84.80347664
_cell_angle_beta   89.88181327
_cell_angle_gamma   89.35624162
_symmetry_Int_Tables_number   1
_chemical_formula_structural   Ca3Cu6(PO4)8
_chemical_formula_sum   'Ca3 Cu6 P8 O32'
_cell_volume   654.05994740
_cell_formula_units_Z   1
loop_
 _symmetry_equiv_pos_site_id
 _symmetry_equiv_pos_as_xyz
  1  'x, y, z'
loop_
 _atom_site_type_symbol
 _atom_site_label
 _atom_site_symmetry_multiplicity
 _atom_site_fract_x
 _atom_site_fract_y
 _atom_site_fract_z
 _atom_site_occupancy
  Ca  Ca0  1  0.53461700  0.45409000  0.73575300  1
  Ca  Ca1  1  0.50356500  0.50160200  0.00625800  1
  Ca  Ca2  1  0.00050900  0.00026400  0.49823900  1
  Cu  Cu3  1  0.96614900  0.33114500  0.37557800  1
  Cu  Cu4  1  0.46479200  0.16670900  0.12287000  1
  Cu  Cu5  1  0.02353300  0.67591200  0.61943100  1
  Cu  Cu6  1  0.54128400  0.84029500  0.87938300  1
  Cu  Cu7  1  0.50311500  0.49980600  0.49662300  1
  Cu  Cu8  1  0.00126100  0.00042000  0.00019200  1
  P  P9  1  0.51139900  0.87504300  0.66137800  1
  P  P10  1  0.00918000  0.62227000  0.84104800  1
  P  P11  1  0.49179500  0.12298500  0.33927800  1
  P  P12  1  0.99007600  0.37719000  0.16016500  1
  P  P13  1  0.49227800  0.15463100  0.90997700  1
  P  P14  1  0.98970100  0.34429500  0.59175400  1
  P  P15  1  0.51075700  0.84670500  0.09178800  1
  P  P16  1  0.01054800  0.65398700  0.40708600  1
  O  O17  1  0.45457500  0.91546600  0.76124100  1
  O  O18  1  0.95955300  0.58347900  0.73823000  1
  O  O19  1  0.54509100  0.08437000  0.23878200  1
  O  O20  1  0.04401000  0.41643100  0.26047600  1
  O  O21  1  0.68431600  0.37009700  0.13767200  1
  O  O22  1  0.18434700  0.13084900  0.36256500  1
  O  O23  1  0.31930600  0.61354500  0.85795700  1
  O  O24  1  0.81954300  0.87064700  0.63756700  1
  O  O25  1  0.41391600  0.71460700  0.64896200  1
  O  O26  1  0.90693300  0.77952900  0.85430800  1
  O  O27  1  0.59413200  0.27972700  0.35445200  1
  O  O28  1  0.09686400  0.21966600  0.14598100  1
  O  O29  1  0.36555200  0.99138600  0.59871500  1
  O  O30  1  0.85158300  0.50381100  0.89746700  1
  O  O31  1  0.63454000  0.00383800  0.40080700  1
  O  O32  1  0.13099600  0.49608400  0.09913900  1
  O  O33  1  0.31397700  0.00864800  0.92235600  1
  O  O34  1  0.80493400  0.49313700  0.57860900  1
  O  O35  1  0.68745300  0.99308400  0.07683700  1
  O  O36  1  0.18567800  0.50599400  0.42298000  1
  O  O37  1  0.07865600  0.75303900  0.32340200  1
  O  O38  1  0.57908800  0.74784500  0.17533300  1
  O  O39  1  0.90288100  0.26237700  0.67997700  1
  O  O40  1  0.42166900  0.25314400  0.82556200  1
  O  O41  1  0.43027800  0.24089700  0.99567000  1
  O  O42  1  0.93979200  0.25961300  0.50592700  1
  O  O43  1  0.56706900  0.76098300  0.00422400  1
  O  O44  1  0.06896000  0.74211900  0.49320100  1
  O  O45  1  0.70903500  0.60121100  0.40357400  1
  O  O46  1  0.20791400  0.90143500  0.09437900  1
  O  O47  1  0.29076200  0.40131700  0.59641800  1
  O  O48  1  0.79232100  0.09881100  0.90510300  1
