# generated using pymatgen
data_Rb6Al2(Sb2O7)3
_symmetry_space_group_name_H-M   'P 1'
_cell_length_a   16.00783815
_cell_length_b   16.00783815
_cell_length_c   8.45637593
_cell_angle_alpha   89.88388651
_cell_angle_beta   89.88388651
_cell_angle_gamma   20.52545802
_symmetry_Int_Tables_number   1
_chemical_formula_structural   Rb6Al2(Sb2O7)3
_chemical_formula_sum   'Rb6 Al2 Sb6 O21'
_cell_volume   759.78338726
_cell_formula_units_Z   1
loop_
 _symmetry_equiv_pos_site_id
 _symmetry_equiv_pos_as_xyz
  1  'x, y, z'
loop_
 _atom_site_type_symbol
 _atom_site_label
 _atom_site_symmetry_multiplicity
 _atom_site_fract_x
 _atom_site_fract_y
 _atom_site_fract_z
 _atom_site_occupancy
  Rb  Rb0  1  0.78311100  0.78311100  0.39684400  1
  Rb  Rb1  1  0.10512100  0.10512100  0.39262000  1
  Rb  Rb2  1  0.44887200  0.44887200  0.37815800  1
  Rb  Rb3  1  0.21688900  0.21688900  0.60315600  1
  Rb  Rb4  1  0.55112800  0.55112800  0.62184200  1
  Rb  Rb5  1  0.89487900  0.89487900  0.60738000  1
  Al  Al6  1  0.33387500  0.33387500  0.80124500  1
  Al  Al7  1  0.66612500  0.66612500  0.19875500  1
  Sb  Sb8  1  0.22373200  0.22373200  0.15826000  1
  Sb  Sb9  1  0.55850500  0.55850500  0.13831600  1
  Sb  Sb10  1  0.88637200  0.88637200  0.12862500  1
  Sb  Sb11  1  0.77626800  0.77626800  0.84174000  1
  Sb  Sb12  1  0.11362800  0.11362800  0.87137500  1
  Sb  Sb13  1  0.44149500  0.44149500  0.86168400  1
  O  O14  1  0.55611900  0.05784600  0.72949600  1
  O  O15  1  0.92113700  0.34567500  0.70143400  1
  O  O16  1  0.24739300  0.69310500  0.72334800  1
  O  O17  1  0.94215400  0.44388100  0.27050400  1
  O  O18  1  0.30689500  0.75260700  0.27665200  1
  O  O19  1  0.65432500  0.07886300  0.29856600  1
  O  O20  1  0.05784600  0.55611900  0.72949600  1
  O  O21  1  0.34567500  0.92113700  0.70143400  1
  O  O22  1  0.69310500  0.24739300  0.72334800  1
  O  O23  1  0.72672400  0.72672400  0.71052600  1
  O  O24  1  0.06256500  0.06256500  0.73503100  1
  O  O25  1  0.38771700  0.38771700  0.73738200  1
  O  O26  1  0.44388100  0.94215400  0.27050400  1
  O  O27  1  0.75260700  0.30689500  0.27665200  1
  O  O28  1  0.07886300  0.65432500  0.29856600  1
  O  O29  1  0.34362800  0.34362800  0.00966300  1
  O  O30  1  0.65637200  0.65637200  0.99033700  1
  O  O31  1  0.00000000  0.00000000  0.00000000  1
  O  O32  1  0.27327600  0.27327600  0.28947400  1
  O  O33  1  0.61228300  0.61228300  0.26261800  1
  O  O34  1  0.93743500  0.93743500  0.26496900  1
