# generated using pymatgen
data_Ba2Sn3O7
_symmetry_space_group_name_H-M   'P 1'
_cell_length_a   3.88406500
_cell_length_b   4.05429300
_cell_length_c   13.72763900
_cell_angle_alpha   90.00000000
_cell_angle_beta   90.00000000
_cell_angle_gamma   90.00000000
_symmetry_Int_Tables_number   1
_chemical_formula_structural   Ba2Sn3O7
_chemical_formula_sum   'Ba2 Sn3 O7'
_cell_volume   216.17101945
_cell_formula_units_Z   1
loop_
 _symmetry_equiv_pos_site_id
 _symmetry_equiv_pos_as_xyz
  1  'x, y, z'
loop_
 _atom_site_type_symbol
 _atom_site_label
 _atom_site_symmetry_multiplicity
 _atom_site_fract_x
 _atom_site_fract_y
 _atom_site_fract_z
 _atom_site_occupancy
  Ba  Ba0  1  0.00000000  0.00000000  0.79071200  1
  Ba  Ba1  1  0.00000000  0.00000000  0.20928800  1
  Sn  Sn2  1  0.50000000  0.50000000  0.60449500  1
  Sn  Sn3  1  0.50000000  0.50000000  0.39550500  1
  Sn  Sn4  1  0.50000000  0.50000000  0.00000000  1
  O  O5  1  0.50000000  0.00000000  0.00000000  1
  O  O6  1  0.00000000  0.50000000  0.66132600  1
  O  O7  1  0.00000000  0.50000000  0.33867400  1
  O  O8  1  0.50000000  0.00000000  0.65291900  1
  O  O9  1  0.50000000  0.00000000  0.34708100  1
  O  O10  1  0.50000000  0.50000000  0.85666000  1
  O  O11  1  0.50000000  0.50000000  0.14334000  1
