# generated using pymatgen
data_CaCu2(As2O7)2
_symmetry_space_group_name_H-M   'P 1'
_cell_length_a   8.87230100
_cell_length_b   7.11978300
_cell_length_c   9.69237310
_cell_angle_alpha   73.84277789
_cell_angle_beta   90.00000000
_cell_angle_gamma   90.00000000
_symmetry_Int_Tables_number   1
_chemical_formula_structural   CaCu2(As2O7)2
_chemical_formula_sum   'Ca2 Cu4 As8 O28'
_cell_volume   588.07307190
_cell_formula_units_Z   2
loop_
 _symmetry_equiv_pos_site_id
 _symmetry_equiv_pos_as_xyz
  1  'x, y, z'
loop_
 _atom_site_type_symbol
 _atom_site_label
 _atom_site_symmetry_multiplicity
 _atom_site_fract_x
 _atom_site_fract_y
 _atom_site_fract_z
 _atom_site_occupancy
  Ca  Ca0  1  0.93813000  0.27556100  0.79008800  1
  Ca  Ca1  1  0.43813000  0.72443900  0.20991200  1
  Cu  Cu2  1  0.94554000  0.22047100  0.42942400  1
  Cu  Cu3  1  0.44554000  0.77952900  0.57057600  1
  Cu  Cu4  1  0.05365100  0.78103900  0.06923500  1
  Cu  Cu5  1  0.55365100  0.21896100  0.93076500  1
  As  As6  1  0.75911000  0.58482700  0.48914100  1
  As  As7  1  0.25911000  0.41517300  0.51085900  1
  As  As8  1  0.23985500  0.42040700  0.00378100  1
  As  As9  1  0.73985500  0.57959300  0.99621900  1
  As  As10  1  0.70110800  0.95836200  0.71862700  1
  As  As11  1  0.20110800  0.04163800  0.28137300  1
  As  As12  1  0.29817100  0.03140100  0.78313800  1
  As  As13  1  0.79817100  0.96859900  0.21686200  1
  O  O14  1  0.67597800  0.14806500  0.79860900  1
  O  O15  1  0.17597800  0.85193500  0.20139100  1
  O  O16  1  0.32672000  0.83693100  0.71344800  1
  O  O17  1  0.82672000  0.16306900  0.28655200  1
  O  O18  1  0.57013800  0.65396700  0.45966300  1
  O  O19  1  0.07013800  0.34603300  0.54033700  1
  O  O20  1  0.42935000  0.36637200  0.01997400  1
  O  O21  1  0.92935000  0.63362800  0.98002600  1
  O  O22  1  0.83382100  0.58248300  0.64710300  1
  O  O23  1  0.33382100  0.41751700  0.35289700  1
  O  O24  1  0.14850900  0.40888300  0.85763500  1
  O  O25  1  0.64850900  0.59111700  0.14236500  1
  O  O26  1  0.86064100  0.74906700  0.34340000  1
  O  O27  1  0.36064100  0.25093300  0.65660000  1
  O  O28  1  0.14355800  0.26201300  0.15694800  1
  O  O29  1  0.64355800  0.73798700  0.84305200  1
  O  O30  1  0.91466500  0.97305400  0.07050000  1
  O  O31  1  0.41466500  0.02694600  0.92950000  1
  O  O32  1  0.08806600  0.03477100  0.42680300  1
  O  O33  1  0.58806600  0.96522900  0.57319700  1
  O  O34  1  0.73263900  0.35912700  0.95332600  1
  O  O35  1  0.23263900  0.64087300  0.04667400  1
  O  O36  1  0.27300700  0.63735900  0.54804200  1
  O  O37  1  0.77300700  0.36264100  0.45195800  1
  O  O38  1  0.62159500  0.98187100  0.15508000  1
  O  O39  1  0.12159500  0.01812900  0.84492000  1
  O  O40  1  0.37996000  0.98535200  0.33123400  1
  O  O41  1  0.87996000  0.01464800  0.66876600  1
