# generated using pymatgen
data_V2ZnO5
_symmetry_space_group_name_H-M   'P 1'
_cell_length_a   3.42557300
_cell_length_b   4.91592400
_cell_length_c   11.77908500
_cell_angle_alpha   90.00000000
_cell_angle_beta   90.00000000
_cell_angle_gamma   90.00000000
_symmetry_Int_Tables_number   1
_chemical_formula_structural   V2ZnO5
_chemical_formula_sum   'V4 Zn2 O10'
_cell_volume   198.35810139
_cell_formula_units_Z   2
loop_
 _symmetry_equiv_pos_site_id
 _symmetry_equiv_pos_as_xyz
  1  'x, y, z'
loop_
 _atom_site_type_symbol
 _atom_site_label
 _atom_site_symmetry_multiplicity
 _atom_site_fract_x
 _atom_site_fract_y
 _atom_site_fract_z
 _atom_site_occupancy
  V  V0  1  0.00000000  0.60099700  0.84937600  1
  V  V1  1  0.50000000  0.39900300  0.65062400  1
  V  V2  1  0.50000000  0.39900300  0.34937600  1
  V  V3  1  0.00000000  0.60099700  0.15062400  1
  Zn  Zn4  1  0.50000000  0.17064700  0.00000000  1
  Zn  Zn5  1  0.00000000  0.82935300  0.50000000  1
  O  O6  1  0.50000000  0.58629300  0.50000000  1
  O  O7  1  0.00000000  0.41370700  0.00000000  1
  O  O8  1  0.50000000  0.43164600  0.82237800  1
  O  O9  1  0.00000000  0.56835400  0.67762200  1
  O  O10  1  0.50000000  0.43164600  0.17762200  1
  O  O11  1  0.00000000  0.56835400  0.32237800  1
  O  O12  1  0.00000000  0.93195200  0.11438600  1
  O  O13  1  0.50000000  0.06804800  0.38561400  1
  O  O14  1  0.50000000  0.06804800  0.61438600  1
  O  O15  1  0.00000000  0.93195200  0.88561400  1
