# generated using pymatgen
data_CaV2O6
_symmetry_space_group_name_H-M   'P 1'
_cell_length_a   5.44607300
_cell_length_b   5.48765700
_cell_length_c   7.31160600
_cell_angle_alpha   90.00000000
_cell_angle_beta   90.00000000
_cell_angle_gamma   90.00000000
_symmetry_Int_Tables_number   1
_chemical_formula_structural   CaV2O6
_chemical_formula_sum   'Ca2 V4 O12'
_cell_volume   218.51597755
_cell_formula_units_Z   2
loop_
 _symmetry_equiv_pos_site_id
 _symmetry_equiv_pos_as_xyz
  1  'x, y, z'
loop_
 _atom_site_type_symbol
 _atom_site_label
 _atom_site_symmetry_multiplicity
 _atom_site_fract_x
 _atom_site_fract_y
 _atom_site_fract_z
 _atom_site_occupancy
  Ca  Ca0  1  0.51958600  0.30167300  0.50000000  1
  Ca  Ca1  1  0.01958600  0.69832700  0.00000000  1
  V  V2  1  0.04028900  0.23232700  0.75650600  1
  V  V3  1  0.54028900  0.76767300  0.25650600  1
  V  V4  1  0.54028900  0.76767300  0.74349400  1
  V  V5  1  0.04028900  0.23232700  0.24349400  1
  O  O6  1  0.20661100  0.96564400  0.21676900  1
  O  O7  1  0.26262000  0.45636500  0.77775700  1
  O  O8  1  0.70661100  0.03435600  0.28323100  1
  O  O9  1  0.76262000  0.54363500  0.72224300  1
  O  O10  1  0.76262000  0.54363500  0.27775700  1
  O  O11  1  0.70661100  0.03435600  0.71676900  1
  O  O12  1  0.26262000  0.45636500  0.22224300  1
  O  O13  1  0.20661100  0.96564400  0.78323100  1
  O  O14  1  0.03934500  0.24004500  0.50000000  1
  O  O15  1  0.42870700  0.73883300  0.50000000  1
  O  O16  1  0.92870700  0.26116700  0.00000000  1
  O  O17  1  0.53934500  0.75995500  0.00000000  1
