# generated using pymatgen
data_MgFe2O5
_symmetry_space_group_name_H-M   'P 1'
_cell_length_a   3.32128000
_cell_length_b   5.04169807
_cell_length_c   11.60038322
_cell_angle_alpha   90.02107213
_cell_angle_beta   90.00008389
_cell_angle_gamma   90.00002861
_symmetry_Int_Tables_number   1
_chemical_formula_structural   MgFe2O5
_chemical_formula_sum   'Mg2 Fe4 O10'
_cell_volume   194.24713926
_cell_formula_units_Z   2
loop_
 _symmetry_equiv_pos_site_id
 _symmetry_equiv_pos_as_xyz
  1  'x, y, z'
loop_
 _atom_site_type_symbol
 _atom_site_label
 _atom_site_symmetry_multiplicity
 _atom_site_fract_x
 _atom_site_fract_y
 _atom_site_fract_z
 _atom_site_occupancy
  Mg  Mg0  1  0.74999900  0.86724400  0.24981400  1
  Mg  Mg1  1  0.24999900  0.13272200  0.75006800  1
  Fe  Fe2  1  0.24999900  0.41721000  0.10166000  1
  Fe  Fe3  1  0.75000000  0.58295700  0.89836700  1
  Fe  Fe4  1  0.75000100  0.58262800  0.60171200  1
  Fe  Fe5  1  0.24999800  0.41721100  0.39830500  1
  O  O6  1  0.75000000  0.41768000  0.74999100  1
  O  O7  1  0.24999800  0.58233500  0.25002800  1
  O  O8  1  0.75000100  0.61366100  0.06984500  1
  O  O9  1  0.25000000  0.38655900  0.93024100  1
  O  O10  1  0.74999900  0.61346100  0.43034000  1
  O  O11  1  0.24999900  0.38630300  0.56972800  1
  O  O12  1  0.25000100  0.07406700  0.34272600  1
  O  O13  1  0.74999900  0.92582900  0.65721900  1
  O  O14  1  0.75000000  0.92608300  0.84282900  1
  O  O15  1  0.25000100  0.07405200  0.15712700  1
