# generated using pymatgen
data_CaMnO2
_symmetry_space_group_name_H-M   'P 1'
_cell_length_a   3.21896100
_cell_length_b   8.59282407
_cell_length_c   8.75598878
_cell_angle_alpha   92.75205706
_cell_angle_beta   95.76358405
_cell_angle_gamma   92.89257430
_symmetry_Int_Tables_number   1
_chemical_formula_structural   CaMnO2
_chemical_formula_sum   'Ca4 Mn4 O8'
_cell_volume   240.31537606
_cell_formula_units_Z   4
loop_
 _symmetry_equiv_pos_site_id
 _symmetry_equiv_pos_as_xyz
  1  'x, y, z'
loop_
 _atom_site_type_symbol
 _atom_site_label
 _atom_site_symmetry_multiplicity
 _atom_site_fract_x
 _atom_site_fract_y
 _atom_site_fract_z
 _atom_site_occupancy
  Ca  Ca0  1  0.88704000  0.25234200  0.91588500  1
  Ca  Ca1  1  0.11296000  0.74765800  0.08411500  1
  Ca  Ca2  1  0.14224900  0.42161900  0.27853600  1
  Ca  Ca3  1  0.85775100  0.57838100  0.72146400  1
  Mn  Mn4  1  0.42785700  0.90345400  0.73686600  1
  Mn  Mn5  1  0.22180800  0.22822200  0.58861800  1
  Mn  Mn6  1  0.77819200  0.77177800  0.41138200  1
  Mn  Mn7  1  0.57214300  0.09654600  0.26313400  1
  O  O8  1  0.05208500  0.94277000  0.27667700  1
  O  O9  1  0.31918900  0.71578700  0.55950500  1
  O  O10  1  0.68081100  0.28421300  0.44049500  1
  O  O11  1  0.94791500  0.05723000  0.72332300  1
  O  O12  1  0.56197300  0.74376200  0.89583600  1
  O  O13  1  0.35598300  0.39071600  0.77248800  1
  O  O14  1  0.43802700  0.25623800  0.10416400  1
  O  O15  1  0.64401700  0.60928400  0.22751200  1
