# generated using pymatgen
data_NiO2
_symmetry_space_group_name_H-M   'P 1'
_cell_length_a   6.89689555
_cell_length_b   6.89689555
_cell_length_c   6.89689555
_cell_angle_alpha   92.43496632
_cell_angle_beta   92.43496632
_cell_angle_gamma   156.20987757
_symmetry_Int_Tables_number   1
_chemical_formula_structural   NiO2
_chemical_formula_sum   'Ni4 O8'
_cell_volume   129.49593822
_cell_formula_units_Z   4
loop_
 _symmetry_equiv_pos_site_id
 _symmetry_equiv_pos_as_xyz
  1  'x, y, z'
loop_
 _atom_site_type_symbol
 _atom_site_label
 _atom_site_symmetry_multiplicity
 _atom_site_fract_x
 _atom_site_fract_y
 _atom_site_fract_z
 _atom_site_occupancy
  Ni  Ni0  1  0.83282500  0.35047100  0.18329600  1
  Ni  Ni1  1  0.64952900  0.83282500  0.48235300  1
  Ni  Ni2  1  0.35047100  0.16717500  0.51764700  1
  Ni  Ni3  1  0.16717500  0.64952900  0.81670400  1
  O  O4  1  0.54440500  0.17683000  0.72123500  1
  O  O5  1  0.82317000  0.54440500  0.36757600  1
  O  O6  1  0.17683000  0.45559500  0.63242400  1
  O  O7  1  0.45559500  0.82317000  0.27876500  1
  O  O8  1  0.20337300  0.84750700  0.05088000  1
  O  O9  1  0.15249300  0.20337300  0.35586600  1
  O  O10  1  0.79662700  0.15249300  0.94912000  1
  O  O11  1  0.84750700  0.79662700  0.64413400  1
