# generated using pymatgen
data_Pr(FeO3)2
_symmetry_space_group_name_H-M   'P 1'
_cell_length_a   5.42472900
_cell_length_b   5.42617000
_cell_length_c   7.68590200
_cell_angle_alpha   90.00000000
_cell_angle_beta   90.00000000
_cell_angle_gamma   90.00000000
_symmetry_Int_Tables_number   1
_chemical_formula_structural   Pr(FeO3)2
_chemical_formula_sum   'Pr2 Fe4 O12'
_cell_volume   226.23838183
_cell_formula_units_Z   2
loop_
 _symmetry_equiv_pos_site_id
 _symmetry_equiv_pos_as_xyz
  1  'x, y, z'
loop_
 _atom_site_type_symbol
 _atom_site_label
 _atom_site_symmetry_multiplicity
 _atom_site_fract_x
 _atom_site_fract_y
 _atom_site_fract_z
 _atom_site_occupancy
  Pr  Pr0  1  0.77210400  0.99223300  0.00000000  1
  Pr  Pr1  1  0.22789600  0.49223300  0.50000000  1
  Fe  Fe2  1  0.25476200  0.99889100  0.74896600  1
  Fe  Fe3  1  0.25476200  0.99889100  0.25103400  1
  Fe  Fe4  1  0.74523800  0.49889100  0.24896600  1
  Fe  Fe5  1  0.74523800  0.49889100  0.75103400  1
  O  O6  1  0.25222300  0.94638600  0.50000000  1
  O  O7  1  0.52272300  0.77259700  0.77694500  1
  O  O8  1  0.52272300  0.77259700  0.22305500  1
  O  O9  1  0.01201700  0.73661100  0.22925000  1
  O  O10  1  0.01201700  0.73661100  0.77075000  1
  O  O11  1  0.75634800  0.53495100  0.50000000  1
  O  O12  1  0.74777700  0.44638600  0.00000000  1
  O  O13  1  0.47727700  0.27259700  0.72305500  1
  O  O14  1  0.47727700  0.27259700  0.27694500  1
  O  O15  1  0.98798300  0.23661100  0.72925000  1
  O  O16  1  0.98798300  0.23661100  0.27075000  1
  O  O17  1  0.24365200  0.03495100  0.00000000  1
