# generated using pymatgen
data_Bi3Se2ClO8
_symmetry_space_group_name_H-M   'P 1'
_cell_length_a   7.50570800
_cell_length_b   8.03295200
_cell_length_c   10.78815000
_cell_angle_alpha   90.00000000
_cell_angle_beta   90.00000000
_cell_angle_gamma   90.00000000
_symmetry_Int_Tables_number   1
_chemical_formula_structural   Bi3Se2ClO8
_chemical_formula_sum   'Bi6 Se4 Cl2 O16'
_cell_volume   650.44984262
_cell_formula_units_Z   2
loop_
 _symmetry_equiv_pos_site_id
 _symmetry_equiv_pos_as_xyz
  1  'x, y, z'
loop_
 _atom_site_type_symbol
 _atom_site_label
 _atom_site_symmetry_multiplicity
 _atom_site_fract_x
 _atom_site_fract_y
 _atom_site_fract_z
 _atom_site_occupancy
  Bi  Bi0  1  0.25000000  0.00000000  0.75000000  1
  Bi  Bi1  1  0.25000000  0.00000000  0.25000000  1
  Bi  Bi2  1  0.75000000  0.00000000  0.75000000  1
  Bi  Bi3  1  0.50000000  0.74754600  0.50000000  1
  Bi  Bi4  1  0.00000000  0.25245400  0.00000000  1
  Bi  Bi5  1  0.75000000  0.00000000  0.25000000  1
  Se  Se6  1  0.50000000  0.61227500  0.81565800  1
  Se  Se7  1  0.00000000  0.38772500  0.68434200  1
  Se  Se8  1  0.50000000  0.61227500  0.18434200  1
  Se  Se9  1  0.00000000  0.38772500  0.31565800  1
  Cl  Cl10  1  0.00000000  0.87726400  0.50000000  1
  Cl  Cl11  1  0.50000000  0.12273600  0.00000000  1
  O  O12  1  0.00000000  0.03751800  0.86404500  1
  O  O13  1  0.00000000  0.43998400  0.84125700  1
  O  O14  1  0.50000000  0.56001600  0.34125700  1
  O  O15  1  0.31470300  0.74109400  0.82983800  1
  O  O16  1  0.18529700  0.25890600  0.32983800  1
  O  O17  1  0.81470300  0.25890600  0.32983800  1
  O  O18  1  0.50000000  0.96248200  0.63595500  1
  O  O19  1  0.68529700  0.74109400  0.82983800  1
  O  O20  1  0.68529700  0.74109400  0.17016200  1
  O  O21  1  0.81470300  0.25890600  0.67016200  1
  O  O22  1  0.00000000  0.03751800  0.13595500  1
  O  O23  1  0.50000000  0.96248200  0.36404500  1
  O  O24  1  0.18529700  0.25890600  0.67016200  1
  O  O25  1  0.31470300  0.74109400  0.17016200  1
  O  O26  1  0.50000000  0.56001600  0.65874300  1
  O  O27  1  0.00000000  0.43998400  0.15874300  1
