# generated using pymatgen
data_MgTiO2
_symmetry_space_group_name_H-M   'P 1'
_cell_length_a   8.05033707
_cell_length_b   8.05033707
_cell_length_c   10.18063932
_cell_angle_alpha   51.17926786
_cell_angle_beta   51.17926786
_cell_angle_gamma   20.63159641
_symmetry_Int_Tables_number   1
_chemical_formula_structural   MgTiO2
_chemical_formula_sum   'Mg4 Ti4 O8'
_cell_volume   179.17539150
_cell_formula_units_Z   4
loop_
 _symmetry_equiv_pos_site_id
 _symmetry_equiv_pos_as_xyz
  1  'x, y, z'
loop_
 _atom_site_type_symbol
 _atom_site_label
 _atom_site_symmetry_multiplicity
 _atom_site_fract_x
 _atom_site_fract_y
 _atom_site_fract_z
 _atom_site_occupancy
  Mg  Mg0  1  0.67862300  0.67862300  0.28023500  1
  Mg  Mg1  1  0.32137700  0.32137700  0.71976500  1
  Mg  Mg2  1  0.97578200  0.97578200  0.38710300  1
  Mg  Mg3  1  0.02421800  0.02421800  0.61289700  1
  Ti  Ti4  1  0.38920300  0.38920300  0.94485900  1
  Ti  Ti5  1  0.81713500  0.81713500  0.35772400  1
  Ti  Ti6  1  0.18286500  0.18286500  0.64227600  1
  Ti  Ti7  1  0.61079700  0.61079700  0.05514100  1
  O  O8  1  0.15485100  0.15485100  0.88550800  1
  O  O9  1  0.54703300  0.54703300  0.74095400  1
  O  O10  1  0.45296700  0.45296700  0.25904600  1
  O  O11  1  0.84514900  0.84514900  0.11449200  1
  O  O12  1  0.85244300  0.85244300  0.83453500  1
  O  O13  1  0.19333000  0.19333000  0.41666200  1
  O  O14  1  0.14755700  0.14755700  0.16546500  1
  O  O15  1  0.80667000  0.80667000  0.58333800  1
