# generated using pymatgen
data_Y8Cu3(GeS7)3
_symmetry_space_group_name_H-M   'P 1'
_cell_length_a   17.68645200
_cell_length_b   9.81806300
_cell_length_c   9.84123881
_cell_angle_alpha   60.16331700
_cell_angle_beta   90.00000000
_cell_angle_gamma   90.00000000
_symmetry_Int_Tables_number   1
_chemical_formula_structural   Y8Cu3(GeS7)3
_chemical_formula_sum   'Y16 Cu6 Ge6 S42'
_cell_volume   1482.37916066
_cell_formula_units_Z   2
loop_
 _symmetry_equiv_pos_site_id
 _symmetry_equiv_pos_as_xyz
  1  'x, y, z'
loop_
 _atom_site_type_symbol
 _atom_site_label
 _atom_site_symmetry_multiplicity
 _atom_site_fract_x
 _atom_site_fract_y
 _atom_site_fract_z
 _atom_site_occupancy
  Y  Y0  1  0.75187400  0.77257000  0.86840700  1
  Y  Y1  1  0.41667600  0.77214700  0.86440700  1
  Y  Y2  1  0.91633800  0.63953300  0.22406500  1
  Y  Y3  1  0.58192400  0.63344800  0.23101600  1
  Y  Y4  1  0.24538200  0.63865000  0.22323700  1
  Y  Y5  1  0.91758400  0.12539100  0.64491900  1
  Y  Y6  1  0.58055700  0.13792700  0.63157100  1
  Y  Y7  1  0.24569100  0.13006900  0.63934700  1
  Y  Y8  1  0.74569100  0.86993100  0.36065300  1
  Y  Y9  1  0.41758400  0.87460900  0.35508100  1
  Y  Y10  1  0.08055700  0.86207300  0.36842900  1
  Y  Y11  1  0.91667600  0.22785300  0.13559300  1
  Y  Y12  1  0.25187400  0.22743000  0.13159300  1
  Y  Y13  1  0.74538200  0.36135000  0.77676300  1
  Y  Y14  1  0.41633800  0.36046700  0.77593500  1
  Y  Y15  1  0.08192400  0.36655200  0.76898400  1
  Cu  Cu16  1  0.93412400  0.99849000  0.00052900  1
  Cu  Cu17  1  0.60149700  0.00931100  0.00386000  1
  Cu  Cu18  1  0.27112900  0.00326500  0.99917400  1
  Cu  Cu19  1  0.77112900  0.99673500  0.00082600  1
  Cu  Cu20  1  0.43412400  0.00151000  0.99947100  1
  Cu  Cu21  1  0.10149700  0.99068900  0.99614000  1
  Ge  Ge22  1  0.72152800  0.33207000  0.32794300  1
  Ge  Ge23  1  0.39232300  0.33476300  0.33652500  1
  Ge  Ge24  1  0.05462000  0.33320800  0.33076900  1
  Ge  Ge25  1  0.89232300  0.66523700  0.66347500  1
  Ge  Ge26  1  0.55462000  0.66679200  0.66923100  1
  Ge  Ge27  1  0.22152800  0.66793000  0.67205700  1
  S  S28  1  0.83296100  0.57967900  0.51749200  1
  S  S29  1  0.50214000  0.58104300  0.51797000  1
  S  S30  1  0.16955100  0.58128200  0.51790700  1
  S  S31  1  0.66962600  0.48817300  0.09518000  1
  S  S32  1  0.33673200  0.48163300  0.10013700  1
  S  S33  1  0.00395100  0.48137500  0.09702900  1
  S  S34  1  0.76752600  0.15786400  0.09817400  1
  S  S35  1  0.41872900  0.16276500  0.09302800  1
  S  S36  1  0.09665000  0.15532800  0.09478200  1
  S  S37  1  0.91872900  0.83723500  0.90697200  1
  S  S38  1  0.59665000  0.84467200  0.90521800  1
  S  S39  1  0.26752600  0.84213600  0.90182600  1
  S  S40  1  0.83673200  0.51836700  0.89986300  1
  S  S41  1  0.50395100  0.51862500  0.90297100  1
  S  S42  1  0.16962600  0.51182700  0.90482000  1
  S  S43  1  0.68045100  0.66888600  0.66636000  1
  S  S44  1  0.34773600  0.66734200  0.66545500  1
  S  S45  1  0.01522200  0.66526500  0.66518100  1
  S  S46  1  0.92968900  0.90146700  0.25922900  1
  S  S47  1  0.59482600  0.89558500  0.25990700  1
  S  S48  1  0.26225500  0.89906300  0.25801000  1
  S  S49  1  0.84773600  0.33265800  0.33454500  1
  S  S50  1  0.51522200  0.33473500  0.33481900  1
  S  S51  1  0.18045100  0.33111400  0.33364000  1
  S  S52  1  0.67312300  0.09103500  0.43081600  1
  S  S53  1  0.33630300  0.09939800  0.41970500  1
  S  S54  1  0.00314300  0.09457800  0.42219500  1
  S  S55  1  0.76225500  0.10093700  0.74199000  1
  S  S56  1  0.42968900  0.09853300  0.74077100  1
  S  S57  1  0.09482600  0.10441500  0.74009300  1
  S  S58  1  0.92989800  0.25768100  0.84052400  1
  S  S59  1  0.59302800  0.25889400  0.83369000  1
  S  S60  1  0.26073900  0.25964300  0.83581800  1
  S  S61  1  0.83630300  0.90060200  0.58029500  1
  S  S62  1  0.50314300  0.90542200  0.57780500  1
  S  S63  1  0.17312300  0.90896500  0.56918400  1
  S  S64  1  0.76073900  0.74035700  0.16418200  1
  S  S65  1  0.42989800  0.74231900  0.15947600  1
  S  S66  1  0.09302800  0.74110600  0.16631000  1
  S  S67  1  0.66955100  0.41871800  0.48209300  1
  S  S68  1  0.33296100  0.42032100  0.48250800  1
  S  S69  1  0.00214000  0.41895700  0.48203000  1
