# generated using pymatgen
data_CaV4(CoO7)2
_symmetry_space_group_name_H-M   'P 1'
_cell_length_a   14.65675800
_cell_length_b   6.82263700
_cell_length_c   11.25838847
_cell_angle_alpha   78.50778823
_cell_angle_beta   90.00000000
_cell_angle_gamma   90.00000000
_symmetry_Int_Tables_number   1
_chemical_formula_structural   CaV4(CoO7)2
_chemical_formula_sum   'Ca4 V16 Co8 O56'
_cell_volume   1103.24285987
_cell_formula_units_Z   4
loop_
 _symmetry_equiv_pos_site_id
 _symmetry_equiv_pos_as_xyz
  1  'x, y, z'
loop_
 _atom_site_type_symbol
 _atom_site_label
 _atom_site_symmetry_multiplicity
 _atom_site_fract_x
 _atom_site_fract_y
 _atom_site_fract_z
 _atom_site_occupancy
  Ca  Ca0  1  0.87640800  0.67477700  0.97187400  1
  Ca  Ca1  1  0.37640800  0.32522300  0.52812600  1
  Ca  Ca2  1  0.12359200  0.32522300  0.02812600  1
  Ca  Ca3  1  0.62359200  0.67477700  0.47187400  1
  V  V4  1  0.86516900  0.15921100  0.98166300  1
  V  V5  1  0.00875900  0.58172900  0.68674500  1
  V  V6  1  0.49124100  0.58172900  0.18674500  1
  V  V7  1  0.99124100  0.41827100  0.31325500  1
  V  V8  1  0.70364100  0.49253500  0.79377900  1
  V  V9  1  0.20364100  0.50746500  0.70622100  1
  V  V10  1  0.29635900  0.50746500  0.20622100  1
  V  V11  1  0.79635900  0.49253500  0.29377900  1
  V  V12  1  0.50875900  0.41827100  0.81325500  1
  V  V13  1  0.13687100  0.12726200  0.48070200  1
  V  V14  1  0.63687100  0.87273800  0.01929800  1
  V  V15  1  0.86312900  0.87273800  0.51929800  1
  V  V16  1  0.36516900  0.84078900  0.51833700  1
  V  V17  1  0.63483100  0.15921100  0.48166300  1
  V  V18  1  0.13483100  0.84078900  0.01833700  1
  V  V19  1  0.36312900  0.12726200  0.98070200  1
  Co  Co20  1  0.67087200  0.36149800  0.07851300  1
  Co  Co21  1  0.17087200  0.63850200  0.42148700  1
  Co  Co22  1  0.32912800  0.63850200  0.92148700  1
  Co  Co23  1  0.82912800  0.36149800  0.57851300  1
  Co  Co24  1  0.75598400  0.00252500  0.24752100  1
  Co  Co25  1  0.25598400  0.99747500  0.25247900  1
  Co  Co26  1  0.24401600  0.99747500  0.75247900  1
  Co  Co27  1  0.74401600  0.00252500  0.74752100  1
  O  O28  1  0.97229200  0.24920100  0.97105900  1
  O  O29  1  0.47229200  0.75079900  0.52894100  1
  O  O30  1  0.02770800  0.75079900  0.02894100  1
  O  O31  1  0.52770800  0.24920100  0.47105900  1
  O  O32  1  0.84012000  0.00750600  0.87519800  1
  O  O33  1  0.34012000  0.99249400  0.62480200  1
  O  O34  1  0.15988000  0.99249400  0.12480200  1
  O  O35  1  0.65988000  0.00750600  0.37519800  1
  O  O36  1  0.84622100  0.00782700  0.12504800  1
  O  O37  1  0.34622100  0.99217300  0.37495200  1
  O  O38  1  0.15377900  0.99217300  0.87495200  1
  O  O39  1  0.65377900  0.00782700  0.62504800  1
  O  O40  1  0.29089600  0.33304400  0.95115900  1
  O  O41  1  0.79089600  0.66695600  0.54884100  1
  O  O42  1  0.70910400  0.66695600  0.04884100  1
  O  O43  1  0.20910400  0.33304400  0.45115900  1
  O  O44  1  0.35552500  0.02108600  0.12953100  1
  O  O45  1  0.85552500  0.97891400  0.37046900  1
  O  O46  1  0.64447500  0.97891400  0.87046900  1
  O  O47  1  0.14447500  0.02108600  0.62953100  1
  O  O48  1  0.33494300  0.94041900  0.89389300  1
  O  O49  1  0.43388400  0.60474700  0.83327100  1
  O  O50  1  0.83494300  0.05958100  0.60610700  1
  O  O51  1  0.16505700  0.94041900  0.39389300  1
  O  O52  1  0.46939600  0.30918200  0.70539400  1
  O  O53  1  0.96939600  0.69081800  0.79460600  1
  O  O54  1  0.53060400  0.69081800  0.29460600  1
  O  O55  1  0.03060400  0.30918200  0.20539400  1
  O  O56  1  0.47357200  0.22597500  0.94793400  1
  O  O57  1  0.97357200  0.77402500  0.55206600  1
  O  O58  1  0.52642800  0.77402500  0.05206600  1
  O  O59  1  0.02642800  0.22597500  0.44793400  1
  O  O60  1  0.89318900  0.56088700  0.20281300  1
  O  O61  1  0.39318900  0.43911300  0.29718700  1
  O  O62  1  0.10681100  0.43911300  0.79718700  1
  O  O63  1  0.60681100  0.56088700  0.70281300  1
  O  O64  1  0.74895800  0.30593200  0.22198700  1
  O  O65  1  0.24895800  0.69406800  0.27801300  1
  O  O66  1  0.25104200  0.69406800  0.77801300  1
  O  O67  1  0.75104200  0.30593200  0.72198700  1
  O  O68  1  0.71022600  0.36942000  0.46307400  1
  O  O69  1  0.21022600  0.63058000  0.03692600  1
  O  O70  1  0.28977400  0.63058000  0.53692600  1
  O  O71  1  0.78977400  0.36942000  0.96307400  1
  O  O72  1  0.73420900  0.70586900  0.29060000  1
  O  O73  1  0.23420900  0.29413100  0.20940000  1
  O  O74  1  0.26579100  0.29413100  0.70940000  1
  O  O75  1  0.76579100  0.70586900  0.79060000  1
  O  O76  1  0.87774400  0.40339600  0.41335200  1
  O  O77  1  0.37774400  0.59660400  0.08664800  1
  O  O78  1  0.12225600  0.59660400  0.58664800  1
  O  O79  1  0.62225600  0.40339600  0.91335200  1
  O  O80  1  0.06611600  0.60474700  0.33327100  1
  O  O81  1  0.56611600  0.39525300  0.16672900  1
  O  O82  1  0.93388400  0.39525300  0.66672900  1
  O  O83  1  0.66505700  0.05958100  0.10610700  1
