# generated using pymatgen
data_Ba3Y4(CoO5)3
_symmetry_space_group_name_H-M   'P 1'
_cell_length_a   5.68902700
_cell_length_b   12.05962900
_cell_length_c   21.45447000
_cell_angle_alpha   90.00000000
_cell_angle_beta   90.00000000
_cell_angle_gamma   90.00000000
_symmetry_Int_Tables_number   1
_chemical_formula_structural   Ba3Y4(CoO5)3
_chemical_formula_sum   'Ba12 Y16 Co12 O60'
_cell_volume   1471.93873033
_cell_formula_units_Z   4
loop_
 _symmetry_equiv_pos_site_id
 _symmetry_equiv_pos_as_xyz
  1  'x, y, z'
loop_
 _atom_site_type_symbol
 _atom_site_label
 _atom_site_symmetry_multiplicity
 _atom_site_fract_x
 _atom_site_fract_y
 _atom_site_fract_z
 _atom_site_occupancy
  Ba  Ba0  1  0.75000000  0.10723200  0.97707700  1
  Ba  Ba1  1  0.75000000  0.11024400  0.31191600  1
  Ba  Ba2  1  0.75000000  0.10388900  0.64107100  1
  Ba  Ba3  1  0.25000000  0.88975600  0.68808400  1
  Ba  Ba4  1  0.25000000  0.89276800  0.02292300  1
  Ba  Ba5  1  0.25000000  0.89611100  0.35892900  1
  Ba  Ba6  1  0.25000000  0.38975600  0.81191600  1
  Ba  Ba7  1  0.25000000  0.39611100  0.14107100  1
  Ba  Ba8  1  0.25000000  0.39276800  0.47707700  1
  Ba  Ba9  1  0.75000000  0.60388900  0.85892900  1
  Ba  Ba10  1  0.75000000  0.61024400  0.18808400  1
  Ba  Ba11  1  0.75000000  0.60723200  0.52292300  1
  Y  Y12  1  0.75000000  0.70161900  0.70916400  1
  Y  Y13  1  0.75000000  0.69317800  0.36932700  1
  Y  Y14  1  0.25000000  0.29838100  0.29083600  1
  Y  Y15  1  0.25000000  0.30682200  0.63067300  1
  Y  Y16  1  0.25000000  0.80682200  0.86932700  1
  Y  Y17  1  0.25000000  0.79838100  0.20916400  1
  Y  Y18  1  0.75000000  0.20161900  0.79083600  1
  Y  Y19  1  0.75000000  0.19317800  0.13067300  1
  Y  Y20  1  0.75000000  0.91187000  0.12577800  1
  Y  Y21  1  0.75000000  0.93461400  0.46561200  1
  Y  Y22  1  0.25000000  0.08813000  0.87422200  1
  Y  Y23  1  0.25000000  0.06538600  0.53438800  1
  Y  Y24  1  0.25000000  0.56538600  0.96561200  1
  Y  Y25  1  0.25000000  0.58813000  0.62577800  1
  Y  Y26  1  0.75000000  0.43461400  0.03438800  1
  Y  Y27  1  0.75000000  0.41187000  0.37422200  1
  Co  Co28  1  0.75000000  0.34490200  0.89916100  1
  Co  Co29  1  0.75000000  0.35148700  0.23060400  1
  Co  Co30  1  0.75000000  0.34313100  0.56069100  1
  Co  Co31  1  0.25000000  0.64851300  0.76939600  1
  Co  Co32  1  0.25000000  0.65509800  0.10083900  1
  Co  Co33  1  0.25000000  0.65686900  0.43930900  1
  Co  Co34  1  0.25000000  0.14851300  0.73060400  1
  Co  Co35  1  0.25000000  0.15686900  0.06069100  1
  Co  Co36  1  0.25000000  0.15509800  0.39916100  1
  Co  Co37  1  0.75000000  0.84313100  0.93930900  1
  Co  Co38  1  0.75000000  0.85148700  0.26939600  1
  Co  Co39  1  0.75000000  0.84490200  0.60083900  1
  O  O40  1  0.03458200  0.57307700  0.72162100  1
  O  O41  1  0.03158000  0.56224400  0.05803700  1
  O  O42  1  0.00472900  0.56008100  0.40518300  1
  O  O43  1  0.53158000  0.43775600  0.94196300  1
  O  O44  1  0.53458200  0.42692300  0.27837900  1
  O  O45  1  0.50472900  0.43991900  0.59481700  1
  O  O46  1  0.99527100  0.93991900  0.90518300  1
  O  O47  1  0.96541800  0.92692300  0.22162100  1
  O  O48  1  0.96842000  0.93775600  0.55803700  1
  O  O49  1  0.46541800  0.07307700  0.77837900  1
  O  O50  1  0.49527100  0.06008100  0.09481700  1
  O  O51  1  0.46842000  0.06224400  0.44196300  1
  O  O52  1  0.96842000  0.43775600  0.94196300  1
  O  O53  1  0.96541800  0.42692300  0.27837900  1
  O  O54  1  0.99527100  0.43991900  0.59481700  1
  O  O55  1  0.46541800  0.57307700  0.72162100  1
  O  O56  1  0.46842000  0.56224400  0.05803700  1
  O  O57  1  0.49527100  0.56008100  0.40518300  1
  O  O58  1  0.03458200  0.07307700  0.77837900  1
  O  O59  1  0.00472900  0.06008100  0.09481700  1
  O  O60  1  0.03158000  0.06224400  0.44196300  1
  O  O61  1  0.50472900  0.93991900  0.90518300  1
  O  O62  1  0.53458200  0.92692300  0.22162100  1
  O  O63  1  0.53158000  0.93775600  0.55803700  1
  O  O64  1  0.47567000  0.75873400  0.78214800  1
  O  O65  1  0.47517100  0.76932400  0.11989000  1
  O  O66  1  0.49199200  0.76848100  0.43872800  1
  O  O67  1  0.97517100  0.23067600  0.88011000  1
  O  O68  1  0.97567000  0.24126600  0.21785200  1
  O  O69  1  0.99199200  0.23151900  0.56127200  1
  O  O70  1  0.50800800  0.73151900  0.93872800  1
  O  O71  1  0.52433000  0.74126600  0.28214800  1
  O  O72  1  0.52482900  0.73067600  0.61989000  1
  O  O73  1  0.02433000  0.25873400  0.71785200  1
  O  O74  1  0.00800800  0.26848100  0.06127200  1
  O  O75  1  0.02482900  0.26932400  0.38011000  1
  O  O76  1  0.52482900  0.23067600  0.88011000  1
  O  O77  1  0.52433000  0.24126600  0.21785200  1
  O  O78  1  0.50800800  0.23151900  0.56127200  1
  O  O79  1  0.02433000  0.75873400  0.78214800  1
  O  O80  1  0.02482900  0.76932400  0.11989000  1
  O  O81  1  0.00800800  0.76848100  0.43872800  1
  O  O82  1  0.47567000  0.25873400  0.71785200  1
  O  O83  1  0.49199200  0.26848100  0.06127200  1
  O  O84  1  0.47517100  0.26932400  0.38011000  1
  O  O85  1  0.99199200  0.73151900  0.93872800  1
  O  O86  1  0.97567000  0.74126600  0.28214800  1
  O  O87  1  0.97517100  0.73067600  0.61989000  1
  O  O88  1  0.75000000  0.89602100  0.68016000  1
  O  O89  1  0.75000000  0.89481100  0.01824100  1
  O  O90  1  0.75000000  0.90297100  0.35255200  1
  O  O91  1  0.25000000  0.10518900  0.98175900  1
  O  O92  1  0.25000000  0.10397900  0.31984000  1
  O  O93  1  0.25000000  0.09702900  0.64744800  1
  O  O94  1  0.25000000  0.59702900  0.85255200  1
  O  O95  1  0.25000000  0.60397900  0.18016000  1
  O  O96  1  0.25000000  0.60518900  0.51824100  1
  O  O97  1  0.75000000  0.39602100  0.81984000  1
  O  O98  1  0.75000000  0.40297100  0.14744800  1
  O  O99  1  0.75000000  0.39481100  0.48175900  1
