# generated using pymatgen
data_Ba2CaV2(P2O9)2
_symmetry_space_group_name_H-M   'P 1'
_cell_length_a   7.12031100
_cell_length_b   7.36892400
_cell_length_c   14.76335702
_cell_angle_alpha   76.69234072
_cell_angle_beta   90.00000000
_cell_angle_gamma   90.00000000
_symmetry_Int_Tables_number   1
_chemical_formula_structural   Ba2CaV2(P2O9)2
_chemical_formula_sum   'Ba4 Ca2 V4 P8 O36'
_cell_volume   753.81904743
_cell_formula_units_Z   2
loop_
 _symmetry_equiv_pos_site_id
 _symmetry_equiv_pos_as_xyz
  1  'x, y, z'
loop_
 _atom_site_type_symbol
 _atom_site_label
 _atom_site_symmetry_multiplicity
 _atom_site_fract_x
 _atom_site_fract_y
 _atom_site_fract_z
 _atom_site_occupancy
  Ba  Ba0  1  0.48640600  0.62883200  0.42970100  1
  Ba  Ba1  1  0.02391400  0.38579200  0.57200000  1
  Ba  Ba2  1  0.97608600  0.38579200  0.07200000  1
  Ba  Ba3  1  0.51359400  0.62883200  0.92970100  1
  Ca  Ca4  1  0.77234700  0.18494100  0.84250300  1
  Ca  Ca5  1  0.22765300  0.18494100  0.34250300  1
  V  V6  1  0.76564000  0.84051400  0.66683500  1
  V  V7  1  0.73372600  0.16333700  0.33141500  1
  V  V8  1  0.23436000  0.84051400  0.16683500  1
  V  V9  1  0.26627400  0.16333700  0.83141500  1
  P  P10  1  0.96866700  0.87158500  0.50045000  1
  P  P11  1  0.46477300  0.13057700  0.00135200  1
  P  P12  1  0.46672700  0.45692100  0.19429900  1
  P  P13  1  0.03133300  0.87158500  0.00045000  1
  P  P14  1  0.97149300  0.54435700  0.30397600  1
  P  P15  1  0.53327300  0.45692100  0.69429900  1
  P  P16  1  0.02850700  0.54435700  0.80397600  1
  P  P17  1  0.53522700  0.13057700  0.50135200  1
  O  O18  1  0.91484600  0.34716700  0.27928000  1
  O  O19  1  0.16087500  0.79200700  0.49128100  1
  O  O20  1  0.58543100  0.65552400  0.71152300  1
  O  O21  1  0.95043100  0.97867100  0.58298300  1
  O  O22  1  0.06541700  0.02934500  0.90856900  1
  O  O23  1  0.45803900  0.35222400  0.79510000  1
  O  O24  1  0.08515400  0.34716700  0.77928000  1
  O  O25  1  0.31033800  0.28006800  0.97788200  1
  O  O26  1  0.61213300  0.47744100  0.11841600  1
  O  O27  1  0.38786700  0.47744100  0.61841600  1
  O  O28  1  0.83912500  0.79200700  0.99128100  1
  O  O29  1  0.95750800  0.65678600  0.70643000  1
  O  O30  1  0.41456900  0.65552400  0.21152300  1
  O  O31  1  0.43014700  0.98324300  0.09235300  1
  O  O32  1  0.54196100  0.35222400  0.29510000  1
  O  O33  1  0.22749000  0.94573700  0.25362300  1
  O  O34  1  0.86517900  0.48449400  0.87273500  1
  O  O35  1  0.13482100  0.48449400  0.37273500  1
  O  O36  1  0.33626600  0.20889600  0.49320000  1
  O  O37  1  0.77251000  0.94573700  0.75362300  1
  O  O38  1  0.19034800  0.72543600  0.02524100  1
  O  O39  1  0.19256100  0.63646800  0.83793700  1
  O  O40  1  0.93458300  0.02934500  0.40856900  1
  O  O41  1  0.56985300  0.98324300  0.59235300  1
  O  O42  1  0.45005000  0.02423600  0.91602400  1
  O  O43  1  0.04249200  0.65678600  0.20643000  1
  O  O44  1  0.27765000  0.05432500  0.74947200  1
  O  O45  1  0.72235000  0.05432500  0.24947200  1
  O  O46  1  0.66373400  0.20889600  0.99320000  1
  O  O47  1  0.54995000  0.02423600  0.41602400  1
  O  O48  1  0.28778400  0.34949200  0.18355700  1
  O  O49  1  0.04956900  0.97867100  0.08298300  1
  O  O50  1  0.68966200  0.28006800  0.47788200  1
  O  O51  1  0.71221600  0.34949200  0.68355700  1
  O  O52  1  0.80965200  0.72543600  0.52524100  1
  O  O53  1  0.80743900  0.63646800  0.33793700  1
