# generated using pymatgen
data_MgFeP2O7
_symmetry_space_group_name_H-M   'P 1'
_cell_length_a   8.49339500
_cell_length_b   7.07796000
_cell_length_c   9.21455913
_cell_angle_alpha   67.33010484
_cell_angle_beta   90.00000000
_cell_angle_gamma   90.00000000
_symmetry_Int_Tables_number   1
_chemical_formula_structural   MgFeP2O7
_chemical_formula_sum   'Mg4 Fe4 P8 O28'
_cell_volume   511.14448268
_cell_formula_units_Z   4
loop_
 _symmetry_equiv_pos_site_id
 _symmetry_equiv_pos_as_xyz
  1  'x, y, z'
loop_
 _atom_site_type_symbol
 _atom_site_label
 _atom_site_symmetry_multiplicity
 _atom_site_fract_x
 _atom_site_fract_y
 _atom_site_fract_z
 _atom_site_occupancy
  Mg  Mg0  1  0.93997600  0.69531400  0.18118800  1
  Mg  Mg1  1  0.43997600  0.30468600  0.31881200  1
  Mg  Mg2  1  0.56002400  0.69531400  0.68118800  1
  Mg  Mg3  1  0.06002400  0.30468600  0.81881200  1
  Fe  Fe4  1  0.06877600  0.23371000  0.39142200  1
  Fe  Fe5  1  0.93122400  0.76629000  0.60857800  1
  Fe  Fe6  1  0.56877600  0.76629000  0.10857800  1
  Fe  Fe7  1  0.43122400  0.23371000  0.89142200  1
  P  P8  1  0.73524200  0.06148500  0.75762200  1
  P  P9  1  0.22570600  0.53259300  0.03150100  1
  P  P10  1  0.76475800  0.06148500  0.25762200  1
  P  P11  1  0.27429400  0.53259300  0.53150100  1
  P  P12  1  0.23524200  0.93851500  0.74237800  1
  P  P13  1  0.72570600  0.46740700  0.46849900  1
  P  P14  1  0.77429400  0.46740700  0.96849900  1
  P  P15  1  0.26475800  0.93851500  0.24237800  1
  O  O16  1  0.17673900  0.74968200  0.90008500  1
  O  O17  1  0.60879100  0.11391500  0.31058600  1
  O  O18  1  0.89120900  0.11391500  0.81058600  1
  O  O19  1  0.38739200  0.54720700  0.10367900  1
  O  O20  1  0.82326100  0.25031800  0.09991500  1
  O  O21  1  0.10092800  0.96966600  0.62279200  1
  O  O22  1  0.61260800  0.45279300  0.89632100  1
  O  O23  1  0.09151600  0.49001200  0.15091400  1
  O  O24  1  0.26797000  0.37747200  0.45123800  1
  O  O25  1  0.89907200  0.03033400  0.37720800  1
  O  O26  1  0.39907200  0.96966600  0.12279200  1
  O  O27  1  0.76086500  0.88016900  0.20404900  1
  O  O28  1  0.26086500  0.11983100  0.29595100  1
  O  O29  1  0.32326100  0.74968200  0.40008500  1
  O  O30  1  0.60092800  0.03033400  0.87720800  1
  O  O31  1  0.10879100  0.88608500  0.18941400  1
  O  O32  1  0.23913500  0.11983100  0.79595100  1
  O  O33  1  0.90848400  0.50998800  0.84908600  1
  O  O34  1  0.23203000  0.37747200  0.95123800  1
  O  O35  1  0.76797000  0.62252800  0.04876200  1
  O  O36  1  0.88739200  0.45279300  0.39632100  1
  O  O37  1  0.40848400  0.49001200  0.65091400  1
  O  O38  1  0.59151600  0.50998800  0.34908600  1
  O  O39  1  0.39120900  0.88608500  0.68941400  1
  O  O40  1  0.73913500  0.88016900  0.70404900  1
  O  O41  1  0.11260800  0.54720700  0.60367900  1
  O  O42  1  0.73203000  0.62252800  0.54876200  1
  O  O43  1  0.67673900  0.25031800  0.59991500  1
