# generated using pymatgen
data_Zn(CrS2)4
_symmetry_space_group_name_H-M   'P 1'
_cell_length_a   6.95061408
_cell_length_b   6.95061408
_cell_length_c   6.95061401
_cell_angle_alpha   59.82875655
_cell_angle_beta   59.82875655
_cell_angle_gamma   59.82875898
_symmetry_Int_Tables_number   1
_chemical_formula_structural   Zn(CrS2)4
_chemical_formula_sum   'Zn1 Cr4 S8'
_cell_volume   236.51750075
_cell_formula_units_Z   1
loop_
 _symmetry_equiv_pos_site_id
 _symmetry_equiv_pos_as_xyz
  1  'x, y, z'
loop_
 _atom_site_type_symbol
 _atom_site_label
 _atom_site_symmetry_multiplicity
 _atom_site_fract_x
 _atom_site_fract_y
 _atom_site_fract_z
 _atom_site_occupancy
  Zn  Zn0  1  0.00000000  0.00000000  0.00000000  1
  Cr  Cr1  1  0.50000000  0.50000000  0.50000000  1
  Cr  Cr2  1  0.00000000  0.50000000  0.50000000  1
  Cr  Cr3  1  0.50000000  0.00000000  0.50000000  1
  Cr  Cr4  1  0.50000000  0.50000000  0.00000000  1
  S  S5  1  0.25497700  0.73057500  0.25497700  1
  S  S6  1  0.73057500  0.25497700  0.25497700  1
  S  S7  1  0.25497700  0.25497700  0.73057500  1
  S  S8  1  0.25737300  0.25737300  0.25737300  1
  S  S9  1  0.74262700  0.74262700  0.74262700  1
  S  S10  1  0.26942500  0.74502300  0.74502300  1
  S  S11  1  0.74502300  0.74502300  0.26942500  1
  S  S12  1  0.74502300  0.26942500  0.74502300  1
