# generated using pymatgen
data_MgMnP2O7
_symmetry_space_group_name_H-M   'P 1'
_cell_length_a   8.56708900
_cell_length_b   7.11771400
_cell_length_c   9.24901206
_cell_angle_alpha   67.16320598
_cell_angle_beta   90.00000000
_cell_angle_gamma   90.00000000
_symmetry_Int_Tables_number   1
_chemical_formula_structural   MgMnP2O7
_chemical_formula_sum   'Mg4 Mn4 P8 O28'
_cell_volume   519.77845288
_cell_formula_units_Z   4
loop_
 _symmetry_equiv_pos_site_id
 _symmetry_equiv_pos_as_xyz
  1  'x, y, z'
loop_
 _atom_site_type_symbol
 _atom_site_label
 _atom_site_symmetry_multiplicity
 _atom_site_fract_x
 _atom_site_fract_y
 _atom_site_fract_z
 _atom_site_occupancy
  Mg  Mg0  1  0.94004000  0.69801400  0.18107800  1
  Mg  Mg1  1  0.44004000  0.30198600  0.31892200  1
  Mg  Mg2  1  0.55996000  0.69801400  0.68107800  1
  Mg  Mg3  1  0.05996000  0.30198600  0.81892200  1
  Mn  Mn4  1  0.06963500  0.23620100  0.39079800  1
  Mn  Mn5  1  0.93036500  0.76379900  0.60920200  1
  Mn  Mn6  1  0.56963500  0.76379900  0.10920200  1
  Mn  Mn7  1  0.43036500  0.23620100  0.89079800  1
  P  P8  1  0.73541500  0.06188500  0.75722000  1
  P  P9  1  0.22370200  0.53225200  0.03134600  1
  P  P10  1  0.76458500  0.06188500  0.25722000  1
  P  P11  1  0.27629800  0.53225200  0.53134600  1
  P  P12  1  0.23541500  0.93811500  0.74278000  1
  P  P13  1  0.72370200  0.46774800  0.46865400  1
  P  P14  1  0.77629800  0.46774800  0.96865400  1
  P  P15  1  0.26458500  0.93811500  0.24278000  1
  O  O16  1  0.17824100  0.74957800  0.89987600  1
  O  O17  1  0.60962600  0.11488300  0.30878400  1
  O  O18  1  0.89037400  0.11488300  0.80878400  1
  O  O19  1  0.38401900  0.54167800  0.10454900  1
  O  O20  1  0.82175900  0.25042200  0.10012400  1
  O  O21  1  0.10298900  0.97049900  0.62267200  1
  O  O22  1  0.61598100  0.45832200  0.89545100  1
  O  O23  1  0.09063200  0.49397900  0.15042200  1
  O  O24  1  0.27291600  0.37835600  0.45135100  1
  O  O25  1  0.89701100  0.02950100  0.37732800  1
  O  O26  1  0.39701100  0.97049900  0.12267200  1
  O  O27  1  0.76197000  0.88153200  0.20386900  1
  O  O28  1  0.26197000  0.11846800  0.29613100  1
  O  O29  1  0.32175900  0.74957800  0.39987600  1
  O  O30  1  0.60298900  0.02950100  0.87732800  1
  O  O31  1  0.10962600  0.88511700  0.19121600  1
  O  O32  1  0.23803000  0.11846800  0.79613100  1
  O  O33  1  0.90936800  0.50602100  0.84957800  1
  O  O34  1  0.22708400  0.37835600  0.95135100  1
  O  O35  1  0.77291600  0.62164400  0.04864900  1
  O  O36  1  0.88401900  0.45832200  0.39545100  1
  O  O37  1  0.40936800  0.49397900  0.65042200  1
  O  O38  1  0.59063200  0.50602100  0.34957800  1
  O  O39  1  0.39037400  0.88511700  0.69121600  1
  O  O40  1  0.73803000  0.88153200  0.70386900  1
  O  O41  1  0.11598100  0.54167800  0.60454900  1
  O  O42  1  0.72708400  0.62164400  0.54864900  1
  O  O43  1  0.67824100  0.25042200  0.60012400  1
