# generated using pymatgen
data_YSn3Se2ClO8
_symmetry_space_group_name_H-M   'P 1'
_cell_length_a   7.19555100
_cell_length_b   7.50631900
_cell_length_c   10.44873500
_cell_angle_alpha   90.00000000
_cell_angle_beta   90.00000000
_cell_angle_gamma   90.00000000
_symmetry_Int_Tables_number   1
_chemical_formula_structural   YSn3Se2ClO8
_chemical_formula_sum   'Y2 Sn6 Se4 Cl2 O16'
_cell_volume   564.35813209
_cell_formula_units_Z   2
loop_
 _symmetry_equiv_pos_site_id
 _symmetry_equiv_pos_as_xyz
  1  'x, y, z'
loop_
 _atom_site_type_symbol
 _atom_site_label
 _atom_site_symmetry_multiplicity
 _atom_site_fract_x
 _atom_site_fract_y
 _atom_site_fract_z
 _atom_site_occupancy
  Y  Y0  1  0.00000000  0.68503300  0.00000000  1
  Y  Y1  1  0.50000000  0.31496700  0.50000000  1
  Sn  Sn2  1  0.25000000  0.00000000  0.75000000  1
  Sn  Sn3  1  0.25000000  0.00000000  0.25000000  1
  Sn  Sn4  1  0.75000000  0.00000000  0.75000000  1
  Sn  Sn5  1  0.50000000  0.82744900  0.50000000  1
  Sn  Sn6  1  0.00000000  0.17255100  0.00000000  1
  Sn  Sn7  1  0.75000000  0.00000000  0.25000000  1
  Se  Se8  1  0.50000000  0.56892800  0.81993600  1
  Se  Se9  1  0.00000000  0.43107200  0.68006400  1
  Se  Se10  1  0.50000000  0.56892800  0.18006400  1
  Se  Se11  1  0.00000000  0.43107200  0.31993600  1
  Cl  Cl12  1  0.00000000  0.87163400  0.50000000  1
  Cl  Cl13  1  0.50000000  0.12836600  0.00000000  1
  O  O14  1  0.00000000  0.93381800  0.87594200  1
  O  O15  1  0.00000000  0.44480700  0.84841800  1
  O  O16  1  0.50000000  0.55519300  0.34841800  1
  O  O17  1  0.31097800  0.70733700  0.84824000  1
  O  O18  1  0.18902200  0.29266300  0.34824000  1
  O  O19  1  0.81097800  0.29266300  0.34824000  1
  O  O20  1  0.50000000  0.06618200  0.62405800  1
  O  O21  1  0.68902200  0.70733700  0.84824000  1
  O  O22  1  0.68902200  0.70733700  0.15176000  1
  O  O23  1  0.81097800  0.29266300  0.65176000  1
  O  O24  1  0.00000000  0.93381800  0.12405800  1
  O  O25  1  0.50000000  0.06618200  0.37594200  1
  O  O26  1  0.18902200  0.29266300  0.65176000  1
  O  O27  1  0.31097800  0.70733700  0.15176000  1
  O  O28  1  0.50000000  0.55519300  0.65158200  1
  O  O29  1  0.00000000  0.44480700  0.15158200  1
