# generated using pymatgen
data_ZnNiP2O7
_symmetry_space_group_name_H-M   'P 1'
_cell_length_a   8.38860500
_cell_length_b   7.02607400
_cell_length_c   9.09797396
_cell_angle_alpha   66.73370863
_cell_angle_beta   90.00000000
_cell_angle_gamma   90.00000000
_symmetry_Int_Tables_number   1
_chemical_formula_structural   ZnNiP2O7
_chemical_formula_sum   'Zn4 Ni4 P8 O28'
_cell_volume   492.61871925
_cell_formula_units_Z   4
loop_
 _symmetry_equiv_pos_site_id
 _symmetry_equiv_pos_as_xyz
  1  'x, y, z'
loop_
 _atom_site_type_symbol
 _atom_site_label
 _atom_site_symmetry_multiplicity
 _atom_site_fract_x
 _atom_site_fract_y
 _atom_site_fract_z
 _atom_site_occupancy
  Zn  Zn0  1  0.94222800  0.69516300  0.18206900  1
  Zn  Zn1  1  0.44222800  0.30483700  0.31793100  1
  Zn  Zn2  1  0.55777200  0.69516300  0.68206900  1
  Zn  Zn3  1  0.05777200  0.30483700  0.81793100  1
  Ni  Ni4  1  0.07402100  0.22977300  0.39027400  1
  Ni  Ni5  1  0.92597900  0.77022700  0.60972600  1
  Ni  Ni6  1  0.57402100  0.77022700  0.10972600  1
  Ni  Ni7  1  0.42597900  0.22977300  0.89027400  1
  P  P8  1  0.73239700  0.06012700  0.75958200  1
  P  P9  1  0.22779100  0.53079800  0.03152200  1
  P  P10  1  0.76760300  0.06012700  0.25958200  1
  P  P11  1  0.27220900  0.53079800  0.53152200  1
  P  P12  1  0.23239700  0.93987300  0.74041800  1
  P  P13  1  0.72779100  0.46920200  0.46847800  1
  P  P14  1  0.77220900  0.46920200  0.96847800  1
  P  P15  1  0.26760300  0.93987300  0.24041800  1
  O  O16  1  0.17302200  0.74763500  0.89881600  1
  O  O17  1  0.61018600  0.10841700  0.31672500  1
  O  O18  1  0.88981400  0.10841700  0.81672500  1
  O  O19  1  0.39053400  0.55571500  0.10027500  1
  O  O20  1  0.82697800  0.25236500  0.10118400  1
  O  O21  1  0.09488400  0.97578600  0.61990200  1
  O  O22  1  0.60946600  0.44428500  0.89972500  1
  O  O23  1  0.09169500  0.47965800  0.15488500  1
  O  O24  1  0.26261900  0.37365300  0.45214900  1
  O  O25  1  0.90511600  0.02421400  0.38009800  1
  O  O26  1  0.40511600  0.97578600  0.11990200  1
  O  O27  1  0.75850600  0.88073100  0.20260100  1
  O  O28  1  0.25850600  0.11926900  0.29739900  1
  O  O29  1  0.32697800  0.74763500  0.39881600  1
  O  O30  1  0.59488400  0.02421400  0.88009800  1
  O  O31  1  0.11018600  0.89158300  0.18327500  1
  O  O32  1  0.24149400  0.11926900  0.79739900  1
  O  O33  1  0.90830500  0.52034200  0.84511500  1
  O  O34  1  0.23738100  0.37365300  0.95214900  1
  O  O35  1  0.76261900  0.62634700  0.04785100  1
  O  O36  1  0.89053400  0.44428500  0.39972500  1
  O  O37  1  0.40830500  0.47965800  0.65488500  1
  O  O38  1  0.59169500  0.52034200  0.34511500  1
  O  O39  1  0.38981400  0.89158300  0.68327500  1
  O  O40  1  0.74149400  0.88073100  0.70260100  1
  O  O41  1  0.10946600  0.55571500  0.60027500  1
  O  O42  1  0.73738100  0.62634700  0.54785100  1
  O  O43  1  0.67302200  0.25236500  0.60118400  1
