# generated using pymatgen
data_Ca(FeO2)2
_symmetry_space_group_name_H-M   'P 1'
_cell_length_a   7.46875951
_cell_length_b   7.46875951
_cell_length_c   9.20443775
_cell_angle_alpha   61.43893672
_cell_angle_beta   61.43893672
_cell_angle_gamma   23.55367220
_symmetry_Int_Tables_number   1
_chemical_formula_structural   Ca(FeO2)2
_chemical_formula_sum   'Ca2 Fe4 O8'
_cell_volume   179.04421456
_cell_formula_units_Z   2
loop_
 _symmetry_equiv_pos_site_id
 _symmetry_equiv_pos_as_xyz
  1  'x, y, z'
loop_
 _atom_site_type_symbol
 _atom_site_label
 _atom_site_symmetry_multiplicity
 _atom_site_fract_x
 _atom_site_fract_y
 _atom_site_fract_z
 _atom_site_occupancy
  Ca  Ca0  1  0.65889400  0.65889400  0.84493500  1
  Ca  Ca1  1  0.35290000  0.35290000  0.17609500  1
  Fe  Fe2  1  0.41488500  0.41488500  0.79823400  1
  Fe  Fe3  1  0.84974300  0.84974300  0.50418100  1
  Fe  Fe4  1  0.15349900  0.15349900  0.51776700  1
  Fe  Fe5  1  0.58958700  0.58958700  0.22624700  1
  O  O6  1  0.12587200  0.12587200  0.32725100  1
  O  O7  1  0.56742900  0.56742900  0.66863100  1
  O  O8  1  0.43635500  0.43635500  0.35234500  1
  O  O9  1  0.86976500  0.86976500  0.70573600  1
  O  O10  1  0.89524800  0.89524800  0.96662500  1
  O  O11  1  0.24120200  0.24120200  0.63584400  1
  O  O12  1  0.11517800  0.11517800  0.05467200  1
  O  O13  1  0.76311900  0.76311900  0.38210300  1
