# generated using pymatgen
data_Mg(FeO2)4
_symmetry_space_group_name_H-M   'P 1'
_cell_length_a   2.99344758
_cell_length_b   7.27084200
_cell_length_c   7.46317485
_cell_angle_alpha   80.85223482
_cell_angle_beta   78.41858756
_cell_angle_gamma   78.11332417
_symmetry_Int_Tables_number   1
_chemical_formula_structural   Mg(FeO2)4
_chemical_formula_sum   'Mg1 Fe4 O8'
_cell_volume   154.53911437
_cell_formula_units_Z   1
loop_
 _symmetry_equiv_pos_site_id
 _symmetry_equiv_pos_as_xyz
  1  'x, y, z'
loop_
 _atom_site_type_symbol
 _atom_site_label
 _atom_site_symmetry_multiplicity
 _atom_site_fract_x
 _atom_site_fract_y
 _atom_site_fract_z
 _atom_site_occupancy
  Mg  Mg0  1  0.34379000  0.12811300  0.19602800  1
  Fe  Fe1  1  0.63703200  0.17483300  0.56284400  1
  Fe  Fe2  1  0.15078700  0.50959400  0.20135700  1
  Fe  Fe3  1  0.84571200  0.48499300  0.83552500  1
  Fe  Fe4  1  0.35998900  0.80183300  0.49037300  1
  O  O5  1  0.86162300  0.67238200  0.61656000  1
  O  O6  1  0.46128300  0.32982800  0.75954200  1
  O  O7  1  0.54021100  0.64903400  0.28302500  1
  O  O8  1  0.14598900  0.30530700  0.41468000  1
  O  O9  1  0.17397800  0.01166000  0.65206500  1
  O  O10  1  0.79482400  0.32201900  0.09990400  1
  O  O11  1  0.84374300  0.98094600  0.34327700  1
  O  O12  1  0.21920100  0.62009700  0.95361300  1
