# generated using pymatgen
data_Mn2ZnO4
_symmetry_space_group_name_H-M   'P 1'
_cell_length_a   7.67003563
_cell_length_b   7.67003563
_cell_length_c   9.32524925
_cell_angle_alpha   52.97461933
_cell_angle_beta   52.97461933
_cell_angle_gamma   22.59003748
_symmetry_Int_Tables_number   1
_chemical_formula_structural   Mn2ZnO4
_chemical_formula_sum   'Mn4 Zn2 O8'
_cell_volume   166.32506194
_cell_formula_units_Z   2
loop_
 _symmetry_equiv_pos_site_id
 _symmetry_equiv_pos_as_xyz
  1  'x, y, z'
loop_
 _atom_site_type_symbol
 _atom_site_label
 _atom_site_symmetry_multiplicity
 _atom_site_fract_x
 _atom_site_fract_y
 _atom_site_fract_z
 _atom_site_occupancy
  Mn  Mn0  1  0.37534300  0.37534300  0.94383600  1
  Mn  Mn1  1  0.85472500  0.85472500  0.31710300  1
  Mn  Mn2  1  0.14527500  0.14527500  0.68289700  1
  Mn  Mn3  1  0.62465700  0.62465700  0.05616400  1
  Zn  Zn4  1  0.67837400  0.67837400  0.30469900  1
  Zn  Zn5  1  0.32162600  0.32162600  0.69530100  1
  O  O6  1  0.13926800  0.13926800  0.90116700  1
  O  O7  1  0.54829700  0.54829700  0.74687100  1
  O  O8  1  0.45170300  0.45170300  0.25312900  1
  O  O9  1  0.86073200  0.86073200  0.09883300  1
  O  O10  1  0.83982400  0.83982400  0.82907000  1
  O  O11  1  0.21511800  0.21511800  0.41918000  1
  O  O12  1  0.16017600  0.16017600  0.17093000  1
  O  O13  1  0.78488200  0.78488200  0.58082000  1
