# generated using pymatgen
data_MgMn2O4
_symmetry_space_group_name_H-M   'P 1'
_cell_length_a   7.91097181
_cell_length_b   7.91097181
_cell_length_c   9.58883580
_cell_angle_alpha   53.83958230
_cell_angle_beta   53.83958230
_cell_angle_gamma   20.90997879
_symmetry_Int_Tables_number   1
_chemical_formula_structural   MgMn2O4
_chemical_formula_sum   'Mg2 Mn4 O8'
_cell_volume   171.34011475
_cell_formula_units_Z   2
loop_
 _symmetry_equiv_pos_site_id
 _symmetry_equiv_pos_as_xyz
  1  'x, y, z'
loop_
 _atom_site_type_symbol
 _atom_site_label
 _atom_site_symmetry_multiplicity
 _atom_site_fract_x
 _atom_site_fract_y
 _atom_site_fract_z
 _atom_site_occupancy
  Mg  Mg0  1  0.69281100  0.69281100  0.82914000  1
  Mg  Mg1  1  0.30718900  0.30718900  0.17086000  1
  Mn  Mn2  1  0.38839700  0.38839700  0.81518900  1
  Mn  Mn3  1  0.84956100  0.84956100  0.48166800  1
  Mn  Mn4  1  0.15043900  0.15043900  0.51833200  1
  Mn  Mn5  1  0.61160300  0.61160300  0.18481100  1
  O  O6  1  0.14312700  0.14312700  0.28153200  1
  O  O7  1  0.55474300  0.55474300  0.65355600  1
  O  O8  1  0.44525700  0.44525700  0.34644400  1
  O  O9  1  0.85687300  0.85687300  0.71846800  1
  O  O10  1  0.86529000  0.86529000  0.98304900  1
  O  O11  1  0.23677700  0.23677700  0.64013800  1
  O  O12  1  0.13471000  0.13471000  0.01695100  1
  O  O13  1  0.76322300  0.76322300  0.35986200  1
