# generated using pymatgen
data_CaCo2(P2O7)2
_symmetry_space_group_name_H-M   'P 1'
_cell_length_a   6.42243700
_cell_length_b   6.48937769
_cell_length_c   6.71316453
_cell_angle_alpha   114.11905012
_cell_angle_beta   87.18863113
_cell_angle_gamma   97.10398013
_symmetry_Int_Tables_number   1
_chemical_formula_structural   CaCo2(P2O7)2
_chemical_formula_sum   'Ca1 Co2 P4 O14'
_cell_volume   253.40203044
_cell_formula_units_Z   1
loop_
 _symmetry_equiv_pos_site_id
 _symmetry_equiv_pos_as_xyz
  1  'x, y, z'
loop_
 _atom_site_type_symbol
 _atom_site_label
 _atom_site_symmetry_multiplicity
 _atom_site_fract_x
 _atom_site_fract_y
 _atom_site_fract_z
 _atom_site_occupancy
  Ca  Ca0  1  0.87069500  0.72339000  0.17827700  1
  Co  Co1  1  0.34829100  0.10332500  0.21871800  1
  Co  Co2  1  0.65345100  0.90890800  0.77697500  1
  P  P3  1  0.86685900  0.22934300  0.24258200  1
  P  P4  1  0.13408000  0.77526300  0.76231400  1
  P  P5  1  0.61727700  0.35599700  0.65838300  1
  P  P6  1  0.37773400  0.64451500  0.34084200  1
  O  O7  1  0.22366500  0.62229200  0.52799600  1
  O  O8  1  0.79737500  0.37280700  0.48822000  1
  O  O9  1  0.03905000  0.08990000  0.25838500  1
  O  O10  1  0.95737600  0.89331000  0.71983800  1
  O  O11  1  0.41677400  0.24792800  0.51927000  1
  O  O12  1  0.59444100  0.76055000  0.45178500  1
  O  O13  1  0.61204300  0.60521900  0.82057700  1
  O  O14  1  0.39868900  0.40016800  0.18192600  1
  O  O15  1  0.05543800  0.61762800  0.86714500  1
  O  O16  1  0.93643500  0.38918100  0.14065100  1
  O  O17  1  0.32966500  0.94587000  0.88417600  1
  O  O18  1  0.28420700  0.79205000  0.24839100  1
  O  O19  1  0.67495800  0.20572400  0.76695500  1
  O  O20  1  0.67509600  0.04806000  0.12883400  1
