# generated using pymatgen
data_VP2O7
_symmetry_space_group_name_H-M   'P 1'
_cell_length_a   8.58697900
_cell_length_b   6.95452600
_cell_length_c   9.36796377
_cell_angle_alpha   72.24720461
_cell_angle_beta   90.00000000
_cell_angle_gamma   90.00000000
_symmetry_Int_Tables_number   1
_chemical_formula_structural   VP2O7
_chemical_formula_sum   'V4 P8 O28'
_cell_volume   532.79952230
_cell_formula_units_Z   4
loop_
 _symmetry_equiv_pos_site_id
 _symmetry_equiv_pos_as_xyz
  1  'x, y, z'
loop_
 _atom_site_type_symbol
 _atom_site_label
 _atom_site_symmetry_multiplicity
 _atom_site_fract_x
 _atom_site_fract_y
 _atom_site_fract_z
 _atom_site_occupancy
  V  V0  1  0.07768700  0.70429600  0.19411700  1
  V  V1  1  0.42231300  0.70429600  0.69411700  1
  V  V2  1  0.57768700  0.29570400  0.30588300  1
  V  V3  1  0.92231300  0.29570400  0.80588300  1
  P  P4  1  0.71393300  0.52397000  0.53624100  1
  P  P5  1  0.24427200  0.09529800  0.24622700  1
  P  P6  1  0.74427200  0.90470200  0.25377300  1
  P  P7  1  0.25572800  0.09529800  0.74622700  1
  P  P8  1  0.78606700  0.52397000  0.03624100  1
  P  P9  1  0.75572800  0.90470200  0.75377300  1
  P  P10  1  0.21393300  0.47603000  0.96375900  1
  P  P11  1  0.28606700  0.47603000  0.46375900  1
  O  O12  1  0.12709900  0.51953300  0.37966700  1
  O  O13  1  0.22286600  0.26127500  0.08086700  1
  O  O14  1  0.26373300  0.89397000  0.70954800  1
  O  O15  1  0.07797500  0.12790600  0.78307500  1
  O  O16  1  0.87290100  0.48046700  0.62033300  1
  O  O17  1  0.77713400  0.73872500  0.91913300  1
  O  O18  1  0.19689800  0.63520700  0.04849200  1
  O  O19  1  0.91714400  0.52219700  0.14522200  1
  O  O20  1  0.57797500  0.87209400  0.71692500  1
  O  O21  1  0.69689800  0.36479300  0.45150800  1
  O  O22  1  0.37290100  0.51953300  0.87966700  1
  O  O23  1  0.86657900  0.87386000  0.64389900  1
  O  O24  1  0.62709900  0.48046700  0.12033300  1
  O  O25  1  0.73626700  0.10603000  0.29045200  1
  O  O26  1  0.41714400  0.47780300  0.35477800  1
  O  O27  1  0.80310200  0.36479300  0.95150800  1
  O  O28  1  0.92202500  0.87209400  0.21692500  1
  O  O29  1  0.23626700  0.89397000  0.20954800  1
  O  O30  1  0.13342100  0.12614000  0.35610100  1
  O  O31  1  0.58285600  0.52219700  0.64522200  1
  O  O32  1  0.27713400  0.26127500  0.58086700  1
  O  O33  1  0.30310200  0.63520700  0.54849200  1
  O  O34  1  0.08285600  0.47780300  0.85477800  1
  O  O35  1  0.42202500  0.12790600  0.28307500  1
  O  O36  1  0.72286600  0.73872500  0.41913300  1
  O  O37  1  0.63342100  0.87386000  0.14389900  1
  O  O38  1  0.76373300  0.10603000  0.79045200  1
  O  O39  1  0.36657900  0.12614000  0.85610100  1
