# generated using pymatgen
data_CaVP2O7
_symmetry_space_group_name_H-M   'P 1'
_cell_length_a   8.90577800
_cell_length_b   7.42539600
_cell_length_c   9.30870030
_cell_angle_alpha   64.36558122
_cell_angle_beta   90.00000000
_cell_angle_gamma   90.00000000
_symmetry_Int_Tables_number   1
_chemical_formula_structural   CaVP2O7
_chemical_formula_sum   'Ca4 V4 P8 O28'
_cell_volume   554.98511334
_cell_formula_units_Z   4
loop_
 _symmetry_equiv_pos_site_id
 _symmetry_equiv_pos_as_xyz
  1  'x, y, z'
loop_
 _atom_site_type_symbol
 _atom_site_label
 _atom_site_symmetry_multiplicity
 _atom_site_fract_x
 _atom_site_fract_y
 _atom_site_fract_z
 _atom_site_occupancy
  Ca  Ca0  1  0.95042500  0.71462200  0.14615600  1
  Ca  Ca1  1  0.45042500  0.28537800  0.35384400  1
  Ca  Ca2  1  0.54957500  0.71462200  0.64615600  1
  Ca  Ca3  1  0.04957500  0.28537800  0.85384400  1
  V  V4  1  0.07502700  0.22806600  0.38649400  1
  V  V5  1  0.92497300  0.77193400  0.61350600  1
  V  V6  1  0.57502700  0.77193400  0.11350600  1
  V  V7  1  0.42497300  0.22806600  0.88649400  1
  P  P8  1  0.72406800  0.05509600  0.75931100  1
  P  P9  1  0.24226300  0.53572500  0.02966200  1
  P  P10  1  0.77593200  0.05509600  0.25931100  1
  P  P11  1  0.25773700  0.53572500  0.52966200  1
  P  P12  1  0.22406800  0.94490400  0.74068900  1
  P  P13  1  0.74226300  0.46427500  0.47033800  1
  P  P14  1  0.75773700  0.46427500  0.97033800  1
  P  P15  1  0.27593200  0.94490400  0.24068900  1
  O  O16  1  0.17543000  0.74315300  0.89593100  1
  O  O17  1  0.63172600  0.08868900  0.33090300  1
  O  O18  1  0.86827400  0.08868900  0.83090300  1
  O  O19  1  0.38953500  0.57121400  0.09839200  1
  O  O20  1  0.82457000  0.25684700  0.10406900  1
  O  O21  1  0.08678700  0.98328300  0.63023900  1
  O  O22  1  0.61046500  0.42878600  0.90160800  1
  O  O23  1  0.11100000  0.47226400  0.14851100  1
  O  O24  1  0.24123200  0.39442600  0.44955100  1
  O  O25  1  0.91321300  0.01671700  0.36976100  1
  O  O26  1  0.41321300  0.98328300  0.13023900  1
  O  O27  1  0.76280500  0.89812300  0.19354300  1
  O  O28  1  0.26280500  0.10187700  0.30645700  1
  O  O29  1  0.32457000  0.74315300  0.39593100  1
  O  O30  1  0.58678700  0.01671700  0.86976100  1
  O  O31  1  0.13172600  0.91131100  0.16909700  1
  O  O32  1  0.23719500  0.10187700  0.80645700  1
  O  O33  1  0.88900000  0.52773600  0.85148900  1
  O  O34  1  0.25876800  0.39442600  0.94955100  1
  O  O35  1  0.74123200  0.60557400  0.05044900  1
  O  O36  1  0.88953500  0.42878600  0.40160800  1
  O  O37  1  0.38900000  0.47226400  0.64851100  1
  O  O38  1  0.61100000  0.52773600  0.35148900  1
  O  O39  1  0.36827400  0.91131100  0.66909700  1
  O  O40  1  0.73719500  0.89812300  0.69354300  1
  O  O41  1  0.11046500  0.57121400  0.59839200  1
  O  O42  1  0.75876800  0.60557400  0.55044900  1
  O  O43  1  0.67543000  0.25684700  0.60406900  1
