# generated using pymatgen
data_Ca3Sn5S13
_symmetry_space_group_name_H-M   'P 1'
_cell_length_a   7.08841263
_cell_length_b   15.00960870
_cell_length_c   39.07723535
_cell_angle_alpha   90.00000000
_cell_angle_beta   91.72235587
_cell_angle_gamma   90.00000000
_symmetry_Int_Tables_number   1
_chemical_formula_structural   Ca3Sn5S13
_chemical_formula_sum   'Ca15 Sn25 S65'
_cell_volume   4155.71672868
_cell_formula_units_Z   5
loop_
 _symmetry_equiv_pos_site_id
 _symmetry_equiv_pos_as_xyz
  1  'x, y, z'
loop_
 _atom_site_type_symbol
 _atom_site_label
 _atom_site_symmetry_multiplicity
 _atom_site_fract_x
 _atom_site_fract_y
 _atom_site_fract_z
 _atom_site_occupancy
  Ca  Ca0  1  0.49748610  0.00000000  0.82239436  1
  Ca  Ca1  1  0.50251390  0.00000000  0.17760564  1
  Ca  Ca2  1  0.52328502  0.66714838  0.82613533  1
  Ca  Ca3  1  0.52328502  0.33285162  0.82613533  1
  Ca  Ca4  1  0.47671498  0.33285162  0.17386467  1
  Ca  Ca5  1  0.47671498  0.66714838  0.17386467  1
  Ca  Ca6  1  0.07141809  0.00000000  0.90861964  1
  Ca  Ca7  1  0.92858191  0.00000000  0.09138036  1
  Ca  Ca8  1  0.03923371  0.65774616  0.92061481  1
  Ca  Ca9  1  0.03923371  0.34225384  0.92061481  1
  Ca  Ca10  1  0.96076629  0.34225384  0.07938519  1
  Ca  Ca11  1  0.96076629  0.65774616  0.07938519  1
  Ca  Ca12  1  0.50000000  0.00000000  0.00000000  1
  Ca  Ca13  1  0.50000000  0.65969686  0.00000000  1
  Ca  Ca14  1  0.50000000  0.34030314  0.00000000  1
  Sn  Sn15  1  0.65970879  0.86043949  0.73077157  1
  Sn  Sn16  1  0.65970879  0.13956051  0.73077157  1
  Sn  Sn17  1  0.34029121  0.13956051  0.26922843  1
  Sn  Sn18  1  0.34029121  0.86043949  0.26922843  1
  Sn  Sn19  1  0.15640673  0.75672735  0.72604358  1
  Sn  Sn20  1  0.15640673  0.24327265  0.72604358  1
  Sn  Sn21  1  0.84359327  0.24327265  0.27395642  1
  Sn  Sn22  1  0.84359327  0.75672735  0.27395642  1
  Sn  Sn23  1  0.03230264  0.50000000  0.74584020  1
  Sn  Sn24  1  0.96769736  0.50000000  0.25415980  1
  Sn  Sn25  1  0.99023723  0.83471625  0.82705518  1
  Sn  Sn26  1  0.99023723  0.16528375  0.82705518  1
  Sn  Sn27  1  0.00976277  0.16528375  0.17294482  1
  Sn  Sn28  1  0.00976277  0.83471625  0.17294482  1
  Sn  Sn29  1  0.96875584  0.50000000  0.83302560  1
  Sn  Sn30  1  0.03124416  0.50000000  0.16697440  1
  Sn  Sn31  1  0.51680219  0.83604867  0.91194935  1
  Sn  Sn32  1  0.51680219  0.16395133  0.91194935  1
  Sn  Sn33  1  0.48319781  0.16395133  0.08805065  1
  Sn  Sn34  1  0.48319781  0.83604867  0.08805065  1
  Sn  Sn35  1  0.49514340  0.50000000  0.91062059  1
  Sn  Sn36  1  0.50485660  0.50000000  0.08937941  1
  Sn  Sn37  1  -0.00000000  0.83671185  0.00000000  1
  Sn  Sn38  1  -0.00000000  0.16328815  0.00000000  1
  Sn  Sn39  1  -0.00000000  0.50000000  0.00000000  1
  S  S40  1  0.95401033  0.87432978  0.70145697  1
  S  S41  1  0.95401033  0.12567022  0.70145697  1
  S  S42  1  0.04598967  0.12567022  0.29854303  1
  S  S43  1  0.04598967  0.87432978  0.29854303  1
  S  S44  1  0.45203916  0.76695132  0.69538384  1
  S  S45  1  0.45203916  0.23304868  0.69538384  1
  S  S46  1  0.54796084  0.23304868  0.30461616  1
  S  S47  1  0.54796084  0.76695132  0.30461616  1
  S  S48  1  0.48668094  0.00000000  0.74061729  1
  S  S49  1  0.51331906  0.00000000  0.25938271  1
  S  S50  1  0.01731028  0.61957910  0.70387358  1
  S  S51  1  0.01731028  0.38042090  0.70387358  1
  S  S52  1  0.98268972  0.38042090  0.29612642  1
  S  S53  1  0.98268972  0.61957910  0.29612642  1
  S  S54  1  0.69071826  0.81097584  0.78965999  1
  S  S55  1  0.69071826  0.18902416  0.78965999  1
  S  S56  1  0.30928174  0.18902416  0.21034001  1
  S  S57  1  0.30928174  0.81097584  0.21034001  1
  S  S58  1  0.23854427  0.77344645  0.78546852  1
  S  S59  1  0.23854427  0.22655355  0.78546852  1
  S  S60  1  0.76145573  0.22655355  0.21453148  1
  S  S61  1  0.76145573  0.77344645  0.21453148  1
  S  S62  1  0.25921213  0.50000000  0.79450493  1
  S  S63  1  0.74078787  0.50000000  0.20549507  1
  S  S64  1  0.75102981  0.50000000  0.77958446  1
  S  S65  1  0.24897019  0.50000000  0.22041554  1
  S  S66  1  0.04589363  0.00000000  0.80296615  1
  S  S67  1  0.95410637  0.00000000  0.19703385  1
  S  S68  1  0.91307833  0.67440822  0.84930067  1
  S  S69  1  0.91307833  0.32559178  0.84930067  1
  S  S70  1  0.08692167  0.32559178  0.15069933  1
  S  S71  1  0.08692167  0.67440822  0.15069933  1
  S  S72  1  0.28458078  0.87781040  0.86187260  1
  S  S73  1  0.28458078  0.12218960  0.86187260  1
  S  S74  1  0.71541922  0.12218960  0.13812740  1
  S  S75  1  0.71541922  0.87781040  0.13812740  1
  S  S76  1  0.77023789  0.89354968  0.87288518  1
  S  S77  1  0.77023789  0.10645032  0.87288518  1
  S  S78  1  0.22976211  0.10645032  0.12711482  1
  S  S79  1  0.22976211  0.89354968  0.12711482  1
  S  S80  1  0.15154998  0.50000000  0.88872877  1
  S  S81  1  0.84845002  0.50000000  0.11127123  1
  S  S82  1  0.61974428  0.50000000  0.85209496  1
  S  S83  1  0.38025572  0.50000000  0.14790504  1
  S  S84  1  0.45682954  0.00000000  0.92988659  1
  S  S85  1  0.54317046  0.00000000  0.07011341  1
  S  S86  1  0.43031893  0.67360249  0.89859919  1
  S  S87  1  0.43031893  0.32639751  0.89859919  1
  S  S88  1  0.56968107  0.32639751  0.10140081  1
  S  S89  1  0.56968107  0.67360249  0.10140081  1
  S  S90  1  0.14717495  0.82710185  0.94288684  1
  S  S91  1  0.14717495  0.17289815  0.94288684  1
  S  S92  1  0.85282505  0.17289815  0.05711316  1
  S  S93  1  0.85282505  0.82710185  0.05711316  1
  S  S94  1  0.66033912  0.81536149  0.97096740  1
  S  S95  1  0.66033912  0.18463851  0.97096740  1
  S  S96  1  0.33966088  0.18463851  0.02903260  1
  S  S97  1  0.33966088  0.81536149  0.02903260  1
  S  S98  1  0.32968755  0.50000000  0.96841095  1
  S  S99  1  0.67031245  0.50000000  0.03158905  1
  S  S100  1  0.81075555  0.50000000  0.94051988  1
  S  S101  1  0.18924445  0.50000000  0.05948012  1
  S  S102  1  -0.00000000  0.00000000  0.00000000  1
  S  S103  1  -0.00000000  0.65928938  0.00000000  1
  S  S104  1  -0.00000000  0.34071062  0.00000000  1
