# generated using pymatgen
data_MgV2O6
_symmetry_space_group_name_H-M   'P 1'
_cell_length_a   5.64784352
_cell_length_b   5.64784352
_cell_length_c   5.22439000
_cell_angle_alpha   90.00000000
_cell_angle_beta   90.00000000
_cell_angle_gamma   122.17432625
_symmetry_Int_Tables_number   1
_chemical_formula_structural   MgV2O6
_chemical_formula_sum   'Mg1 V2 O6'
_cell_volume   141.05643458
_cell_formula_units_Z   1
loop_
 _symmetry_equiv_pos_site_id
 _symmetry_equiv_pos_as_xyz
  1  'x, y, z'
loop_
 _atom_site_type_symbol
 _atom_site_label
 _atom_site_symmetry_multiplicity
 _atom_site_fract_x
 _atom_site_fract_y
 _atom_site_fract_z
 _atom_site_occupancy
  Mg  Mg0  1  0.43122100  0.56877900  0.00000000  1
  V  V1  1  0.93983000  0.06017000  0.50000000  1
  V  V2  1  0.06075800  0.93924200  0.00000000  1
  O  O3  1  0.77251400  0.77794100  0.24123500  1
  O  O4  1  0.22205900  0.22748600  0.75876500  1
  O  O5  1  0.22205900  0.22748600  0.24123500  1
  O  O6  1  0.77251400  0.77794100  0.75876500  1
  O  O7  1  0.77717000  0.22283000  0.50000000  1
  O  O8  1  0.22984400  0.77015600  0.00000000  1
