# generated using pymatgen
data_Ca3Co2(TeO6)2
_symmetry_space_group_name_H-M   'P 1'
_cell_length_a   5.38699100
_cell_length_b   5.50484231
_cell_length_c   7.81994470
_cell_angle_alpha   90.60186214
_cell_angle_beta   90.87371276
_cell_angle_gamma   92.02575314
_symmetry_Int_Tables_number   1
_chemical_formula_structural   Ca3Co2(TeO6)2
_chemical_formula_sum   'Ca3 Co2 Te2 O12'
_cell_volume   231.71080882
_cell_formula_units_Z   1
loop_
 _symmetry_equiv_pos_site_id
 _symmetry_equiv_pos_as_xyz
  1  'x, y, z'
loop_
 _atom_site_type_symbol
 _atom_site_label
 _atom_site_symmetry_multiplicity
 _atom_site_fract_x
 _atom_site_fract_y
 _atom_site_fract_z
 _atom_site_occupancy
  Ca  Ca0  1  0.98918300  0.05197800  0.25146800  1
  Ca  Ca1  1  0.00767700  0.95338900  0.74900400  1
  Ca  Ca2  1  0.47990800  0.44373400  0.75274600  1
  Co  Co3  1  0.50184700  0.99264300  0.01555200  1
  Co  Co4  1  0.98672600  0.50122200  0.48295200  1
  Te  Te5  1  0.99866200  0.50483300  0.00562400  1
  Te  Te6  1  0.49758000  0.98560500  0.49566300  1
  O  O7  1  0.71722200  0.28326600  0.46167000  1
  O  O8  1  0.19863300  0.22308900  0.95344700  1
  O  O9  1  0.80117800  0.81309800  0.46510400  1
  O  O10  1  0.28981800  0.71821800  0.94601700  1
  O  O11  1  0.90880600  0.52032500  0.76250100  1
  O  O12  1  0.58270600  0.02127300  0.73843700  1
  O  O13  1  0.28343200  0.70627100  0.55579300  1
  O  O14  1  0.22009600  0.19507300  0.54147600  1
  O  O15  1  0.08650600  0.47664500  0.24244300  1
  O  O16  1  0.70882400  0.28165800  0.03718500  1
  O  O17  1  0.40761000  0.97513700  0.25759900  1
  O  O18  1  0.82058300  0.80095100  0.03646200  1
