# generated using pymatgen
data_Ca3Bi2(AsO6)2
_symmetry_space_group_name_H-M   'P 1'
_cell_length_a   5.51660400
_cell_length_b   7.20353651
_cell_length_c   7.66112186
_cell_angle_alpha   76.76698337
_cell_angle_beta   88.43409435
_cell_angle_gamma   88.43952608
_symmetry_Int_Tables_number   1
_chemical_formula_structural   Ca3Bi2(AsO6)2
_chemical_formula_sum   'Ca3 Bi2 As2 O12'
_cell_volume   296.18235002
_cell_formula_units_Z   1
loop_
 _symmetry_equiv_pos_site_id
 _symmetry_equiv_pos_as_xyz
  1  'x, y, z'
loop_
 _atom_site_type_symbol
 _atom_site_label
 _atom_site_symmetry_multiplicity
 _atom_site_fract_x
 _atom_site_fract_y
 _atom_site_fract_z
 _atom_site_occupancy
  Ca  Ca0  1  0.76351100  0.08361200  0.69738300  1
  Ca  Ca1  1  0.76551300  0.71610500  0.08968700  1
  Ca  Ca2  1  0.26032500  0.28424100  0.92747300  1
  Bi  Bi3  1  0.24441000  0.39714900  0.41516200  1
  Bi  Bi4  1  0.73010900  0.59364000  0.57172100  1
  As  As5  1  0.79855800  0.20301600  0.19364600  1
  As  As6  1  0.31911500  0.80528200  0.80978400  1
  O  O7  1  0.49618300  0.34122100  0.64069200  1
  O  O8  1  0.92318900  0.13447200  0.40374200  1
  O  O9  1  0.44320100  0.58783500  0.91408200  1
  O  O10  1  0.51691000  0.60642000  0.33501800  1
  O  O11  1  0.00665300  0.80471800  0.80106700  1
  O  O12  1  0.00233300  0.63923200  0.35657100  1
  O  O13  1  0.48436700  0.23232900  0.20812100  1
  O  O14  1  0.00845800  0.35863100  0.66292400  1
  O  O15  1  0.42744100  0.96939900  0.91800100  1
  O  O16  1  0.46991900  0.86931100  0.60203800  1
  O  O17  1  0.87587400  0.05537600  0.05210700  1
  O  O18  1  0.94990200  0.41044800  0.09577600  1
