# generated using pymatgen
data_Mg(NiS2)4
_symmetry_space_group_name_H-M   'P 1'
_cell_length_a   7.05904804
_cell_length_b   7.05904804
_cell_length_c   7.05904747
_cell_angle_alpha   57.11275692
_cell_angle_beta   57.11275692
_cell_angle_gamma   57.11275193
_symmetry_Int_Tables_number   1
_chemical_formula_structural   Mg(NiS2)4
_chemical_formula_sum   'Mg1 Ni4 S8'
_cell_volume   232.17796008
_cell_formula_units_Z   1
loop_
 _symmetry_equiv_pos_site_id
 _symmetry_equiv_pos_as_xyz
  1  'x, y, z'
loop_
 _atom_site_type_symbol
 _atom_site_label
 _atom_site_symmetry_multiplicity
 _atom_site_fract_x
 _atom_site_fract_y
 _atom_site_fract_z
 _atom_site_occupancy
  Mg  Mg0  1  0.50000000  0.50000000  0.50000000  1
  Ni  Ni1  1  0.00000000  0.50000000  0.50000000  1
  Ni  Ni2  1  0.50000000  0.00000000  0.50000000  1
  Ni  Ni3  1  0.50000000  0.50000000  0.00000000  1
  Ni  Ni4  1  0.00000000  0.00000000  0.00000000  1
  S  S5  1  0.27417500  0.76051400  0.76051400  1
  S  S6  1  0.23948600  0.23948600  0.72582500  1
  S  S7  1  0.72582500  0.23948600  0.23948600  1
  S  S8  1  0.23948600  0.72582500  0.23948600  1
  S  S9  1  0.26677600  0.26677600  0.26677600  1
  S  S10  1  0.73322400  0.73322400  0.73322400  1
  S  S11  1  0.76051400  0.27417500  0.76051400  1
  S  S12  1  0.76051400  0.76051400  0.27417500  1
