# generated using pymatgen
data_P2WO7
_symmetry_space_group_name_H-M   'P 1'
_cell_length_a   9.08562600
_cell_length_b   7.00105100
_cell_length_c   9.77550471
_cell_angle_alpha   70.99459466
_cell_angle_beta   90.00000000
_cell_angle_gamma   90.00000000
_symmetry_Int_Tables_number   1
_chemical_formula_structural   P2WO7
_chemical_formula_sum   'P8 W4 O28'
_cell_volume   587.91324138
_cell_formula_units_Z   4
loop_
 _symmetry_equiv_pos_site_id
 _symmetry_equiv_pos_as_xyz
  1  'x, y, z'
loop_
 _atom_site_type_symbol
 _atom_site_label
 _atom_site_symmetry_multiplicity
 _atom_site_fract_x
 _atom_site_fract_y
 _atom_site_fract_z
 _atom_site_occupancy
  P  P0  1  0.71333600  0.52710100  0.53059000  1
  P  P1  1  0.24617000  0.09697600  0.24925200  1
  P  P2  1  0.74617000  0.90302400  0.25074800  1
  P  P3  1  0.25383000  0.09697600  0.74925200  1
  P  P4  1  0.78666400  0.52710100  0.03059000  1
  P  P5  1  0.75383000  0.90302400  0.75074800  1
  P  P6  1  0.21333600  0.47289900  0.96941000  1
  P  P7  1  0.28666400  0.47289900  0.46941000  1
  W  W8  1  0.07239000  0.69970800  0.19929700  1
  W  W9  1  0.42761000  0.69970800  0.69929700  1
  W  W10  1  0.57239000  0.30029200  0.30070300  1
  W  W11  1  0.92761000  0.30029200  0.80070300  1
  O  O12  1  0.13420000  0.52329100  0.39368400  1
  O  O13  1  0.22901500  0.25931700  0.08403800  1
  O  O14  1  0.26573500  0.89413100  0.72043100  1
  O  O15  1  0.08439300  0.11430400  0.78330000  1
  O  O16  1  0.86580000  0.47670900  0.60631600  1
  O  O17  1  0.77098500  0.74068300  0.91596200  1
  O  O18  1  0.18658800  0.63254600  0.04597600  1
  O  O19  1  0.90702900  0.52931400  0.13744700  1
  O  O20  1  0.58439300  0.88569600  0.71670000  1
  O  O21  1  0.68658800  0.36745400  0.45402400  1
  O  O22  1  0.36580000  0.52329100  0.89368400  1
  O  O23  1  0.85709400  0.85545800  0.65110500  1
  O  O24  1  0.63420000  0.47670900  0.10631600  1
  O  O25  1  0.73426500  0.10586900  0.27956900  1
  O  O26  1  0.40702900  0.47068600  0.36255300  1
  O  O27  1  0.81341200  0.36745400  0.95402400  1
  O  O28  1  0.91560700  0.88569600  0.21670000  1
  O  O29  1  0.23426500  0.89413100  0.22043100  1
  O  O30  1  0.14290600  0.14454200  0.34889500  1
  O  O31  1  0.59297100  0.52931400  0.63744700  1
  O  O32  1  0.27098500  0.25931700  0.58403800  1
  O  O33  1  0.31341200  0.63254600  0.54597600  1
  O  O34  1  0.09297100  0.47068600  0.86255300  1
  O  O35  1  0.41560700  0.11430400  0.28330000  1
  O  O36  1  0.72901500  0.74068300  0.41596200  1
  O  O37  1  0.64290600  0.85545800  0.15110500  1
  O  O38  1  0.76573500  0.10586900  0.77956900  1
  O  O39  1  0.35709400  0.14454200  0.84889500  1
