# generated using pymatgen
data_BaV4O7
_symmetry_space_group_name_H-M   'P 1'
_cell_length_a   6.58473853
_cell_length_b   6.58473853
_cell_length_c   10.82968300
_cell_angle_alpha   90.00000000
_cell_angle_beta   90.00000000
_cell_angle_gamma   120.00000535
_symmetry_Int_Tables_number   1
_chemical_formula_structural   BaV4O7
_chemical_formula_sum   'Ba2 V8 O14'
_cell_volume   406.65247692
_cell_formula_units_Z   2
loop_
 _symmetry_equiv_pos_site_id
 _symmetry_equiv_pos_as_xyz
  1  'x, y, z'
loop_
 _atom_site_type_symbol
 _atom_site_label
 _atom_site_symmetry_multiplicity
 _atom_site_fract_x
 _atom_site_fract_y
 _atom_site_fract_z
 _atom_site_occupancy
  Ba  Ba0  1  0.66666700  0.33333300  0.53070000  1
  Ba  Ba1  1  0.33333300  0.66666700  0.03070000  1
  V  V2  1  0.83014000  0.16986000  0.18964900  1
  V  V3  1  0.66028000  0.83014000  0.68964900  1
  V  V4  1  0.16986000  0.33972000  0.68964900  1
  V  V5  1  0.83014000  0.66028000  0.18964900  1
  V  V6  1  0.33972000  0.16986000  0.18964900  1
  V  V7  1  0.16986000  0.83014000  0.68964900  1
  V  V8  1  0.00000000  0.00000000  0.44529800  1
  V  V9  1  0.00000000  0.00000000  0.94529800  1
  O  O10  1  0.84953400  0.15046600  0.01643500  1
  O  O11  1  0.69906800  0.84953400  0.51643500  1
  O  O12  1  0.15046600  0.30093200  0.51643500  1
  O  O13  1  0.84953400  0.69906800  0.01643500  1
  O  O14  1  0.30093200  0.15046600  0.01643500  1
  O  O15  1  0.15046600  0.84953400  0.51643500  1
  O  O16  1  0.00000000  0.00000000  0.75817700  1
  O  O17  1  0.00000000  0.00000000  0.25817700  1
  O  O18  1  0.50839900  0.49160100  0.23387600  1
  O  O19  1  0.01679800  0.50839900  0.73387600  1
  O  O20  1  0.49160100  0.98320200  0.73387600  1
  O  O21  1  0.50839900  0.01679800  0.23387600  1
  O  O22  1  0.49160100  0.50839900  0.73387600  1
  O  O23  1  0.98320200  0.49160100  0.23387600  1
