# generated using pymatgen
data_Ba3Y5(CoO5)3
_symmetry_space_group_name_H-M   'P 1'
_cell_length_a   12.01964200
_cell_length_b   7.15005300
_cell_length_c   18.60790855
_cell_angle_alpha   67.41738280
_cell_angle_beta   90.00000000
_cell_angle_gamma   90.00000000
_symmetry_Int_Tables_number   1
_chemical_formula_structural   Ba3Y5(CoO5)3
_chemical_formula_sum   'Ba12 Y20 Co12 O60'
_cell_volume   1476.56911919
_cell_formula_units_Z   4
loop_
 _symmetry_equiv_pos_site_id
 _symmetry_equiv_pos_as_xyz
  1  'x, y, z'
loop_
 _atom_site_type_symbol
 _atom_site_label
 _atom_site_symmetry_multiplicity
 _atom_site_fract_x
 _atom_site_fract_y
 _atom_site_fract_z
 _atom_site_occupancy
  Ba  Ba0  1  0.89275900  0.12592300  0.91666500  1
  Ba  Ba1  1  0.89222700  0.50563200  0.58091100  1
  Ba  Ba2  1  0.89674200  0.82737800  0.25283900  1
  Ba  Ba3  1  0.10325800  0.17262200  0.74716100  1
  Ba  Ba4  1  0.10777300  0.49436800  0.41908900  1
  Ba  Ba5  1  0.10724100  0.87407700  0.08333500  1
  Ba  Ba6  1  0.60325800  0.82737800  0.75283900  1
  Ba  Ba7  1  0.60724100  0.12592300  0.41666500  1
  Ba  Ba8  1  0.60777300  0.50563200  0.08091100  1
  Ba  Ba9  1  0.39222700  0.49436800  0.91908900  1
  Ba  Ba10  1  0.39275900  0.87407700  0.58333500  1
  Ba  Ba11  1  0.39674200  0.17262200  0.24716100  1
  Y  Y12  1  0.29476600  0.96092000  0.91620900  1
  Y  Y13  1  0.29392200  0.63222900  0.24965900  1
  Y  Y14  1  0.70607800  0.36777100  0.75034100  1
  Y  Y15  1  0.70523400  0.03908000  0.08379100  1
  Y  Y16  1  0.20607800  0.63222900  0.74965900  1
  Y  Y17  1  0.20523400  0.96092000  0.41620900  1
  Y  Y18  1  0.79476600  0.03908000  0.58379100  1
  Y  Y19  1  0.79392200  0.36777100  0.25034100  1
  Y  Y20  1  0.06445400  0.68822200  0.92129900  1
  Y  Y21  1  0.08670300  0.01847900  0.58221300  1
  Y  Y22  1  0.07632900  0.35670100  0.24564200  1
  Y  Y23  1  0.92367100  0.64329900  0.75435800  1
  Y  Y24  1  0.91329700  0.98152100  0.41778700  1
  Y  Y25  1  0.93554600  0.31177800  0.07870100  1
  Y  Y26  1  0.42367100  0.35670100  0.74564200  1
  Y  Y27  1  0.43554600  0.68822200  0.42129900  1
  Y  Y28  1  0.41329700  0.01847900  0.08221300  1
  Y  Y29  1  0.58670300  0.98152100  0.91778700  1
  Y  Y30  1  0.56445400  0.31177800  0.57870100  1
  Y  Y31  1  0.57632900  0.64329900  0.25435800  1
  Co  Co32  1  0.66701400  0.42847300  0.91757100  1
  Co  Co33  1  0.65283900  0.71785400  0.58265500  1
  Co  Co34  1  0.65392800  0.04954200  0.25096300  1
  Co  Co35  1  0.34607200  0.95045800  0.74903700  1
  Co  Co36  1  0.34716100  0.28214600  0.41734500  1
  Co  Co37  1  0.33298600  0.57152700  0.08242900  1
  Co  Co38  1  0.84607200  0.04954200  0.75096300  1
  Co  Co39  1  0.83298600  0.42847300  0.41757100  1
  Co  Co40  1  0.84716100  0.71785400  0.08265500  1
  Co  Co41  1  0.15283900  0.28214600  0.91734500  1
  Co  Co42  1  0.16701400  0.57152700  0.58242900  1
  Co  Co43  1  0.15392800  0.95045800  0.24903700  1
  O  O44  1  0.44319000  0.13931400  0.67791100  1
  O  O45  1  0.43188400  0.49047800  0.34016100  1
  O  O46  1  0.43647200  0.82699500  0.00284400  1
  O  O47  1  0.56408100  0.32788500  0.83658300  1
  O  O48  1  0.55761300  0.67281800  0.51169700  1
  O  O49  1  0.56627800  0.00128000  0.17301600  1
  O  O50  1  0.05761300  0.32718200  0.98830300  1
  O  O51  1  0.06408100  0.67211500  0.66341700  1
  O  O52  1  0.06627800  0.99872000  0.32698400  1
  O  O53  1  0.94319000  0.86068600  0.82208900  1
  O  O54  1  0.93647200  0.17300500  0.49715600  1
  O  O55  1  0.93188400  0.50952200  0.15983900  1
  O  O56  1  0.56352800  0.17300500  0.99715600  1
  O  O57  1  0.56811600  0.50952200  0.65983900  1
  O  O58  1  0.55681000  0.86068600  0.32208900  1
  O  O59  1  0.43372200  0.99872000  0.82698400  1
  O  O60  1  0.44238700  0.32718200  0.48830300  1
  O  O61  1  0.43591900  0.67211500  0.16341700  1
  O  O62  1  0.93372200  0.00128000  0.67301600  1
  O  O63  1  0.93591900  0.32788500  0.33658300  1
  O  O64  1  0.94238700  0.67281800  0.01169700  1
  O  O65  1  0.06811600  0.49047800  0.84016100  1
  O  O66  1  0.06352800  0.82699500  0.50284400  1
  O  O67  1  0.05681000  0.13931400  0.17791100  1
  O  O68  1  0.23275600  0.81610100  0.82924100  1
  O  O69  1  0.22867100  0.14264900  0.49191900  1
  O  O70  1  0.22595000  0.49786300  0.16675400  1
  O  O71  1  0.77488300  0.33639800  0.00200600  1
  O  O72  1  0.76832000  0.69305800  0.66437500  1
  O  O73  1  0.77147300  0.03856300  0.32610600  1
  O  O74  1  0.26832000  0.30694200  0.83562500  1
  O  O75  1  0.27488300  0.66360200  0.49799400  1
  O  O76  1  0.27147300  0.96143700  0.17389400  1
  O  O77  1  0.73275600  0.18389900  0.67075900  1
  O  O78  1  0.72595000  0.50213700  0.33324600  1
  O  O79  1  0.72867100  0.85735100  0.00808100  1
  O  O80  1  0.77405000  0.50213700  0.83324600  1
  O  O81  1  0.77132900  0.85735100  0.50808100  1
  O  O82  1  0.76724400  0.18389900  0.17075900  1
  O  O83  1  0.22852700  0.96143700  0.67389400  1
  O  O84  1  0.23168000  0.30694200  0.33562500  1
  O  O85  1  0.22511700  0.66360200  0.99799400  1
  O  O86  1  0.72852700  0.03856300  0.82610600  1
  O  O87  1  0.72511700  0.33639800  0.50200600  1
  O  O88  1  0.73168000  0.69305800  0.16437500  1
  O  O89  1  0.27132900  0.14264900  0.99191900  1
  O  O90  1  0.27405000  0.49786300  0.66675400  1
  O  O91  1  0.26724400  0.81610100  0.32924100  1
  O  O92  1  0.10213400  0.01870200  0.91306400  1
  O  O93  1  0.09364300  0.35374000  0.58314400  1
  O  O94  1  0.10015800  0.67740700  0.25255400  1
  O  O95  1  0.89984200  0.32259300  0.74744600  1
  O  O96  1  0.90635700  0.64626000  0.41685600  1
  O  O97  1  0.89786600  0.98129800  0.08693600  1
  O  O98  1  0.39984200  0.67740700  0.75255400  1
  O  O99  1  0.39786600  0.01870200  0.41306400  1
  O  O100  1  0.40635700  0.35374000  0.08314400  1
  O  O101  1  0.59364300  0.64626000  0.91685600  1
  O  O102  1  0.60213400  0.98129800  0.58693600  1
  O  O103  1  0.60015800  0.32259300  0.24744600  1
