# generated using pymatgen
data_Ca(VS2)2
_symmetry_space_group_name_H-M   'P 1'
_cell_length_a   7.51047952
_cell_length_b   7.51047952
_cell_length_c   7.51047952
_cell_angle_alpha   60.00000000
_cell_angle_beta   60.00000000
_cell_angle_gamma   60.00000000
_symmetry_Int_Tables_number   1
_chemical_formula_structural   Ca(VS2)2
_chemical_formula_sum   'Ca2 V4 S8'
_cell_volume   299.56288267
_cell_formula_units_Z   2
loop_
 _symmetry_equiv_pos_site_id
 _symmetry_equiv_pos_as_xyz
  1  'x, y, z'
loop_
 _atom_site_type_symbol
 _atom_site_label
 _atom_site_symmetry_multiplicity
 _atom_site_fract_x
 _atom_site_fract_y
 _atom_site_fract_z
 _atom_site_occupancy
  Ca  Ca0  1  0.25000000  0.25000000  0.25000000  1
  Ca  Ca1  1  0.00000000  0.00000000  0.00000000  1
  V  V2  1  0.62500000  0.12500000  0.62500000  1
  V  V3  1  0.62500000  0.62500000  0.12500000  1
  V  V4  1  0.12500000  0.62500000  0.62500000  1
  V  V5  1  0.62500000  0.62500000  0.62500000  1
  S  S6  1  0.39285400  0.82143900  0.39285400  1
  S  S7  1  0.85714600  0.85714600  0.42856100  1
  S  S8  1  0.85714600  0.85714600  0.85714600  1
  S  S9  1  0.42856100  0.85714600  0.85714600  1
  S  S10  1  0.39285400  0.39285400  0.39285400  1
  S  S11  1  0.82143900  0.39285400  0.39285400  1
  S  S12  1  0.85714600  0.42856100  0.85714600  1
  S  S13  1  0.39285400  0.39285400  0.82143900  1
