# generated using pymatgen
data_La2ZnBiO6
_symmetry_space_group_name_H-M   'P 1'
_cell_length_a   5.85738180
_cell_length_b   5.85738180
_cell_length_c   5.85738121
_cell_angle_alpha   61.22028490
_cell_angle_beta   61.22028490
_cell_angle_gamma   61.22027690
_symmetry_Int_Tables_number   1
_chemical_formula_structural   La2ZnBiO6
_chemical_formula_sum   'La2 Zn1 Bi1 O6'
_cell_volume   146.00049414
_cell_formula_units_Z   1
loop_
 _symmetry_equiv_pos_site_id
 _symmetry_equiv_pos_as_xyz
  1  'x, y, z'
loop_
 _atom_site_type_symbol
 _atom_site_label
 _atom_site_symmetry_multiplicity
 _atom_site_fract_x
 _atom_site_fract_y
 _atom_site_fract_z
 _atom_site_occupancy
  La  La0  1  0.75029600  0.75029600  0.75029600  1
  La  La1  1  0.24970400  0.24970400  0.24970400  1
  Zn  Zn2  1  0.50000000  0.50000000  0.50000000  1
  Bi  Bi3  1  0.00000000  0.00000000  0.00000000  1
  O  O4  1  0.74371000  0.36364800  0.15173400  1
  O  O5  1  0.15173400  0.74371000  0.36364800  1
  O  O6  1  0.36364800  0.15173400  0.74371000  1
  O  O7  1  0.25629000  0.63635200  0.84826600  1
  O  O8  1  0.63635200  0.84826600  0.25629000  1
  O  O9  1  0.84826600  0.25629000  0.63635200  1
