# generated using pymatgen
data_MgSnO2
_symmetry_space_group_name_H-M   'P 1'
_cell_length_a   3.19002800
_cell_length_b   8.76029219
_cell_length_c   9.01637551
_cell_angle_alpha   92.33701968
_cell_angle_beta   97.64192149
_cell_angle_gamma   93.76952244
_symmetry_Int_Tables_number   1
_chemical_formula_structural   MgSnO2
_chemical_formula_sum   'Mg4 Sn4 O8'
_cell_volume   248.87711627
_cell_formula_units_Z   4
loop_
 _symmetry_equiv_pos_site_id
 _symmetry_equiv_pos_as_xyz
  1  'x, y, z'
loop_
 _atom_site_type_symbol
 _atom_site_label
 _atom_site_symmetry_multiplicity
 _atom_site_fract_x
 _atom_site_fract_y
 _atom_site_fract_z
 _atom_site_occupancy
  Mg  Mg0  1  0.06795400  0.24402000  0.54961400  1
  Mg  Mg1  1  0.93204600  0.75598000  0.45038600  1
  Mg  Mg2  1  0.42204300  0.42058600  0.25885100  1
  Mg  Mg3  1  0.57795700  0.57941400  0.74114900  1
  Sn  Sn4  1  0.55619700  0.94396100  0.76509200  1
  Sn  Sn5  1  0.98288000  0.32053200  0.90104700  1
  Sn  Sn6  1  0.01712000  0.67946800  0.09895300  1
  Sn  Sn7  1  0.44380300  0.05603900  0.23490800  1
  O  O8  1  0.96256900  0.95011700  0.34186600  1
  O  O9  1  0.13350300  0.56678800  0.87681200  1
  O  O10  1  0.86649700  0.43321200  0.12318800  1
  O  O11  1  0.03743100  0.04988300  0.65813400  1
  O  O12  1  0.48136700  0.74816400  0.60584100  1
  O  O13  1  0.61109700  0.35855100  0.68493400  1
  O  O14  1  0.51863300  0.25183600  0.39415900  1
  O  O15  1  0.38890300  0.64144900  0.31506600  1
