# generated using pymatgen
data_Zr40S27
_symmetry_space_group_name_H-M   'P 1'
_cell_length_a   3.38860834
_cell_length_b   3.38860834
_cell_length_c   137.70235000
_cell_angle_alpha   90.00000000
_cell_angle_beta   90.00000000
_cell_angle_gamma   120.00000657
_symmetry_Int_Tables_number   1
_chemical_formula_structural   Zr40S27
_chemical_formula_sum   'Zr40 S27'
_cell_volume   1369.35075226
_cell_formula_units_Z   1
loop_
 _symmetry_equiv_pos_site_id
 _symmetry_equiv_pos_as_xyz
  1  'x, y, z'
loop_
 _atom_site_type_symbol
 _atom_site_label
 _atom_site_symmetry_multiplicity
 _atom_site_fract_x
 _atom_site_fract_y
 _atom_site_fract_z
 _atom_site_occupancy
  Zr  Zr0  1  0.00000000  0.00000000  0.02500700  1
  Zr  Zr1  1  0.00000000  0.00000000  0.05104400  1
  Zr  Zr2  1  0.00000000  0.00000000  0.07567500  1
  Zr  Zr3  1  0.00000000  0.00000000  0.10006000  1
  Zr  Zr4  1  0.00000000  0.00000000  0.12493600  1
  Zr  Zr5  1  0.00000000  0.00000000  0.14996400  1
  Zr  Zr6  1  0.00000000  0.00000000  0.17498800  1
  Zr  Zr7  1  0.00000000  0.00000000  0.20002900  1
  Zr  Zr8  1  0.00000000  0.00000000  0.22506900  1
  Zr  Zr9  1  0.00000000  0.00000000  0.24994000  1
  Zr  Zr10  1  0.00000000  0.00000000  0.29900100  1
  Zr  Zr11  1  0.00000000  0.00000000  0.34948100  1
  Zr  Zr12  1  0.00000000  0.00000000  0.39872500  1
  Zr  Zr13  1  0.00000000  0.00000000  0.42431200  1
  Zr  Zr14  1  0.00000000  0.00000000  0.44975700  1
  Zr  Zr15  1  0.00000000  0.00000000  0.49999200  1
  Zr  Zr16  1  0.00000000  0.00000000  0.59999800  1
  Zr  Zr17  1  0.00000000  0.00000000  0.62500200  1
  Zr  Zr18  1  0.00000000  0.00000000  0.70000300  1
  Zr  Zr19  1  0.00000000  0.00000000  0.77500300  1
  Zr  Zr20  1  0.00000000  0.00000000  0.80000600  1
  Zr  Zr21  1  0.00000000  0.00000000  0.82500300  1
  Zr  Zr22  1  0.00000000  0.00000000  0.85000500  1
  Zr  Zr23  1  0.00000000  0.00000000  0.87499700  1
  Zr  Zr24  1  0.00000000  0.00000000  0.90000300  1
  Zr  Zr25  1  0.00000000  0.00000000  0.97569800  1
  Zr  Zr26  1  0.00000000  0.00000000  0.00131700  1
  Zr  Zr27  1  0.00000000  0.00000000  0.47494700  1
  Zr  Zr28  1  0.00000000  0.00000000  0.57500000  1
  Zr  Zr29  1  0.00000000  0.00000000  0.67500200  1
  Zr  Zr30  1  0.00000000  0.00000000  0.95024300  1
  Zr  Zr31  1  0.00000000  0.00000000  0.27432600  1
  Zr  Zr32  1  0.00000000  0.00000000  0.32518600  1
  Zr  Zr33  1  0.00000000  0.00000000  0.37522100  1
  Zr  Zr34  1  0.00000000  0.00000000  0.52499900  1
  Zr  Zr35  1  0.00000000  0.00000000  0.54999500  1
  Zr  Zr36  1  0.00000000  0.00000000  0.65000100  1
  Zr  Zr37  1  0.00000000  0.00000000  0.72500300  1
  Zr  Zr38  1  0.00000000  0.00000000  0.75000400  1
  Zr  Zr39  1  0.00000000  0.00000000  0.92505000  1
  S  S40  1  0.33333300  0.66666700  0.03794200  1
  S  S41  1  0.33333300  0.66666700  0.31214500  1
  S  S42  1  0.33333300  0.66666700  0.36240000  1
  S  S43  1  0.33333300  0.66666700  0.43708600  1
  S  S44  1  0.33333300  0.66666700  0.41151300  1
  S  S45  1  0.33333300  0.66666700  0.46238500  1
  S  S46  1  0.33333300  0.66666700  0.48748200  1
  S  S47  1  0.33333300  0.66666700  0.51249500  1
  S  S48  1  0.33333300  0.66666700  0.56249600  1
  S  S49  1  0.33333300  0.66666700  0.53749500  1
  S  S50  1  0.33333300  0.66666700  0.58749700  1
  S  S51  1  0.33333300  0.66666700  0.61249900  1
  S  S52  1  0.33333300  0.66666700  0.63750200  1
  S  S53  1  0.33333300  0.66666700  0.68750200  1
  S  S54  1  0.33333300  0.66666700  0.66250200  1
  S  S55  1  0.33333300  0.66666700  0.71250100  1
  S  S56  1  0.33333300  0.66666700  0.73750400  1
  S  S57  1  0.33333300  0.66666700  0.76250400  1
  S  S58  1  0.33333300  0.66666700  0.78750500  1
  S  S59  1  0.33333300  0.66666700  0.81250400  1
  S  S60  1  0.33333300  0.66666700  0.83750300  1
  S  S61  1  0.33333300  0.66666700  0.86250300  1
  S  S62  1  0.33333300  0.66666700  0.91251300  1
  S  S63  1  0.33333300  0.66666700  0.88749900  1
  S  S64  1  0.33333300  0.66666700  0.93760700  1
  S  S65  1  0.33333300  0.66666700  0.96291500  1
  S  S66  1  0.33333300  0.66666700  0.98850500  1
