# generated using pymatgen
data_Cu3(GeO3)4
_symmetry_space_group_name_H-M   'P 1'
_cell_length_a   6.27032703
_cell_length_b   6.27032703
_cell_length_c   6.27032703
_cell_angle_alpha   109.47122063
_cell_angle_beta   109.47122063
_cell_angle_gamma   109.47122063
_symmetry_Int_Tables_number   1
_chemical_formula_structural   Cu3(GeO3)4
_chemical_formula_sum   'Cu3 Ge4 O12'
_cell_volume   189.77923257
_cell_formula_units_Z   1
loop_
 _symmetry_equiv_pos_site_id
 _symmetry_equiv_pos_as_xyz
  1  'x, y, z'
loop_
 _atom_site_type_symbol
 _atom_site_label
 _atom_site_symmetry_multiplicity
 _atom_site_fract_x
 _atom_site_fract_y
 _atom_site_fract_z
 _atom_site_occupancy
  Cu  Cu0  1  0.50000000  0.50000000  0.00000000  1
  Cu  Cu1  1  0.50000000  0.00000000  0.50000000  1
  Cu  Cu2  1  0.00000000  0.50000000  0.50000000  1
  Ge  Ge3  1  0.00000000  0.00000000  0.50000000  1
  Ge  Ge4  1  0.00000000  0.50000000  0.00000000  1
  Ge  Ge5  1  0.50000000  0.50000000  0.50000000  1
  Ge  Ge6  1  0.50000000  0.00000000  0.00000000  1
  O  O7  1  0.31339300  0.81620500  0.12959700  1
  O  O8  1  0.68660700  0.18379500  0.87040300  1
  O  O9  1  0.68660700  0.81620500  0.50281200  1
  O  O10  1  0.87040300  0.68660700  0.18379500  1
  O  O11  1  0.81620500  0.12959700  0.31339300  1
  O  O12  1  0.18379500  0.49718800  0.31339300  1
  O  O13  1  0.49718800  0.31339300  0.18379500  1
  O  O14  1  0.18379500  0.87040300  0.68660700  1
  O  O15  1  0.31339300  0.18379500  0.49718800  1
  O  O16  1  0.12959700  0.31339300  0.81620500  1
  O  O17  1  0.81620500  0.50281200  0.68660700  1
  O  O18  1  0.50281200  0.68660700  0.81620500  1
