# generated using pymatgen
data_Y2Cr2O7
_symmetry_space_group_name_H-M   'P 1'
_cell_length_a   7.11401551
_cell_length_b   7.11811301
_cell_length_c   7.14504004
_cell_angle_alpha   60.11112790
_cell_angle_beta   60.22831951
_cell_angle_gamma   60.01958540
_symmetry_Int_Tables_number   1
_chemical_formula_structural   Y2Cr2O7
_chemical_formula_sum   'Y4 Cr4 O14'
_cell_volume   256.53249997
_cell_formula_units_Z   2
loop_
 _symmetry_equiv_pos_site_id
 _symmetry_equiv_pos_as_xyz
  1  'x, y, z'
loop_
 _atom_site_type_symbol
 _atom_site_label
 _atom_site_symmetry_multiplicity
 _atom_site_fract_x
 _atom_site_fract_y
 _atom_site_fract_z
 _atom_site_occupancy
  Y  Y0  1  0.50008800  0.99995500  0.49997200  1
  Y  Y1  1  0.99998900  0.49996600  0.49997000  1
  Y  Y2  1  0.50004800  0.49990800  0.00003500  1
  Y  Y3  1  0.50013000  0.49988300  0.49999400  1
  Cr  Cr4  1  0.00002800  0.49997300  0.00009300  1
  Cr  Cr5  1  0.50007300  0.00009500  0.00003300  1
  Cr  Cr6  1  0.99981200  0.00014700  0.49986400  1
  Cr  Cr7  1  0.99972600  0.00018800  0.00011900  1
  O  O8  1  0.62477500  0.62418600  0.62734300  1
  O  O9  1  0.37525100  0.37571800  0.37272500  1
  O  O10  1  0.32591300  0.92891500  0.91410900  1
  O  O11  1  0.08193600  0.66481400  0.67819300  1
  O  O12  1  0.91837700  0.32794200  0.92401700  1
  O  O13  1  0.92636500  0.91311000  0.33383000  1
  O  O14  1  0.33444400  0.32309900  0.92255500  1
  O  O15  1  0.32675000  0.91798500  0.33319200  1
  O  O16  1  0.91810100  0.33526500  0.32173000  1
  O  O17  1  0.66549800  0.67691700  0.07744700  1
  O  O18  1  0.07373800  0.08687300  0.66613000  1
  O  O19  1  0.67407600  0.07099000  0.08588700  1
  O  O20  1  0.67321200  0.08191800  0.66690700  1
  O  O21  1  0.08167100  0.67215200  0.07585500  1
