# generated using pymatgen
data_ZnFeF5
_symmetry_space_group_name_H-M   'P 1'
_cell_length_a   5.34943995
_cell_length_b   5.34943995
_cell_length_c   7.63555501
_cell_angle_alpha   68.77319665
_cell_angle_beta   68.77319665
_cell_angle_gamma   71.91164322
_symmetry_Int_Tables_number   1
_chemical_formula_structural   ZnFeF5
_chemical_formula_sum   'Zn2 Fe2 F10'
_cell_volume   185.76931275
_cell_formula_units_Z   2
loop_
 _symmetry_equiv_pos_site_id
 _symmetry_equiv_pos_as_xyz
  1  'x, y, z'
loop_
 _atom_site_type_symbol
 _atom_site_label
 _atom_site_symmetry_multiplicity
 _atom_site_fract_x
 _atom_site_fract_y
 _atom_site_fract_z
 _atom_site_occupancy
  Zn  Zn0  1  0.52660000  0.47340000  0.25000000  1
  Zn  Zn1  1  0.47340000  0.52660000  0.75000000  1
  Fe  Fe2  1  0.00000000  0.00000000  0.00000000  1
  Fe  Fe3  1  0.00000000  0.00000000  0.50000000  1
  F  F4  1  0.11401200  0.88598800  0.75000000  1
  F  F5  1  0.88598800  0.11401200  0.25000000  1
  F  F6  1  0.72395300  0.78166800  0.63537200  1
  F  F7  1  0.21833200  0.27604700  0.86462800  1
  F  F8  1  0.68721800  0.28538000  0.95507300  1
  F  F9  1  0.71462000  0.31278200  0.54492700  1
  F  F10  1  0.31278200  0.71462000  0.04492700  1
  F  F11  1  0.28538000  0.68721800  0.45507300  1
  F  F12  1  0.78166800  0.72395300  0.13537200  1
  F  F13  1  0.27604700  0.21833200  0.36462800  1
