# generated using pymatgen
data_MgMnF5
_symmetry_space_group_name_H-M   'P 1'
_cell_length_a   5.28557806
_cell_length_b   5.29977263
_cell_length_c   7.68188357
_cell_angle_alpha   99.56782568
_cell_angle_beta   107.12654823
_cell_angle_gamma   110.19719209
_symmetry_Int_Tables_number   1
_chemical_formula_structural   MgMnF5
_chemical_formula_sum   'Mg2 Mn2 F10'
_cell_volume   184.19044913
_cell_formula_units_Z   2
loop_
 _symmetry_equiv_pos_site_id
 _symmetry_equiv_pos_as_xyz
  1  'x, y, z'
loop_
 _atom_site_type_symbol
 _atom_site_label
 _atom_site_symmetry_multiplicity
 _atom_site_fract_x
 _atom_site_fract_y
 _atom_site_fract_z
 _atom_site_occupancy
  Mg  Mg0  1  0.27677000  0.52301500  0.75278700  1
  Mg  Mg1  1  0.72554100  0.47885000  0.24509300  1
  Mn  Mn2  1  0.00164000  0.00091400  0.99858400  1
  Mn  Mn3  1  0.50151800  0.00084400  0.49969300  1
  F  F4  1  0.40127600  0.14949000  0.25001300  1
  F  F5  1  0.60177500  0.85095600  0.74843400  1
  F  F6  1  0.59797600  0.73981700  0.36955500  1
  F  F7  1  0.86125700  0.22220200  0.12386100  1
  F  F8  1  0.77307800  0.68742400  0.05666000  1
  F  F9  1  0.12682900  0.71180400  0.43654600  1
  F  F10  1  0.23445200  0.31662700  0.94401900  1
  F  F11  1  0.87652800  0.28763100  0.56322600  1
  F  F12  1  0.13521300  0.77603800  0.87100000  1
  F  F13  1  0.40742900  0.26235600  0.63123800  1
