# generated using pymatgen
data_Sr16La3Co11(Cu4O23)2
_symmetry_space_group_name_H-M   'P 1'
_cell_length_a   3.94571700
_cell_length_b   3.94571700
_cell_length_c   69.62783400
_cell_angle_alpha   90.00000000
_cell_angle_beta   90.00000000
_cell_angle_gamma   90.00000000
_symmetry_Int_Tables_number   1
_chemical_formula_structural   Sr16La3Co11(Cu4O23)2
_chemical_formula_sum   'Sr16 La3 Co11 Cu8 O46'
_cell_volume   1084.01365074
_cell_formula_units_Z   1
loop_
 _symmetry_equiv_pos_site_id
 _symmetry_equiv_pos_as_xyz
  1  'x, y, z'
loop_
 _atom_site_type_symbol
 _atom_site_label
 _atom_site_symmetry_multiplicity
 _atom_site_fract_x
 _atom_site_fract_y
 _atom_site_fract_z
 _atom_site_occupancy
  Sr  Sr0  1  0.50000000  0.50000000  0.02799700  1
  Sr  Sr1  1  0.50000000  0.50000000  0.08085000  1
  Sr  Sr2  1  0.50000000  0.50000000  0.13225300  1
  Sr  Sr3  1  0.50000000  0.50000000  0.18439800  1
  Sr  Sr4  1  0.50000000  0.50000000  0.23691500  1
  Sr  Sr5  1  0.50000000  0.50000000  0.28944700  1
  Sr  Sr6  1  0.50000000  0.50000000  0.34190200  1
  Sr  Sr7  1  0.50000000  0.50000000  0.39413400  1
  Sr  Sr8  1  0.50000000  0.50000000  0.44578800  1
  Sr  Sr9  1  0.50000000  0.50000000  0.49953700  1
  Sr  Sr10  1  0.50000000  0.50000000  0.55262200  1
  Sr  Sr11  1  0.50000000  0.50000000  0.60536000  1
  Sr  Sr12  1  0.50000000  0.50000000  0.65796300  1
  Sr  Sr13  1  0.50000000  0.50000000  0.71039100  1
  Sr  Sr14  1  0.50000000  0.50000000  0.76245500  1
  Sr  Sr15  1  0.50000000  0.50000000  0.81390600  1
  La  La16  1  0.50000000  0.50000000  0.86679300  1
  La  La17  1  0.50000000  0.50000000  0.92071100  1
  La  La18  1  0.50000000  0.50000000  0.97511800  1
  Co  Co19  1  0.00000000  0.00000000  0.00260300  1
  Co  Co20  1  0.00000000  0.00000000  0.05328300  1
  Co  Co21  1  0.00000000  0.00000000  0.68408600  1
  Co  Co22  1  0.00000000  0.00000000  0.78877700  1
  Co  Co23  1  0.00000000  0.00000000  0.84131100  1
  Co  Co24  1  0.00000000  0.00000000  0.89473500  1
  Co  Co25  1  0.00000000  0.00000000  0.47338800  1
  Co  Co26  1  0.00000000  0.00000000  0.52497600  1
  Co  Co27  1  0.00000000  0.00000000  0.63111500  1
  Co  Co28  1  0.00000000  0.00000000  0.73658300  1
  Co  Co29  1  0.00000000  0.00000000  0.94785600  1
  Cu  Cu30  1  0.00000000  0.00000000  0.10556400  1
  Cu  Cu31  1  0.00000000  0.00000000  0.21053800  1
  Cu  Cu32  1  0.00000000  0.00000000  0.42083500  1
  Cu  Cu33  1  0.00000000  0.00000000  0.15797600  1
  Cu  Cu34  1  0.00000000  0.00000000  0.26316200  1
  Cu  Cu35  1  0.00000000  0.00000000  0.31577800  1
  Cu  Cu36  1  0.00000000  0.00000000  0.36834600  1
  Cu  Cu37  1  0.00000000  0.00000000  0.57741500  1
  O  O38  1  0.00000000  0.50000000  0.00293200  1
  O  O39  1  0.00000000  0.50000000  0.10540300  1
  O  O40  1  0.00000000  0.50000000  0.21050800  1
  O  O41  1  0.00000000  0.50000000  0.42104900  1
  O  O42  1  0.00000000  0.00000000  0.65806100  1
  O  O43  1  0.00000000  0.00000000  0.71047500  1
  O  O44  1  0.00000000  0.50000000  0.68437000  1
  O  O45  1  0.00000000  0.00000000  0.81587200  1
  O  O46  1  0.00000000  0.00000000  0.92151800  1
  O  O47  1  0.00000000  0.00000000  0.97414300  1
  O  O48  1  0.50000000  0.00000000  0.00293200  1
  O  O49  1  0.50000000  0.00000000  0.05338300  1
  O  O50  1  0.50000000  0.00000000  0.10540300  1
  O  O51  1  0.50000000  0.00000000  0.15789700  1
  O  O52  1  0.50000000  0.00000000  0.21050800  1
  O  O53  1  0.50000000  0.00000000  0.26316300  1
  O  O54  1  0.50000000  0.00000000  0.31581100  1
  O  O55  1  0.50000000  0.00000000  0.36844800  1
  O  O56  1  0.50000000  0.00000000  0.42104900  1
  O  O57  1  0.50000000  0.00000000  0.47341000  1
  O  O58  1  0.50000000  0.00000000  0.52466300  1
  O  O59  1  0.50000000  0.00000000  0.57457900  1
  O  O60  1  0.50000000  0.00000000  0.68437000  1
  O  O61  1  0.50000000  0.00000000  0.63181700  1
  O  O62  1  0.50000000  0.00000000  0.78958200  1
  O  O63  1  0.50000000  0.00000000  0.73678000  1
  O  O64  1  0.50000000  0.00000000  0.84372000  1
  O  O65  1  0.50000000  0.00000000  0.89548800  1
  O  O66  1  0.50000000  0.00000000  0.94776200  1
  O  O67  1  0.00000000  0.50000000  0.05338300  1
  O  O68  1  0.00000000  0.50000000  0.15789700  1
  O  O69  1  0.00000000  0.50000000  0.26316300  1
  O  O70  1  0.00000000  0.50000000  0.31581100  1
  O  O71  1  0.00000000  0.50000000  0.36844800  1
  O  O72  1  0.00000000  0.50000000  0.47341000  1
  O  O73  1  0.00000000  0.50000000  0.52466300  1
  O  O74  1  0.00000000  0.50000000  0.57457900  1
  O  O75  1  0.00000000  0.50000000  0.63181700  1
  O  O76  1  0.00000000  0.50000000  0.73678000  1
  O  O77  1  0.00000000  0.00000000  0.60585900  1
  O  O78  1  0.00000000  0.00000000  0.76294400  1
  O  O79  1  0.00000000  0.50000000  0.78958200  1
  O  O80  1  0.00000000  0.50000000  0.84372000  1
  O  O81  1  0.00000000  0.50000000  0.89548800  1
  O  O82  1  0.00000000  0.50000000  0.94776200  1
  O  O83  1  0.00000000  0.00000000  0.86852100  1
