# generated using pymatgen
data_MnZnF5
_symmetry_space_group_name_H-M   'P 1'
_cell_length_a   5.35667110
_cell_length_b   5.35667110
_cell_length_c   8.05512266
_cell_angle_alpha   67.12669538
_cell_angle_beta   67.12669538
_cell_angle_gamma   69.24966732
_symmetry_Int_Tables_number   1
_chemical_formula_structural   MnZnF5
_chemical_formula_sum   'Mn2 Zn2 F10'
_cell_volume   190.50802006
_cell_formula_units_Z   2
loop_
 _symmetry_equiv_pos_site_id
 _symmetry_equiv_pos_as_xyz
  1  'x, y, z'
loop_
 _atom_site_type_symbol
 _atom_site_label
 _atom_site_symmetry_multiplicity
 _atom_site_fract_x
 _atom_site_fract_y
 _atom_site_fract_z
 _atom_site_occupancy
  Mn  Mn0  1  0.00000000  0.00000000  0.50000000  1
  Mn  Mn1  1  0.00000000  0.00000000  0.00000000  1
  Zn  Zn2  1  0.52168800  0.47831200  0.75000000  1
  Zn  Zn3  1  0.47831200  0.52168800  0.25000000  1
  F  F4  1  0.14607300  0.85392700  0.25000000  1
  F  F5  1  0.85392700  0.14607300  0.75000000  1
  F  F6  1  0.73755600  0.77889400  0.12527600  1
  F  F7  1  0.22110600  0.26244400  0.37472400  1
  F  F8  1  0.68321100  0.28343400  0.44046000  1
  F  F9  1  0.71656600  0.31678900  0.05954000  1
  F  F10  1  0.31678900  0.71656600  0.55954000  1
  F  F11  1  0.28343400  0.68321100  0.94046000  1
  F  F12  1  0.77889400  0.73755600  0.62527600  1
  F  F13  1  0.26244400  0.22110600  0.87472400  1
