# generated using pymatgen
data_MgV6(FeO6)4
_symmetry_space_group_name_H-M   'P 1'
_cell_length_a   6.76861300
_cell_length_b   8.38727414
_cell_length_c   10.01661374
_cell_angle_alpha   107.33422865
_cell_angle_beta   105.04339147
_cell_angle_gamma   103.77656632
_symmetry_Int_Tables_number   1
_chemical_formula_structural   MgV6(FeO6)4
_chemical_formula_sum   'Mg1 V6 Fe4 O24'
_cell_volume   492.56707479
_cell_formula_units_Z   1
loop_
 _symmetry_equiv_pos_site_id
 _symmetry_equiv_pos_as_xyz
  1  'x, y, z'
loop_
 _atom_site_type_symbol
 _atom_site_label
 _atom_site_symmetry_multiplicity
 _atom_site_fract_x
 _atom_site_fract_y
 _atom_site_fract_z
 _atom_site_occupancy
  Mg  Mg0  1  0.00000000  0.50000000  0.50000000  1
  V  V1  1  0.79609500  0.33393600  0.73422800  1
  V  V2  1  0.20390500  0.66606400  0.26577200  1
  V  V3  1  0.88496600  0.89387800  0.66126400  1
  V  V4  1  0.38976900  0.74545300  0.86023400  1
  V  V5  1  0.11503400  0.10612200  0.33873600  1
  V  V6  1  0.61023100  0.25454700  0.13976600  1
  Fe  Fe7  1  0.37230100  0.96115600  0.60493500  1
  Fe  Fe8  1  0.62769900  0.03884400  0.39506500  1
  Fe  Fe9  1  0.05254600  0.20533800  0.01469000  1
  Fe  Fe10  1  0.94745400  0.79466200  0.98531000  1
  O  O11  1  0.84753400  0.67799700  0.58234500  1
  O  O12  1  0.15246600  0.32200300  0.41765500  1
  O  O13  1  0.22110900  0.55458300  0.71150500  1
  O  O14  1  0.77889100  0.44541700  0.28849500  1
  O  O15  1  0.79300200  0.28675300  0.54521100  1
  O  O16  1  0.20699800  0.71324700  0.45478900  1
  O  O17  1  0.65873100  0.95411700  0.56987400  1
  O  O18  1  0.34126900  0.04588300  0.43012600  1
  O  O19  1  0.63752600  0.74169400  0.96515800  1
  O  O20  1  0.36247400  0.25830600  0.03484200  1
  O  O21  1  0.45758000  0.78121200  0.27162900  1
  O  O22  1  0.54242000  0.21878800  0.72837100  1
  O  O23  1  0.11673900  0.00472400  0.64147900  1
  O  O24  1  0.06735100  0.05618400  0.14248200  1
  O  O25  1  0.93264900  0.94381600  0.85751800  1
  O  O26  1  0.55070600  0.10064100  0.22240800  1
  O  O27  1  0.44929400  0.89935900  0.77759200  1
  O  O28  1  0.16299000  0.44469500  0.17686100  1
  O  O29  1  0.83701000  0.55530500  0.82313900  1
  O  O30  1  0.98976000  0.27420000  0.84248700  1
  O  O31  1  0.01024000  0.72580000  0.15751300  1
  O  O32  1  0.24165500  0.80600900  0.97699500  1
  O  O33  1  0.75834500  0.19399100  0.02300500  1
  O  O34  1  0.88326100  0.99527600  0.35852100  1
