# generated using pymatgen
data_Mg2NiSbO6
_symmetry_space_group_name_H-M   'P 1'
_cell_length_a   7.49876100
_cell_length_b   5.22755200
_cell_length_c   5.32095522
_cell_angle_alpha   86.44199662
_cell_angle_beta   90.00000000
_cell_angle_gamma   90.00000000
_symmetry_Int_Tables_number   1
_chemical_formula_structural   Mg2NiSbO6
_chemical_formula_sum   'Mg4 Ni2 Sb2 O12'
_cell_volume   208.18026678
_cell_formula_units_Z   2
loop_
 _symmetry_equiv_pos_site_id
 _symmetry_equiv_pos_as_xyz
  1  'x, y, z'
loop_
 _atom_site_type_symbol
 _atom_site_label
 _atom_site_symmetry_multiplicity
 _atom_site_fract_x
 _atom_site_fract_y
 _atom_site_fract_z
 _atom_site_occupancy
  Mg  Mg0  1  0.75000000  0.47520800  0.57231100  1
  Mg  Mg1  1  0.25000000  0.52479200  0.42768900  1
  Mg  Mg2  1  0.75000000  0.98359700  0.03393000  1
  Mg  Mg3  1  0.25000000  0.01640300  0.96607000  1
  Ni  Ni4  1  0.50000000  0.50000000  0.00000000  1
  Ni  Ni5  1  0.00000000  0.50000000  0.00000000  1
  Sb  Sb6  1  0.50000000  0.00000000  0.50000000  1
  Sb  Sb7  1  0.00000000  0.00000000  0.50000000  1
  O  O8  1  0.43391800  0.67162300  0.68305300  1
  O  O9  1  0.07058300  0.83156100  0.19566500  1
  O  O10  1  0.93391800  0.32837700  0.31694700  1
  O  O11  1  0.57058300  0.16843900  0.80433400  1
  O  O12  1  0.42941700  0.83156100  0.19566500  1
  O  O13  1  0.92941700  0.16843900  0.80433400  1
  O  O14  1  0.25000000  0.13663600  0.57817400  1
  O  O15  1  0.06608200  0.67162300  0.68305300  1
  O  O16  1  0.75000000  0.61891200  0.92508600  1
  O  O17  1  0.56608200  0.32837700  0.31694700  1
  O  O18  1  0.75000000  0.86336400  0.42182600  1
  O  O19  1  0.25000000  0.38108800  0.07491400  1
