# generated using pymatgen
data_TiZn2SbO6
_symmetry_space_group_name_H-M   'P 1'
_cell_length_a   7.86177000
_cell_length_b   5.29643900
_cell_length_c   5.34563952
_cell_angle_alpha   88.86624839
_cell_angle_beta   90.00000000
_cell_angle_gamma   90.00000000
_symmetry_Int_Tables_number   1
_chemical_formula_structural   TiZn2SbO6
_chemical_formula_sum   'Ti2 Zn4 Sb2 O12'
_cell_volume   222.54556686
_cell_formula_units_Z   2
loop_
 _symmetry_equiv_pos_site_id
 _symmetry_equiv_pos_as_xyz
  1  'x, y, z'
loop_
 _atom_site_type_symbol
 _atom_site_label
 _atom_site_symmetry_multiplicity
 _atom_site_fract_x
 _atom_site_fract_y
 _atom_site_fract_z
 _atom_site_occupancy
  Ti  Ti0  1  0.50000000  0.50000000  0.00000000  1
  Ti  Ti1  1  0.00000000  0.50000000  0.00000000  1
  Zn  Zn2  1  0.75000000  0.49761400  0.54574300  1
  Zn  Zn3  1  0.25000000  0.50238600  0.45425700  1
  Zn  Zn4  1  0.75000000  0.98505500  0.02111300  1
  Zn  Zn5  1  0.25000000  0.01494500  0.97888700  1
  Sb  Sb6  1  0.50000000  0.00000000  0.50000000  1
  Sb  Sb7  1  0.00000000  0.00000000  0.50000000  1
  O  O8  1  0.43188600  0.65792700  0.68120600  1
  O  O9  1  0.06916100  0.81677000  0.16809400  1
  O  O10  1  0.93188600  0.34207300  0.31879400  1
  O  O11  1  0.56916100  0.18323000  0.83190600  1
  O  O12  1  0.43083900  0.81677000  0.16809400  1
  O  O13  1  0.93083900  0.18323000  0.83190600  1
  O  O14  1  0.25000000  0.12152100  0.58388700  1
  O  O15  1  0.06811400  0.65792700  0.68120600  1
  O  O16  1  0.75000000  0.61895100  0.92145000  1
  O  O17  1  0.56811400  0.34207300  0.31879400  1
  O  O18  1  0.75000000  0.87847900  0.41611300  1
  O  O19  1  0.25000000  0.38104900  0.07855000  1
