# generated using pymatgen
data_YbAlF5
_symmetry_space_group_name_H-M   'P 1'
_cell_length_a   6.92327698
_cell_length_b   10.20476606
_cell_length_c   10.25025666
_cell_angle_alpha   84.80900060
_cell_angle_beta   71.99246915
_cell_angle_gamma   72.35231246
_symmetry_Int_Tables_number   1
_chemical_formula_structural   YbAlF5
_chemical_formula_sum   'Yb8 Al8 F40'
_cell_volume   656.29552560
_cell_formula_units_Z   8
loop_
 _symmetry_equiv_pos_site_id
 _symmetry_equiv_pos_as_xyz
  1  'x, y, z'
loop_
 _atom_site_type_symbol
 _atom_site_label
 _atom_site_symmetry_multiplicity
 _atom_site_fract_x
 _atom_site_fract_y
 _atom_site_fract_z
 _atom_site_occupancy
  Yb  Yb0  1  0.08641100  0.67750800  0.17922600  1
  Yb  Yb1  1  0.27349300  0.26990800  0.16820100  1
  Yb  Yb2  1  0.27066900  0.81476700  0.68100900  1
  Yb  Yb3  1  0.43652900  0.83128800  0.27720200  1
  Yb  Yb4  1  0.53775300  0.18573700  0.72467500  1
  Yb  Yb5  1  0.71715300  0.18926400  0.32336900  1
  Yb  Yb6  1  0.73479800  0.72653200  0.81443000  1
  Yb  Yb7  1  0.91588700  0.32527400  0.79976800  1
  Al  Al8  1  0.31924000  0.98994500  0.00138700  1
  Al  Al9  1  0.99708100  0.50267900  0.49018000  1
  Al  Al10  1  0.15222300  0.14834900  0.51503200  1
  Al  Al11  1  0.30479000  0.52005400  0.84851800  1
  Al  Al12  1  0.82498600  0.00273900  0.99673900  1
  Al  Al13  1  0.49455800  0.50356100  0.49423100  1
  Al  Al14  1  0.68904400  0.48055000  0.14145200  1
  Al  Al15  1  0.82830400  0.85625200  0.48079700  1
  F  F16  1  0.01651800  0.18516900  0.38058700  1
  F  F17  1  0.29660000  0.03895800  0.17297400  1
  F  F18  1  0.06090300  0.33341400  0.55867200  1
  F  F19  1  0.09697600  0.44977100  0.31138400  1
  F  F20  1  0.23701500  0.49217700  0.02905900  1
  F  F21  1  0.07026000  0.86262800  0.34368200  1
  F  F22  1  0.26247800  0.14545100  0.66126500  1
  F  F23  1  0.30831100  0.82609400  0.07494200  1
  F  F24  1  0.05751100  0.65378600  0.85731500  1
  F  F25  1  0.37486600  0.18786300  0.38261300  1
  F  F26  1  0.24828000  0.51368400  0.47630200  1
  F  F27  1  0.20914900  0.38251400  0.80921100  1
  F  F28  1  0.34545000  0.16073000  0.94909800  1
  F  F29  1  0.42906200  0.61346900  0.19382900  1
  F  F30  1  0.55416500  0.35306400  0.13756900  1
  F  F31  1  0.65252300  0.08842900  0.15492300  1
  F  F32  1  0.25827000  0.96630700  0.49490500  1
  F  F33  1  0.36423400  0.56908100  0.66470200  1
  F  F34  1  0.44758500  0.68462000  0.44942600  1
  F  F35  1  0.53857400  0.32116100  0.54262300  1
  F  F36  1  0.62923100  0.43025700  0.32653600  1
  F  F37  1  0.71750700  0.03840600  0.51500300  1
  F  F38  1  0.43121200  0.65578900  0.85004400  1
  F  F39  1  0.56697000  0.38844400  0.80264000  1
  F  F40  1  0.79207000  0.61297000  0.17669800  1
  F  F41  1  0.38766300  0.93183000  0.82916000  1
  F  F42  1  0.74104100  0.49276700  0.51160600  1
  F  F43  1  0.62083900  0.80320000  0.61562500  1
  F  F44  1  0.93097900  0.33332500  0.13415900  1
  F  F45  1  0.74760900  0.16127900  0.90535800  1
  F  F46  1  0.68737800  0.87386000  0.35466500  1
  F  F47  1  0.89353600  0.84566500  0.08612300  1
  F  F48  1  0.90025100  0.15563000  0.64619600  1
  F  F49  1  0.75900000  0.50748300  0.95874700  1
  F  F50  1  0.89845800  0.54790900  0.67488000  1
  F  F51  1  0.93329400  0.67217600  0.42296100  1
  F  F52  1  0.03790700  0.05873000  0.02594200  1
  F  F53  1  0.61789400  0.92791300  0.96826300  1
  F  F54  1  0.96585900  0.81530300  0.61478400  1
  F  F55  1  0.98805400  0.92528900  0.83551300  1
