# generated using pymatgen
data_ZnCoO2
_symmetry_space_group_name_H-M   'P 1'
_cell_length_a   2.88811100
_cell_length_b   8.24902987
_cell_length_c   8.59226886
_cell_angle_alpha   82.19053873
_cell_angle_beta   80.91457085
_cell_angle_gamma   80.12369166
_symmetry_Int_Tables_number   1
_chemical_formula_structural   ZnCoO2
_chemical_formula_sum   'Zn4 Co4 O8'
_cell_volume   197.89018369
_cell_formula_units_Z   4
loop_
 _symmetry_equiv_pos_site_id
 _symmetry_equiv_pos_as_xyz
  1  'x, y, z'
loop_
 _atom_site_type_symbol
 _atom_site_label
 _atom_site_symmetry_multiplicity
 _atom_site_fract_x
 _atom_site_fract_y
 _atom_site_fract_z
 _atom_site_occupancy
  Zn  Zn0  1  0.64518100  0.26411500  0.92600800  1
  Zn  Zn1  1  0.35481900  0.73588500  0.07399200  1
  Zn  Zn2  1  0.91894600  0.37244200  0.28450000  1
  Zn  Zn3  1  0.08105400  0.62755800  0.71550000  1
  Co  Co4  1  0.37051300  0.94487600  0.81197500  1
  Co  Co5  1  0.79282300  0.30606900  0.61278300  1
  Co  Co6  1  0.20717700  0.69393100  0.38721700  1
  Co  Co7  1  0.62948700  0.05512400  0.18802500  1
  O  O8  1  0.18349100  0.91012200  0.23725700  1
  O  O9  1  0.63164900  0.67811400  0.55367700  1
  O  O10  1  0.36835100  0.32188600  0.44632300  1
  O  O11  1  0.81650900  0.08987800  0.76274300  1
  O  O12  1  0.92878000  0.78223300  0.88388000  1
  O  O13  1  0.15379600  0.38875000  0.78563700  1
  O  O14  1  0.07122000  0.21776700  0.11612000  1
  O  O15  1  0.84620400  0.61125000  0.21436300  1
