# generated using pymatgen
data_V2ZnS5
_symmetry_space_group_name_H-M   'P 1'
_cell_length_a   3.99594000
_cell_length_b   5.93703000
_cell_length_c   14.32306300
_cell_angle_alpha   90.00000000
_cell_angle_beta   90.00000000
_cell_angle_gamma   90.00000000
_symmetry_Int_Tables_number   1
_chemical_formula_structural   V2ZnS5
_chemical_formula_sum   'V4 Zn2 S10'
_cell_volume   339.80057089
_cell_formula_units_Z   2
loop_
 _symmetry_equiv_pos_site_id
 _symmetry_equiv_pos_as_xyz
  1  'x, y, z'
loop_
 _atom_site_type_symbol
 _atom_site_label
 _atom_site_symmetry_multiplicity
 _atom_site_fract_x
 _atom_site_fract_y
 _atom_site_fract_z
 _atom_site_occupancy
  V  V0  1  0.00000000  0.08357900  0.84257300  1
  V  V1  1  0.50000000  0.91642100  0.65742700  1
  V  V2  1  0.50000000  0.91642100  0.34257300  1
  V  V3  1  0.00000000  0.08357900  0.15742700  1
  Zn  Zn4  1  0.50000000  0.68185000  0.00000000  1
  Zn  Zn5  1  0.00000000  0.31815000  0.50000000  1
  S  S6  1  0.50000000  0.07971800  0.50000000  1
  S  S7  1  0.00000000  0.92028200  0.00000000  1
  S  S8  1  0.50000000  0.88545700  0.82292800  1
  S  S9  1  0.00000000  0.11454300  0.67707200  1
  S  S10  1  0.50000000  0.88545700  0.17707200  1
  S  S11  1  0.00000000  0.11454300  0.32292800  1
  S  S12  1  0.00000000  0.41923100  0.11216300  1
  S  S13  1  0.50000000  0.58076900  0.38783700  1
  S  S14  1  0.50000000  0.58076900  0.61216300  1
  S  S15  1  0.00000000  0.41923100  0.88783700  1
