# generated using pymatgen
data_YAgSe2
_symmetry_space_group_name_H-M   'P 1'
_cell_length_a   5.71920300
_cell_length_b   5.72338010
_cell_length_c   7.29562751
_cell_angle_alpha   113.04484790
_cell_angle_beta   112.83428199
_cell_angle_gamma   89.96446155
_symmetry_Int_Tables_number   1
_chemical_formula_structural   YAgSe2
_chemical_formula_sum   'Y2 Ag2 Se4'
_cell_volume   199.28148071
_cell_formula_units_Z   2
loop_
 _symmetry_equiv_pos_site_id
 _symmetry_equiv_pos_as_xyz
  1  'x, y, z'
loop_
 _atom_site_type_symbol
 _atom_site_label
 _atom_site_symmetry_multiplicity
 _atom_site_fract_x
 _atom_site_fract_y
 _atom_site_fract_z
 _atom_site_occupancy
  Y  Y0  1  0.99767600  0.00120700  0.00129700  1
  Y  Y1  1  0.25509300  0.75041100  0.50284600  1
  Ag  Ag2  1  0.49477700  0.50378400  0.99532700  1
  Ag  Ag3  1  0.74574900  0.24882600  0.50461700  1
  Se  Se4  1  0.76540900  0.76173100  0.52752900  1
  Se  Se5  1  0.23425800  0.23732400  0.47607100  1
  Se  Se6  1  0.48608100  0.99197200  0.97687900  1
  Se  Se7  1  0.01228100  0.51481000  0.02821900  1
