# generated using pymatgen
data_YCo3Se2ClO8
_symmetry_space_group_name_H-M   'P 1'
_cell_length_a   6.40497300
_cell_length_b   7.23154900
_cell_length_c   9.65993600
_cell_angle_alpha   90.00000000
_cell_angle_beta   90.00000000
_cell_angle_gamma   90.00000000
_symmetry_Int_Tables_number   1
_chemical_formula_structural   YCo3Se2ClO8
_chemical_formula_sum   'Y2 Co6 Se4 Cl2 O16'
_cell_volume   447.42771872
_cell_formula_units_Z   2
loop_
 _symmetry_equiv_pos_site_id
 _symmetry_equiv_pos_as_xyz
  1  'x, y, z'
loop_
 _atom_site_type_symbol
 _atom_site_label
 _atom_site_symmetry_multiplicity
 _atom_site_fract_x
 _atom_site_fract_y
 _atom_site_fract_z
 _atom_site_occupancy
  Y  Y0  1  0.00000000  0.73739600  0.00000000  1
  Y  Y1  1  0.50000000  0.26260400  0.50000000  1
  Co  Co2  1  0.25000000  0.00000000  0.75000000  1
  Co  Co3  1  0.25000000  0.00000000  0.25000000  1
  Co  Co4  1  0.75000000  0.00000000  0.75000000  1
  Co  Co5  1  0.50000000  0.79391200  0.50000000  1
  Co  Co6  1  0.00000000  0.20608800  0.00000000  1
  Co  Co7  1  0.75000000  0.00000000  0.25000000  1
  Se  Se8  1  0.50000000  0.58954200  0.81105000  1
  Se  Se9  1  0.00000000  0.41045800  0.68895000  1
  Se  Se10  1  0.50000000  0.58954200  0.18895000  1
  Se  Se11  1  0.00000000  0.41045800  0.31105000  1
  Cl  Cl12  1  0.00000000  0.86092000  0.50000000  1
  Cl  Cl13  1  0.50000000  0.13908000  0.00000000  1
  O  O14  1  0.00000000  0.99977700  0.86378700  1
  O  O15  1  0.00000000  0.42439300  0.86888900  1
  O  O16  1  0.50000000  0.57560700  0.36888900  1
  O  O17  1  0.28915300  0.73633500  0.83881700  1
  O  O18  1  0.21084700  0.26366500  0.33881700  1
  O  O19  1  0.78915300  0.26366500  0.33881700  1
  O  O20  1  0.50000000  0.00022300  0.63621300  1
  O  O21  1  0.71084700  0.73633500  0.83881700  1
  O  O22  1  0.71084700  0.73633500  0.16118300  1
  O  O23  1  0.78915300  0.26366500  0.66118300  1
  O  O24  1  0.00000000  0.99977700  0.13621300  1
  O  O25  1  0.50000000  0.00022300  0.36378700  1
  O  O26  1  0.21084700  0.26366500  0.66118300  1
  O  O27  1  0.28915300  0.73633500  0.16118300  1
  O  O28  1  0.50000000  0.57560700  0.63111100  1
  O  O29  1  0.00000000  0.42439300  0.13111100  1
