# generated using pymatgen
data_Mg2VSbO6
_symmetry_space_group_name_H-M   'P 1'
_cell_length_a   7.63927800
_cell_length_b   5.22777700
_cell_length_c   5.38285760
_cell_angle_alpha   88.70794985
_cell_angle_beta   90.00000000
_cell_angle_gamma   90.00000000
_symmetry_Int_Tables_number   1
_chemical_formula_structural   Mg2VSbO6
_chemical_formula_sum   'Mg4 V2 Sb2 O12'
_cell_volume   214.91752238
_cell_formula_units_Z   2
loop_
 _symmetry_equiv_pos_site_id
 _symmetry_equiv_pos_as_xyz
  1  'x, y, z'
loop_
 _atom_site_type_symbol
 _atom_site_label
 _atom_site_symmetry_multiplicity
 _atom_site_fract_x
 _atom_site_fract_y
 _atom_site_fract_z
 _atom_site_occupancy
  Mg  Mg0  1  0.75000000  0.47958200  0.56921500  1
  Mg  Mg1  1  0.25000000  0.52041800  0.43078500  1
  Mg  Mg2  1  0.75000000  0.98685600  0.03424600  1
  Mg  Mg3  1  0.25000000  0.01314400  0.96575400  1
  V  V4  1  0.50000000  0.50000000  0.00000000  1
  V  V5  1  0.00000000  0.50000000  0.00000000  1
  Sb  Sb6  1  0.50000000  0.00000000  0.50000000  1
  Sb  Sb7  1  0.00000000  0.00000000  0.50000000  1
  O  O8  1  0.43143500  0.67895500  0.67733100  1
  O  O9  1  0.06981600  0.83098700  0.19043400  1
  O  O10  1  0.93143500  0.32104500  0.32266900  1
  O  O11  1  0.56981600  0.16901300  0.80956600  1
  O  O12  1  0.43018400  0.83098700  0.19043400  1
  O  O13  1  0.93018400  0.16901300  0.80956600  1
  O  O14  1  0.25000000  0.13875500  0.57191800  1
  O  O15  1  0.06856500  0.67895500  0.67733100  1
  O  O16  1  0.75000000  0.61922500  0.93030400  1
  O  O17  1  0.56856500  0.32104500  0.32266900  1
  O  O18  1  0.75000000  0.86124500  0.42808200  1
  O  O19  1  0.25000000  0.38077500  0.06969600  1
