# generated using pymatgen
data_V2ZnS4
_symmetry_space_group_name_H-M   'P 1'
_cell_length_a   7.13363610
_cell_length_b   7.14195653
_cell_length_c   7.11843397
_cell_angle_alpha   59.86722564
_cell_angle_beta   59.99284872
_cell_angle_gamma   60.12081898
_symmetry_Int_Tables_number   1
_chemical_formula_structural   V2ZnS4
_chemical_formula_sum   'V4 Zn2 S8'
_cell_volume   256.40745228
_cell_formula_units_Z   2
loop_
 _symmetry_equiv_pos_site_id
 _symmetry_equiv_pos_as_xyz
  1  'x, y, z'
loop_
 _atom_site_type_symbol
 _atom_site_label
 _atom_site_symmetry_multiplicity
 _atom_site_fract_x
 _atom_site_fract_y
 _atom_site_fract_z
 _atom_site_occupancy
  V  V0  1  0.49963611  0.49933359  0.49434319  1
  V  V1  1  0.49424818  0.49566929  0.01621134  1
  V  V2  1  0.00641438  0.49920786  0.49473346  1
  V  V3  1  0.49962997  0.00504815  0.49560920  1
  Zn  Zn4  1  0.87659972  0.87629551  0.87073161  1
  Zn  Zn5  1  0.12504137  0.13012367  0.11982141  1
  S  S6  1  0.73897149  0.73634300  0.74283979  1
  S  S7  1  0.25981999  0.25848625  0.72196330  1
  S  S8  1  0.25511325  0.73070732  0.25902882  1
  S  S9  1  0.72642908  0.25580652  0.26101424  1
  S  S10  1  0.73789605  0.28066174  0.74319223  1
  S  S11  1  0.28199655  0.73614150  0.74276207  1
  S  S12  1  0.25683065  0.25585039  0.26100467  1
  S  S13  1  0.74137720  0.74032020  0.27674666  1
