# generated using pymatgen
data_Zn2Bi3O8
_symmetry_space_group_name_H-M   'P 1'
_cell_length_a   6.22447525
_cell_length_b   6.22447525
_cell_length_c   5.83669806
_cell_angle_alpha   71.00279625
_cell_angle_beta   71.00279625
_cell_angle_gamma   68.51865731
_symmetry_Int_Tables_number   1
_chemical_formula_structural   Zn2Bi3O8
_chemical_formula_sum   'Zn2 Bi3 O8'
_cell_volume   193.42070840
_cell_formula_units_Z   1
loop_
 _symmetry_equiv_pos_site_id
 _symmetry_equiv_pos_as_xyz
  1  'x, y, z'
loop_
 _atom_site_type_symbol
 _atom_site_label
 _atom_site_symmetry_multiplicity
 _atom_site_fract_x
 _atom_site_fract_y
 _atom_site_fract_z
 _atom_site_occupancy
  Zn  Zn0  1  0.33565200  0.33565200  0.13517700  1
  Zn  Zn1  1  0.66434800  0.66434800  0.86482300  1
  Bi  Bi2  1  0.00000000  0.00000000  0.00000000  1
  Bi  Bi3  1  0.26682800  0.73317200  0.50000000  1
  Bi  Bi4  1  0.73317200  0.26682800  0.50000000  1
  O  O5  1  0.62298300  0.62298300  0.24505800  1
  O  O6  1  0.37701700  0.37701700  0.75494200  1
  O  O7  1  0.12035200  0.12035200  0.27908400  1
  O  O8  1  0.87964800  0.87964800  0.72091600  1
  O  O9  1  0.62670200  0.14353700  0.25780800  1
  O  O10  1  0.14353700  0.62670200  0.25780800  1
  O  O11  1  0.85646300  0.37329800  0.74219200  1
  O  O12  1  0.37329800  0.85646300  0.74219200  1
