# generated using pymatgen
data_Al4(FeO4)3
_symmetry_space_group_name_H-M   'P 1'
_cell_length_a   5.77174432
_cell_length_b   5.77174432
_cell_length_c   14.18761222
_cell_angle_alpha   89.78017398
_cell_angle_beta   89.78017398
_cell_angle_gamma   59.99000113
_symmetry_Int_Tables_number   1
_chemical_formula_structural   Al4(FeO4)3
_chemical_formula_sum   'Al8 Fe6 O24'
_cell_volume   409.26639146
_cell_formula_units_Z   2
loop_
 _symmetry_equiv_pos_site_id
 _symmetry_equiv_pos_as_xyz
  1  'x, y, z'
loop_
 _atom_site_type_symbol
 _atom_site_label
 _atom_site_symmetry_multiplicity
 _atom_site_fract_x
 _atom_site_fract_y
 _atom_site_fract_z
 _atom_site_occupancy
  Al  Al0  1  0.00000000  0.00000000  0.00000000  1
  Al  Al1  1  0.50000000  0.00000000  0.00000000  1
  Al  Al2  1  0.83802600  0.32865400  0.33123300  1
  Al  Al3  1  0.16197400  0.67134600  0.66876700  1
  Al  Al4  1  0.00000000  0.50000000  0.00000000  1
  Al  Al5  1  0.32865400  0.83802600  0.33123300  1
  Al  Al6  1  0.67134600  0.16197400  0.66876700  1
  Al  Al7  1  0.50000000  0.50000000  0.50000000  1
  Fe  Fe8  1  0.49848700  0.49848700  0.12506200  1
  Fe  Fe9  1  0.83536500  0.83536500  0.45900200  1
  Fe  Fe10  1  0.16555900  0.16555900  0.78779300  1
  Fe  Fe11  1  0.50151300  0.50151300  0.87493800  1
  Fe  Fe12  1  0.83444100  0.83444100  0.21220700  1
  Fe  Fe13  1  0.16463500  0.16463500  0.54099800  1
  O  O14  1  0.32516500  0.32516500  0.07022100  1
  O  O15  1  0.65183200  0.65183200  0.41549600  1
  O  O16  1  0.99334800  0.99334800  0.73756600  1
  O  O17  1  0.15408100  0.67435300  0.93070000  1
  O  O18  1  0.50085700  0.97456200  0.25559500  1
  O  O19  1  0.80263400  0.32411700  0.57991700  1
  O  O20  1  0.67435300  0.15408100  0.93070000  1
  O  O21  1  0.97456200  0.50085700  0.25559500  1
  O  O22  1  0.32411700  0.80263400  0.57991700  1
  O  O23  1  0.83377200  0.83377200  0.07306300  1
  O  O24  1  0.15540200  0.15540200  0.40723900  1
  O  O25  1  0.48399700  0.48399700  0.74164800  1
  O  O26  1  0.32564700  0.84591900  0.06930000  1
  O  O27  1  0.67588300  0.19736600  0.42008300  1
  O  O28  1  0.02543800  0.49914300  0.74440500  1
  O  O29  1  0.16622800  0.16622800  0.92693700  1
  O  O30  1  0.51600300  0.51600300  0.25835200  1
  O  O31  1  0.84459800  0.84459800  0.59276100  1
  O  O32  1  0.67483500  0.67483500  0.92977900  1
  O  O33  1  0.00665200  0.00665200  0.26243400  1
  O  O34  1  0.34816800  0.34816800  0.58450400  1
  O  O35  1  0.84591900  0.32564700  0.06930000  1
  O  O36  1  0.19736600  0.67588300  0.42008300  1
  O  O37  1  0.49914300  0.02543800  0.74440500  1
