# generated using pymatgen
data_Ca3Fe2(SbO6)2
_symmetry_space_group_name_H-M   'P 1'
_cell_length_a   5.49749915
_cell_length_b   5.59272570
_cell_length_c   7.74873288
_cell_angle_alpha   89.70175781
_cell_angle_beta   89.78148504
_cell_angle_gamma   90.93331649
_symmetry_Int_Tables_number   1
_chemical_formula_structural   Ca3Fe2(SbO6)2
_chemical_formula_sum   'Ca3 Fe2 Sb2 O12'
_cell_volume   238.20593248
_cell_formula_units_Z   1
loop_
 _symmetry_equiv_pos_site_id
 _symmetry_equiv_pos_as_xyz
  1  'x, y, z'
loop_
 _atom_site_type_symbol
 _atom_site_label
 _atom_site_symmetry_multiplicity
 _atom_site_fract_x
 _atom_site_fract_y
 _atom_site_fract_z
 _atom_site_occupancy
  Ca  Ca0  1  0.48525600  0.44699900  0.74990500  1
  Ca  Ca1  1  0.50624300  0.54121900  0.24954800  1
  Ca  Ca2  1  0.98718300  0.05701800  0.24984500  1
  Fe  Fe3  1  0.99479300  0.51674400  0.50610300  1
  Fe  Fe4  1  0.50499200  0.99536300  0.99612300  1
  Sb  Sb5  1  0.99248500  0.51679400  0.99328300  1
  Sb  Sb6  1  0.50280100  0.99066400  0.50280400  1
  O  O7  1  0.40665200  0.98127300  0.25151700  1
  O  O8  1  0.08338700  0.47192700  0.24735600  1
  O  O9  1  0.57350400  0.02506500  0.75195500  1
  O  O10  1  0.90484500  0.52601600  0.74793700  1
  O  O11  1  0.78887800  0.78727400  0.06201300  1
  O  O12  1  0.70759100  0.28658300  0.45349300  1
  O  O13  1  0.21315000  0.23089900  0.96723000  1
  O  O14  1  0.31194700  0.68868500  0.53367500  1
  O  O15  1  0.30954800  0.69260100  0.96551400  1
  O  O16  1  0.22237600  0.21442800  0.53904700  1
  O  O17  1  0.70759200  0.29520500  0.04430500  1
  O  O18  1  0.78437800  0.78587700  0.43900000  1
