# generated using pymatgen
data_YNO4
_symmetry_space_group_name_H-M   'P 1'
_cell_length_a   7.89223381
_cell_length_b   5.58613084
_cell_length_c   9.61861300
_cell_angle_alpha   90.00000000
_cell_angle_beta   90.00000000
_cell_angle_gamma   44.94372228
_symmetry_Int_Tables_number   1
_chemical_formula_structural   YNO4
_chemical_formula_sum   'Y4 N4 O16'
_cell_volume   299.55840069
_cell_formula_units_Z   4
loop_
 _symmetry_equiv_pos_site_id
 _symmetry_equiv_pos_as_xyz
  1  'x, y, z'
loop_
 _atom_site_type_symbol
 _atom_site_label
 _atom_site_symmetry_multiplicity
 _atom_site_fract_x
 _atom_site_fract_y
 _atom_site_fract_z
 _atom_site_occupancy
  Y  Y0  1  0.00000000  0.25000000  0.88299800  1
  Y  Y1  1  0.00000000  0.75000000  0.11700200  1
  Y  Y2  1  0.50000000  0.25000000  0.88299800  1
  Y  Y3  1  0.50000000  0.75000000  0.11700200  1
  N  N4  1  0.00000000  0.25000000  0.34266300  1
  N  N5  1  0.00000000  0.75000000  0.65733700  1
  N  N6  1  0.50000000  0.25000000  0.34266300  1
  N  N7  1  0.50000000  0.75000000  0.65733700  1
  O  O8  1  0.00000000  0.25000000  0.46864900  1
  O  O9  1  0.14110000  0.24750800  0.27051300  1
  O  O10  1  0.35890000  0.02970900  0.72948700  1
  O  O11  1  0.25000000  0.26443900  0.00000000  1
  O  O12  1  0.00000000  0.75000000  0.53135100  1
  O  O13  1  0.14110000  0.74750800  0.72948700  1
  O  O14  1  0.50000000  0.25000000  0.46864900  1
  O  O15  1  0.35890000  0.52970900  0.27051300  1
  O  O16  1  0.25000000  0.76443900  0.00000000  1
  O  O17  1  0.75000000  0.23556100  0.00000000  1
  O  O18  1  0.64110000  0.47029100  0.72948700  1
  O  O19  1  0.50000000  0.75000000  0.53135100  1
  O  O20  1  0.85890000  0.25249200  0.27051300  1
  O  O21  1  0.75000000  0.73556100  0.00000000  1
  O  O22  1  0.64110000  0.97029100  0.27051300  1
  O  O23  1  0.85890000  0.75249200  0.72948700  1
