# generated using pymatgen
data_Zn(FeO2)2
_symmetry_space_group_name_H-M   'P 1'
_cell_length_a   2.92169600
_cell_length_b   9.05041400
_cell_length_c   10.37279700
_cell_angle_alpha   90.00000000
_cell_angle_beta   90.00000000
_cell_angle_gamma   90.00000000
_symmetry_Int_Tables_number   1
_chemical_formula_structural   Zn(FeO2)2
_chemical_formula_sum   'Zn4 Fe8 O16'
_cell_volume   274.28329026
_cell_formula_units_Z   4
loop_
 _symmetry_equiv_pos_site_id
 _symmetry_equiv_pos_as_xyz
  1  'x, y, z'
loop_
 _atom_site_type_symbol
 _atom_site_label
 _atom_site_symmetry_multiplicity
 _atom_site_fract_x
 _atom_site_fract_y
 _atom_site_fract_z
 _atom_site_occupancy
  Zn  Zn0  1  0.75000000  0.75339200  0.65360100  1
  Zn  Zn1  1  0.25000000  0.24660800  0.34639900  1
  Zn  Zn2  1  0.75000000  0.25339200  0.84639900  1
  Zn  Zn3  1  0.25000000  0.74660800  0.15360100  1
  Fe  Fe4  1  0.75000000  0.93654500  0.88004100  1
  Fe  Fe5  1  0.25000000  0.06345500  0.11995900  1
  Fe  Fe6  1  0.75000000  0.43654500  0.61995900  1
  Fe  Fe7  1  0.25000000  0.56345500  0.38004100  1
  Fe  Fe8  1  0.75000000  0.91448600  0.40093200  1
  Fe  Fe9  1  0.25000000  0.08551400  0.59906800  1
  Fe  Fe10  1  0.75000000  0.41448600  0.09906800  1
  Fe  Fe11  1  0.25000000  0.58551400  0.90093200  1
  O  O12  1  0.75000000  0.70941000  0.32609100  1
  O  O13  1  0.25000000  0.29059000  0.67390900  1
  O  O14  1  0.75000000  0.20941000  0.17390900  1
  O  O15  1  0.25000000  0.79059000  0.82609100  1
  O  O16  1  0.75000000  0.61723800  0.03363400  1
  O  O17  1  0.25000000  0.38276200  0.96636600  1
  O  O18  1  0.75000000  0.11723800  0.46636600  1
  O  O19  1  0.25000000  0.88276200  0.53363400  1
  O  O20  1  0.75000000  0.53688900  0.78888200  1
  O  O21  1  0.25000000  0.46311100  0.21111800  1
  O  O22  1  0.75000000  0.03688900  0.71111800  1
  O  O23  1  0.25000000  0.96311100  0.28888200  1
  O  O24  1  0.75000000  0.90626200  0.07255100  1
  O  O25  1  0.25000000  0.09373800  0.92744900  1
  O  O26  1  0.75000000  0.40626200  0.42744900  1
  O  O27  1  0.25000000  0.59373800  0.57255100  1
