# generated using pymatgen
data_Zn(Mo3O8)2
_symmetry_space_group_name_H-M   'P 1'
_cell_length_a   6.18704736
_cell_length_b   6.18704736
_cell_length_c   9.55773300
_cell_angle_alpha   90.00000000
_cell_angle_beta   90.00000000
_cell_angle_gamma   119.99999312
_symmetry_Int_Tables_number   1
_chemical_formula_structural   Zn(Mo3O8)2
_chemical_formula_sum   'Zn1 Mo6 O16'
_cell_volume   316.84906971
_cell_formula_units_Z   1
loop_
 _symmetry_equiv_pos_site_id
 _symmetry_equiv_pos_as_xyz
  1  'x, y, z'
loop_
 _atom_site_type_symbol
 _atom_site_label
 _atom_site_symmetry_multiplicity
 _atom_site_fract_x
 _atom_site_fract_y
 _atom_site_fract_z
 _atom_site_occupancy
  Zn  Zn0  1  0.00000000  0.00000000  0.28532000  1
  Mo  Mo1  1  0.50255000  0.00510000  0.07128200  1
  Mo  Mo2  1  0.66571500  0.83285800  0.57535300  1
  Mo  Mo3  1  0.50255000  0.49745000  0.07128200  1
  Mo  Mo4  1  0.16714200  0.83285800  0.57535300  1
  Mo  Mo5  1  0.16714200  0.33428500  0.57535300  1
  Mo  Mo6  1  0.99490000  0.49745000  0.07128200  1
  O  O7  1  0.33333300  0.66666700  0.46094400  1
  O  O8  1  0.33333300  0.66666700  0.96843800  1
  O  O9  1  0.00000000  0.00000000  0.68661400  1
  O  O10  1  0.66666700  0.33333300  0.18912000  1
  O  O11  1  0.86001300  0.72002600  0.45600900  1
  O  O12  1  0.81087900  0.18912100  0.96640400  1
  O  O13  1  0.37824200  0.18912100  0.96640400  1
  O  O14  1  0.27997400  0.13998700  0.45600900  1
  O  O15  1  0.86001300  0.13998700  0.45600900  1
  O  O16  1  0.81087900  0.62175800  0.96640400  1
  O  O17  1  0.17533900  0.82466100  0.17937400  1
  O  O18  1  0.03288200  0.51644100  0.67541200  1
  O  O19  1  0.48355900  0.96711800  0.67541200  1
  O  O20  1  0.48355900  0.51644100  0.67541200  1
  O  O21  1  0.64932100  0.82466100  0.17937400  1
  O  O22  1  0.17533900  0.35067900  0.17937400  1
