# generated using pymatgen
data_Nb2Co2O9
_symmetry_space_group_name_H-M   'P 1'
_cell_length_a   4.88043998
_cell_length_b   4.88043998
_cell_length_c   14.23709200
_cell_angle_alpha   90.00000000
_cell_angle_beta   90.00000000
_cell_angle_gamma   119.99999975
_symmetry_Int_Tables_number   1
_chemical_formula_structural   Nb2Co2O9
_chemical_formula_sum   'Nb4 Co4 O18'
_cell_volume   293.67696060
_cell_formula_units_Z   2
loop_
 _symmetry_equiv_pos_site_id
 _symmetry_equiv_pos_as_xyz
  1  'x, y, z'
loop_
 _atom_site_type_symbol
 _atom_site_label
 _atom_site_symmetry_multiplicity
 _atom_site_fract_x
 _atom_site_fract_y
 _atom_site_fract_z
 _atom_site_occupancy
  Nb  Nb0  1  0.00000000  0.00000000  0.65931200  1
  Nb  Nb1  1  0.00000000  0.00000000  0.15931200  1
  Nb  Nb2  1  0.00000000  0.00000000  0.84068800  1
  Nb  Nb3  1  0.00000000  0.00000000  0.34068800  1
  Co  Co4  1  0.33333300  0.66666700  0.00000000  1
  Co  Co5  1  0.33333300  0.66666700  0.50000000  1
  Co  Co6  1  0.66666700  0.33333300  0.00000000  1
  Co  Co7  1  0.66666700  0.33333300  0.50000000  1
  O  O8  1  0.64768900  0.64768900  0.57429500  1
  O  O9  1  0.00000000  0.70150600  0.75000000  1
  O  O10  1  0.64768900  0.00000000  0.42570500  1
  O  O11  1  0.35231100  0.35231100  0.42570500  1
  O  O12  1  0.00000000  0.35231100  0.57429500  1
  O  O13  1  0.70150600  0.70150600  0.25000000  1
  O  O14  1  0.00000000  0.35231100  0.92570500  1
  O  O15  1  0.35231100  0.00000000  0.57429500  1
  O  O16  1  0.35231100  0.35231100  0.07429500  1
  O  O17  1  0.00000000  0.64768900  0.42570500  1
  O  O18  1  0.64768900  0.64768900  0.92570500  1
  O  O19  1  0.64768900  0.00000000  0.07429500  1
  O  O20  1  0.70150600  0.00000000  0.75000000  1
  O  O21  1  0.29849400  0.29849400  0.75000000  1
  O  O22  1  0.29849400  0.00000000  0.25000000  1
  O  O23  1  0.00000000  0.64768900  0.07429500  1
  O  O24  1  0.00000000  0.29849400  0.25000000  1
  O  O25  1  0.35231100  0.00000000  0.92570500  1
