# generated using pymatgen
data_Ba2ZnFe2F14
_symmetry_space_group_name_H-M   'P 1'
_cell_length_a   10.12251700
_cell_length_b   5.73743000
_cell_length_c   9.54175739
_cell_angle_alpha   85.80215012
_cell_angle_beta   90.00000000
_cell_angle_gamma   90.00000000
_symmetry_Int_Tables_number   1
_chemical_formula_structural   Ba2ZnFe2F14
_chemical_formula_sum   'Ba4 Zn2 Fe4 F28'
_cell_volume   552.67218076
_cell_formula_units_Z   2
loop_
 _symmetry_equiv_pos_site_id
 _symmetry_equiv_pos_as_xyz
  1  'x, y, z'
loop_
 _atom_site_type_symbol
 _atom_site_label
 _atom_site_symmetry_multiplicity
 _atom_site_fract_x
 _atom_site_fract_y
 _atom_site_fract_z
 _atom_site_occupancy
  Ba  Ba0  1  0.54220200  0.73526100  0.49710300  1
  Ba  Ba1  1  0.04955700  0.24412400  0.00525900  1
  Ba  Ba2  1  0.95044300  0.24412400  0.50525900  1
  Ba  Ba3  1  0.45779800  0.73526100  0.99710300  1
  Zn  Zn4  1  0.14326600  0.69067700  0.69463000  1
  Zn  Zn5  1  0.85673400  0.69067700  0.19463000  1
  Fe  Fe6  1  0.85002700  0.80881100  0.81163000  1
  Fe  Fe7  1  0.63117600  0.19649100  0.19283100  1
  Fe  Fe8  1  0.14997300  0.80881100  0.31163000  1
  Fe  Fe9  1  0.36882400  0.19649100  0.69283100  1
  F  F10  1  0.70745300  0.89774100  0.13191800  1
  F  F11  1  0.30782100  0.66221900  0.36786800  1
  F  F12  1  0.96302500  0.53212500  0.75280100  1
  F  F13  1  0.55576700  0.48280300  0.24197500  1
  F  F14  1  0.69875100  0.12042000  0.36649300  1
  F  F15  1  0.06434000  0.71399600  0.50119400  1
  F  F16  1  0.03379700  0.96546700  0.75308000  1
  F  F17  1  0.20583300  0.90025300  0.12440000  1
  F  F18  1  0.69217900  0.66221900  0.86786800  1
  F  F19  1  0.44423300  0.48280300  0.74197500  1
  F  F20  1  0.29254700  0.89774100  0.63191800  1
  F  F21  1  0.82714100  0.10619200  0.88003200  1
  F  F22  1  0.51401600  0.00474200  0.74261300  1
  F  F23  1  0.20867000  0.60791200  0.88589000  1
  F  F24  1  0.79416700  0.90025300  0.62440000  1
  F  F25  1  0.30124900  0.12042000  0.86649300  1
  F  F26  1  0.48598400  0.00474200  0.24261300  1
  F  F27  1  0.17285900  0.10619200  0.38003200  1
  F  F28  1  0.71985200  0.41973000  0.57935300  1
  F  F29  1  0.20685200  0.36367000  0.64198100  1
  F  F30  1  0.28014800  0.41973000  0.07935300  1
  F  F31  1  0.96620300  0.96546700  0.25308000  1
  F  F32  1  0.79133000  0.60791200  0.38589000  1
  F  F33  1  0.56190600  0.24791000  0.01836800  1
  F  F34  1  0.43809400  0.24791000  0.51836800  1
  F  F35  1  0.93566000  0.71399600  0.00119400  1
  F  F36  1  0.79314800  0.36367000  0.14198100  1
  F  F37  1  0.03697500  0.53212500  0.25280100  1
