# generated using pymatgen
data_Bi3(PO5)2
_symmetry_space_group_name_H-M   'P 1'
_cell_length_a   6.94047700
_cell_length_b   7.77299531
_cell_length_c   9.32508654
_cell_angle_alpha   106.73222777
_cell_angle_beta   92.46844683
_cell_angle_gamma   112.68582753
_symmetry_Int_Tables_number   1
_chemical_formula_structural   Bi3(PO5)2
_chemical_formula_sum   'Bi6 P4 O20'
_cell_volume   437.68673676
_cell_formula_units_Z   2
loop_
 _symmetry_equiv_pos_site_id
 _symmetry_equiv_pos_as_xyz
  1  'x, y, z'
loop_
 _atom_site_type_symbol
 _atom_site_label
 _atom_site_symmetry_multiplicity
 _atom_site_fract_x
 _atom_site_fract_y
 _atom_site_fract_z
 _atom_site_occupancy
  Bi  Bi0  1  0.81652500  0.80202100  0.32130100  1
  Bi  Bi1  1  0.33744700  0.63280400  0.50977900  1
  Bi  Bi2  1  0.43991700  0.29704600  0.08253100  1
  Bi  Bi3  1  0.56008300  0.70295400  0.91746900  1
  Bi  Bi4  1  0.66255300  0.36719600  0.49022100  1
  Bi  Bi5  1  0.18347500  0.19797900  0.67869900  1
  P  P6  1  0.34627400  0.89121200  0.25251500  1
  P  P7  1  0.65372600  0.10878800  0.74748500  1
  P  P8  1  0.95536300  0.23418800  0.23950700  1
  P  P9  1  0.04463700  0.76581200  0.76049300  1
  O  O10  1  0.43771500  0.46771300  0.63208200  1
  O  O11  1  0.13920100  0.99595000  0.82904200  1
  O  O12  1  0.36399300  0.83036500  0.08337400  1
  O  O13  1  0.22260700  0.69026500  0.76224600  1
  O  O14  1  0.51929400  0.87470300  0.35437600  1
  O  O15  1  0.87323900  0.67139100  0.84821500  1
  O  O16  1  0.48070600  0.12529700  0.64562400  1
  O  O17  1  0.04859000  0.29942200  0.41291400  1
  O  O18  1  0.62838000  0.88895000  0.69340400  1
  O  O19  1  0.86079900  0.00405000  0.17095800  1
  O  O20  1  0.77739300  0.30973500  0.23775400  1
  O  O21  1  0.95141000  0.70057800  0.58708600  1
  O  O22  1  0.56228500  0.53228700  0.36791800  1
  O  O23  1  0.87057400  0.24094200  0.71757400  1
  O  O24  1  0.34059600  0.39799800  0.89677100  1
  O  O25  1  0.63600700  0.16963500  0.91662600  1
  O  O26  1  0.65940400  0.60200200  0.10322900  1
  O  O27  1  0.12676100  0.32860900  0.15178500  1
  O  O28  1  0.37162000  0.11105000  0.30659600  1
  O  O29  1  0.12942600  0.75905800  0.28242600  1
