# generated using pymatgen
data_Mg2TiSbO6
_symmetry_space_group_name_H-M   'P 1'
_cell_length_a   7.77176300
_cell_length_b   5.25434600
_cell_length_c   5.41898582
_cell_angle_alpha   88.58313735
_cell_angle_beta   90.00000000
_cell_angle_gamma   90.00000000
_symmetry_Int_Tables_number   1
_chemical_formula_structural   Mg2TiSbO6
_chemical_formula_sum   'Mg4 Ti2 Sb2 O12'
_cell_volume   221.21951082
_cell_formula_units_Z   2
loop_
 _symmetry_equiv_pos_site_id
 _symmetry_equiv_pos_as_xyz
  1  'x, y, z'
loop_
 _atom_site_type_symbol
 _atom_site_label
 _atom_site_symmetry_multiplicity
 _atom_site_fract_x
 _atom_site_fract_y
 _atom_site_fract_z
 _atom_site_occupancy
  Mg  Mg0  1  0.75000000  0.48715600  0.56250800  1
  Mg  Mg1  1  0.25000000  0.51284400  0.43749200  1
  Mg  Mg2  1  0.75000000  0.99493800  0.03759800  1
  Mg  Mg3  1  0.25000000  0.00506200  0.96240200  1
  Ti  Ti4  1  0.50000000  0.50000000  0.00000000  1
  Ti  Ti5  1  0.00000000  0.50000000  0.00000000  1
  Sb  Sb6  1  0.50000000  0.00000000  0.50000000  1
  Sb  Sb7  1  0.00000000  0.00000000  0.50000000  1
  O  O8  1  0.42948500  0.66189300  0.68514400  1
  O  O9  1  0.07160800  0.81269500  0.17451900  1
  O  O10  1  0.92948500  0.33810700  0.31485600  1
  O  O11  1  0.57160800  0.18730500  0.82548100  1
  O  O12  1  0.42839200  0.81269500  0.17451900  1
  O  O13  1  0.92839200  0.18730500  0.82548100  1
  O  O14  1  0.25000000  0.13224200  0.57638800  1
  O  O15  1  0.07051500  0.66189300  0.68514400  1
  O  O16  1  0.75000000  0.62908800  0.92677800  1
  O  O17  1  0.57051500  0.33810700  0.31485600  1
  O  O18  1  0.75000000  0.86775800  0.42361200  1
  O  O19  1  0.25000000  0.37091200  0.07322200  1
