# generated using pymatgen
data_YTiF5
_symmetry_space_group_name_H-M   'P 1'
_cell_length_a   5.85309497
_cell_length_b   5.85309497
_cell_length_c   5.85309497
_cell_angle_alpha   138.04237152
_cell_angle_beta   107.08651555
_cell_angle_gamma   87.85349410
_symmetry_Int_Tables_number   1
_chemical_formula_structural   YTiF5
_chemical_formula_sum   'Y1 Ti1 F5'
_cell_volume   122.89692830
_cell_formula_units_Z   1
loop_
 _symmetry_equiv_pos_site_id
 _symmetry_equiv_pos_as_xyz
  1  'x, y, z'
loop_
 _atom_site_type_symbol
 _atom_site_label
 _atom_site_symmetry_multiplicity
 _atom_site_fract_x
 _atom_site_fract_y
 _atom_site_fract_z
 _atom_site_occupancy
  Y  Y0  1  0.50000000  0.50000000  0.00000000  1
  Ti  Ti1  1  0.00000000  0.00000000  0.00000000  1
  F  F2  1  0.81898100  0.50000000  0.31898100  1
  F  F3  1  0.18101900  0.50000000  0.68101900  1
  F  F4  1  0.23915000  0.23915000  0.00000000  1
  F  F5  1  0.76085000  0.76085000  0.00000000  1
  F  F6  1  0.50000000  0.00000000  0.50000000  1
