# generated using pymatgen
data_Mg2BiSbO6
_symmetry_space_group_name_H-M   'P 1'
_cell_length_a   8.07731200
_cell_length_b   5.59110000
_cell_length_c   5.60655572
_cell_angle_alpha   87.70610724
_cell_angle_beta   90.00000000
_cell_angle_gamma   90.00000000
_symmetry_Int_Tables_number   1
_chemical_formula_structural   Mg2BiSbO6
_chemical_formula_sum   'Mg4 Bi2 Sb2 O12'
_cell_volume   252.99509835
_cell_formula_units_Z   2
loop_
 _symmetry_equiv_pos_site_id
 _symmetry_equiv_pos_as_xyz
  1  'x, y, z'
loop_
 _atom_site_type_symbol
 _atom_site_label
 _atom_site_symmetry_multiplicity
 _atom_site_fract_x
 _atom_site_fract_y
 _atom_site_fract_z
 _atom_site_occupancy
  Mg  Mg0  1  0.75000000  0.53051700  0.48850700  1
  Mg  Mg1  1  0.25000000  0.46948300  0.51149300  1
  Mg  Mg2  1  0.75000000  0.02122000  0.02518700  1
  Mg  Mg3  1  0.25000000  0.97878000  0.97481300  1
  Bi  Bi4  1  0.50000000  0.00000000  0.50000000  1
  Bi  Bi5  1  0.00000000  0.00000000  0.50000000  1
  Sb  Sb6  1  0.50000000  0.50000000  0.00000000  1
  Sb  Sb7  1  0.00000000  0.50000000  0.00000000  1
  O  O8  1  0.42741400  0.63895200  0.30679500  1
  O  O9  1  0.07041300  0.18338900  0.12789300  1
  O  O10  1  0.92741400  0.36104800  0.69320500  1
  O  O11  1  0.57041300  0.81661100  0.87210700  1
  O  O12  1  0.42958700  0.18338900  0.12789300  1
  O  O13  1  0.92958700  0.81661100  0.87210700  1
  O  O14  1  0.25000000  0.60340100  0.85957100  1
  O  O15  1  0.07258600  0.63895200  0.30679500  1
  O  O16  1  0.75000000  0.87377800  0.35755500  1
  O  O17  1  0.57258600  0.36104800  0.69320500  1
  O  O18  1  0.75000000  0.39659900  0.14042900  1
  O  O19  1  0.25000000  0.12622200  0.64244500  1
