# generated using pymatgen
data_CaTiO2
_symmetry_space_group_name_H-M   'P 1'
_cell_length_a   9.27251227
_cell_length_b   9.27251227
_cell_length_c   11.76405020
_cell_angle_alpha   51.45701567
_cell_angle_beta   51.45701567
_cell_angle_gamma   18.33519992
_symmetry_Int_Tables_number   1
_chemical_formula_structural   CaTiO2
_chemical_formula_sum   'Ca4 Ti4 O8'
_cell_volume   246.79845008
_cell_formula_units_Z   4
loop_
 _symmetry_equiv_pos_site_id
 _symmetry_equiv_pos_as_xyz
  1  'x, y, z'
loop_
 _atom_site_type_symbol
 _atom_site_label
 _atom_site_symmetry_multiplicity
 _atom_site_fract_x
 _atom_site_fract_y
 _atom_site_fract_z
 _atom_site_occupancy
  Ca  Ca0  1  0.63451900  0.63451900  0.93429200  1
  Ca  Ca1  1  0.36548100  0.36548100  0.06570800  1
  Ca  Ca2  1  0.93252200  0.93252200  0.27434600  1
  Ca  Ca3  1  0.06747800  0.06747800  0.72565400  1
  Ti  Ti4  1  0.33655400  0.33655400  0.85015600  1
  Ti  Ti5  1  0.79424500  0.79424500  0.61552400  1
  Ti  Ti6  1  0.20575500  0.20575500  0.38447600  1
  Ti  Ti7  1  0.66344600  0.66344600  0.14984400  1
  O  O8  1  0.17334200  0.17334200  0.26690800  1
  O  O9  1  0.64396600  0.64396600  0.53874800  1
  O  O10  1  0.35603400  0.35603400  0.46125200  1
  O  O11  1  0.82665800  0.82665800  0.73309200  1
  O  O12  1  0.90999000  0.90999000  0.86608200  1
  O  O13  1  0.19269000  0.19269000  0.73796300  1
  O  O14  1  0.09001000  0.09001000  0.13391800  1
  O  O15  1  0.80731000  0.80731000  0.26203700  1
