# generated using pymatgen
data_CoN
_symmetry_space_group_name_H-M   'P 1'
_cell_length_a   3.36827653
_cell_length_b   3.36827653
_cell_length_c   4.76618100
_cell_angle_alpha   90.00000000
_cell_angle_beta   90.00000000
_cell_angle_gamma   90.08614583
_symmetry_Int_Tables_number   1
_chemical_formula_structural   CoN
_chemical_formula_sum   'Co2 N2'
_cell_volume   54.07362908
_cell_formula_units_Z   2
loop_
 _symmetry_equiv_pos_site_id
 _symmetry_equiv_pos_as_xyz
  1  'x, y, z'
loop_
 _atom_site_type_symbol
 _atom_site_label
 _atom_site_symmetry_multiplicity
 _atom_site_fract_x
 _atom_site_fract_y
 _atom_site_fract_z
 _atom_site_occupancy
  Co  Co0  1  0.48895100  0.51311300  0.75000000  1
  Co  Co1  1  0.51311300  0.48895100  0.25000000  1
  N  N2  1  0.00853600  0.50005200  0.25000000  1
  N  N3  1  0.50005200  0.00853600  0.75000000  1
