# generated using pymatgen
data_YBiO3
_symmetry_space_group_name_H-M   'P 1'
_cell_length_a   5.88751800
_cell_length_b   6.14946600
_cell_length_c   8.66758600
_cell_angle_alpha   90.00000000
_cell_angle_beta   90.00000000
_cell_angle_gamma   90.00000000
_symmetry_Int_Tables_number   1
_chemical_formula_structural   YBiO3
_chemical_formula_sum   'Y4 Bi4 O12'
_cell_volume   313.81074651
_cell_formula_units_Z   4
loop_
 _symmetry_equiv_pos_site_id
 _symmetry_equiv_pos_as_xyz
  1  'x, y, z'
loop_
 _atom_site_type_symbol
 _atom_site_label
 _atom_site_symmetry_multiplicity
 _atom_site_fract_x
 _atom_site_fract_y
 _atom_site_fract_z
 _atom_site_occupancy
  Y  Y0  1  0.00926800  0.95157100  0.75000000  1
  Y  Y1  1  0.50926800  0.54842900  0.25000000  1
  Y  Y2  1  0.49073200  0.45157100  0.75000000  1
  Y  Y3  1  0.99073200  0.04842900  0.25000000  1
  Bi  Bi4  1  0.00000000  0.50000000  0.50000000  1
  Bi  Bi5  1  0.50000000  0.00000000  0.50000000  1
  Bi  Bi6  1  0.50000000  0.00000000  0.00000000  1
  Bi  Bi7  1  0.00000000  0.50000000  0.00000000  1
  O  O8  1  0.67073700  0.32417300  0.41737300  1
  O  O9  1  0.17073700  0.17582700  0.58262700  1
  O  O10  1  0.82926300  0.82417300  0.08262700  1
  O  O11  1  0.32926300  0.67582700  0.91737300  1
  O  O12  1  0.32926300  0.67582700  0.58262700  1
  O  O13  1  0.82926300  0.82417300  0.41737300  1
  O  O14  1  0.17073700  0.17582700  0.91737300  1
  O  O15  1  0.67073700  0.32417300  0.08262700  1
  O  O16  1  0.16648900  0.39402000  0.25000000  1
  O  O17  1  0.66648900  0.10598000  0.75000000  1
  O  O18  1  0.33351100  0.89402000  0.25000000  1
  O  O19  1  0.83351100  0.60598000  0.75000000  1
