# generated using pymatgen
data_CaFeF6
_symmetry_space_group_name_H-M   'P 1'
_cell_length_a   5.77502422
_cell_length_b   5.77502422
_cell_length_c   5.77502389
_cell_angle_alpha   58.08433562
_cell_angle_beta   58.08433562
_cell_angle_gamma   58.08433852
_symmetry_Int_Tables_number   1
_chemical_formula_structural   CaFeF6
_chemical_formula_sum   'Ca1 Fe1 F6'
_cell_volume   130.20846986
_cell_formula_units_Z   1
loop_
 _symmetry_equiv_pos_site_id
 _symmetry_equiv_pos_as_xyz
  1  'x, y, z'
loop_
 _atom_site_type_symbol
 _atom_site_label
 _atom_site_symmetry_multiplicity
 _atom_site_fract_x
 _atom_site_fract_y
 _atom_site_fract_z
 _atom_site_occupancy
  Ca  Ca0  1  0.50000000  0.50000000  0.50000000  1
  Fe  Fe1  1  0.00000000  0.00000000  0.00000000  1
  F  F2  1  0.68372600  0.86673600  0.22287200  1
  F  F3  1  0.86673600  0.22287200  0.68372600  1
  F  F4  1  0.77712800  0.31627400  0.13326400  1
  F  F5  1  0.13326400  0.77712800  0.31627400  1
  F  F6  1  0.31627400  0.13326400  0.77712800  1
  F  F7  1  0.22287200  0.68372600  0.86673600  1
