# generated using pymatgen
data_CaVF6
_symmetry_space_group_name_H-M   'P 1'
_cell_length_a   5.79080993
_cell_length_b   5.79080993
_cell_length_c   5.79081035
_cell_angle_alpha   57.94224536
_cell_angle_beta   57.94224536
_cell_angle_gamma   57.94223746
_symmetry_Int_Tables_number   1
_chemical_formula_structural   CaVF6
_chemical_formula_sum   'Ca1 V1 F6'
_cell_volume   130.82683878
_cell_formula_units_Z   1
loop_
 _symmetry_equiv_pos_site_id
 _symmetry_equiv_pos_as_xyz
  1  'x, y, z'
loop_
 _atom_site_type_symbol
 _atom_site_label
 _atom_site_symmetry_multiplicity
 _atom_site_fract_x
 _atom_site_fract_y
 _atom_site_fract_z
 _atom_site_occupancy
  Ca  Ca0  1  0.50000000  0.50000000  0.50000000  1
  V  V1  1  0.00000000  0.00000000  0.00000000  1
  F  F2  1  0.68456200  0.86618500  0.22215300  1
  F  F3  1  0.86618500  0.22215300  0.68456200  1
  F  F4  1  0.77784700  0.31543800  0.13381500  1
  F  F5  1  0.13381500  0.77784700  0.31543800  1
  F  F6  1  0.31543800  0.13381500  0.77784700  1
  F  F7  1  0.22215300  0.68456200  0.86618500  1
