# generated using pymatgen
data_MgTiF5
_symmetry_space_group_name_H-M   'P 1'
_cell_length_a   5.34868871
_cell_length_b   5.34868871
_cell_length_c   7.49087048
_cell_angle_alpha   69.36801644
_cell_angle_beta   69.36801644
_cell_angle_gamma   72.65218629
_symmetry_Int_Tables_number   1
_chemical_formula_structural   MgTiF5
_chemical_formula_sum   'Mg2 Ti2 F10'
_cell_volume   183.95270244
_cell_formula_units_Z   2
loop_
 _symmetry_equiv_pos_site_id
 _symmetry_equiv_pos_as_xyz
  1  'x, y, z'
loop_
 _atom_site_type_symbol
 _atom_site_label
 _atom_site_symmetry_multiplicity
 _atom_site_fract_x
 _atom_site_fract_y
 _atom_site_fract_z
 _atom_site_occupancy
  Mg  Mg0  1  0.52319900  0.47680100  0.75000000  1
  Mg  Mg1  1  0.47680100  0.52319900  0.25000000  1
  Ti  Ti2  1  0.00000000  0.00000000  0.00000000  1
  Ti  Ti3  1  0.00000000  0.00000000  0.50000000  1
  F  F4  1  0.13658700  0.86341300  0.25000000  1
  F  F5  1  0.86341300  0.13658700  0.75000000  1
  F  F6  1  0.22107400  0.26995700  0.37192800  1
  F  F7  1  0.73004300  0.77892600  0.12807200  1
  F  F8  1  0.70208600  0.31924400  0.05048500  1
  F  F9  1  0.68075600  0.29791400  0.44951500  1
  F  F10  1  0.29791400  0.68075600  0.94951500  1
  F  F11  1  0.31924400  0.70208600  0.55048500  1
  F  F12  1  0.26995700  0.22107400  0.87192800  1
  F  F13  1  0.77892600  0.73004300  0.62807200  1
