# generated using pymatgen
data_NiF4
_symmetry_space_group_name_H-M   'P 1'
_cell_length_a   6.36114201
_cell_length_b   6.36114201
_cell_length_c   6.36114201
_cell_angle_alpha   129.00511383
_cell_angle_beta   129.00511383
_cell_angle_gamma   75.00234553
_symmetry_Int_Tables_number   1
_chemical_formula_structural   NiF4
_chemical_formula_sum   'Ni2 F8'
_cell_volume   151.36049107
_cell_formula_units_Z   2
loop_
 _symmetry_equiv_pos_site_id
 _symmetry_equiv_pos_as_xyz
  1  'x, y, z'
loop_
 _atom_site_type_symbol
 _atom_site_label
 _atom_site_symmetry_multiplicity
 _atom_site_fract_x
 _atom_site_fract_y
 _atom_site_fract_z
 _atom_site_occupancy
  Ni  Ni0  1  0.50000000  0.00000000  0.50000000  1
  Ni  Ni1  1  0.00000000  0.50000000  0.50000000  1
  F  F2  1  0.45607900  0.95607900  0.17235600  1
  F  F3  1  0.21627600  0.71627600  0.17235600  1
  F  F4  1  0.54392100  0.04392100  0.82764400  1
  F  F5  1  0.04392100  0.21627600  0.50000000  1
  F  F6  1  0.78372400  0.28372400  0.82764400  1
  F  F7  1  0.28372400  0.45607900  0.50000000  1
  F  F8  1  0.95607900  0.78372400  0.50000000  1
  F  F9  1  0.71627600  0.54392100  0.50000000  1
