# generated using pymatgen
data_WF5
_symmetry_space_group_name_H-M   'P 1'
_cell_length_a   5.54124734
_cell_length_b   5.54124734
_cell_length_c   5.54124734
_cell_angle_alpha   140.54884306
_cell_angle_beta   133.00417662
_cell_angle_gamma   62.98535606
_symmetry_Int_Tables_number   1
_chemical_formula_structural   WF5
_chemical_formula_sum   'W1 F5'
_cell_volume   78.09791136
_cell_formula_units_Z   1
loop_
 _symmetry_equiv_pos_site_id
 _symmetry_equiv_pos_as_xyz
  1  'x, y, z'
loop_
 _atom_site_type_symbol
 _atom_site_label
 _atom_site_symmetry_multiplicity
 _atom_site_fract_x
 _atom_site_fract_y
 _atom_site_fract_z
 _atom_site_occupancy
  W  W0  1  0.00000000  0.00000000  0.00000000  1
  F  F1  1  0.76488200  0.50000000  0.26488200  1
  F  F2  1  0.23511800  0.50000000  0.73511800  1
  F  F3  1  0.20222100  0.20222100  0.00000000  1
  F  F4  1  0.79777900  0.79777900  0.00000000  1
  F  F5  1  0.50000000  0.00000000  0.50000000  1
