# generated using pymatgen
data_MgBiF5
_symmetry_space_group_name_H-M   'P 1'
_cell_length_a   5.77498761
_cell_length_b   5.77498761
_cell_length_c   8.49753157
_cell_angle_alpha   67.93648436
_cell_angle_beta   67.93648436
_cell_angle_gamma   71.25904512
_symmetry_Int_Tables_number   1
_chemical_formula_structural   MgBiF5
_chemical_formula_sum   'Mg2 Bi2 F10'
_cell_volume   237.99244486
_cell_formula_units_Z   2
loop_
 _symmetry_equiv_pos_site_id
 _symmetry_equiv_pos_as_xyz
  1  'x, y, z'
loop_
 _atom_site_type_symbol
 _atom_site_label
 _atom_site_symmetry_multiplicity
 _atom_site_fract_x
 _atom_site_fract_y
 _atom_site_fract_z
 _atom_site_occupancy
  Mg  Mg0  1  0.51468300  0.48793200  0.74558700  1
  Mg  Mg1  1  0.48793200  0.51468300  0.24558700  1
  Bi  Bi2  1  0.00340200  0.99935900  0.99590700  1
  Bi  Bi3  1  0.99935900  0.00340200  0.49590700  1
  F  F4  1  0.16261000  0.83927400  0.24687900  1
  F  F5  1  0.83927400  0.16261000  0.74687900  1
  F  F6  1  0.22921000  0.30896200  0.35547200  1
  F  F7  1  0.69782200  0.76942100  0.14054800  1
  F  F8  1  0.70571100  0.33078400  0.07415300  1
  F  F9  1  0.66111400  0.31213700  0.43195900  1
  F  F10  1  0.31213700  0.66111400  0.93195900  1
  F  F11  1  0.33078400  0.70571100  0.57415300  1
  F  F12  1  0.30896200  0.22921000  0.85547200  1
  F  F13  1  0.76942100  0.69782200  0.64054800  1
