# generated using pymatgen
data_Ca(TiS2)4
_symmetry_space_group_name_H-M   'P 1'
_cell_length_a   6.86384799
_cell_length_b   6.86384799
_cell_length_c   9.10427602
_cell_angle_alpha   55.86427524
_cell_angle_beta   55.86427524
_cell_angle_gamma   60.22129625
_symmetry_Int_Tables_number   1
_chemical_formula_structural   Ca(TiS2)4
_chemical_formula_sum   'Ca1 Ti4 S8'
_cell_volume   283.32827711
_cell_formula_units_Z   1
loop_
 _symmetry_equiv_pos_site_id
 _symmetry_equiv_pos_as_xyz
  1  'x, y, z'
loop_
 _atom_site_type_symbol
 _atom_site_label
 _atom_site_symmetry_multiplicity
 _atom_site_fract_x
 _atom_site_fract_y
 _atom_site_fract_z
 _atom_site_occupancy
  Ca  Ca0  1  0.50000000  0.50000000  0.50000000  1
  Ti  Ti1  1  0.75746500  0.24253500  0.00000000  1
  Ti  Ti2  1  0.24253500  0.75746500  0.00000000  1
  Ti  Ti3  1  0.24373100  0.24373100  0.00738800  1
  Ti  Ti4  1  0.75626900  0.75626900  0.99261200  1
  S  S5  1  0.97905700  0.47967500  0.21052000  1
  S  S6  1  0.47967500  0.97905700  0.21052000  1
  S  S7  1  0.48327200  0.48327200  0.20289400  1
  S  S8  1  0.97830200  0.97830200  0.21042100  1
  S  S9  1  0.02169800  0.02169800  0.78957900  1
  S  S10  1  0.51672800  0.51672800  0.79710600  1
  S  S11  1  0.52032500  0.02094300  0.78948000  1
  S  S12  1  0.02094300  0.52032500  0.78948000  1
