# generated using pymatgen
data_V9O20
_symmetry_space_group_name_H-M   'P 1'
_cell_length_a   6.19351246
_cell_length_b   6.79832688
_cell_length_c   11.39444987
_cell_angle_alpha   127.93300245
_cell_angle_beta   96.44105685
_cell_angle_gamma   79.20790528
_symmetry_Int_Tables_number   1
_chemical_formula_structural   V9O20
_chemical_formula_sum   'V9 O20'
_cell_volume   371.71294426
_cell_formula_units_Z   1
loop_
 _symmetry_equiv_pos_site_id
 _symmetry_equiv_pos_as_xyz
  1  'x, y, z'
loop_
 _atom_site_type_symbol
 _atom_site_label
 _atom_site_symmetry_multiplicity
 _atom_site_fract_x
 _atom_site_fract_y
 _atom_site_fract_z
 _atom_site_occupancy
  V  V0  1  0.13261400  0.02914500  0.59028300  1
  V  V1  1  0.91918700  0.53302800  0.53909900  1
  V  V2  1  0.97253600  0.04764900  0.84772000  1
  V  V3  1  0.37315200  0.44377600  0.86894400  1
  V  V4  1  0.53336700  0.01165700  0.46386300  1
  V  V5  1  0.47656600  0.49009400  0.38321500  1
  V  V6  1  0.65979300  0.46348500  0.11686100  1
  V  V7  1  0.00095400  0.11217800  0.18316500  1
  V  V8  1  0.81934200  0.54496500  0.83969900  1
  O  O9  1  0.08431400  0.82418100  0.63777000  1
  O  O10  1  0.96816400  0.75540200  0.04612800  1
  O  O11  1  0.93698800  0.70177500  0.77442700  1
  O  O12  1  0.29090100  0.79831300  0.41378000  1
  O  O13  1  0.19558500  0.77206400  0.02294500  1
  O  O14  1  0.35432500  0.43477000  0.09177200  1
  O  O15  1  0.19526500  0.31349700  0.37511900  1
  O  O16  1  0.38072800  0.19904800  0.65418800  1
  O  O17  1  0.47510500  0.30295500  0.15202100  1
  O  O18  1  0.42119400  0.23006500  0.40514700  1
  O  O19  1  0.69159300  0.76628100  0.50376000  1
  O  O20  1  0.54324800  0.66014300  0.85725700  1
  O  O21  1  0.70010700  0.76199700  0.26995800  1
  O  O22  1  0.59739100  0.72081400  0.59741300  1
  O  O23  1  0.68391500  0.34856600  0.91208400  1
  O  O24  1  0.93199300  0.21974800  0.05966900  1
  O  O25  1  0.80252600  0.21511100  0.60761300  1
  O  O26  1  0.78514400  0.30869700  0.33467100  1
  O  O27  1  0.08323700  0.29091100  0.81979200  1
  O  O28  1  0.96274800  0.21152600  0.51890600  1
