# generated using pymatgen
data_Mg3Ti2O7
_symmetry_space_group_name_H-M   'P 1'
_cell_length_a   9.31494548
_cell_length_b   9.31494548
_cell_length_c   5.36285700
_cell_angle_alpha   90.00000000
_cell_angle_beta   90.00000000
_cell_angle_gamma   147.58940477
_symmetry_Int_Tables_number   1
_chemical_formula_structural   Mg3Ti2O7
_chemical_formula_sum   'Mg6 Ti4 O14'
_cell_volume   249.40651949
_cell_formula_units_Z   2
loop_
 _symmetry_equiv_pos_site_id
 _symmetry_equiv_pos_as_xyz
  1  'x, y, z'
loop_
 _atom_site_type_symbol
 _atom_site_label
 _atom_site_symmetry_multiplicity
 _atom_site_fract_x
 _atom_site_fract_y
 _atom_site_fract_z
 _atom_site_occupancy
  Mg  Mg0  1  0.25365700  0.25365700  0.29563400  1
  Mg  Mg1  1  0.74634300  0.74634300  0.79563400  1
  Mg  Mg2  1  0.03554400  0.42390300  0.18503900  1
  Mg  Mg3  1  0.96445600  0.57609700  0.68503900  1
  Mg  Mg4  1  0.42390300  0.03554400  0.18503900  1
  Mg  Mg5  1  0.57609700  0.96445600  0.68503900  1
  Ti  Ti6  1  0.85806600  0.64704200  0.23581300  1
  Ti  Ti7  1  0.14193400  0.35295800  0.73581300  1
  Ti  Ti8  1  0.35295800  0.14193400  0.73581300  1
  Ti  Ti9  1  0.64704200  0.85806600  0.23581300  1
  O  O10  1  0.65315700  0.06601800  0.30736600  1
  O  O11  1  0.34684300  0.93398200  0.80736600  1
  O  O12  1  0.93398200  0.34684300  0.80736600  1
  O  O13  1  0.06601800  0.65315700  0.30736600  1
  O  O14  1  0.44047300  0.69956800  0.94108700  1
  O  O15  1  0.55952700  0.30043200  0.44108700  1
  O  O16  1  0.30043200  0.55952700  0.44108700  1
  O  O17  1  0.69956800  0.44047300  0.94108700  1
  O  O18  1  0.99326300  0.15347400  0.07627700  1
  O  O19  1  0.00673700  0.84652600  0.57627700  1
  O  O20  1  0.63325000  0.63325000  0.19319900  1
  O  O21  1  0.36675000  0.36675000  0.69319900  1
  O  O22  1  0.15347400  0.99326300  0.07627700  1
  O  O23  1  0.84652600  0.00673700  0.57627700  1
