# generated using pymatgen
data_Zn(BiO2)2
_symmetry_space_group_name_H-M   'P 1'
_cell_length_a   3.48652800
_cell_length_b   6.69720584
_cell_length_c   10.31556773
_cell_angle_alpha   101.60324799
_cell_angle_beta   99.37518978
_cell_angle_gamma   104.32802211
_symmetry_Int_Tables_number   1
_chemical_formula_structural   Zn(BiO2)2
_chemical_formula_sum   'Zn2 Bi4 O8'
_cell_volume   222.79354881
_cell_formula_units_Z   2
loop_
 _symmetry_equiv_pos_site_id
 _symmetry_equiv_pos_as_xyz
  1  'x, y, z'
loop_
 _atom_site_type_symbol
 _atom_site_label
 _atom_site_symmetry_multiplicity
 _atom_site_fract_x
 _atom_site_fract_y
 _atom_site_fract_z
 _atom_site_occupancy
  Zn  Zn0  1  0.96752400  0.28305500  0.72895900  1
  Zn  Zn1  1  0.03247600  0.71694500  0.27104100  1
  Bi  Bi2  1  0.21927900  0.84491600  0.61227900  1
  Bi  Bi3  1  0.19922100  0.30495400  0.06827800  1
  Bi  Bi4  1  0.80077900  0.69504600  0.93172200  1
  Bi  Bi5  1  0.78072100  0.15508400  0.38772100  1
  O  O6  1  0.15336000  0.02479200  0.25511200  1
  O  O7  1  0.18544600  0.59941800  0.77990200  1
  O  O8  1  0.81455400  0.40058200  0.22009800  1
  O  O9  1  0.84664000  0.97520800  0.74488800  1
  O  O10  1  0.62976400  0.82207500  0.40544900  1
  O  O11  1  0.64550700  0.35559200  0.90769600  1
  O  O12  1  0.37023600  0.17792500  0.59455100  1
  O  O13  1  0.35449300  0.64440800  0.09230400  1
