# generated using pymatgen
data_V2NiO6
_symmetry_space_group_name_H-M   'P 1'
_cell_length_a   4.87870831
_cell_length_b   7.24821692
_cell_length_c   26.55724127
_cell_angle_alpha   102.01025322
_cell_angle_beta   90.14134431
_cell_angle_gamma   94.80288080
_symmetry_Int_Tables_number   1
_chemical_formula_structural   V2NiO6
_chemical_formula_sum   'V18 Ni9 O54'
_cell_volume   915.14260625
_cell_formula_units_Z   9
loop_
 _symmetry_equiv_pos_site_id
 _symmetry_equiv_pos_as_xyz
  1  'x, y, z'
loop_
 _atom_site_type_symbol
 _atom_site_label
 _atom_site_symmetry_multiplicity
 _atom_site_fract_x
 _atom_site_fract_y
 _atom_site_fract_z
 _atom_site_occupancy
  V  V0  1  0.11440000  0.57990400  0.92110500  1
  V  V1  1  0.11461900  0.57956000  0.58714900  1
  V  V2  1  0.40985500  0.66209200  0.25840200  1
  V  V3  1  0.44941800  0.71422600  0.70241700  1
  V  V4  1  0.44978300  0.71383400  0.82250400  1
  V  V5  1  0.44100900  0.71283400  0.36958800  1
  V  V6  1  0.44898900  0.71366000  0.48830100  1
  V  V7  1  0.45117600  0.71636500  0.03657000  1
  V  V8  1  0.43861100  0.70955800  0.15381300  1
  V  V9  1  0.55113100  0.28584600  0.84421400  1
  V  V10  1  0.55445800  0.28764800  0.96456300  1
  V  V11  1  0.55396800  0.28811600  0.51067700  1
  V  V12  1  0.55092100  0.28505800  0.63042100  1
  V  V13  1  0.55394100  0.28827200  0.18233000  1
  V  V14  1  0.55175900  0.28913400  0.29486300  1
  V  V15  1  0.88647100  0.42034800  0.74577200  1
  V  V16  1  0.89347700  0.41894800  0.41189700  1
  V  V17  1  0.89271900  0.42233200  0.07996000  1
  Ni  Ni18  1  0.00086800  0.99990100  0.66653400  1
  Ni  Ni19  1  0.00373500  0.00027600  0.33166000  1
  Ni  Ni20  1  0.00262500  0.00128700  0.00028900  1
  Ni  Ni21  1  0.00618800  0.01155700  0.88913000  1
  Ni  Ni22  1  0.00506900  0.01055300  0.55556100  1
  Ni  Ni23  1  0.00549300  0.00408500  0.22365300  1
  Ni  Ni24  1  0.99537300  0.98843300  0.77757500  1
  Ni  Ni25  1  0.99669100  0.99279900  0.44435900  1
  Ni  Ni26  1  0.00485800  0.00281200  0.11238500  1
  O  O27  1  0.10568500  0.82066200  0.93382900  1
  O  O28  1  0.10601000  0.82022300  0.60021800  1
  O  O29  1  0.16575100  0.83031200  0.26812000  1
  O  O30  1  0.16765300  0.84788600  0.71312200  1
  O  O31  1  0.17090200  0.85440500  0.37984500  1
  O  O32  1  0.17027700  0.85079100  0.04733800  1
  O  O33  1  0.16580500  0.84630400  0.82711000  1
  O  O34  1  0.16427100  0.84577700  0.49336600  1
  O  O35  1  0.16728800  0.84878300  0.15973700  1
  O  O36  1  0.21493500  0.53133300  0.75183500  1
  O  O37  1  0.22548500  0.53590400  0.41732300  1
  O  O38  1  0.22815800  0.53609900  0.08742800  1
  O  O39  1  0.29177200  0.52116800  0.86163500  1
  O  O40  1  0.29211900  0.52129800  0.52748800  1
  O  O41  1  0.28740800  0.53348300  0.19396400  1
  O  O42  1  0.29451300  0.52573000  0.97467300  1
  O  O43  1  0.29431400  0.52430300  0.64052100  1
  O  O44  1  0.29225300  0.53637500  0.30995200  1
  O  O45  1  0.34962900  0.16557000  0.99764000  1
  O  O46  1  0.34762700  0.16376500  0.66386700  1
  O  O47  1  0.34943600  0.16631400  0.79647600  1
  O  O48  1  0.34160900  0.17917500  0.33107600  1
  O  O49  1  0.35100200  0.16732700  0.46316200  1
  O  O50  1  0.34514300  0.18104000  0.13270600  1
  O  O51  1  0.36883800  0.20787700  0.90009700  1
  O  O52  1  0.36829100  0.20811100  0.56636000  1
  O  O53  1  0.35902700  0.18433800  0.23241200  1
  O  O54  1  0.63354200  0.79270800  0.76693600  1
  O  O55  1  0.63153700  0.79742200  0.43239300  1
  O  O56  1  0.63368300  0.79618000  0.10159700  1
  O  O57  1  0.65209600  0.83348200  0.87031400  1
  O  O58  1  0.65005900  0.83253600  0.53635200  1
  O  O59  1  0.65387600  0.83585200  0.66924000  1
  O  O60  1  0.63257000  0.80961000  0.21090800  1
  O  O61  1  0.63750900  0.81518800  0.32541900  1
  O  O62  1  0.65520100  0.83709600  0.00305700  1
  O  O63  1  0.70623400  0.47599000  0.69269900  1
  O  O64  1  0.71846600  0.47847100  0.36063600  1
  O  O65  1  0.71066100  0.47865900  0.02674500  1
  O  O66  1  0.70771700  0.47871700  0.80530800  1
  O  O67  1  0.71232200  0.47975200  0.47128100  1
  O  O68  1  0.72040300  0.47931000  0.13804400  1
  O  O69  1  0.78544300  0.46952200  0.91507700  1
  O  O70  1  0.78537700  0.46973800  0.58143800  1
  O  O71  1  0.67692000  0.47389000  0.24860400  1
  O  O72  1  0.83547000  0.15388200  0.83965300  1
  O  O73  1  0.83646500  0.15451100  0.50660000  1
  O  O74  1  0.83218500  0.14994300  0.17538400  1
  O  O75  1  0.83518200  0.15326500  0.95360800  1
  O  O76  1  0.83362900  0.15214400  0.62012700  1
  O  O77  1  0.83152500  0.15226400  0.28615900  1
  O  O78  1  0.89536000  0.17964400  0.73294700  1
  O  O79  1  0.89403800  0.17636600  0.39887700  1
  O  O80  1  0.89802100  0.18096700  0.06620100  1
