# generated using pymatgen
data_ZnW4O9
_symmetry_space_group_name_H-M   'P 1'
_cell_length_a   6.91969000
_cell_length_b   6.91969000
_cell_length_c   3.88002900
_cell_angle_alpha   90.00000000
_cell_angle_beta   90.00000000
_cell_angle_gamma   90.00000000
_symmetry_Int_Tables_number   1
_chemical_formula_structural   ZnW4O9
_chemical_formula_sum   'Zn1 W4 O9'
_cell_volume   185.78397420
_cell_formula_units_Z   1
loop_
 _symmetry_equiv_pos_site_id
 _symmetry_equiv_pos_as_xyz
  1  'x, y, z'
loop_
 _atom_site_type_symbol
 _atom_site_label
 _atom_site_symmetry_multiplicity
 _atom_site_fract_x
 _atom_site_fract_y
 _atom_site_fract_z
 _atom_site_occupancy
  Zn  Zn0  1  0.50000000  0.50000000  0.00000000  1
  W  W1  1  0.69832700  0.87074400  0.50000000  1
  W  W2  1  0.87074400  0.30167300  0.50000000  1
  W  W3  1  0.30167300  0.12925600  0.50000000  1
  W  W4  1  0.12925600  0.69832700  0.50000000  1
  O  O5  1  0.00000000  0.00000000  0.50000000  1
  O  O6  1  0.13252300  0.70206300  0.00000000  1
  O  O7  1  0.29793700  0.13252300  0.00000000  1
  O  O8  1  0.70206300  0.86747700  0.00000000  1
  O  O9  1  0.86747700  0.29793700  0.00000000  1
  O  O10  1  0.15416900  0.39269400  0.50000000  1
  O  O11  1  0.60730600  0.15416900  0.50000000  1
  O  O12  1  0.39269400  0.84583100  0.50000000  1
  O  O13  1  0.84583100  0.60730600  0.50000000  1
