# generated using pymatgen
data_VCu6AgMo5O24
_symmetry_space_group_name_H-M   'P 1'
_cell_length_a   6.84119691
_cell_length_b   8.60258425
_cell_length_c   9.93014281
_cell_angle_alpha   101.93497524
_cell_angle_beta   103.11217877
_cell_angle_gamma   101.18515007
_symmetry_Int_Tables_number   1
_chemical_formula_structural   VCu6AgMo5O24
_chemical_formula_sum   'V1 Cu6 Ag1 Mo5 O24'
_cell_volume   538.77872803
_cell_formula_units_Z   1
loop_
 _symmetry_equiv_pos_site_id
 _symmetry_equiv_pos_as_xyz
  1  'x, y, z'
loop_
 _atom_site_type_symbol
 _atom_site_label
 _atom_site_symmetry_multiplicity
 _atom_site_fract_x
 _atom_site_fract_y
 _atom_site_fract_z
 _atom_site_occupancy
  V  V0  1  0.10554600  0.09051100  0.33926300  1
  Cu  Cu1  1  0.04963700  0.20627400  0.01735000  1
  Cu  Cu2  1  0.25292700  0.26887600  0.76680300  1
  Cu  Cu3  1  0.36810400  0.94162800  0.59250400  1
  Cu  Cu4  1  0.61662000  0.04649700  0.39183700  1
  Cu  Cu5  1  0.75296300  0.73736900  0.23827800  1
  Cu  Cu6  1  0.95253500  0.80063400  0.99253400  1
  Ag  Ag7  1  0.99052500  0.48786500  0.48351000  1
  Mo  Mo8  1  0.23256000  0.67121000  0.25957600  1
  Mo  Mo9  1  0.40583300  0.72523000  0.88085800  1
  Mo  Mo10  1  0.59388200  0.27876700  0.11841900  1
  Mo  Mo11  1  0.76950400  0.33270800  0.74260300  1
  Mo  Mo12  1  0.89050100  0.90708000  0.65608400  1
  O  O13  1  0.00719500  0.75075900  0.17824700  1
  O  O14  1  0.23283400  0.78215100  0.98306000  1
  O  O15  1  0.14230100  0.02779900  0.65142900  1
  O  O16  1  0.22528200  0.67780500  0.43970000  1
  O  O17  1  0.14492900  0.28150700  0.43791200  1
  O  O18  1  0.31956500  0.50816000  0.79606200  1
  O  O19  1  0.08462500  0.09066000  0.16249600  1
  O  O20  1  0.18219300  0.46680400  0.16572100  1
  O  O21  1  0.33460900  0.22489600  0.99626500  1
  O  O22  1  0.40925800  0.83638000  0.74766200  1
  O  O23  1  0.32715100  0.01091200  0.41254900  1
  O  O24  1  0.49455300  0.76764400  0.26481300  1
  O  O25  1  0.50742000  0.23525200  0.73598600  1
  O  O26  1  0.66486400  0.98273900  0.57984100  1
  O  O27  1  0.58891600  0.16515500  0.24854100  1
  O  O28  1  0.66330900  0.77939600  0.00412200  1
  O  O29  1  0.82385800  0.53657200  0.83913500  1
  O  O30  1  0.90392500  0.89908900  0.83574100  1
  O  O31  1  0.68248700  0.49555800  0.20659000  1
  O  O32  1  0.85170200  0.70750700  0.55266400  1
  O  O33  1  0.77420300  0.32683500  0.56340900  1
  O  O34  1  0.86140100  0.97381700  0.35164400  1
  O  O35  1  0.76779200  0.22229500  0.01667800  1
  O  O36  1  0.98940400  0.24104000  0.81896200  1
