# generated using pymatgen
data_Zn(SbO2)2
_symmetry_space_group_name_H-M   'P 1'
_cell_length_a   6.52563000
_cell_length_b   6.96467358
_cell_length_c   17.42911824
_cell_angle_alpha   92.77512557
_cell_angle_beta   89.93428895
_cell_angle_gamma   117.75358683
_symmetry_Int_Tables_number   1
_chemical_formula_structural   Zn(SbO2)2
_chemical_formula_sum   'Zn6 Sb12 O24'
_cell_volume   699.97834691
_cell_formula_units_Z   6
loop_
 _symmetry_equiv_pos_site_id
 _symmetry_equiv_pos_as_xyz
  1  'x, y, z'
loop_
 _atom_site_type_symbol
 _atom_site_label
 _atom_site_symmetry_multiplicity
 _atom_site_fract_x
 _atom_site_fract_y
 _atom_site_fract_z
 _atom_site_occupancy
  Zn  Zn0  1  0.81566000  0.64979200  0.04368900  1
  Zn  Zn1  1  0.46878700  0.96311500  0.40860900  1
  Zn  Zn2  1  0.21881500  0.41905200  0.33058600  1
  Zn  Zn3  1  0.18778500  0.35814400  0.73950600  1
  Zn  Zn4  1  0.49152600  0.97790400  0.99562000  1
  Zn  Zn5  1  0.48072700  0.95235600  0.62783200  1
  Sb  Sb6  1  0.32838800  0.66354100  0.12048600  1
  Sb  Sb7  1  0.39145100  0.22170300  0.17538000  1
  Sb  Sb8  1  0.94549000  0.95240600  0.45858200  1
  Sb  Sb9  1  0.87717800  0.20380800  0.19459800  1
  Sb  Sb10  1  0.03446600  0.51366100  0.49552000  1
  Sb  Sb11  1  0.89169900  0.77191000  0.65761400  1
  Sb  Sb12  1  0.83681400  0.68310500  0.25904300  1
  Sb  Sb13  1  0.66412000  0.32282600  0.86748200  1
  Sb  Sb14  1  0.48958300  0.39251900  0.51284600  1
  Sb  Sb15  1  0.64984700  0.81361500  0.82129900  1
  Sb  Sb16  1  0.16613600  0.80904600  0.82036000  1
  Sb  Sb17  1  0.17214000  0.33593900  0.94112000  1
  O  O18  1  0.69211100  0.42302600  0.12501600  1
  O  O19  1  0.53906200  0.05579600  0.22607800  1
  O  O20  1  0.61979200  0.81756500  0.06257500  1
  O  O21  1  0.18176500  0.80817300  0.06204700  1
  O  O22  1  0.29962100  0.64367200  0.41769900  1
  O  O23  1  0.49653200  0.45185200  0.26762900  1
  O  O24  1  0.17261300  0.34718800  0.54559600  1
  O  O25  1  0.97192500  0.47424800  0.26808800  1
  O  O26  1  0.20464500  0.38879500  0.05235500  1
  O  O27  1  0.29958300  0.13144600  0.42887900  1
  O  O28  1  0.79889900  0.12716500  0.42213100  1
  O  O29  1  0.03576200  0.12835800  0.27810500  1
  O  O30  1  0.04758200  0.07300300  0.69833800  1
  O  O31  1  0.14735700  0.76483000  0.58348900  1
  O  O32  1  0.64680400  0.78447600  0.59490600  1
  O  O33  1  0.79504900  0.60817500  0.92687900  1
  O  O34  1  0.85583100  0.72524700  0.37281900  1
  O  O35  1  0.01434000  0.49258100  0.79037900  1
  O  O36  1  0.49815100  0.50194400  0.78619000  1
  O  O37  1  0.55982200  0.23656000  0.59018200  1
  O  O38  1  0.81080000  0.18345800  0.94561700  1
  O  O39  1  0.37036800  0.17194500  0.94410500  1
  O  O40  1  0.43877900  0.87767300  0.74577800  1
  O  O41  1  0.39219500  0.77838800  0.89494600  1
