# generated using pymatgen
data_Ca(SbO2)2
_symmetry_space_group_name_H-M   'P 1'
_cell_length_a   6.75265500
_cell_length_b   6.76072150
_cell_length_c   18.04787143
_cell_angle_alpha   89.98004680
_cell_angle_beta   92.44597071
_cell_angle_gamma   114.66567757
_symmetry_Int_Tables_number   1
_chemical_formula_structural   Ca(SbO2)2
_chemical_formula_sum   'Ca6 Sb12 O24'
_cell_volume   747.93835314
_cell_formula_units_Z   6
loop_
 _symmetry_equiv_pos_site_id
 _symmetry_equiv_pos_as_xyz
  1  'x, y, z'
loop_
 _atom_site_type_symbol
 _atom_site_label
 _atom_site_symmetry_multiplicity
 _atom_site_fract_x
 _atom_site_fract_y
 _atom_site_fract_z
 _atom_site_occupancy
  Ca  Ca0  1  0.82563100  0.18829800  0.02927100  1
  Ca  Ca1  1  0.48670700  0.47069600  0.36269200  1
  Ca  Ca2  1  0.52217400  0.47298300  0.00651300  1
  Ca  Ca3  1  0.21207200  0.79815300  0.71881500  1
  Ca  Ca4  1  0.83083100  0.18015100  0.30615200  1
  Ca  Ca5  1  0.47324300  0.54710000  0.60282900  1
  Sb  Sb6  1  0.38373000  0.22237600  0.18182400  1
  Sb  Sb7  1  0.33466000  0.71460500  0.12029400  1
  Sb  Sb8  1  0.99340400  0.51181900  0.52765000  1
  Sb  Sb9  1  0.83041600  0.66097500  0.17365100  1
  Sb  Sb10  1  0.11156900  0.83081300  0.32498200  1
  Sb  Sb11  1  0.97022500  0.00167900  0.46630500  1
  Sb  Sb12  1  0.69340600  0.79581100  0.79525200  1
  Sb  Sb13  1  0.45679400  0.93308200  0.49874600  1
  Sb  Sb14  1  0.18452200  0.34529900  0.83345400  1
  Sb  Sb15  1  0.82554600  0.17143700  0.66083000  1
  Sb  Sb16  1  0.67784800  0.28942800  0.86130400  1
  Sb  Sb17  1  0.15449800  0.77775900  0.93200500  1
  O  O18  1  0.65179100  0.32314700  0.11990600  1
  O  O19  1  0.52707800  0.54569900  0.22180400  1
  O  O20  1  0.21504000  0.41109600  0.07933700  1
  O  O21  1  0.63268100  0.80366600  0.07916800  1
  O  O22  1  0.94895000  0.53752200  0.26638600  1
  O  O23  1  0.42639200  0.63872000  0.47123700  1
  O  O24  1  0.48937800  0.15832000  0.28109400  1
  O  O25  1  0.21517600  0.84042700  0.03899500  1
  O  O26  1  0.84647400  0.74191400  0.39187800  1
  O  O27  1  0.21423900  0.74915100  0.59228200  1
  O  O28  1  0.94443400  0.93494900  0.25152700  1
  O  O29  1  0.14550100  0.17827000  0.38306100  1
  O  O30  1  0.66593300  0.93218400  0.58267500  1
  O  O31  1  0.92902800  0.94964600  0.71776100  1
  O  O32  1  0.08303600  0.29980400  0.59035800  1
  O  O33  1  0.73461500  0.09608500  0.43447300  1
  O  O34  1  0.90839400  0.17211500  0.89008100  1
  O  O35  1  0.53949100  0.99683100  0.79012200  1
  O  O36  1  0.72985200  0.41799400  0.58599100  1
  O  O37  1  0.02522600  0.49677900  0.78368900  1
  O  O38  1  0.51546000  0.14715000  0.95015500  1
  O  O39  1  0.45703100  0.60850800  0.72476500  1
  O  O40  1  0.86639100  0.52718900  0.95561000  1
  O  O41  1  0.32113400  0.58038000  0.91507100  1
