# generated using pymatgen
data_MgFeF4
_symmetry_space_group_name_H-M   'P 1'
_cell_length_a   5.06645643
_cell_length_b   5.04502359
_cell_length_c   6.23387907
_cell_angle_alpha   113.65661323
_cell_angle_beta   113.93314908
_cell_angle_gamma   89.92882312
_symmetry_Int_Tables_number   1
_chemical_formula_structural   MgFeF4
_chemical_formula_sum   'Mg2 Fe2 F8'
_cell_volume   130.89494322
_cell_formula_units_Z   2
loop_
 _symmetry_equiv_pos_site_id
 _symmetry_equiv_pos_as_xyz
  1  'x, y, z'
loop_
 _atom_site_type_symbol
 _atom_site_label
 _atom_site_symmetry_multiplicity
 _atom_site_fract_x
 _atom_site_fract_y
 _atom_site_fract_z
 _atom_site_occupancy
  Mg  Mg0  1  0.25225500  0.24914000  0.49898700  1
  Mg  Mg1  1  0.75115400  0.74851900  0.49899500  1
  Fe  Fe2  1  0.00035000  0.50075200  0.00068700  1
  Fe  Fe3  1  0.49940100  0.99776700  0.99794200  1
  F  F4  1  0.90737000  0.39626200  0.26171400  1
  F  F5  1  0.65216900  0.13842400  0.73855200  1
  F  F6  1  0.09578600  0.60508900  0.74145300  1
  F  F7  1  0.15021700  0.10161900  0.73533500  1
  F  F8  1  0.35476800  0.85945700  0.26296500  1
  F  F9  1  0.40633400  0.35781900  0.25899800  1
  F  F10  1  0.85244000  0.89404400  0.25748500  1
  F  F11  1  0.59281500  0.63723600  0.73614300  1
