# generated using pymatgen
data_MgCrF4
_symmetry_space_group_name_H-M   'P 1'
_cell_length_a   6.25008996
_cell_length_b   6.25008996
_cell_length_c   5.05397131
_cell_angle_alpha   70.42458486
_cell_angle_beta   70.42458486
_cell_angle_gamma   53.87341475
_symmetry_Int_Tables_number   1
_chemical_formula_structural   MgCrF4
_chemical_formula_sum   'Mg2 Cr2 F8'
_cell_volume   147.77458291
_cell_formula_units_Z   2
loop_
 _symmetry_equiv_pos_site_id
 _symmetry_equiv_pos_as_xyz
  1  'x, y, z'
loop_
 _atom_site_type_symbol
 _atom_site_label
 _atom_site_symmetry_multiplicity
 _atom_site_fract_x
 _atom_site_fract_y
 _atom_site_fract_z
 _atom_site_occupancy
  Mg  Mg0  1  0.18558700  0.81441300  0.75000000  1
  Mg  Mg1  1  0.81441300  0.18558700  0.25000000  1
  Cr  Cr2  1  0.50000000  0.00000000  0.00000000  1
  Cr  Cr3  1  0.00000000  0.50000000  0.50000000  1
  F  F4  1  0.48984400  0.25151200  0.17941500  1
  F  F5  1  0.20362900  0.00783100  0.33739300  1
  F  F6  1  0.51015600  0.74848800  0.82058500  1
  F  F7  1  0.00783100  0.20362900  0.83739300  1
  F  F8  1  0.79637100  0.99216900  0.66260700  1
  F  F9  1  0.25151200  0.48984400  0.67941500  1
  F  F10  1  0.99216900  0.79637100  0.16260700  1
  F  F11  1  0.74848800  0.51015600  0.32058500  1
