# generated using pymatgen
data_Ca(WO2)4
_symmetry_space_group_name_H-M   'P 1'
_cell_length_a   3.34475700
_cell_length_b   7.28450406
_cell_length_c   7.33001564
_cell_angle_alpha   88.29437336
_cell_angle_beta   101.03835246
_cell_angle_gamma   101.72536020
_symmetry_Int_Tables_number   1
_chemical_formula_structural   Ca(WO2)4
_chemical_formula_sum   'Ca1 W4 O8'
_cell_volume   171.62534864
_cell_formula_units_Z   1
loop_
 _symmetry_equiv_pos_site_id
 _symmetry_equiv_pos_as_xyz
  1  'x, y, z'
loop_
 _atom_site_type_symbol
 _atom_site_label
 _atom_site_symmetry_multiplicity
 _atom_site_fract_x
 _atom_site_fract_y
 _atom_site_fract_z
 _atom_site_occupancy
  Ca  Ca0  1  0.52115000  0.01391100  0.02337700  1
  W  W1  1  0.16865300  0.82360400  0.56101700  1
  W  W2  1  0.38280300  0.52732300  0.20992600  1
  W  W3  1  0.65320700  0.47294500  0.85678400  1
  W  W4  1  0.86341100  0.17630400  0.50252700  1
  O  O5  1  0.47898300  0.28683800  0.63397100  1
  O  O6  1  0.17176900  0.61813100  0.75915900  1
  O  O7  1  0.87769100  0.39046400  0.31819900  1
  O  O8  1  0.55539500  0.71198000  0.42169100  1
  O  O9  1  0.80173100  0.96408100  0.71406400  1
  O  O10  1  0.87867000  0.67871700  0.08655300  1
  O  O11  1  0.22391200  0.04813300  0.34833800  1
  O  O12  1  0.14903900  0.31146300  0.99503900  1
