# generated using pymatgen
data_Y6Zr22O53
_symmetry_space_group_name_H-M   'P 1'
_cell_length_a   3.66987658
_cell_length_b   3.66987639
_cell_length_c   104.55733864
_cell_angle_alpha   60.56899816
_cell_angle_beta   60.56900010
_cell_angle_gamma   60.00059608
_symmetry_Int_Tables_number   1
_chemical_formula_structural   Y6Zr22O53
_chemical_formula_sum   'Y6 Zr22 O53'
_cell_volume   1004.21445065
_cell_formula_units_Z   1
loop_
 _symmetry_equiv_pos_site_id
 _symmetry_equiv_pos_as_xyz
  1  'x, y, z'
loop_
 _atom_site_type_symbol
 _atom_site_label
 _atom_site_symmetry_multiplicity
 _atom_site_fract_x
 _atom_site_fract_y
 _atom_site_fract_z
 _atom_site_occupancy
  Y  Y0  1  0.01927946  0.01927946  0.78364863  1
  Y  Y1  1  0.99897666  0.99897666  0.85725515  1
  Y  Y2  1  0.01594480  0.01594480  0.81971676  1
  Y  Y3  1  0.00051591  0.00051591  0.89280537  1
  Y  Y4  1  0.98425232  0.98425232  0.93026197  1
  Y  Y5  1  0.98168493  0.98168493  0.96624700  1
  Zr  Zr6  1  0.99326645  0.99326645  0.00071772  1
  Zr  Zr7  1  0.00498166  0.00498166  0.03517763  1
  Zr  Zr8  1  0.01270812  0.01270812  0.07006452  1
  Zr  Zr9  1  0.01658611  0.01658610  0.10536547  1
  Zr  Zr10  1  0.01796255  0.01796255  0.14093507  1
  Zr  Zr11  1  0.01803601  0.01803601  0.21235746  1
  Zr  Zr12  1  0.00152636  0.00152636  0.24984108  1
  Zr  Zr13  1  0.01792242  0.01792242  0.17665518  1
  Zr  Zr14  1  0.01395582  0.01395582  0.28421219  1
  Zr  Zr15  1  0.01355125  0.01355125  0.31997397  1
  Zr  Zr16  1  0.02638496  0.02638496  0.39003269  1
  Zr  Zr17  1  0.00640121  0.00640121  0.35645949  1
  Zr  Zr18  1  0.00950474  0.00950474  0.42755384  1
  Zr  Zr19  1  0.98923394  0.98923394  0.46543976  1
  Zr  Zr20  1  0.98454717  0.98454717  0.50165465  1
  Zr  Zr21  1  0.98332018  0.98332018  0.53750001  1
  Zr  Zr22  1  0.98277163  0.98277163  0.57327662  1
  Zr  Zr23  1  0.98291572  0.98291572  0.60897326  1
  Zr  Zr24  1  0.98897665  0.98897665  0.67975156  1
  Zr  Zr25  1  0.98450156  0.98450156  0.64451470  1
  Zr  Zr26  1  0.00856453  0.00856453  0.74907916  1
  Zr  Zr27  1  0.99681082  0.99681082  0.71462691  1
  O  O28  1  0.22513188  0.22513188  0.01158755  1
  O  O29  1  0.23460635  0.23460635  0.04629225  1
  O  O30  1  0.23984670  0.23984670  0.08144461  1
  O  O31  1  0.72530590  0.72530590  0.02942967  1
  O  O32  1  0.73354942  0.73354942  0.06426085  1
  O  O33  1  0.24215708  0.24215708  0.11691316  1
  O  O34  1  0.73741744  0.73741744  0.09956269  1
  O  O35  1  0.24278558  0.24278558  0.15256198  1
  O  O36  1  0.24249983  0.24249983  0.18830781  1
  O  O37  1  0.73857681  0.73857681  0.13515509  1
  O  O38  1  0.23604618  0.23604618  0.22471376  1
  O  O39  1  0.73867185  0.73867185  0.17086017  1
  O  O40  1  0.73977862  0.73977862  0.20645613  1
  O  O41  1  0.24891647  0.24891647  0.29475551  1
  O  O42  1  0.70170146  0.70170146  0.24624893  1
  O  O43  1  0.24424776  0.24424776  0.33097764  1
  O  O44  1  0.75744553  0.75744553  0.27598347  1
  O  O45  1  0.74544033  0.74544033  0.31298945  1
  O  O46  1  0.25119432  0.25119432  0.40165717  1
  O  O47  1  0.71981307  0.71981307  0.35145187  1
  O  O48  1  0.76481923  0.76481923  0.38234063  1
  O  O49  1  0.26918348  0.26918348  0.47115973  1
  O  O50  1  0.69998879  0.69998879  0.42500196  1
  O  O51  1  0.26131751  0.26131751  0.50771374  1
  O  O52  1  0.77770489  0.77770489  0.45239079  1
  O  O53  1  0.26031107  0.26031107  0.54353669  1
  O  O54  1  0.76047186  0.76047186  0.48994639  1
  O  O55  1  0.75790313  0.75790313  0.52593700  1
  O  O56  1  0.25995930  0.25995930  0.57929104  1
  O  O57  1  0.75703537  0.75703537  0.56174626  1
  O  O58  1  0.26023703  0.26023703  0.61497455  1
  O  O59  1  0.75690507  0.75690507  0.59747485  1
  O  O60  1  0.26155057  0.26155057  0.65054571  1
  O  O61  1  0.75753989  0.75753989  0.63311898  1
  O  O62  1  0.26587541  0.26587541  0.68579744  1
  O  O63  1  0.75992291  0.75992291  0.66857654  1
  O  O64  1  0.27462517  0.27462517  0.72057547  1
  O  O65  1  0.28996071  0.28996071  0.75464377  1
  O  O66  1  0.76545636  0.76545636  0.70370075  1
  O  O67  1  0.77536721  0.77536721  0.73835005  1
  O  O68  1  0.26666770  0.26666770  0.79285763  1
  O  O69  1  0.78896319  0.78896319  0.77261015  1
  O  O70  1  0.25133015  0.25133015  0.83021141  1
  O  O71  1  0.76179439  0.76179439  0.81123232  1
  O  O72  1  0.25278216  0.25278216  0.86577672  1
  O  O73  1  0.76400275  0.76400275  0.84671661  1
  O  O74  1  0.23662365  0.23662365  0.90322256  1
  O  O75  1  0.23855561  0.23855561  0.93872950  1
  O  O76  1  0.74729277  0.74729277  0.88422111  1
  O  O77  1  0.74854237  0.74854237  0.91980267  1
  O  O78  1  0.21200210  0.21200210  0.97728315  1
  O  O79  1  0.73438270  0.73438270  0.95702992  1
  O  O80  1  0.71070898  0.71070898  0.99527631  1
