# generated using pymatgen
data_MgBi2(PO5)2
_symmetry_space_group_name_H-M   'P 1'
_cell_length_a   10.14918445
_cell_length_b   8.57345813
_cell_length_c   7.96716991
_cell_angle_alpha   75.60003705
_cell_angle_beta   54.90546075
_cell_angle_gamma   49.49450220
_symmetry_Int_Tables_number   1
_chemical_formula_structural   MgBi2(PO5)2
_chemical_formula_sum   'Mg2 Bi4 P4 O20'
_cell_volume   422.52540251
_cell_formula_units_Z   2
loop_
 _symmetry_equiv_pos_site_id
 _symmetry_equiv_pos_as_xyz
  1  'x, y, z'
loop_
 _atom_site_type_symbol
 _atom_site_label
 _atom_site_symmetry_multiplicity
 _atom_site_fract_x
 _atom_site_fract_y
 _atom_site_fract_z
 _atom_site_occupancy
  Mg  Mg0  1  0.95211800  0.54788200  0.54788200  1
  Mg  Mg1  1  0.70211800  0.29788200  0.29788200  1
  Bi  Bi2  1  0.38608400  0.36507100  0.88284400  1
  Bi  Bi3  1  0.36600000  0.88284400  0.36507100  1
  Bi  Bi4  1  0.88492900  0.86391600  0.88400000  1
  Bi  Bi5  1  0.36715600  0.88400000  0.86391600  1
  P  P6  1  0.92986600  0.45093500  0.01810100  1
  P  P7  1  0.79906500  0.32013400  0.64890200  1
  P  P8  1  0.60109800  0.01810100  0.45093500  1
  P  P9  1  0.23189900  0.64890200  0.32013400  1
  O  O10  1  0.30341800  0.79247800  0.69097500  1
  O  O11  1  0.45752200  0.94658200  0.03687200  1
  O  O12  1  0.21312800  0.69097500  0.79247800  1
  O  O13  1  0.55902500  0.03687200  0.94658200  1
  O  O14  1  0.46923600  0.21836400  0.60550800  1
  O  O15  1  0.43257100  0.54127500  0.30969400  1
  O  O16  1  0.64449200  0.54310700  0.78076400  1
  O  O17  1  0.75164500  0.03360500  0.23792800  1
  O  O18  1  0.44030900  0.03529600  0.44584300  1
  O  O19  1  0.21639500  0.49835500  0.27317800  1
  O  O20  1  0.70689300  0.60550800  0.21836400  1
  O  O21  1  0.01207200  0.27317800  0.49835500  1
  O  O22  1  0.97682200  0.23792800  0.03360500  1
  O  O23  1  0.21470400  0.80969100  0.17144800  1
  O  O24  1  0.07855200  0.44584300  0.03529600  1
  O  O25  1  0.80415700  0.17144800  0.80969100  1
  O  O26  1  0.94030600  0.53354000  0.81742900  1
  O  O27  1  0.71646000  0.30969400  0.54127400  1
  O  O28  1  0.03163600  0.78076400  0.54310700  1
  O  O29  1  0.70872500  0.81742900  0.53354000  1
