# generated using pymatgen
data_Al(FeS2)2
_symmetry_space_group_name_H-M   'P 1'
_cell_length_a   6.89600356
_cell_length_b   6.89600418
_cell_length_c   6.90474199
_cell_angle_alpha   118.66853638
_cell_angle_beta   120.50273705
_cell_angle_gamma   90.65478013
_symmetry_Int_Tables_number   1
_chemical_formula_structural   Al(FeS2)2
_chemical_formula_sum   'Al2 Fe4 S8'
_cell_volume   233.68912854
_cell_formula_units_Z   2
loop_
 _symmetry_equiv_pos_site_id
 _symmetry_equiv_pos_as_xyz
  1  'x, y, z'
loop_
 _atom_site_type_symbol
 _atom_site_label
 _atom_site_symmetry_multiplicity
 _atom_site_fract_x
 _atom_site_fract_y
 _atom_site_fract_z
 _atom_site_occupancy
  Al  Al0  1  0.00000000  0.50000100  0.00000100  1
  Al  Al1  1  0.00000100  0.00000000  0.50000000  1
  Fe  Fe2  1  0.36628500  0.61628500  0.75000000  1
  Fe  Fe3  1  0.63371500  0.38371600  0.25000000  1
  Fe  Fe4  1  0.50000100  0.00000000  0.50000000  1
  Fe  Fe5  1  0.00000000  0.00000000  0.00000000  1
  S  S6  1  0.75496300  0.78483500  0.53167800  1
  S  S7  1  0.75315800  0.22328700  0.96832400  1
  S  S8  1  0.22762600  0.23700900  0.98948100  1
  S  S9  1  0.24503700  0.21516500  0.46832300  1
  S  S10  1  0.25247200  0.76185400  0.48948000  1
  S  S11  1  0.24684200  0.77671400  0.03167800  1
  S  S12  1  0.74752700  0.23814500  0.51051900  1
  S  S13  1  0.77237400  0.76299200  0.01051900  1
