# generated using pymatgen
data_Ti2AlO4
_symmetry_space_group_name_H-M   'P 1'
_cell_length_a   5.81399926
_cell_length_b   5.81399926
_cell_length_c   5.81399926
_cell_angle_alpha   121.68895717
_cell_angle_beta   116.93113106
_cell_angle_gamma   91.24760804
_symmetry_Int_Tables_number   1
_chemical_formula_structural   Ti2AlO4
_chemical_formula_sum   'Ti4 Al2 O8'
_cell_volume   140.08497443
_cell_formula_units_Z   2
loop_
 _symmetry_equiv_pos_site_id
 _symmetry_equiv_pos_as_xyz
  1  'x, y, z'
loop_
 _atom_site_type_symbol
 _atom_site_label
 _atom_site_symmetry_multiplicity
 _atom_site_fract_x
 _atom_site_fract_y
 _atom_site_fract_z
 _atom_site_occupancy
  Ti  Ti0  1  0.00000000  0.50000000  0.50000000  1
  Ti  Ti1  1  0.00000000  0.00000000  0.50000000  1
  Ti  Ti2  1  0.50000000  0.50000000  0.00000000  1
  Ti  Ti3  1  0.00000000  0.50000000  0.00000000  1
  Al  Al4  1  0.50000000  0.00000000  0.00000000  1
  Al  Al5  1  0.50000000  0.50000000  0.50000000  1
  O  O6  1  0.73438200  0.24793000  0.01354800  1
  O  O7  1  0.28403200  0.75272600  0.53130600  1
  O  O8  1  0.73438200  0.72083400  0.48645200  1
  O  O9  1  0.27858000  0.24727400  0.03130600  1
  O  O10  1  0.26561800  0.27916600  0.51354800  1
  O  O11  1  0.71596800  0.24727400  0.46869400  1
  O  O12  1  0.72142000  0.75272600  0.96869400  1
  O  O13  1  0.26561800  0.75207000  0.98645200  1
