# generated using pymatgen
data_Y(TiS2)2
_symmetry_space_group_name_H-M   'P 1'
_cell_length_a   7.27119340
_cell_length_b   7.27119340
_cell_length_c   7.27119340
_cell_angle_alpha   120.48139620
_cell_angle_beta   118.06809693
_cell_angle_gamma   91.27326312
_symmetry_Int_Tables_number   1
_chemical_formula_structural   Y(TiS2)2
_chemical_formula_sum   'Y2 Ti4 S8'
_cell_volume   274.59115618
_cell_formula_units_Z   2
loop_
 _symmetry_equiv_pos_site_id
 _symmetry_equiv_pos_as_xyz
  1  'x, y, z'
loop_
 _atom_site_type_symbol
 _atom_site_label
 _atom_site_symmetry_multiplicity
 _atom_site_fract_x
 _atom_site_fract_y
 _atom_site_fract_z
 _atom_site_occupancy
  Y  Y0  1  0.00000000  0.50000000  0.50000000  1
  Y  Y1  1  0.50000000  0.50000000  0.00000000  1
  Ti  Ti2  1  0.50000000  0.00000000  0.00000000  1
  Ti  Ti3  1  0.00000000  0.00000000  0.00000000  1
  Ti  Ti4  1  0.50000000  0.50000000  0.50000000  1
  Ti  Ti5  1  0.50000000  0.00000000  0.50000000  1
  S  S6  1  0.72401100  0.23921800  0.48479200  1
  S  S7  1  0.24900500  0.76707500  0.01807000  1
  S  S8  1  0.25442600  0.23921800  0.01520800  1
  S  S9  1  0.75099500  0.76906400  0.51807000  1
  S  S10  1  0.74557400  0.76078200  0.98479200  1
  S  S11  1  0.75099500  0.23292500  0.98193000  1
  S  S12  1  0.24900500  0.23093600  0.48193000  1
  S  S13  1  0.27598900  0.76078200  0.51520800  1
