# generated using pymatgen
data_CaSn(PO3)4
_symmetry_space_group_name_H-M   'P 1'
_cell_length_a   7.90140743
_cell_length_b   7.90140743
_cell_length_c   11.13804496
_cell_angle_alpha   65.13139289
_cell_angle_beta   65.13139289
_cell_angle_gamma   69.56002950
_symmetry_Int_Tables_number   1
_chemical_formula_structural   CaSn(PO3)4
_chemical_formula_sum   'Ca2 Sn2 P8 O24'
_cell_volume   559.70353853
_cell_formula_units_Z   2
loop_
 _symmetry_equiv_pos_site_id
 _symmetry_equiv_pos_as_xyz
  1  'x, y, z'
loop_
 _atom_site_type_symbol
 _atom_site_label
 _atom_site_symmetry_multiplicity
 _atom_site_fract_x
 _atom_site_fract_y
 _atom_site_fract_z
 _atom_site_occupancy
  Ca  Ca0  1  0.97631700  0.02368300  0.75000000  1
  Ca  Ca1  1  0.02368300  0.97631700  0.25000000  1
  Sn  Sn2  1  0.00000000  0.50000000  0.50000000  1
  Sn  Sn3  1  0.50000000  0.00000000  0.00000000  1
  P  P4  1  0.69256200  0.68074400  0.81340600  1
  P  P5  1  0.31925600  0.30743800  0.68659400  1
  P  P6  1  0.30743800  0.31925600  0.18659400  1
  P  P7  1  0.68074400  0.69256200  0.31340600  1
  P  P8  1  0.73966100  0.28578200  0.01430800  1
  P  P9  1  0.71421800  0.26033900  0.48569200  1
  P  P10  1  0.26033900  0.71421800  0.98569200  1
  P  P11  1  0.28578200  0.73966100  0.51430800  1
  O  O12  1  0.46662500  0.68990900  0.86655900  1
  O  O13  1  0.31009100  0.53337500  0.63344100  1
  O  O14  1  0.53337500  0.31009100  0.13344100  1
  O  O15  1  0.68990900  0.46662500  0.36655900  1
  O  O16  1  0.76526300  0.50322100  0.93458900  1
  O  O17  1  0.49677900  0.23473700  0.56541100  1
  O  O18  1  0.23473700  0.49677900  0.06541100  1
  O  O19  1  0.50322100  0.76526300  0.43458900  1
  O  O20  1  0.77710400  0.64539200  0.67690200  1
  O  O21  1  0.35460800  0.22289600  0.82309800  1
  O  O22  1  0.22289600  0.35460800  0.32309800  1
  O  O23  1  0.64539200  0.77710400  0.17690200  1
  O  O24  1  0.72723000  0.85388000  0.81974800  1
  O  O25  1  0.14612000  0.27277000  0.68025200  1
  O  O26  1  0.27277000  0.14612000  0.18025200  1
  O  O27  1  0.85388000  0.72723000  0.31974800  1
  O  O28  1  0.73300500  0.20451000  0.91490000  1
  O  O29  1  0.79549000  0.26699500  0.58510000  1
  O  O30  1  0.26699500  0.79549000  0.08510000  1
  O  O31  1  0.20451000  0.73300500  0.41490000  1
  O  O32  1  0.88428800  0.18424700  0.08744800  1
  O  O33  1  0.81575300  0.11571200  0.41255200  1
  O  O34  1  0.11571200  0.81575300  0.91255200  1
  O  O35  1  0.18424700  0.88428800  0.58744800  1
