# generated using pymatgen
data_ZnCu(PO3)4
_symmetry_space_group_name_H-M   'P 1'
_cell_length_a   7.28601788
_cell_length_b   7.28601788
_cell_length_c   10.03011217
_cell_angle_alpha   67.09380316
_cell_angle_beta   67.09380316
_cell_angle_gamma   70.02027304
_symmetry_Int_Tables_number   1
_chemical_formula_structural   ZnCu(PO3)4
_chemical_formula_sum   'Zn2 Cu2 P8 O24'
_cell_volume   440.29812469
_cell_formula_units_Z   2
loop_
 _symmetry_equiv_pos_site_id
 _symmetry_equiv_pos_as_xyz
  1  'x, y, z'
loop_
 _atom_site_type_symbol
 _atom_site_label
 _atom_site_symmetry_multiplicity
 _atom_site_fract_x
 _atom_site_fract_y
 _atom_site_fract_z
 _atom_site_occupancy
  Zn  Zn0  1  0.94941200  0.05058800  0.75000000  1
  Zn  Zn1  1  0.05058800  0.94941200  0.25000000  1
  Cu  Cu2  1  0.00000000  0.50000000  0.50000000  1
  Cu  Cu3  1  0.50000000  0.00000000  0.00000000  1
  P  P4  1  0.70305600  0.68607700  0.80160600  1
  P  P5  1  0.31392300  0.29694400  0.69839400  1
  P  P6  1  0.29694400  0.31392300  0.19839400  1
  P  P7  1  0.68607700  0.70305600  0.30160600  1
  P  P8  1  0.74618900  0.26965200  0.02170400  1
  P  P9  1  0.73034800  0.25381100  0.47829600  1
  P  P10  1  0.25381100  0.73034800  0.97829600  1
  P  P11  1  0.26965200  0.74618900  0.52170400  1
  O  O12  1  0.46630600  0.68270600  0.84524300  1
  O  O13  1  0.31729400  0.53369400  0.65475700  1
  O  O14  1  0.53369400  0.31729400  0.15475700  1
  O  O15  1  0.68270600  0.46630600  0.34524300  1
  O  O16  1  0.79082100  0.49461600  0.92819000  1
  O  O17  1  0.50538400  0.20917900  0.57181000  1
  O  O18  1  0.20917900  0.50538400  0.07181000  1
  O  O19  1  0.49461600  0.79082100  0.42819000  1
  O  O20  1  0.80825600  0.66370300  0.64717000  1
  O  O21  1  0.33629700  0.19174400  0.85283000  1
  O  O22  1  0.19174400  0.33629700  0.35283000  1
  O  O23  1  0.66370300  0.80825600  0.14717000  1
  O  O24  1  0.71119300  0.87715000  0.82500800  1
  O  O25  1  0.12285000  0.28880700  0.67499200  1
  O  O26  1  0.28880700  0.12285000  0.17499200  1
  O  O27  1  0.87715000  0.71119300  0.32500800  1
  O  O28  1  0.71018000  0.18917600  0.91635800  1
  O  O29  1  0.81082400  0.28982000  0.58364200  1
  O  O30  1  0.28982000  0.81082400  0.08364200  1
  O  O31  1  0.18917600  0.71018000  0.41635800  1
  O  O32  1  0.90860200  0.14929300  0.09511200  1
  O  O33  1  0.85070700  0.09139800  0.40488800  1
  O  O34  1  0.09139800  0.85070700  0.90488800  1
  O  O35  1  0.14929300  0.90860200  0.59511200  1
