# generated using pymatgen
data_Sb(PO3)4
_symmetry_space_group_name_H-M   'P 1'
_cell_length_a   7.43561400
_cell_length_b   7.93687579
_cell_length_c   10.03217462
_cell_angle_alpha   95.17751538
_cell_angle_beta   109.07237491
_cell_angle_gamma   113.02695348
_symmetry_Int_Tables_number   1
_chemical_formula_structural   Sb(PO3)4
_chemical_formula_sum   'Sb2 P8 O24'
_cell_volume   498.52391965
_cell_formula_units_Z   2
loop_
 _symmetry_equiv_pos_site_id
 _symmetry_equiv_pos_as_xyz
  1  'x, y, z'
loop_
 _atom_site_type_symbol
 _atom_site_label
 _atom_site_symmetry_multiplicity
 _atom_site_fract_x
 _atom_site_fract_y
 _atom_site_fract_z
 _atom_site_occupancy
  Sb  Sb0  1  0.00000000  0.00000000  0.50000000  1
  Sb  Sb1  1  0.00000000  0.50000000  0.00000000  1
  P  P2  1  0.72127400  0.73232200  0.96635100  1
  P  P3  1  0.26865600  0.73074300  0.52276600  1
  P  P4  1  0.00951300  0.35089300  0.31543400  1
  P  P5  1  0.73134400  0.26925700  0.47723400  1
  P  P6  1  0.27872600  0.26767800  0.03364900  1
  P  P7  1  0.51246600  0.68018100  0.18188900  1
  P  P8  1  0.48753400  0.31981900  0.81811100  1
  P  P9  1  0.99048700  0.64910700  0.68456600  1
  O  O10  1  0.52820200  0.53432600  0.85054400  1
  O  O11  1  0.04418700  0.63028400  0.84400800  1
  O  O12  1  0.95581300  0.36971600  0.15599200  1
  O  O13  1  0.88636600  0.66892800  0.06238900  1
  O  O14  1  0.89350000  0.20966900  0.56896500  1
  O  O15  1  0.82183600  0.35762800  0.35354800  1
  O  O16  1  0.96713900  0.82659800  0.66913000  1
  O  O17  1  0.77845100  0.46917500  0.58024900  1
  O  O18  1  0.61078900  0.77132500  0.07180000  1
  O  O19  1  0.50279600  0.14877500  0.40604600  1
  O  O20  1  0.47179800  0.46567400  0.14945600  1
  O  O21  1  0.65954700  0.78095200  0.33501600  1
  O  O22  1  0.70514200  0.31356000  0.86200800  1
  O  O23  1  0.21787500  0.11459400  0.10350000  1
  O  O24  1  0.78212500  0.88540600  0.89650000  1
  O  O25  1  0.10650000  0.79033100  0.43103500  1
  O  O26  1  0.34045300  0.21904800  0.66498400  1
  O  O27  1  0.11363400  0.33107200  0.93761100  1
  O  O28  1  0.49720400  0.85122500  0.59395400  1
  O  O29  1  0.38921100  0.22867500  0.92820000  1
  O  O30  1  0.22154900  0.53082500  0.41975100  1
  O  O31  1  0.03286100  0.17340200  0.33087000  1
  O  O32  1  0.17816400  0.64237200  0.64645200  1
  O  O33  1  0.29485800  0.68644000  0.13799200  1
