# generated using pymatgen
data_MgSbAs2SeO7
_symmetry_space_group_name_H-M   'P 1'
_cell_length_a   13.52615675
_cell_length_b   13.52615675
_cell_length_c   13.52615675
_cell_angle_alpha   98.89849962
_cell_angle_beta   98.89849962
_cell_angle_gamma   133.68007638
_symmetry_Int_Tables_number   1
_chemical_formula_structural   MgSbAs2SeO7
_chemical_formula_sum   'Mg8 Sb8 As16 Se8 O56'
_cell_volume   1645.49091163
_cell_formula_units_Z   8
loop_
 _symmetry_equiv_pos_site_id
 _symmetry_equiv_pos_as_xyz
  1  'x, y, z'
loop_
 _atom_site_type_symbol
 _atom_site_label
 _atom_site_symmetry_multiplicity
 _atom_site_fract_x
 _atom_site_fract_y
 _atom_site_fract_z
 _atom_site_occupancy
  Mg  Mg0  1  0.05579700  0.68870300  0.08555100  1
  Mg  Mg1  1  0.22024600  0.80579700  0.86709400  1
  Mg  Mg2  1  0.31129700  0.39684800  0.36709400  1
  Mg  Mg3  1  0.02975400  0.94420300  0.63290600  1
  Mg  Mg4  1  0.19420300  0.06129700  0.41444900  1
  Mg  Mg5  1  0.64684800  0.77975400  0.58555100  1
  Mg  Mg6  1  0.93870300  0.35315200  0.13290600  1
  Mg  Mg7  1  0.60315200  0.97024600  0.91444900  1
  Sb  Sb8  1  0.74242000  0.60327200  0.49872600  1
  Sb  Sb9  1  0.10454600  0.24369400  0.50127400  1
  Sb  Sb10  1  0.50758000  0.14672800  0.00127400  1
  Sb  Sb11  1  0.39672800  0.89545400  0.13914800  1
  Sb  Sb12  1  0.14545400  0.50630600  0.99872600  1
  Sb  Sb13  1  0.85327200  0.85454600  0.36085200  1
  Sb  Sb14  1  0.75630600  0.25758000  0.86085200  1
  Sb  Sb15  1  0.49369400  0.49242000  0.63914800  1
  As  As16  1  0.53522100  0.24451000  0.58696100  1
  As  As17  1  0.13987600  0.96953400  0.97780700  1
  As  As18  1  0.25827300  0.58793100  0.47780700  1
  As  As19  1  0.49451000  0.40754900  0.20928800  1
  As  As20  1  0.21953400  0.74172700  0.32965800  1
  As  As21  1  0.65754900  0.94826000  0.41303900  1
  As  As22  1  0.05174000  0.46477900  0.70928800  1
  As  As23  1  0.03046600  0.00827300  0.17034200  1
  As  As24  1  0.19826000  0.28522100  0.79071200  1
  As  As25  1  0.59245100  0.80174000  0.08696100  1
  As  As26  1  0.11012400  0.78046600  0.52219300  1
  As  As27  1  0.41206900  0.88987600  0.67034200  1
  As  As28  1  0.71477900  0.50549000  0.91303900  1
  As  As29  1  0.99172700  0.16206900  0.02219300  1
  As  As30  1  0.83793100  0.86012400  0.82965800  1
  As  As31  1  0.75549000  0.34245100  0.29071200  1
  Se  Se32  1  0.39153900  0.12828600  0.25037900  1
  Se  Se33  1  0.87790700  0.14116000  0.74962100  1
  Se  Se34  1  0.87171400  0.12209300  0.26325400  1
  Se  Se35  1  0.39116000  0.14153900  0.76325400  1
  Se  Se36  1  0.37828600  0.62790700  0.23674600  1
  Se  Se37  1  0.85846100  0.62171400  0.24962100  1
  Se  Se38  1  0.85884000  0.60846100  0.73674600  1
  Se  Se39  1  0.37209300  0.60884000  0.75037900  1
  O  O40  1  0.83389800  0.92007300  0.72226200  1
  O  O41  1  0.40980700  0.78555700  0.56302100  1
  O  O42  1  0.09158900  0.25546700  0.35369200  1
  O  O43  1  0.53231300  0.81800000  0.97586100  1
  O  O44  1  0.98789700  0.84158900  0.33612300  1
  O  O45  1  0.74453300  0.09822500  0.83612300  1
  O  O46  1  0.68970300  0.45800300  0.61204000  1
  O  O47  1  0.40786100  0.19354800  0.47586100  1
  O  O48  1  0.84399900  0.80686700  0.49480200  1
  O  O49  1  0.06800000  0.59213900  0.78568700  1
  O  O50  1  0.65080300  0.15600100  0.96286700  1
  O  O51  1  0.44354800  0.46768700  0.28568700  1
  O  O52  1  0.84019300  0.96444300  0.93697900  1
  O  O53  1  0.50546700  0.65177500  0.66387700  1
  O  O54  1  0.17007300  0.94781100  0.58617500  1
  O  O55  1  0.58061600  0.78092700  0.31234300  1
  O  O56  1  0.02746500  0.90321400  0.06302100  1
  O  O57  1  0.40403800  0.67233700  0.11204000  1
  O  O58  1  0.07992700  0.80218900  0.91382500  1
  O  O59  1  0.41610200  0.82992700  0.77773800  1
  O  O60  1  0.92233700  0.31029700  0.76830000  1
  O  O61  1  0.22253500  0.84678600  0.43697900  1
  O  O62  1  0.71768700  0.93200000  0.52413900  1
  O  O63  1  0.05218900  0.63836400  0.22226200  1
  O  O64  1  0.78141600  0.48172700  0.81234300  1
  O  O65  1  0.59919700  0.59399900  0.53713300  1
  O  O66  1  0.31206500  0.34919700  0.50519800  1
  O  O67  1  0.51827300  0.33061600  0.29969000  1
  O  O68  1  0.19313300  0.68793500  0.03713300  1
  O  O69  1  0.03555700  0.97253500  0.87575000  1
  O  O70  1  0.40600100  0.94313300  0.00519800  1
  O  O71  1  0.32766300  0.43970300  0.73170000  1
  O  O72  1  0.73172700  0.41938400  0.20031000  1
  O  O73  1  0.09678600  0.15980700  0.12425000  1
  O  O74  1  0.80645200  0.28231300  0.21431300  1
  O  O75  1  0.54199700  0.15403800  0.23170000  1
  O  O76  1  0.15841100  0.49453300  0.14630800  1
  O  O77  1  0.21907300  0.53141600  0.79969000  1
  O  O78  1  0.03092700  0.21858400  0.70031000  1
  O  O79  1  0.34822500  0.01210300  0.85369200  1
  O  O80  1  0.56029700  0.29199700  0.88796000  1
  O  O81  1  0.90177500  0.73789700  0.64630800  1
  O  O82  1  0.05686700  0.06206500  0.46286700  1
  O  O83  1  0.70800300  0.59596200  0.26830000  1
  O  O84  1  0.66938400  0.96907300  0.18765700  1
  O  O85  1  0.19781100  0.11163600  0.27773800  1
  O  O86  1  0.46858400  0.26827300  0.68765700  1
  O  O87  1  0.15321400  0.59019300  0.37575000  1
  O  O88  1  0.84213900  0.55645200  0.02413900  1
  O  O89  1  0.84596200  0.07766300  0.38796000  1
  O  O90  1  0.36163600  0.58389800  0.41382500  1
  O  O91  1  0.88836400  0.16610200  0.08617500  1
  O  O92  1  0.26210300  0.90841100  0.16387700  1
  O  O93  1  0.21444300  0.77746500  0.62425000  1
  O  O94  1  0.93793500  0.40080300  0.99480200  1
  O  O95  1  0.18200000  0.15786100  0.71431300  1
