# generated using pymatgen
data_Ba2MgCuAg2F14
_symmetry_space_group_name_H-M   'P 1'
_cell_length_a   5.37239100
_cell_length_b   7.65719586
_cell_length_c   15.28227511
_cell_angle_alpha   91.52451620
_cell_angle_beta   89.62208137
_cell_angle_gamma   110.46093713
_symmetry_Int_Tables_number   1
_chemical_formula_structural   Ba2MgCuAg2F14
_chemical_formula_sum   'Ba4 Mg2 Cu2 Ag4 F28'
_cell_volume   588.80031489
_cell_formula_units_Z   2
loop_
 _symmetry_equiv_pos_site_id
 _symmetry_equiv_pos_as_xyz
  1  'x, y, z'
loop_
 _atom_site_type_symbol
 _atom_site_label
 _atom_site_symmetry_multiplicity
 _atom_site_fract_x
 _atom_site_fract_y
 _atom_site_fract_z
 _atom_site_occupancy
  Ba  Ba0  1  0.72565700  0.63013700  0.37429300  1
  Ba  Ba1  1  0.90235100  0.62962400  0.87463300  1
  Ba  Ba2  1  0.27434300  0.36986300  0.62570700  1
  Ba  Ba3  1  0.09764900  0.37037600  0.12536700  1
  Mg  Mg4  1  0.42907000  0.00215300  0.24819000  1
  Mg  Mg5  1  0.57093000  0.99784700  0.75181000  1
  Cu  Cu6  1  0.50000000  0.00000000  0.00000000  1
  Cu  Cu7  1  0.50000000  0.00000000  0.50000000  1
  Ag  Ag8  1  0.85471400  0.76573500  0.12775500  1
  Ag  Ag9  1  0.14528600  0.23426500  0.87224500  1
  Ag  Ag10  1  0.90761300  0.76686500  0.62776500  1
  Ag  Ag11  1  0.09238700  0.23313500  0.37223500  1
  F  F12  1  0.87848700  0.02800600  0.66658800  1
  F  F13  1  0.57957200  0.71669100  0.54118100  1
  F  F14  1  0.42042800  0.28330900  0.45881900  1
  F  F15  1  0.13394200  0.51070400  0.40287800  1
  F  F16  1  0.53255600  0.91439900  0.38572400  1
  F  F17  1  0.61661400  0.08394900  0.11356400  1
  F  F18  1  0.13503700  0.71628500  0.04076500  1
  F  F19  1  0.86054400  0.97174200  0.83384800  1
  F  F20  1  0.02667500  0.65446100  0.22843400  1
  F  F21  1  0.86605800  0.48929600  0.59712200  1
  F  F22  1  0.56735500  0.79171700  0.22300700  1
  F  F23  1  0.62673300  0.48848900  0.09616600  1
  F  F24  1  0.21769200  0.78927300  0.72269100  1
  F  F25  1  0.43264500  0.20828300  0.77699300  1
  F  F26  1  0.38338600  0.91605100  0.88643600  1
  F  F27  1  0.97332500  0.34553900  0.77156600  1
  F  F28  1  0.29319700  0.15013400  0.99037100  1
  F  F29  1  0.12151300  0.97199400  0.33341200  1
  F  F30  1  0.70680300  0.84986600  0.00962900  1
  F  F31  1  0.85317200  0.15127500  0.49066500  1
  F  F32  1  0.86496300  0.28371500  0.95923500  1
  F  F33  1  0.78230800  0.21072700  0.27730900  1
  F  F34  1  0.62286200  0.65813100  0.73000800  1
  F  F35  1  0.14682800  0.84872500  0.50933500  1
  F  F36  1  0.46744400  0.08560100  0.61427600  1
  F  F37  1  0.13945600  0.02825800  0.16615200  1
  F  F38  1  0.37713800  0.34186900  0.26999200  1
  F  F39  1  0.37326700  0.51151100  0.90383400  1
