# generated using pymatgen
data_Nb2TeO8
_symmetry_space_group_name_H-M   'P 1'
_cell_length_a   10.48859282
_cell_length_b   10.48859282
_cell_length_c   5.25864415
_cell_angle_alpha   87.00891938
_cell_angle_beta   87.00891938
_cell_angle_gamma   34.35651596
_symmetry_Int_Tables_number   1
_chemical_formula_structural   Nb2TeO8
_chemical_formula_sum   'Nb4 Te2 O16'
_cell_volume   325.98741431
_cell_formula_units_Z   2
loop_
 _symmetry_equiv_pos_site_id
 _symmetry_equiv_pos_as_xyz
  1  'x, y, z'
loop_
 _atom_site_type_symbol
 _atom_site_label
 _atom_site_symmetry_multiplicity
 _atom_site_fract_x
 _atom_site_fract_y
 _atom_site_fract_z
 _atom_site_occupancy
  Nb  Nb0  1  0.69428200  0.04091100  0.73037900  1
  Nb  Nb1  1  0.95908900  0.30571800  0.76962100  1
  Nb  Nb2  1  0.30571800  0.95908900  0.26962100  1
  Nb  Nb3  1  0.04091100  0.69428200  0.23037900  1
  Te  Te4  1  0.35370900  0.64629100  0.75000000  1
  Te  Te5  1  0.64629100  0.35370900  0.25000000  1
  O  O6  1  0.78923000  0.09658200  0.41448100  1
  O  O7  1  0.90341800  0.21077000  0.08551900  1
  O  O8  1  0.21077000  0.90341800  0.58551900  1
  O  O9  1  0.09658200  0.78923000  0.91448100  1
  O  O10  1  0.54923800  0.34578600  0.93225200  1
  O  O11  1  0.65421400  0.45076200  0.56774800  1
  O  O12  1  0.45076200  0.65421400  0.06774800  1
  O  O13  1  0.34578600  0.54923800  0.43225200  1
  O  O14  1  0.75354300  0.92230600  0.06628500  1
  O  O15  1  0.07769400  0.24645700  0.43371500  1
  O  O16  1  0.19167900  0.43624200  0.14291100  1
  O  O17  1  0.56375800  0.80832100  0.35708900  1
  O  O18  1  0.80832100  0.56375800  0.85708900  1
  O  O19  1  0.43624200  0.19167900  0.64291100  1
  O  O20  1  0.92230600  0.75354300  0.56628500  1
  O  O21  1  0.24645700  0.07769400  0.93371500  1
