# generated using pymatgen
data_Sr2YTi2TlO7
_symmetry_space_group_name_H-M   'P 1'
_cell_length_a   3.91045100
_cell_length_b   3.91045100
_cell_length_c   12.82923800
_cell_angle_alpha   90.00000000
_cell_angle_beta   90.00000000
_cell_angle_gamma   90.00000000
_symmetry_Int_Tables_number   1
_chemical_formula_structural   Sr2YTi2TlO7
_chemical_formula_sum   'Sr2 Y1 Ti2 Tl1 O7'
_cell_volume   196.17992249
_cell_formula_units_Z   1
loop_
 _symmetry_equiv_pos_site_id
 _symmetry_equiv_pos_as_xyz
  1  'x, y, z'
loop_
 _atom_site_type_symbol
 _atom_site_label
 _atom_site_symmetry_multiplicity
 _atom_site_fract_x
 _atom_site_fract_y
 _atom_site_fract_z
 _atom_site_occupancy
  Sr  Sr0  1  0.00000000  0.00000000  0.81425600  1
  Sr  Sr1  1  0.00000000  0.00000000  0.18574400  1
  Y  Y2  1  0.00000000  0.00000000  0.50000000  1
  Ti  Ti3  1  0.50000000  0.50000000  0.63827700  1
  Ti  Ti4  1  0.50000000  0.50000000  0.36172300  1
  Tl  Tl5  1  0.50000000  0.50000000  0.00000000  1
  O  O6  1  0.00000000  0.50000000  0.61508000  1
  O  O7  1  0.50000000  0.00000000  0.61508000  1
  O  O8  1  0.00000000  0.50000000  0.38492000  1
  O  O9  1  0.50000000  0.00000000  0.38492000  1
  O  O10  1  0.50000000  0.50000000  0.78654600  1
  O  O11  1  0.50000000  0.50000000  0.21345400  1
  O  O12  1  0.00000000  0.00000000  0.00000000  1
