# generated using pymatgen
data_Mg(WO3)2
_symmetry_space_group_name_H-M   'P 1'
_cell_length_a   5.28008500
_cell_length_b   5.41927200
_cell_length_c   7.71895500
_cell_angle_alpha   90.00000000
_cell_angle_beta   90.00000000
_cell_angle_gamma   90.00000000
_symmetry_Int_Tables_number   1
_chemical_formula_structural   Mg(WO3)2
_chemical_formula_sum   'Mg2 W4 O12'
_cell_volume   220.87185182
_cell_formula_units_Z   2
loop_
 _symmetry_equiv_pos_site_id
 _symmetry_equiv_pos_as_xyz
  1  'x, y, z'
loop_
 _atom_site_type_symbol
 _atom_site_label
 _atom_site_symmetry_multiplicity
 _atom_site_fract_x
 _atom_site_fract_y
 _atom_site_fract_z
 _atom_site_occupancy
  Mg  Mg0  1  0.51033300  0.31034200  0.50000000  1
  Mg  Mg1  1  0.01033300  0.68965800  0.00000000  1
  W  W2  1  0.50591800  0.75666900  0.74997900  1
  W  W3  1  0.00591800  0.24333100  0.75002100  1
  W  W4  1  0.00591800  0.24333100  0.24997900  1
  W  W5  1  0.50591800  0.75666900  0.25002100  1
  O  O6  1  0.66581700  0.06438100  0.31387100  1
  O  O7  1  0.16581700  0.93561900  0.18612900  1
  O  O8  1  0.80237900  0.53451100  0.69947500  1
  O  O9  1  0.30237900  0.46548900  0.80052500  1
  O  O10  1  0.30237900  0.46548900  0.19947500  1
  O  O11  1  0.80237900  0.53451100  0.30052500  1
  O  O12  1  0.16581700  0.93561900  0.81387100  1
  O  O13  1  0.66581700  0.06438100  0.68612900  1
  O  O14  1  0.13621300  0.21733000  0.50000000  1
  O  O15  1  0.63621300  0.78267000  0.00000000  1
  O  O16  1  0.41663500  0.69114400  0.50000000  1
  O  O17  1  0.91663500  0.30885600  0.00000000  1
