# generated using pymatgen
data_AlCo4(CuO4)3
_symmetry_space_group_name_H-M   'P 1'
_cell_length_a   6.16653216
_cell_length_b   6.16653216
_cell_length_c   6.16653216
_cell_angle_alpha   109.47122063
_cell_angle_beta   109.47122063
_cell_angle_gamma   109.47122063
_symmetry_Int_Tables_number   1
_chemical_formula_structural   AlCo4(CuO4)3
_chemical_formula_sum   'Al1 Co4 Cu3 O12'
_cell_volume   180.50993537
_cell_formula_units_Z   1
loop_
 _symmetry_equiv_pos_site_id
 _symmetry_equiv_pos_as_xyz
  1  'x, y, z'
loop_
 _atom_site_type_symbol
 _atom_site_label
 _atom_site_symmetry_multiplicity
 _atom_site_fract_x
 _atom_site_fract_y
 _atom_site_fract_z
 _atom_site_occupancy
  Al  Al0  1  0.00000000  0.00000000  0.00000000  1
  Co  Co1  1  0.00000000  0.00000000  0.50000000  1
  Co  Co2  1  0.00000000  0.50000000  0.00000000  1
  Co  Co3  1  0.50000000  0.00000000  0.00000000  1
  Co  Co4  1  0.50000000  0.50000000  0.50000000  1
  Cu  Cu5  1  0.00000000  0.50000000  0.50000000  1
  Cu  Cu6  1  0.50000000  0.00000000  0.50000000  1
  Cu  Cu7  1  0.50000000  0.50000000  0.00000000  1
  O  O8  1  0.29208400  0.12726600  0.83518200  1
  O  O9  1  0.70791600  0.87273400  0.16481800  1
  O  O10  1  0.70791600  0.54309800  0.83518200  1
  O  O11  1  0.45690200  0.16481800  0.29208400  1
  O  O12  1  0.16481800  0.29208400  0.45690200  1
  O  O13  1  0.83518200  0.29208400  0.12726600  1
  O  O14  1  0.87273400  0.16481800  0.70791600  1
  O  O15  1  0.83518200  0.70791600  0.54309800  1
  O  O16  1  0.29208400  0.45690200  0.16481800  1
  O  O17  1  0.54309800  0.83518200  0.70791600  1
  O  O18  1  0.16481800  0.70791600  0.87273400  1
  O  O19  1  0.12726600  0.83518200  0.29208400  1
