# generated using pymatgen
data_UNb6O16
_symmetry_space_group_name_H-M   'P 1'
_cell_length_a   8.06460523
_cell_length_b   6.60445717
_cell_length_c   9.42641799
_cell_angle_alpha   100.97259046
_cell_angle_beta   80.67382287
_cell_angle_gamma   76.01470935
_symmetry_Int_Tables_number   1
_chemical_formula_structural   UNb6O16
_chemical_formula_sum   'U1 Nb6 O16'
_cell_volume   466.73748405
_cell_formula_units_Z   1
loop_
 _symmetry_equiv_pos_site_id
 _symmetry_equiv_pos_as_xyz
  1  'x, y, z'
loop_
 _atom_site_type_symbol
 _atom_site_label
 _atom_site_symmetry_multiplicity
 _atom_site_fract_x
 _atom_site_fract_y
 _atom_site_fract_z
 _atom_site_occupancy
  U  U0  1  0.00000000  0.00000000  0.00000000  1
  Nb  Nb1  1  0.99447000  0.62177000  0.17733000  1
  Nb  Nb2  1  0.20975100  0.38229400  0.47762600  1
  Nb  Nb3  1  0.39596200  0.07719600  0.76263500  1
  Nb  Nb4  1  0.60403800  0.92280400  0.23736500  1
  Nb  Nb5  1  0.79024900  0.61770600  0.52237400  1
  Nb  Nb6  1  0.00553000  0.37823000  0.82267000  1
  O  O7  1  0.02124200  0.33211100  0.04640700  1
  O  O8  1  0.09279400  0.84979500  0.17769700  1
  O  O9  1  0.03763900  0.48144300  0.35722300  1
  O  O10  1  0.31240200  0.58522600  0.50618700  1
  O  O11  1  0.22660500  0.23023500  0.65398100  1
  O  O12  1  0.38270700  0.12912800  0.35127000  1
  O  O13  1  0.43803300  0.29342100  0.87517100  1
  O  O14  1  0.27087700  0.94321000  0.88529700  1
  O  O15  1  0.72912300  0.05679000  0.11470300  1
  O  O16  1  0.56196700  0.70657900  0.12482900  1
  O  O17  1  0.61729300  0.87087200  0.64873000  1
  O  O18  1  0.77339500  0.76976500  0.34601900  1
  O  O19  1  0.68759800  0.41477400  0.49381300  1
  O  O20  1  0.96236100  0.51855700  0.64277700  1
  O  O21  1  0.90720600  0.15020500  0.82230300  1
  O  O22  1  0.97875800  0.66788900  0.95359300  1
