# generated using pymatgen
data_Ba2ZnFe2CuF14
_symmetry_space_group_name_H-M   'P 1'
_cell_length_a   7.49689708
_cell_length_b   7.49689708
_cell_length_c   14.70375178
_cell_angle_alpha   88.51327993
_cell_angle_beta   88.51327993
_cell_angle_gamma   41.34888406
_symmetry_Int_Tables_number   1
_chemical_formula_structural   Ba2ZnFe2CuF14
_chemical_formula_sum   'Ba4 Zn2 Fe4 Cu2 F28'
_cell_volume   545.74610941
_cell_formula_units_Z   2
loop_
 _symmetry_equiv_pos_site_id
 _symmetry_equiv_pos_as_xyz
  1  'x, y, z'
loop_
 _atom_site_type_symbol
 _atom_site_label
 _atom_site_symmetry_multiplicity
 _atom_site_fract_x
 _atom_site_fract_y
 _atom_site_fract_z
 _atom_site_occupancy
  Ba  Ba0  1  0.73650500  0.88908900  0.62417300  1
  Ba  Ba1  1  0.88908900  0.73650500  0.12417300  1
  Ba  Ba2  1  0.26349500  0.11091100  0.37582700  1
  Ba  Ba3  1  0.11091100  0.26349500  0.87582700  1
  Zn  Zn4  1  0.42874500  0.57125500  0.75000000  1
  Zn  Zn5  1  0.57125500  0.42874500  0.25000000  1
  Fe  Fe6  1  0.85749200  0.90642600  0.87351100  1
  Fe  Fe7  1  0.14250800  0.09357400  0.12648900  1
  Fe  Fe8  1  0.90642600  0.85749200  0.37351100  1
  Fe  Fe9  1  0.09357400  0.14250800  0.62648900  1
  Cu  Cu10  1  0.50000000  0.50000000  0.00000000  1
  Cu  Cu11  1  0.50000000  0.50000000  0.50000000  1
  F  F12  1  0.90662000  0.10953200  0.33905100  1
  F  F13  1  0.59048900  0.13272500  0.45643800  1
  F  F14  1  0.40951100  0.86727500  0.54356200  1
  F  F15  1  0.15175900  0.35199600  0.59802100  1
  F  F16  1  0.51682900  0.39003700  0.62250000  1
  F  F17  1  0.60996300  0.48317100  0.87750000  1
  F  F18  1  0.13272500  0.59048900  0.95643800  1
  F  F19  1  0.89046800  0.09338000  0.16094900  1
  F  F20  1  0.03590700  0.63804400  0.77619600  1
  F  F21  1  0.84824100  0.64800400  0.40197900  1
  F  F22  1  0.57677600  0.19741000  0.78833400  1
  F  F23  1  0.64800400  0.84824100  0.90197900  1
  F  F24  1  0.19741000  0.57677600  0.28833400  1
  F  F25  1  0.42322400  0.80259000  0.21166600  1
  F  F26  1  0.39003700  0.51682900  0.12250000  1
  F  F27  1  0.96409300  0.36195600  0.22380400  1
  F  F28  1  0.28206900  0.88015100  0.01483500  1
  F  F29  1  0.09338000  0.89046800  0.66094900  1
  F  F30  1  0.71793100  0.11984900  0.98516500  1
  F  F31  1  0.88015100  0.28206900  0.51483500  1
  F  F32  1  0.86727500  0.40951100  0.04356200  1
  F  F33  1  0.80259000  0.42322400  0.71166600  1
  F  F34  1  0.63804400  0.03590700  0.27619600  1
  F  F35  1  0.11984900  0.71793100  0.48516500  1
  F  F36  1  0.48317100  0.60996300  0.37750000  1
  F  F37  1  0.10953200  0.90662000  0.83905100  1
  F  F38  1  0.36195600  0.96409300  0.72380400  1
  F  F39  1  0.35199600  0.15175900  0.09802100  1
