# generated using pymatgen
data_Ba2MgFe2CuF14
_symmetry_space_group_name_H-M   'P 1'
_cell_length_a   7.56690383
_cell_length_b   7.56690383
_cell_length_c   14.78073014
_cell_angle_alpha   88.19231424
_cell_angle_beta   88.19231424
_cell_angle_gamma   40.83090757
_symmetry_Int_Tables_number   1
_chemical_formula_structural   Ba2MgFe2CuF14
_chemical_formula_sum   'Ba4 Mg2 Fe4 Cu2 F28'
_cell_volume   553.03198740
_cell_formula_units_Z   2
loop_
 _symmetry_equiv_pos_site_id
 _symmetry_equiv_pos_as_xyz
  1  'x, y, z'
loop_
 _atom_site_type_symbol
 _atom_site_label
 _atom_site_symmetry_multiplicity
 _atom_site_fract_x
 _atom_site_fract_y
 _atom_site_fract_z
 _atom_site_occupancy
  Ba  Ba0  1  0.73432100  0.89077000  0.12404800  1
  Ba  Ba1  1  0.89077000  0.73432100  0.62404800  1
  Ba  Ba2  1  0.26567900  0.10923000  0.87595200  1
  Ba  Ba3  1  0.10923000  0.26567900  0.37595200  1
  Mg  Mg4  1  0.43578100  0.56421900  0.25000000  1
  Mg  Mg5  1  0.56421900  0.43578100  0.75000000  1
  Fe  Fe6  1  0.85856900  0.90269500  0.37275800  1
  Fe  Fe7  1  0.14143100  0.09730500  0.62724200  1
  Fe  Fe8  1  0.90269500  0.85856900  0.87275800  1
  Fe  Fe9  1  0.09730500  0.14143100  0.12724200  1
  Cu  Cu10  1  0.50000000  0.50000000  0.50000000  1
  Cu  Cu11  1  0.50000000  0.50000000  0.00000000  1
  F  F12  1  0.89823000  0.11088200  0.83779300  1
  F  F13  1  0.59096900  0.12613000  0.95477300  1
  F  F14  1  0.40903100  0.87387000  0.04522700  1
  F  F15  1  0.14346200  0.35018900  0.09954900  1
  F  F16  1  0.51967300  0.38465300  0.12162600  1
  F  F17  1  0.61534700  0.48032700  0.37837400  1
  F  F18  1  0.12613000  0.59096900  0.45477300  1
  F  F19  1  0.88911800  0.10177000  0.66220600  1
  F  F20  1  0.02952000  0.63655900  0.27581500  1
  F  F21  1  0.85653800  0.64981100  0.90045100  1
  F  F22  1  0.58188900  0.20174800  0.28810500  1
  F  F23  1  0.64981100  0.85653800  0.40045100  1
  F  F24  1  0.20174800  0.58188900  0.78810500  1
  F  F25  1  0.41811100  0.79825200  0.71189500  1
  F  F26  1  0.38465300  0.51967300  0.62162600  1
  F  F27  1  0.97048000  0.36344100  0.72418500  1
  F  F28  1  0.27716400  0.87914600  0.51525300  1
  F  F29  1  0.10177000  0.88911800  0.16220600  1
  F  F30  1  0.72283600  0.12085400  0.48474700  1
  F  F31  1  0.87914600  0.27716400  0.01525300  1
  F  F32  1  0.87387000  0.40903100  0.54522700  1
  F  F33  1  0.79825200  0.41811100  0.21189500  1
  F  F34  1  0.63655900  0.02952000  0.77581500  1
  F  F35  1  0.12085400  0.72283600  0.98474700  1
  F  F36  1  0.48032700  0.61534700  0.87837400  1
  F  F37  1  0.11088200  0.89823000  0.33779400  1
  F  F38  1  0.36344100  0.97048000  0.22418500  1
  F  F39  1  0.35018900  0.14346200  0.59954800  1
