# generated using pymatgen
data_Y7(O2F3)3
_symmetry_space_group_name_H-M   'P 1'
_cell_length_a   6.42700900
_cell_length_b   7.92994985
_cell_length_c   13.22792831
_cell_angle_alpha   103.26627768
_cell_angle_beta   90.00000000
_cell_angle_gamma   90.00000000
_symmetry_Int_Tables_number   1
_chemical_formula_structural   Y7(O2F3)3
_chemical_formula_sum   'Y14 O12 F18'
_cell_volume   656.18182629
_cell_formula_units_Z   2
loop_
 _symmetry_equiv_pos_site_id
 _symmetry_equiv_pos_as_xyz
  1  'x, y, z'
loop_
 _atom_site_type_symbol
 _atom_site_label
 _atom_site_symmetry_multiplicity
 _atom_site_fract_x
 _atom_site_fract_y
 _atom_site_fract_z
 _atom_site_occupancy
  Y  Y0  1  0.38070500  0.22873700  0.10924100  1
  Y  Y1  1  0.16759900  0.75713400  0.94939400  1
  Y  Y2  1  0.38197200  0.58675800  0.37042600  1
  Y  Y3  1  0.30852500  0.69211500  0.66089000  1
  Y  Y4  1  0.19640200  0.99240400  0.53576900  1
  Y  Y5  1  0.34338500  0.11767600  0.84193500  1
  Y  Y6  1  0.16174800  0.88463900  0.23733900  1
  Y  Y7  1  0.83825200  0.38463900  0.23733900  1
  Y  Y8  1  0.65661500  0.61767600  0.84193500  1
  Y  Y9  1  0.80359800  0.49240400  0.53576900  1
  Y  Y10  1  0.69147500  0.19211500  0.66089000  1
  Y  Y11  1  0.61802800  0.08675800  0.37042600  1
  Y  Y12  1  0.83240100  0.25713400  0.94939400  1
  Y  Y13  1  0.61929500  0.72873700  0.10924100  1
  O  O14  1  0.57768900  0.27027000  0.51689500  1
  O  O15  1  0.33385800  0.93550200  0.10955800  1
  O  O16  1  0.61168300  0.31286100  0.82173400  1
  O  O17  1  0.52925400  0.28014100  0.27454800  1
  O  O18  1  0.59896100  0.54859800  0.67187000  1
  O  O19  1  0.55711900  0.11932000  0.97283200  1
  O  O20  1  0.44288100  0.61932000  0.97283200  1
  O  O21  1  0.47074600  0.78014100  0.27454800  1
  O  O22  1  0.40103900  0.04859800  0.67187000  1
  O  O23  1  0.66614200  0.43550200  0.10955800  1
  O  O24  1  0.38831700  0.81286100  0.82173400  1
  O  O25  1  0.42231100  0.77027000  0.51689500  1
  F  F26  1  0.80007800  0.82111300  0.98259400  1
  F  F27  1  0.07039900  0.01883500  0.92683000  1
  F  F28  1  0.98967000  0.68834600  0.12688500  1
  F  F29  1  0.17504500  0.47317300  0.23397400  1
  F  F30  1  0.00714700  0.66507300  0.77737100  1
  F  F31  1  0.10317900  0.77317100  0.38093300  1
  F  F32  1  0.01471300  0.82621900  0.61655300  1
  F  F33  1  0.14740900  0.51774500  0.49767500  1
  F  F34  1  0.26238700  0.08316900  0.38475400  1
  F  F35  1  0.73761300  0.58316900  0.38475400  1
  F  F36  1  0.85259100  0.01774500  0.49767500  1
  F  F37  1  0.89682100  0.27317100  0.38093300  1
  F  F38  1  0.98528700  0.32621900  0.61655300  1
  F  F39  1  0.82495500  0.97317300  0.23397400  1
  F  F40  1  0.99285300  0.16507300  0.77737100  1
  F  F41  1  0.92960100  0.51883500  0.92683000  1
  F  F42  1  0.01033000  0.18834600  0.12688500  1
  F  F43  1  0.19992200  0.32111300  0.98259400  1
