# generated using pymatgen
data_Ba2MgCr2CuF14
_symmetry_space_group_name_H-M   'P 1'
_cell_length_a   7.45461838
_cell_length_b   7.45461838
_cell_length_c   14.60776748
_cell_angle_alpha   88.27743391
_cell_angle_beta   88.27743391
_cell_angle_gamma   41.18635009
_symmetry_Int_Tables_number   1
_chemical_formula_structural   Ba2MgCr2CuF14
_chemical_formula_sum   'Ba4 Mg2 Cr4 Cu2 F28'
_cell_volume   534.28520389
_cell_formula_units_Z   2
loop_
 _symmetry_equiv_pos_site_id
 _symmetry_equiv_pos_as_xyz
  1  'x, y, z'
loop_
 _atom_site_type_symbol
 _atom_site_label
 _atom_site_symmetry_multiplicity
 _atom_site_fract_x
 _atom_site_fract_y
 _atom_site_fract_z
 _atom_site_occupancy
  Ba  Ba0  1  0.73839700  0.89046100  0.12343400  1
  Ba  Ba1  1  0.89046100  0.73839700  0.62343400  1
  Ba  Ba2  1  0.26160300  0.10953900  0.87656600  1
  Ba  Ba3  1  0.10953900  0.26160300  0.37656600  1
  Mg  Mg4  1  0.43048800  0.56951200  0.25000000  1
  Mg  Mg5  1  0.56951200  0.43048800  0.75000000  1
  Cr  Cr6  1  0.86065700  0.90349300  0.37322500  1
  Cr  Cr7  1  0.13934300  0.09650700  0.62677500  1
  Cr  Cr8  1  0.90349300  0.86065700  0.87322500  1
  Cr  Cr9  1  0.09650700  0.13934300  0.12677500  1
  Cu  Cu10  1  0.50000000  0.50000000  0.50000000  1
  Cu  Cu11  1  0.50000000  0.50000000  0.00000000  1
  F  F12  1  0.90732600  0.11085800  0.83936100  1
  F  F13  1  0.59214800  0.13301600  0.95510600  1
  F  F14  1  0.40785200  0.86698400  0.04489400  1
  F  F15  1  0.15156000  0.35202300  0.09667700  1
  F  F16  1  0.51199300  0.39318200  0.12318300  1
  F  F17  1  0.60681800  0.48800700  0.37681700  1
  F  F18  1  0.13301600  0.59214800  0.45510600  1
  F  F19  1  0.88914200  0.09267400  0.66063900  1
  F  F20  1  0.03965400  0.64012400  0.27523000  1
  F  F21  1  0.84844000  0.64797700  0.90332300  1
  F  F22  1  0.57894900  0.20113300  0.28888500  1
  F  F23  1  0.64797700  0.84844000  0.40332300  1
  F  F24  1  0.20113300  0.57894900  0.78888500  1
  F  F25  1  0.42105100  0.79886700  0.71111500  1
  F  F26  1  0.39318200  0.51199300  0.62318300  1
  F  F27  1  0.96034600  0.35987600  0.72477000  1
  F  F28  1  0.28675200  0.88058000  0.51635800  1
  F  F29  1  0.09267400  0.88914200  0.16063900  1
  F  F30  1  0.71324800  0.11942000  0.48364200  1
  F  F31  1  0.88058000  0.28675200  0.01635800  1
  F  F32  1  0.86698400  0.40785200  0.54489400  1
  F  F33  1  0.79886700  0.42105100  0.21111500  1
  F  F34  1  0.64012400  0.03965400  0.77523000  1
  F  F35  1  0.11942000  0.71324800  0.98364200  1
  F  F36  1  0.48800700  0.60681800  0.87681700  1
  F  F37  1  0.11085800  0.90732600  0.33936100  1
  F  F38  1  0.35987600  0.96034600  0.22477000  1
  F  F39  1  0.35202300  0.15156000  0.59667700  1
