# generated using pymatgen
data_YCu3(NiO3)4
_symmetry_space_group_name_H-M   'P 1'
_cell_length_a   6.29935620
_cell_length_b   6.29935620
_cell_length_c   6.29935620
_cell_angle_alpha   109.47122063
_cell_angle_beta   109.47122063
_cell_angle_gamma   109.47122063
_symmetry_Int_Tables_number   1
_chemical_formula_structural   YCu3(NiO3)4
_chemical_formula_sum   'Y1 Cu3 Ni4 O12'
_cell_volume   192.42726594
_cell_formula_units_Z   1
loop_
 _symmetry_equiv_pos_site_id
 _symmetry_equiv_pos_as_xyz
  1  'x, y, z'
loop_
 _atom_site_type_symbol
 _atom_site_label
 _atom_site_symmetry_multiplicity
 _atom_site_fract_x
 _atom_site_fract_y
 _atom_site_fract_z
 _atom_site_occupancy
  Y  Y0  1  0.00000000  0.00000000  0.00000000  1
  Cu  Cu1  1  0.00000000  0.50000000  0.50000000  1
  Cu  Cu2  1  0.50000000  0.00000000  0.50000000  1
  Cu  Cu3  1  0.50000000  0.50000000  0.00000000  1
  Ni  Ni4  1  0.00000000  0.00000000  0.50000000  1
  Ni  Ni5  1  0.00000000  0.50000000  0.00000000  1
  Ni  Ni6  1  0.50000000  0.00000000  0.00000000  1
  Ni  Ni7  1  0.50000000  0.50000000  0.50000000  1
  O  O8  1  0.30607400  0.13754500  0.83147000  1
  O  O9  1  0.69392600  0.86245500  0.16853000  1
  O  O10  1  0.69392600  0.52539600  0.83147000  1
  O  O11  1  0.47460400  0.16853000  0.30607400  1
  O  O12  1  0.16853000  0.30607400  0.47460400  1
  O  O13  1  0.83147000  0.30607400  0.13754500  1
  O  O14  1  0.86245500  0.16853000  0.69392600  1
  O  O15  1  0.83147000  0.69392600  0.52539600  1
  O  O16  1  0.30607400  0.47460400  0.16853000  1
  O  O17  1  0.52539600  0.83147000  0.69392600  1
  O  O18  1  0.16853000  0.69392600  0.86245500  1
  O  O19  1  0.13754500  0.83147000  0.30607400  1
