# generated using pymatgen
data_TiZnO2
_symmetry_space_group_name_H-M   'P 1'
_cell_length_a   2.90884400
_cell_length_b   7.62232565
_cell_length_c   8.53804553
_cell_angle_alpha   82.22674337
_cell_angle_beta   81.44963362
_cell_angle_gamma   84.39804863
_symmetry_Int_Tables_number   1
_chemical_formula_structural   TiZnO2
_chemical_formula_sum   'Ti4 Zn4 O8'
_cell_volume   184.90138801
_cell_formula_units_Z   4
loop_
 _symmetry_equiv_pos_site_id
 _symmetry_equiv_pos_as_xyz
  1  'x, y, z'
loop_
 _atom_site_type_symbol
 _atom_site_label
 _atom_site_symmetry_multiplicity
 _atom_site_fract_x
 _atom_site_fract_y
 _atom_site_fract_z
 _atom_site_occupancy
  Ti  Ti0  1  0.02861800  0.80347500  0.57354600  1
  Ti  Ti1  1  0.60513700  0.94061600  0.24438700  1
  Ti  Ti2  1  0.39486300  0.05938400  0.75561300  1
  Ti  Ti3  1  0.97138200  0.19652500  0.42645400  1
  Zn  Zn4  1  0.96837100  0.57023300  0.27695400  1
  Zn  Zn5  1  0.03162900  0.42976700  0.72304600  1
  Zn  Zn6  1  0.79179600  0.35054000  0.05306900  1
  Zn  Zn7  1  0.20820400  0.64946000  0.94693100  1
  O  O8  1  0.39252800  0.25306500  0.57941300  1
  O  O9  1  0.92456800  0.87589000  0.79941200  1
  O  O10  1  0.07543200  0.12411000  0.20058800  1
  O  O11  1  0.60747200  0.74693500  0.42058700  1
  O  O12  1  0.50175300  0.61491900  0.70270000  1
  O  O13  1  0.18739100  0.79510100  0.14347500  1
  O  O14  1  0.49824700  0.38508100  0.29730000  1
  O  O15  1  0.81260900  0.20489900  0.85652500  1
