# generated using pymatgen
data_Sr2YTlW2O7
_symmetry_space_group_name_H-M   'P 1'
_cell_length_a   4.11763610
_cell_length_b   4.11763610
_cell_length_c   12.66045500
_cell_angle_alpha   90.00000000
_cell_angle_beta   90.00000000
_cell_angle_gamma   92.97155417
_symmetry_Int_Tables_number   1
_chemical_formula_structural   Sr2YTlW2O7
_chemical_formula_sum   'Sr2 Y1 Tl1 W2 O7'
_cell_volume   214.36846148
_cell_formula_units_Z   1
loop_
 _symmetry_equiv_pos_site_id
 _symmetry_equiv_pos_as_xyz
  1  'x, y, z'
loop_
 _atom_site_type_symbol
 _atom_site_label
 _atom_site_symmetry_multiplicity
 _atom_site_fract_x
 _atom_site_fract_y
 _atom_site_fract_z
 _atom_site_occupancy
  Sr  Sr0  1  0.51899300  0.48100700  0.68313000  1
  Sr  Sr1  1  0.51899300  0.48100700  0.31687000  1
  Y  Y2  1  0.53711200  0.46288800  0.00000000  1
  Tl  Tl3  1  0.01273000  0.98727000  0.50000000  1
  W  W4  1  0.00788100  0.99211900  0.86758900  1
  W  W5  1  0.00788100  0.99211900  0.13241100  1
  O  O6  1  0.49870400  0.98881000  0.88237600  1
  O  O7  1  0.01119000  0.50129600  0.88237600  1
  O  O8  1  0.49870400  0.98881000  0.11762400  1
  O  O9  1  0.01119000  0.50129600  0.11762400  1
  O  O10  1  0.93327900  0.06672100  0.71049700  1
  O  O11  1  0.93327900  0.06672100  0.28950300  1
  O  O12  1  0.51696500  0.48303500  0.50000000  1
