# generated using pymatgen
data_V5O7
_symmetry_space_group_name_H-M   'P 1'
_cell_length_a   5.33441156
_cell_length_b   5.33441156
_cell_length_c   18.88380100
_cell_angle_alpha   90.00000000
_cell_angle_beta   90.00000000
_cell_angle_gamma   147.03783294
_symmetry_Int_Tables_number   1
_chemical_formula_structural   V5O7
_chemical_formula_sum   'V10 O14'
_cell_volume   292.36764772
_cell_formula_units_Z   2
loop_
 _symmetry_equiv_pos_site_id
 _symmetry_equiv_pos_as_xyz
  1  'x, y, z'
loop_
 _atom_site_type_symbol
 _atom_site_label
 _atom_site_symmetry_multiplicity
 _atom_site_fract_x
 _atom_site_fract_y
 _atom_site_fract_z
 _atom_site_occupancy
  V  V0  1  0.73566700  0.26433300  0.57606300  1
  V  V1  1  0.00000000  0.00000000  0.50000000  1
  V  V2  1  0.00000000  0.00000000  0.00000000  1
  V  V3  1  0.26433300  0.73566700  0.42393800  1
  V  V4  1  0.26433300  0.73566700  0.07606200  1
  V  V5  1  0.73566700  0.26433300  0.92393800  1
  V  V6  1  0.52026900  0.47973100  0.15830400  1
  V  V7  1  0.47973100  0.52026900  0.84169600  1
  V  V8  1  0.47973100  0.52026900  0.65830400  1
  V  V9  1  0.52026900  0.47973100  0.34169600  1
  O  O10  1  0.35283400  0.64716600  0.97377400  1
  O  O11  1  0.64716600  0.35283400  0.02622600  1
  O  O12  1  0.64716600  0.35283400  0.47377400  1
  O  O13  1  0.35283400  0.64716600  0.52622600  1
  O  O14  1  0.85547300  0.14452700  0.84671900  1
  O  O15  1  0.14452700  0.85547300  0.15328100  1
  O  O16  1  0.14452700  0.85547300  0.34671900  1
  O  O17  1  0.85547300  0.14452700  0.65328100  1
  O  O18  1  0.10137900  0.89862100  0.89676600  1
  O  O19  1  0.89862100  0.10137900  0.10323400  1
  O  O20  1  0.89862100  0.10137900  0.39676600  1
  O  O21  1  0.10137900  0.89862100  0.60323400  1
  O  O22  1  0.52550000  0.47450000  0.75000000  1
  O  O23  1  0.47450000  0.52550000  0.25000000  1
