# generated using pymatgen
data_U2O5
_symmetry_space_group_name_H-M   'P 1'
_cell_length_a   3.84055142
_cell_length_b   3.84055142
_cell_length_c   19.39418460
_cell_angle_alpha   84.86830009
_cell_angle_beta   84.86830009
_cell_angle_gamma   60.81014675
_symmetry_Int_Tables_number   1
_chemical_formula_structural   U2O5
_chemical_formula_sum   'U6 O15'
_cell_volume   248.38706664
_cell_formula_units_Z   3
loop_
 _symmetry_equiv_pos_site_id
 _symmetry_equiv_pos_as_xyz
  1  'x, y, z'
loop_
 _atom_site_type_symbol
 _atom_site_label
 _atom_site_symmetry_multiplicity
 _atom_site_fract_x
 _atom_site_fract_y
 _atom_site_fract_z
 _atom_site_occupancy
  U  U0  1  0.92897800  0.92897800  0.73847800  1
  U  U1  1  0.19080800  0.19080800  0.91972600  1
  U  U2  1  0.07102200  0.07102200  0.26152200  1
  U  U3  1  0.80919200  0.80919200  0.08027400  1
  U  U4  1  0.35162400  0.35162400  0.42807700  1
  U  U5  1  0.64837600  0.64837600  0.57192300  1
  O  O6  1  0.52884900  0.52884900  0.90633400  1
  O  O7  1  0.15625700  0.15625700  0.03089600  1
  O  O8  1  0.89012800  0.89012800  0.83893300  1
  O  O9  1  0.84374300  0.84374300  0.96910400  1
  O  O10  1  0.47115100  0.47115100  0.09366600  1
  O  O11  1  0.10987200  0.10987200  0.16106700  1
  O  O12  1  0.68085400  0.68085400  0.44585600  1
  O  O13  1  0.74920500  0.74920500  0.23312400  1
  O  O14  1  0.39161300  0.39161300  0.30077400  1
  O  O15  1  0.96675100  0.96675100  0.63038100  1
  O  O16  1  0.03324900  0.03324900  0.36961900  1
  O  O17  1  0.00000000  0.00000000  0.50000000  1
  O  O18  1  0.31914600  0.31914600  0.55414400  1
  O  O19  1  0.25079500  0.25079500  0.76687600  1
  O  O20  1  0.60838700  0.60838700  0.69922600  1
