# generated using pymatgen
data_Mg4Cu5(TeO6)3
_symmetry_space_group_name_H-M   'P 1'
_cell_length_a   8.75704103
_cell_length_b   8.75704129
_cell_length_c   10.44079969
_cell_angle_alpha   84.36390426
_cell_angle_beta   84.36390344
_cell_angle_gamma   60.85166740
_symmetry_Int_Tables_number   1
_chemical_formula_structural   Mg4Cu5(TeO6)3
_chemical_formula_sum   'Mg8 Cu10 Te6 O36'
_cell_volume   694.71615099
_cell_formula_units_Z   2
loop_
 _symmetry_equiv_pos_site_id
 _symmetry_equiv_pos_as_xyz
  1  'x, y, z'
loop_
 _atom_site_type_symbol
 _atom_site_label
 _atom_site_symmetry_multiplicity
 _atom_site_fract_x
 _atom_site_fract_y
 _atom_site_fract_z
 _atom_site_occupancy
  Mg  Mg0  1  0.86876600  0.53298000  0.33120600  1
  Mg  Mg1  1  0.48073900  0.55608000  0.21535500  1
  Mg  Mg2  1  0.46702000  0.13123400  0.66879400  1
  Mg  Mg3  1  0.44392000  0.51926100  0.78464500  1
  Mg  Mg4  1  0.16460000  0.87268000  0.71548600  1
  Mg  Mg5  1  0.14148800  0.26002900  0.83120000  1
  Mg  Mg6  1  0.73997100  0.85851200  0.16880000  1
  Mg  Mg7  1  0.12732000  0.83540000  0.28451400  1
  Cu  Cu8  1  0.78887100  0.51357200  0.98674800  1
  Cu  Cu9  1  0.12180300  0.18069900  0.48622900  1
  Cu  Cu10  1  0.33405500  0.33646700  0.30419400  1
  Cu  Cu11  1  0.94579000  0.72546700  0.80397800  1
  Cu  Cu12  1  0.66353300  0.66594500  0.69580600  1
  Cu  Cu13  1  0.97270800  0.02729200  0.00000000  1
  Cu  Cu14  1  0.63523900  0.36476100  0.50000000  1
  Cu  Cu15  1  0.27453300  0.05421100  0.19602200  1
  Cu  Cu16  1  0.81930100  0.87819700  0.51377100  1
  Cu  Cu17  1  0.48642800  0.21112900  0.01325200  1
  Te  Te18  1  0.45320100  0.86132300  0.94769900  1
  Te  Te19  1  0.80413900  0.19569500  0.25009900  1
  Te  Te20  1  0.80430500  0.19586100  0.74990100  1
  Te  Te21  1  0.46938800  0.84499500  0.44759800  1
  Te  Te22  1  0.15500500  0.53061200  0.55240200  1
  Te  Te23  1  0.13867700  0.54679900  0.05230100  1
  O  O24  1  0.39007100  0.07656000  0.84401500  1
  O  O25  1  0.70618700  0.43666300  0.80005100  1
  O  O26  1  0.57156100  0.62285400  0.54998700  1
  O  O27  1  0.73989400  0.11220200  0.41626700  1
  O  O28  1  0.56333700  0.29381300  0.19994900  1
  O  O29  1  0.88779800  0.26010600  0.58373300  1
  O  O30  1  0.37926800  0.76690600  0.32201400  1
  O  O31  1  0.03212400  0.10937600  0.82489400  1
  O  O32  1  0.57594400  0.28301400  0.67445000  1
  O  O33  1  0.08387300  0.41922700  0.42429500  1
  O  O34  1  0.55372700  0.64439400  0.05540300  1
  O  O35  1  0.52402400  0.97325000  0.07614000  1
  O  O36  1  0.90219600  0.95457900  0.70014200  1
  O  O37  1  0.69209500  0.74097100  0.86230100  1
  O  O38  1  0.35560600  0.44627300  0.94459700  1
  O  O39  1  0.22907100  0.62484600  0.17785500  1
  O  O40  1  0.05496700  0.74695900  0.44437800  1
  O  O41  1  0.25902900  0.30790500  0.13769900  1
  O  O42  1  0.37714600  0.42843900  0.45001300  1
  O  O43  1  0.25304000  0.94503300  0.55562200  1
  O  O44  1  0.68480400  0.78145300  0.34416100  1
  O  O45  1  0.91641300  0.65025300  0.63770500  1
  O  O46  1  0.89062400  0.96787600  0.17510600  1
  O  O47  1  0.37515400  0.77092900  0.82214500  1
  O  O48  1  0.03661900  0.76872900  0.95000300  1
  O  O49  1  0.71961600  0.13222800  0.91711000  1
  O  O50  1  0.02675000  0.47597600  0.92386000  1
  O  O51  1  0.23309400  0.62073200  0.67798600  1
  O  O52  1  0.04542100  0.09780400  0.29985800  1
  O  O53  1  0.34974700  0.08358700  0.36229500  1
  O  O54  1  0.21854700  0.31519600  0.65583900  1
  O  O55  1  0.86777200  0.28038400  0.08289000  1
  O  O56  1  0.71698600  0.42405600  0.32555000  1
  O  O57  1  0.58077300  0.91612700  0.57570500  1
  O  O58  1  0.23127100  0.96338100  0.04999700  1
  O  O59  1  0.92344000  0.60992900  0.15598500  1
