# generated using pymatgen
data_ZnW5O7
_symmetry_space_group_name_H-M   'P 1'
_cell_length_a   5.79147534
_cell_length_b   5.79147534
_cell_length_c   19.44508200
_cell_angle_alpha   90.00000000
_cell_angle_beta   90.00000000
_cell_angle_gamma   147.15201379
_symmetry_Int_Tables_number   1
_chemical_formula_structural   ZnW5O7
_chemical_formula_sum   'Zn2 W10 O14'
_cell_volume   353.76714678
_cell_formula_units_Z   2
loop_
 _symmetry_equiv_pos_site_id
 _symmetry_equiv_pos_as_xyz
  1  'x, y, z'
loop_
 _atom_site_type_symbol
 _atom_site_label
 _atom_site_symmetry_multiplicity
 _atom_site_fract_x
 _atom_site_fract_y
 _atom_site_fract_z
 _atom_site_occupancy
  Zn  Zn0  1  0.16379400  0.83620600  0.75000000  1
  Zn  Zn1  1  0.83620600  0.16379400  0.25000000  1
  W  W2  1  0.73003600  0.26996400  0.58196200  1
  W  W3  1  0.52640500  0.47359500  0.15174100  1
  W  W4  1  0.00000000  0.00000000  0.50000000  1
  W  W5  1  0.00000000  0.00000000  0.00000000  1
  W  W6  1  0.47359500  0.52640500  0.84825900  1
  W  W7  1  0.26996400  0.73003600  0.41803800  1
  W  W8  1  0.26996400  0.73003600  0.08196200  1
  W  W9  1  0.73003600  0.26996400  0.91803800  1
  W  W10  1  0.47359500  0.52640500  0.65174100  1
  W  W11  1  0.52640500  0.47359500  0.34825900  1
  O  O12  1  0.33906800  0.66093200  0.96206300  1
  O  O13  1  0.66093200  0.33906800  0.03793700  1
  O  O14  1  0.66093200  0.33906800  0.46206300  1
  O  O15  1  0.33906800  0.66093200  0.53793700  1
  O  O16  1  0.85482700  0.14517300  0.83559500  1
  O  O17  1  0.14517300  0.85482700  0.16440500  1
  O  O18  1  0.14517300  0.85482700  0.33559500  1
  O  O19  1  0.85482700  0.14517300  0.66440500  1
  O  O20  1  0.12709100  0.87290900  0.86001700  1
  O  O21  1  0.87290900  0.12709100  0.13998300  1
  O  O22  1  0.87290900  0.12709100  0.36001700  1
  O  O23  1  0.12709100  0.87290900  0.63998300  1
  O  O24  1  0.55394800  0.44605200  0.75000000  1
  O  O25  1  0.44605200  0.55394800  0.25000000  1
