# generated using pymatgen
data_SrMgSn(PO4)2
_symmetry_space_group_name_H-M   'P 1'
_cell_length_a   5.61140400
_cell_length_b   7.15356841
_cell_length_c   10.05630402
_cell_angle_alpha   107.48736158
_cell_angle_beta   104.79054662
_cell_angle_gamma   96.83412190
_symmetry_Int_Tables_number   1
_chemical_formula_structural   SrMgSn(PO4)2
_chemical_formula_sum   'Sr2 Mg2 Sn2 P4 O16'
_cell_volume   363.78213199
_cell_formula_units_Z   2
loop_
 _symmetry_equiv_pos_site_id
 _symmetry_equiv_pos_as_xyz
  1  'x, y, z'
loop_
 _atom_site_type_symbol
 _atom_site_label
 _atom_site_symmetry_multiplicity
 _atom_site_fract_x
 _atom_site_fract_y
 _atom_site_fract_z
 _atom_site_occupancy
  Sr  Sr0  1  0.80164900  0.24889300  0.03752900  1
  Sr  Sr1  1  0.19835100  0.75110700  0.96247100  1
  Mg  Mg2  1  0.62097700  0.27830100  0.63842200  1
  Mg  Mg3  1  0.37902300  0.72169900  0.36157800  1
  Sn  Sn4  1  0.96410900  0.75286100  0.58346300  1
  Sn  Sn5  1  0.03589100  0.24713900  0.41653700  1
  P  P6  1  0.84584300  0.79995400  0.21345900  1
  P  P7  1  0.15415700  0.20004600  0.78654100  1
  P  P8  1  0.46382400  0.26724300  0.28160600  1
  P  P9  1  0.53617600  0.73275700  0.71839400  1
  O  O10  1  0.12017500  0.35878900  0.91816100  1
  O  O11  1  0.58200100  0.75088700  0.23216800  1
  O  O12  1  0.12100500  0.98718100  0.80283700  1
  O  O13  1  0.72057900  0.58119600  0.69937700  1
  O  O14  1  0.41799900  0.24911300  0.76783200  1
  O  O15  1  0.51087100  0.81093300  0.58560600  1
  O  O16  1  0.48912900  0.18906700  0.41439400  1
  O  O17  1  0.64371800  0.89440900  0.86817100  1
  O  O18  1  0.87899500  0.01281900  0.19716300  1
  O  O19  1  0.35628200  0.10559100  0.13182900  1
  O  O20  1  0.87982500  0.64121100  0.08183900  1
  O  O21  1  0.06552300  0.82477600  0.35400900  1
  O  O22  1  0.93447700  0.17522400  0.64599100  1
  O  O23  1  0.73011600  0.38271700  0.29802400  1
  O  O24  1  0.27942100  0.41880400  0.30062300  1
  O  O25  1  0.26988400  0.61728300  0.70197600  1
