# generated using pymatgen
data_TlCu7Se4
_symmetry_space_group_name_H-M   'P 1'
_cell_length_a   4.00835186
_cell_length_b   7.68129453
_cell_length_c   7.59139861
_cell_angle_alpha   87.20526420
_cell_angle_beta   74.62234140
_cell_angle_gamma   75.52254846
_symmetry_Int_Tables_number   1
_chemical_formula_structural   TlCu7Se4
_chemical_formula_sum   'Tl1 Cu7 Se4'
_cell_volume   218.17138920
_cell_formula_units_Z   1
loop_
 _symmetry_equiv_pos_site_id
 _symmetry_equiv_pos_as_xyz
  1  'x, y, z'
loop_
 _atom_site_type_symbol
 _atom_site_label
 _atom_site_symmetry_multiplicity
 _atom_site_fract_x
 _atom_site_fract_y
 _atom_site_fract_z
 _atom_site_occupancy
  Tl  Tl0  1  0.99711700  0.99037500  0.00901500  1
  Cu  Cu1  1  0.03016200  0.35116600  0.60042100  1
  Cu  Cu2  1  0.32360000  0.89775700  0.45530200  1
  Cu  Cu3  1  0.34666600  0.59980300  0.64828400  1
  Cu  Cu4  1  0.64105100  0.39326400  0.35575500  1
  Cu  Cu5  1  0.66691900  0.12474600  0.55810400  1
  Cu  Cu6  1  0.75192900  0.54740400  0.88171600  1
  Cu  Cu7  1  0.02857500  0.64446900  0.38324800  1
  Se  Se8  1  0.25161700  0.18518700  0.31116400  1
  Se  Se9  1  0.41752500  0.32938600  0.83060000  1
  Se  Se10  1  0.61039300  0.66457300  0.18826100  1
  Se  Se11  1  0.71344600  0.81787100  0.67412800  1
