# generated using pymatgen
data_SrCaCu(PO4)2
_symmetry_space_group_name_H-M   'P 1'
_cell_length_a   5.92619300
_cell_length_b   6.91526349
_cell_length_c   9.32770285
_cell_angle_alpha   108.65891517
_cell_angle_beta   102.55540792
_cell_angle_gamma   99.82218521
_symmetry_Int_Tables_number   1
_chemical_formula_structural   SrCaCu(PO4)2
_chemical_formula_sum   'Sr2 Ca2 Cu2 P4 O16'
_cell_volume   341.38154942
_cell_formula_units_Z   2
loop_
 _symmetry_equiv_pos_site_id
 _symmetry_equiv_pos_as_xyz
  1  'x, y, z'
loop_
 _atom_site_type_symbol
 _atom_site_label
 _atom_site_symmetry_multiplicity
 _atom_site_fract_x
 _atom_site_fract_y
 _atom_site_fract_z
 _atom_site_occupancy
  Sr  Sr0  1  0.27495900  0.81275000  0.06528700  1
  Sr  Sr1  1  0.72504100  0.18725000  0.93471300  1
  Ca  Ca2  1  0.99342100  0.41614000  0.66081800  1
  Ca  Ca3  1  0.00657900  0.58386000  0.33918200  1
  Cu  Cu4  1  0.66001500  0.84432000  0.54602900  1
  Cu  Cu5  1  0.33998500  0.15568000  0.45397100  1
  P  P6  1  0.39585100  0.41987100  0.23240500  1
  P  P7  1  0.60414900  0.58012900  0.76759500  1
  P  P8  1  0.84076200  0.03099000  0.29640000  1
  P  P9  1  0.15923800  0.96901000  0.70360000  1
  O  O10  1  0.83354200  0.56218700  0.87865100  1
  O  O11  1  0.61838700  0.45446400  0.17455100  1
  O  O12  1  0.65014100  0.79789800  0.74825200  1
  O  O13  1  0.95042900  0.08549200  0.68976800  1
  O  O14  1  0.38161300  0.54553600  0.82544900  1
  O  O15  1  0.04196200  0.73079700  0.60234500  1
  O  O16  1  0.95803800  0.26920300  0.39765500  1
  O  O17  1  0.27615300  0.00864800  0.87739800  1
  O  O18  1  0.34985900  0.20210200  0.25174800  1
  O  O19  1  0.72384700  0.99135200  0.12260200  1
  O  O20  1  0.16645800  0.43781300  0.12134900  1
  O  O21  1  0.41933300  0.59342700  0.39636300  1
  O  O22  1  0.58066700  0.40657300  0.60363700  1
  O  O23  1  0.64606200  0.94002200  0.36374100  1
  O  O24  1  0.04957100  0.91450800  0.31023200  1
  O  O25  1  0.35393800  0.05997800  0.63625900  1
