# generated using pymatgen
data_Mg(BiO2)4
_symmetry_space_group_name_H-M   'P 1'
_cell_length_a   8.74738965
_cell_length_b   8.74738965
_cell_length_c   10.16876424
_cell_angle_alpha   56.53465644
_cell_angle_beta   56.53465644
_cell_angle_gamma   22.37415237
_symmetry_Int_Tables_number   1
_chemical_formula_structural   Mg(BiO2)4
_chemical_formula_sum   'Mg1 Bi4 O8'
_cell_volume   244.95811468
_cell_formula_units_Z   1
loop_
 _symmetry_equiv_pos_site_id
 _symmetry_equiv_pos_as_xyz
  1  'x, y, z'
loop_
 _atom_site_type_symbol
 _atom_site_label
 _atom_site_symmetry_multiplicity
 _atom_site_fract_x
 _atom_site_fract_y
 _atom_site_fract_z
 _atom_site_occupancy
  Mg  Mg0  1  0.30129400  0.30129400  0.22443600  1
  Bi  Bi1  1  0.64534100  0.64534100  0.56345700  1
  Bi  Bi2  1  0.12479700  0.12479700  0.19960700  1
  Bi  Bi3  1  0.85491000  0.85491000  0.85321700  1
  Bi  Bi4  1  0.35459700  0.35459700  0.49531700  1
  O  O5  1  0.87304900  0.87304900  0.62153000  1
  O  O6  1  0.45272600  0.45272600  0.78043600  1
  O  O7  1  0.52715700  0.52715700  0.27184900  1
  O  O8  1  0.15736600  0.15736600  0.38300100  1
  O  O9  1  0.19787500  0.19787500  0.64349900  1
  O  O10  1  0.80849800  0.80849800  0.09611100  1
  O  O11  1  0.80451900  0.80451900  0.36284700  1
  O  O12  1  0.25761700  0.25761700  0.91348800  1
