# generated using pymatgen
data_Ba2MgV2CuF14
_symmetry_space_group_name_H-M   'P 1'
_cell_length_a   7.52144080
_cell_length_b   7.52144080
_cell_length_c   14.75538511
_cell_angle_alpha   87.94297260
_cell_angle_beta   87.94297260
_cell_angle_gamma   41.57412076
_symmetry_Int_Tables_number   1
_chemical_formula_structural   Ba2MgV2CuF14
_chemical_formula_sum   'Ba4 Mg2 V4 Cu2 F28'
_cell_volume   553.51715177
_cell_formula_units_Z   2
loop_
 _symmetry_equiv_pos_site_id
 _symmetry_equiv_pos_as_xyz
  1  'x, y, z'
loop_
 _atom_site_type_symbol
 _atom_site_label
 _atom_site_symmetry_multiplicity
 _atom_site_fract_x
 _atom_site_fract_y
 _atom_site_fract_z
 _atom_site_occupancy
  Ba  Ba0  1  0.74001800  0.89135000  0.12435300  1
  Ba  Ba1  1  0.89135000  0.74001800  0.62435300  1
  Ba  Ba2  1  0.25998200  0.10865000  0.87564700  1
  Ba  Ba3  1  0.10865000  0.25998200  0.37564700  1
  Mg  Mg4  1  0.43300400  0.56699600  0.25000000  1
  Mg  Mg5  1  0.56699600  0.43300400  0.75000000  1
  V  V6  1  0.85625300  0.90131200  0.37379500  1
  V  V7  1  0.14374700  0.09868800  0.62620500  1
  V  V8  1  0.90131200  0.85625300  0.87379500  1
  V  V9  1  0.09868800  0.14374700  0.12620500  1
  Cu  Cu10  1  0.50000000  0.50000000  0.50000000  1
  Cu  Cu11  1  0.50000000  0.50000000  0.00000000  1
  F  F12  1  0.91162200  0.10308600  0.83776900  1
  F  F13  1  0.59642000  0.12484900  0.95731900  1
  F  F14  1  0.40358000  0.87515100  0.04268100  1
  F  F15  1  0.14805500  0.35406100  0.09884000  1
  F  F16  1  0.50550200  0.39971400  0.12705900  1
  F  F17  1  0.60028600  0.49449800  0.37294100  1
  F  F18  1  0.12484900  0.59642000  0.45731900  1
  F  F19  1  0.89691400  0.08837800  0.66223100  1
  F  F20  1  0.03880900  0.63418800  0.27472400  1
  F  F21  1  0.85194500  0.64593900  0.90116000  1
  F  F22  1  0.57757400  0.19233500  0.29038900  1
  F  F23  1  0.64593900  0.85194500  0.40116000  1
  F  F24  1  0.19233500  0.57757400  0.79038900  1
  F  F25  1  0.42242600  0.80766500  0.70961100  1
  F  F26  1  0.39971400  0.50550200  0.62705900  1
  F  F27  1  0.96119100  0.36581200  0.72527600  1
  F  F28  1  0.29589500  0.87054800  0.51693800  1
  F  F29  1  0.08837800  0.89691400  0.16223100  1
  F  F30  1  0.70410500  0.12945200  0.48306200  1
  F  F31  1  0.87054800  0.29589500  0.01693800  1
  F  F32  1  0.87515100  0.40358000  0.54268100  1
  F  F33  1  0.80766500  0.42242600  0.20961100  1
  F  F34  1  0.63418800  0.03880900  0.77472400  1
  F  F35  1  0.12945200  0.70410500  0.98306200  1
  F  F36  1  0.49449800  0.60028600  0.87294100  1
  F  F37  1  0.10308600  0.91162200  0.33776900  1
  F  F38  1  0.36581200  0.96119100  0.22527600  1
  F  F39  1  0.35406100  0.14805500  0.59884000  1
