# generated using pymatgen
data_Ca2W9O13
_symmetry_space_group_name_H-M   'P 1'
_cell_length_a   3.29645400
_cell_length_b   5.50477180
_cell_length_c   18.41098904
_cell_angle_alpha   89.33852386
_cell_angle_beta   86.15028971
_cell_angle_gamma   84.52929841
_symmetry_Int_Tables_number   1
_chemical_formula_structural   Ca2W9O13
_chemical_formula_sum   'Ca2 W9 O13'
_cell_volume   331.81337396
_cell_formula_units_Z   1
loop_
 _symmetry_equiv_pos_site_id
 _symmetry_equiv_pos_as_xyz
  1  'x, y, z'
loop_
 _atom_site_type_symbol
 _atom_site_label
 _atom_site_symmetry_multiplicity
 _atom_site_fract_x
 _atom_site_fract_y
 _atom_site_fract_z
 _atom_site_occupancy
  Ca  Ca0  1  0.67886700  0.56810400  0.76978200  1
  Ca  Ca1  1  0.32113300  0.43189600  0.23021800  1
  W  W2  1  0.00000000  0.00000000  0.50000000  1
  W  W3  1  0.72333100  0.67542300  0.95801300  1
  W  W4  1  0.27666900  0.32457700  0.04198700  1
  W  W5  1  0.77086300  0.50707200  0.57012500  1
  W  W6  1  0.22913700  0.49292800  0.42987500  1
  W  W7  1  0.16713900  0.13316000  0.87317200  1
  W  W8  1  0.83286100  0.86684000  0.12682800  1
  W  W9  1  0.33581200  0.09935100  0.66223300  1
  W  W10  1  0.66418800  0.90064900  0.33776700  1
  O  O11  1  0.00000000  0.00000000  0.00000000  1
  O  O12  1  0.22373600  0.28063000  0.76554200  1
  O  O13  1  0.77626400  0.71937000  0.23445800  1
  O  O14  1  0.63357200  0.38708700  0.88766500  1
  O  O15  1  0.36642800  0.61291300  0.11233500  1
  O  O16  1  0.71597500  0.87548800  0.86138900  1
  O  O17  1  0.28402500  0.12451200  0.13861100  1
  O  O18  1  0.84946900  0.89505100  0.69849400  1
  O  O19  1  0.15053100  0.10494900  0.30150600  1
  O  O20  1  0.25229500  0.46917100  0.63606600  1
  O  O21  1  0.74770500  0.53082900  0.36393400  1
  O  O22  1  0.49674500  0.88315900  0.56572600  1
  O  O23  1  0.50325500  0.11684100  0.43427400  1
