# generated using pymatgen
data_Zn(SnO2)4
_symmetry_space_group_name_H-M   'P 1'
_cell_length_a   8.07085240
_cell_length_b   8.07085240
_cell_length_c   9.78641227
_cell_angle_alpha   54.47399573
_cell_angle_beta   54.47399573
_cell_angle_gamma   23.19140176
_symmetry_Int_Tables_number   1
_chemical_formula_structural   Zn(SnO2)4
_chemical_formula_sum   'Zn1 Sn4 O8'
_cell_volume   202.10468840
_cell_formula_units_Z   1
loop_
 _symmetry_equiv_pos_site_id
 _symmetry_equiv_pos_as_xyz
  1  'x, y, z'
loop_
 _atom_site_type_symbol
 _atom_site_label
 _atom_site_symmetry_multiplicity
 _atom_site_fract_x
 _atom_site_fract_y
 _atom_site_fract_z
 _atom_site_occupancy
  Zn  Zn0  1  0.30619000  0.30619000  0.19348200  1
  Sn  Sn1  1  0.63590400  0.63590400  0.56806200  1
  Sn  Sn2  1  0.09980400  0.09980400  0.21201200  1
  Sn  Sn3  1  0.86186300  0.86186300  0.83494500  1
  Sn  Sn4  1  0.33633500  0.33633500  0.51314000  1
  O  O5  1  0.86851500  0.86851500  0.60721800  1
  O  O6  1  0.47570300  0.47570300  0.73021100  1
  O  O7  1  0.48906800  0.48906800  0.29496200  1
  O  O8  1  0.14832500  0.14832500  0.41394400  1
  O  O9  1  0.16789900  0.16789900  0.67264700  1
  O  O10  1  0.84239500  0.84239500  0.06529300  1
  O  O11  1  0.80525600  0.80525600  0.39893100  1
  O  O12  1  0.26522700  0.26522700  0.90394500  1
