# generated using pymatgen
data_MgCoO2
_symmetry_space_group_name_H-M   'P 1'
_cell_length_a   3.04047800
_cell_length_b   8.02226649
_cell_length_c   8.16212720
_cell_angle_alpha   86.42024263
_cell_angle_beta   88.96323731
_cell_angle_gamma   79.38020477
_symmetry_Int_Tables_number   1
_chemical_formula_structural   MgCoO2
_chemical_formula_sum   'Mg4 Co4 O8'
_cell_volume   195.29052020
_cell_formula_units_Z   4
loop_
 _symmetry_equiv_pos_site_id
 _symmetry_equiv_pos_as_xyz
  1  'x, y, z'
loop_
 _atom_site_type_symbol
 _atom_site_label
 _atom_site_symmetry_multiplicity
 _atom_site_fract_x
 _atom_site_fract_y
 _atom_site_fract_z
 _atom_site_occupancy
  Mg  Mg0  1  0.14829800  0.20935300  0.94744900  1
  Mg  Mg1  1  0.85170200  0.79064700  0.05255100  1
  Mg  Mg2  1  0.04858800  0.37845100  0.25037600  1
  Mg  Mg3  1  0.95141200  0.62154900  0.74962400  1
  Co  Co4  1  0.30688500  0.92456100  0.72869500  1
  Co  Co5  1  0.63411600  0.27311000  0.63788600  1
  Co  Co6  1  0.36588400  0.72689000  0.36211400  1
  Co  Co7  1  0.69311500  0.07543900  0.27130500  1
  O  O8  1  0.26204000  0.94312800  0.18601200  1
  O  O9  1  0.40387400  0.73318200  0.59363000  1
  O  O10  1  0.59612600  0.26681800  0.40637000  1
  O  O11  1  0.73796000  0.05687200  0.81398800  1
  O  O12  1  0.39566600  0.71841700  0.90724400  1
  O  O13  1  0.07912200  0.37373800  0.74696200  1
  O  O14  1  0.60433400  0.28158300  0.09275600  1
  O  O15  1  0.92087800  0.62626200  0.25303800  1
