# generated using pymatgen
data_MnF4
_symmetry_space_group_name_H-M   'P 1'
_cell_length_a   6.38185681
_cell_length_b   6.38185681
_cell_length_c   6.38185681
_cell_angle_alpha   129.34753573
_cell_angle_beta   129.34753573
_cell_angle_gamma   74.45201317
_symmetry_Int_Tables_number   1
_chemical_formula_structural   MnF4
_chemical_formula_sum   'Mn2 F8'
_cell_volume   151.48782723
_cell_formula_units_Z   2
loop_
 _symmetry_equiv_pos_site_id
 _symmetry_equiv_pos_as_xyz
  1  'x, y, z'
loop_
 _atom_site_type_symbol
 _atom_site_label
 _atom_site_symmetry_multiplicity
 _atom_site_fract_x
 _atom_site_fract_y
 _atom_site_fract_z
 _atom_site_occupancy
  Mn  Mn0  1  0.00000000  0.50000000  0.50000000  1
  Mn  Mn1  1  0.50000000  0.00000000  0.50000000  1
  F  F2  1  0.95241100  0.45241100  0.16388700  1
  F  F3  1  0.71147700  0.21147700  0.16388700  1
  F  F4  1  0.04758900  0.54758900  0.83611300  1
  F  F5  1  0.54758900  0.71147700  0.50000000  1
  F  F6  1  0.28852300  0.78852300  0.83611300  1
  F  F7  1  0.78852300  0.95241100  0.50000000  1
  F  F8  1  0.45241100  0.28852300  0.50000000  1
  F  F9  1  0.21147700  0.04758900  0.50000000  1
