# generated using pymatgen
data_Tl5NO5
_symmetry_space_group_name_H-M   'P 1'
_cell_length_a   11.55437300
_cell_length_b   3.92223600
_cell_length_c   5.64442317
_cell_angle_alpha   86.06978225
_cell_angle_beta   90.00000000
_cell_angle_gamma   90.00000000
_symmetry_Int_Tables_number   1
_chemical_formula_structural   Tl5NO5
_chemical_formula_sum   'Tl5 N1 O5'
_cell_volume   255.19791617
_cell_formula_units_Z   1
loop_
 _symmetry_equiv_pos_site_id
 _symmetry_equiv_pos_as_xyz
  1  'x, y, z'
loop_
 _atom_site_type_symbol
 _atom_site_label
 _atom_site_symmetry_multiplicity
 _atom_site_fract_x
 _atom_site_fract_y
 _atom_site_fract_z
 _atom_site_occupancy
  Tl  Tl0  1  0.00000000  0.58471100  0.30124000  1
  Tl  Tl1  1  0.67358300  0.61281600  0.31707400  1
  Tl  Tl2  1  0.83058700  0.08127500  0.78080100  1
  Tl  Tl3  1  0.32641700  0.61281600  0.31707400  1
  Tl  Tl4  1  0.16941300  0.08127500  0.78080100  1
  N  N5  1  0.50000000  0.01980200  0.89405200  1
  O  O6  1  0.50000000  0.91934600  0.65415200  1
  O  O7  1  0.84142600  0.55005200  0.03523100  1
  O  O8  1  0.50000000  0.32506600  0.91340900  1
  O  O9  1  0.15857400  0.55005200  0.03523100  1
  O  O10  1  0.50000000  0.17979000  0.47093400  1
