# generated using pymatgen
data_TiZn2O4
_symmetry_space_group_name_H-M   'P 1'
_cell_length_a   6.08499000
_cell_length_b   6.08499000
_cell_length_c   8.47019600
_cell_angle_alpha   90.00000000
_cell_angle_beta   90.00000000
_cell_angle_gamma   90.00000000
_symmetry_Int_Tables_number   1
_chemical_formula_structural   TiZn2O4
_chemical_formula_sum   'Ti4 Zn8 O16'
_cell_volume   313.62682226
_cell_formula_units_Z   4
loop_
 _symmetry_equiv_pos_site_id
 _symmetry_equiv_pos_as_xyz
  1  'x, y, z'
loop_
 _atom_site_type_symbol
 _atom_site_label
 _atom_site_symmetry_multiplicity
 _atom_site_fract_x
 _atom_site_fract_y
 _atom_site_fract_z
 _atom_site_occupancy
  Ti  Ti0  1  0.23858400  0.50000000  0.25000000  1
  Ti  Ti1  1  0.50000000  0.76141600  0.50000000  1
  Ti  Ti2  1  0.50000000  0.23858400  0.00000000  1
  Ti  Ti3  1  0.76141600  0.50000000  0.75000000  1
  Zn  Zn4  1  0.00000000  0.24321500  0.00000000  1
  Zn  Zn5  1  0.00000000  0.75678500  0.50000000  1
  Zn  Zn6  1  0.25382800  0.25382800  0.62500000  1
  Zn  Zn7  1  0.25382800  0.74617200  0.87500000  1
  Zn  Zn8  1  0.24321500  0.00000000  0.25000000  1
  Zn  Zn9  1  0.75678500  0.00000000  0.75000000  1
  Zn  Zn10  1  0.74617200  0.25382800  0.37500000  1
  Zn  Zn11  1  0.74617200  0.74617200  0.12500000  1
  O  O12  1  0.51579700  0.73370500  0.73309800  1
  O  O13  1  0.51579700  0.26629500  0.76690200  1
  O  O14  1  0.73429800  0.97437700  0.49857400  1
  O  O15  1  0.73429800  0.02562300  0.00142600  1
  O  O16  1  0.73370500  0.51579700  0.51690200  1
  O  O17  1  0.73370500  0.48420300  0.98309800  1
  O  O18  1  0.97437700  0.73429800  0.75142600  1
  O  O19  1  0.97437700  0.26570200  0.74857400  1
  O  O20  1  0.02562300  0.73429800  0.24857400  1
  O  O21  1  0.02562300  0.26570200  0.25142600  1
  O  O22  1  0.26629500  0.51579700  0.48309800  1
  O  O23  1  0.26629500  0.48420300  0.01690200  1
  O  O24  1  0.26570200  0.97437700  0.50142600  1
  O  O25  1  0.26570200  0.02562300  0.99857400  1
  O  O26  1  0.48420300  0.73370500  0.26690200  1
  O  O27  1  0.48420300  0.26629500  0.23309800  1
