# generated using pymatgen
data_SrCo(PO4)2
_symmetry_space_group_name_H-M   'P 1'
_cell_length_a   6.01721500
_cell_length_b   7.16816059
_cell_length_c   8.93814833
_cell_angle_alpha   109.59100246
_cell_angle_beta   102.80686075
_cell_angle_gamma   101.80885547
_symmetry_Int_Tables_number   1
_chemical_formula_structural   SrCo(PO4)2
_chemical_formula_sum   'Sr2 Co2 P4 O16'
_cell_volume   337.44526625
_cell_formula_units_Z   2
loop_
 _symmetry_equiv_pos_site_id
 _symmetry_equiv_pos_as_xyz
  1  'x, y, z'
loop_
 _atom_site_type_symbol
 _atom_site_label
 _atom_site_symmetry_multiplicity
 _atom_site_fract_x
 _atom_site_fract_y
 _atom_site_fract_z
 _atom_site_occupancy
  Sr  Sr0  1  0.25452700  0.77514000  0.04306600  1
  Sr  Sr1  1  0.74547300  0.22486000  0.95693400  1
  Co  Co2  1  0.69843300  0.82362200  0.54729800  1
  Co  Co3  1  0.30156700  0.17637800  0.45270200  1
  P  P4  1  0.40382900  0.42304600  0.23236200  1
  P  P5  1  0.59617100  0.57695400  0.76763800  1
  P  P6  1  0.84879700  0.02693700  0.30613600  1
  P  P7  1  0.15120300  0.97306300  0.69386400  1
  O  O8  1  0.81972300  0.56763000  0.88404700  1
  O  O9  1  0.62219300  0.45116300  0.17596400  1
  O  O10  1  0.65125500  0.78821000  0.74104700  1
  O  O11  1  0.94422500  0.08042200  0.69849500  1
  O  O12  1  0.37780700  0.54883700  0.82403600  1
  O  O13  1  0.98699100  0.74958500  0.56144400  1
  O  O14  1  0.01300900  0.25041500  0.43855600  1
  O  O15  1  0.27945300  0.98815000  0.86589000  1
  O  O16  1  0.34874500  0.21179000  0.25895300  1
  O  O17  1  0.72054700  0.01185000  0.13411000  1
  O  O18  1  0.18027700  0.43237000  0.11595300  1
  O  O19  1  0.44017500  0.60370200  0.40634300  1
  O  O20  1  0.55982500  0.39629800  0.59365700  1
  O  O21  1  0.65392000  0.93245300  0.37281200  1
  O  O22  1  0.05577500  0.91957800  0.30150500  1
  O  O23  1  0.34608000  0.06754700  0.62718800  1
