# generated using pymatgen
data_SrMgCr(PO4)2
_symmetry_space_group_name_H-M   'P 1'
_cell_length_a   5.65949121
_cell_length_b   6.84778224
_cell_length_c   9.37502145
_cell_angle_alpha   109.69988100
_cell_angle_beta   102.23009430
_cell_angle_gamma   98.62017747
_symmetry_Int_Tables_number   1
_chemical_formula_structural   SrMgCr(PO4)2
_chemical_formula_sum   'Sr2 Mg2 Cr2 P4 O16'
_cell_volume   324.48754067
_cell_formula_units_Z   2
loop_
 _symmetry_equiv_pos_site_id
 _symmetry_equiv_pos_as_xyz
  1  'x, y, z'
loop_
 _atom_site_type_symbol
 _atom_site_label
 _atom_site_symmetry_multiplicity
 _atom_site_fract_x
 _atom_site_fract_y
 _atom_site_fract_z
 _atom_site_occupancy
  Sr  Sr0  1  0.25713100  0.80246200  0.05456900  1
  Sr  Sr1  1  0.74286900  0.19753800  0.94543100  1
  Mg  Mg2  1  0.99272800  0.39199800  0.64843500  1
  Mg  Mg3  1  0.00727200  0.60800200  0.35156500  1
  Cr  Cr4  1  0.64096800  0.84355700  0.54846200  1
  Cr  Cr5  1  0.35903200  0.15644300  0.45153800  1
  P  P6  1  0.39082000  0.42344200  0.23518500  1
  P  P7  1  0.60918000  0.57655800  0.76481500  1
  P  P8  1  0.83770000  0.02281800  0.29825600  1
  P  P9  1  0.16230000  0.97718200  0.70174400  1
  O  O10  1  0.82054100  0.55524700  0.88996200  1
  O  O11  1  0.65330100  0.47770800  0.21276400  1
  O  O12  1  0.66152900  0.80229700  0.76016500  1
  O  O13  1  0.95324500  0.10788300  0.68779100  1
  O  O14  1  0.34669900  0.52229200  0.78723600  1
  O  O15  1  0.03604000  0.74089700  0.58572800  1
  O  O16  1  0.96396000  0.25910300  0.41427200  1
  O  O17  1  0.26169900  0.00214400  0.87277600  1
  O  O18  1  0.33847100  0.19770300  0.23983500  1
  O  O19  1  0.73830100  0.99785600  0.12722400  1
  O  O20  1  0.17945900  0.44475300  0.11003800  1
  O  O21  1  0.36683800  0.58407200  0.39524200  1
  O  O22  1  0.63316200  0.41592800  0.60475800  1
  O  O23  1  0.62135400  0.92892900  0.35319900  1
  O  O24  1  0.04675500  0.89211700  0.31220900  1
  O  O25  1  0.37864600  0.07107000  0.64680100  1
