# generated using pymatgen
data_TiO2
_symmetry_space_group_name_H-M   'P 1'
_cell_length_a   3.78200487
_cell_length_b   6.51291525
_cell_length_c   6.49001667
_cell_angle_alpha   85.32890455
_cell_angle_beta   73.39283009
_cell_angle_gamma   73.05307429
_symmetry_Int_Tables_number   1
_chemical_formula_structural   TiO2
_chemical_formula_sum   'Ti4 O8'
_cell_volume   146.54028624
_cell_formula_units_Z   4
loop_
 _symmetry_equiv_pos_site_id
 _symmetry_equiv_pos_as_xyz
  1  'x, y, z'
loop_
 _atom_site_type_symbol
 _atom_site_label
 _atom_site_symmetry_multiplicity
 _atom_site_fract_x
 _atom_site_fract_y
 _atom_site_fract_z
 _atom_site_occupancy
  Ti  Ti0  1  0.70684700  0.27247100  0.30903500  1
  Ti  Ti1  1  0.98583600  0.30936500  0.72719200  1
  Ti  Ti2  1  0.01416400  0.69063500  0.27280800  1
  Ti  Ti3  1  0.29315300  0.72752900  0.69096500  1
  O  O4  1  0.50934900  0.33982400  0.64684400  1
  O  O5  1  0.83674300  0.31953000  0.01132900  1
  O  O6  1  0.84773700  0.64755600  0.65869400  1
  O  O7  1  0.84160600  0.98844800  0.31816400  1
  O  O8  1  0.15839400  0.01155200  0.68183600  1
  O  O9  1  0.15226300  0.35244400  0.34130600  1
  O  O10  1  0.16325700  0.68047000  0.98867100  1
  O  O11  1  0.49065100  0.66017600  0.35315600  1
