# generated using pymatgen
data_Mg4Ni5(TeO6)3
_symmetry_space_group_name_H-M   'P 1'
_cell_length_a   8.66035643
_cell_length_b   8.66035643
_cell_length_c   10.31678369
_cell_angle_alpha   85.19836344
_cell_angle_beta   85.19836344
_cell_angle_gamma   61.74684871
_symmetry_Int_Tables_number   1
_chemical_formula_structural   Mg4Ni5(TeO6)3
_chemical_formula_sum   'Mg8 Ni10 Te6 O36'
_cell_volume   678.34378773
_cell_formula_units_Z   2
loop_
 _symmetry_equiv_pos_site_id
 _symmetry_equiv_pos_as_xyz
  1  'x, y, z'
loop_
 _atom_site_type_symbol
 _atom_site_label
 _atom_site_symmetry_multiplicity
 _atom_site_fract_x
 _atom_site_fract_y
 _atom_site_fract_z
 _atom_site_occupancy
  Mg  Mg0  1  0.34114100  0.05920400  0.07754300  1
  Mg  Mg1  1  0.36131700  0.67617000  0.96240800  1
  Mg  Mg2  1  0.94079600  0.65885900  0.42245700  1
  Mg  Mg3  1  0.32383000  0.63868300  0.53759200  1
  Mg  Mg4  1  0.67617000  0.36131700  0.46240800  1
  Mg  Mg5  1  0.05920400  0.34114100  0.57754300  1
  Mg  Mg6  1  0.65885900  0.94079600  0.92245700  1
  Mg  Mg7  1  0.63868300  0.32383000  0.03759200  1
  Ni  Ni8  1  0.30793900  0.98809400  0.73003300  1
  Ni  Ni9  1  0.98809400  0.30793900  0.23003300  1
  Ni  Ni10  1  0.14329900  0.52306200  0.05005900  1
  Ni  Ni11  1  0.52306200  0.14329900  0.55005900  1
  Ni  Ni12  1  0.47693800  0.85670100  0.44994100  1
  Ni  Ni13  1  0.82447800  0.17552200  0.75000000  1
  Ni  Ni14  1  0.17552200  0.82447800  0.25000000  1
  Ni  Ni15  1  0.85670100  0.47693800  0.94994100  1
  Ni  Ni16  1  0.69206100  0.01190600  0.26996700  1
  Ni  Ni17  1  0.01190600  0.69206100  0.76996700  1
  Te  Te18  1  0.66588900  0.65602700  0.70125400  1
  Te  Te19  1  0.00000000  0.00000000  0.00000000  1
  Te  Te20  1  0.00000000  0.00000000  0.50000000  1
  Te  Te21  1  0.65602700  0.66588900  0.20125400  1
  Te  Te22  1  0.33411100  0.34397300  0.29874600  1
  Te  Te23  1  0.34397300  0.33411100  0.79874600  1
  O  O24  1  0.89124300  0.59149400  0.60596400  1
  O  O25  1  0.23997300  0.91214100  0.56133300  1
  O  O26  1  0.43050500  0.75806400  0.29709700  1
  O  O27  1  0.93097000  0.92470000  0.16596600  1
  O  O28  1  0.08785900  0.76002700  0.93866700  1
  O  O29  1  0.07530000  0.06903000  0.33403400  1
  O  O30  1  0.59325500  0.57544500  0.05730400  1
  O  O31  1  0.90511600  0.23562100  0.56592700  1
  O  O32  1  0.09488400  0.76437900  0.43407300  1
  O  O33  1  0.22839300  0.27832900  0.16303600  1
  O  O34  1  0.44640600  0.74594400  0.80160700  1
  O  O35  1  0.77160700  0.72167100  0.83696400  1
  O  O36  1  0.76002700  0.08785900  0.43866700  1
  O  O37  1  0.55720700  0.89519100  0.61825700  1
  O  O38  1  0.25405600  0.55359400  0.69839300  1
  O  O39  1  0.40674500  0.42455500  0.94269600  1
  O  O40  1  0.55359400  0.25405600  0.19839300  1
  O  O41  1  0.10480900  0.44279300  0.88174300  1
  O  O42  1  0.24193600  0.56949500  0.20290300  1
  O  O43  1  0.74594400  0.44640600  0.30160700  1
  O  O44  1  0.59149400  0.89124300  0.10596400  1
  O  O45  1  0.44279300  0.10480900  0.38174300  1
  O  O46  1  0.76437900  0.09488400  0.93407300  1
  O  O47  1  0.57544500  0.59325500  0.55730400  1
  O  O48  1  0.56949500  0.24193600  0.70290300  1
  O  O49  1  0.92470000  0.93097000  0.66596600  1
  O  O50  1  0.27832900  0.22839300  0.66303600  1
  O  O51  1  0.42455500  0.40674500  0.44269600  1
  O  O52  1  0.91214100  0.23997300  0.06133300  1
  O  O53  1  0.89519100  0.55720700  0.11825700  1
  O  O54  1  0.10875700  0.40850600  0.39403600  1
  O  O55  1  0.06903000  0.07530000  0.83403400  1
  O  O56  1  0.23562100  0.90511600  0.06592700  1
  O  O57  1  0.72167100  0.77160700  0.33696400  1
  O  O58  1  0.75806400  0.43050500  0.79709700  1
  O  O59  1  0.40850600  0.10875700  0.89403600  1
