# generated using pymatgen
data_ZnMoF5
_symmetry_space_group_name_H-M   'P 1'
_cell_length_a   5.54971377
_cell_length_b   5.54971377
_cell_length_c   7.91994151
_cell_angle_alpha   69.25808162
_cell_angle_beta   69.25808162
_cell_angle_gamma   74.29512648
_symmetry_Int_Tables_number   1
_chemical_formula_structural   ZnMoF5
_chemical_formula_sum   'Zn2 Mo2 F10'
_cell_volume   210.37025186
_cell_formula_units_Z   2
loop_
 _symmetry_equiv_pos_site_id
 _symmetry_equiv_pos_as_xyz
  1  'x, y, z'
loop_
 _atom_site_type_symbol
 _atom_site_label
 _atom_site_symmetry_multiplicity
 _atom_site_fract_x
 _atom_site_fract_y
 _atom_site_fract_z
 _atom_site_occupancy
  Zn  Zn0  1  0.49556700  0.50443300  0.75000000  1
  Zn  Zn1  1  0.50443300  0.49556700  0.25000000  1
  Mo  Mo2  1  0.00000000  0.00000000  0.50000000  1
  Mo  Mo3  1  0.00000000  0.00000000  0.00000000  1
  F  F4  1  0.11323500  0.88676500  0.25000000  1
  F  F5  1  0.88676500  0.11323500  0.75000000  1
  F  F6  1  0.69992200  0.77603800  0.14282500  1
  F  F7  1  0.22396200  0.30007800  0.35717500  1
  F  F8  1  0.67500200  0.28132800  0.45448900  1
  F  F9  1  0.71867200  0.32499800  0.04551100  1
  F  F10  1  0.32499800  0.71867200  0.54551100  1
  F  F11  1  0.28132800  0.67500200  0.95448900  1
  F  F12  1  0.77603800  0.69992200  0.64282500  1
  F  F13  1  0.30007800  0.22396200  0.85717500  1
