# generated using pymatgen
data_Zn(MoO2)4
_symmetry_space_group_name_H-M   'P 1'
_cell_length_a   3.21069800
_cell_length_b   7.58673194
_cell_length_c   8.03237750
_cell_angle_alpha   94.68554375
_cell_angle_beta   101.02465025
_cell_angle_gamma   101.10719167
_symmetry_Int_Tables_number   1
_chemical_formula_structural   Zn(MoO2)4
_chemical_formula_sum   'Zn1 Mo4 O8'
_cell_volume   187.01772553
_cell_formula_units_Z   1
loop_
 _symmetry_equiv_pos_site_id
 _symmetry_equiv_pos_as_xyz
  1  'x, y, z'
loop_
 _atom_site_type_symbol
 _atom_site_label
 _atom_site_symmetry_multiplicity
 _atom_site_fract_x
 _atom_site_fract_y
 _atom_site_fract_z
 _atom_site_occupancy
  Zn  Zn0  1  0.53546100  0.86077600  0.21250200  1
  Mo  Mo1  1  0.18724700  0.82441000  0.56095800  1
  Mo  Mo2  1  0.33531500  0.48943500  0.19999700  1
  Mo  Mo3  1  0.67760200  0.51746800  0.83941600  1
  Mo  Mo4  1  0.83044600  0.20101200  0.48888800  1
  O  O5  1  0.46510200  0.33006500  0.60874600  1
  O  O6  1  0.19578700  0.66802100  0.74163800  1
  O  O7  1  0.81869100  0.34985000  0.29371600  1
  O  O8  1  0.53913400  0.69746600  0.41902600  1
  O  O9  1  0.81702700  0.99202400  0.63984800  1
  O  O10  1  0.88174700  0.68131600  0.10319000  1
  O  O11  1  0.17890700  0.01363000  0.35513000  1
  O  O12  1  0.16873400  0.38388900  0.94573600  1
