# generated using pymatgen
data_TiPb15O17
_symmetry_space_group_name_H-M   'P 1'
_cell_length_a   4.11027500
_cell_length_b   31.70373900
_cell_length_c   5.29425100
_cell_angle_alpha   90.00000000
_cell_angle_beta   90.00000000
_cell_angle_gamma   90.00000000
_symmetry_Int_Tables_number   1
_chemical_formula_structural   TiPb15O17
_chemical_formula_sum   'Ti1 Pb15 O17'
_cell_volume   689.89959640
_cell_formula_units_Z   1
loop_
 _symmetry_equiv_pos_site_id
 _symmetry_equiv_pos_as_xyz
  1  'x, y, z'
loop_
 _atom_site_type_symbol
 _atom_site_label
 _atom_site_symmetry_multiplicity
 _atom_site_fract_x
 _atom_site_fract_y
 _atom_site_fract_z
 _atom_site_occupancy
  Ti  Ti0  1  0.50000000  0.87500000  0.86502500  1
  Pb  Pb1  1  0.00000000  0.06162400  0.22192400  1
  Pb  Pb2  1  0.00000000  0.18734100  0.22536600  1
  Pb  Pb3  1  0.00000000  0.31247200  0.22575400  1
  Pb  Pb4  1  0.00000000  0.56265900  0.22536600  1
  Pb  Pb5  1  0.00000000  0.68837600  0.22192400  1
  Pb  Pb6  1  0.00000000  0.93476400  0.24074200  1
  Pb  Pb7  1  0.50000000  0.12476800  0.77324600  1
  Pb  Pb8  1  0.50000000  0.24997200  0.77389000  1
  Pb  Pb9  1  0.50000000  0.37500000  0.77392800  1
  Pb  Pb10  1  0.50000000  0.50002800  0.77389000  1
  Pb  Pb11  1  0.50000000  0.62523200  0.77324600  1
  Pb  Pb12  1  0.50000000  0.75219800  0.77676200  1
  Pb  Pb13  1  0.50000000  0.99780200  0.77676200  1
  Pb  Pb14  1  0.00000000  0.43752800  0.22575400  1
  Pb  Pb15  1  0.00000000  0.81523600  0.24074200  1
  O  O16  1  0.00000000  0.99832400  0.99443900  1
  O  O17  1  0.00000000  0.12466500  0.99083500  1
  O  O18  1  0.00000000  0.24995900  0.99128200  1
  O  O19  1  0.00000000  0.50004100  0.99128200  1
  O  O20  1  0.00000000  0.62533500  0.99083500  1
  O  O21  1  0.00000000  0.87500000  0.97103400  1
  O  O22  1  0.50000000  0.06157600  0.00385800  1
  O  O23  1  0.50000000  0.18740100  0.00819000  1
  O  O24  1  0.50000000  0.31248100  0.00831600  1
  O  O25  1  0.50000000  0.43751900  0.00831600  1
  O  O26  1  0.50000000  0.56259900  0.00819000  1
  O  O27  1  0.50000000  0.81749400  0.00209900  1
  O  O28  1  0.50000000  0.68842400  0.00385800  1
  O  O29  1  0.50000000  0.87500000  0.54151600  1
  O  O30  1  0.50000000  0.93250600  0.00209900  1
  O  O31  1  0.00000000  0.37500000  0.99139000  1
  O  O32  1  0.00000000  0.75167600  0.99443900  1
