# generated using pymatgen
data_Ca4Fe5(TeO6)3
_symmetry_space_group_name_H-M   'P 1'
_cell_length_a   9.06091101
_cell_length_b   9.06091101
_cell_length_c   10.81541885
_cell_angle_alpha   84.17158052
_cell_angle_beta   84.17158052
_cell_angle_gamma   68.10425070
_symmetry_Int_Tables_number   1
_chemical_formula_structural   Ca4Fe5(TeO6)3
_chemical_formula_sum   'Ca8 Fe10 Te6 O36'
_cell_volume   817.68214088
_cell_formula_units_Z   2
loop_
 _symmetry_equiv_pos_site_id
 _symmetry_equiv_pos_as_xyz
  1  'x, y, z'
loop_
 _atom_site_type_symbol
 _atom_site_label
 _atom_site_symmetry_multiplicity
 _atom_site_fract_x
 _atom_site_fract_y
 _atom_site_fract_z
 _atom_site_occupancy
  Ca  Ca0  1  0.38004000  0.05348100  0.14080000  1
  Ca  Ca1  1  0.37416800  0.71667200  0.98203900  1
  Ca  Ca2  1  0.94651900  0.61996000  0.35920000  1
  Ca  Ca3  1  0.28332800  0.62583200  0.51796100  1
  Ca  Ca4  1  0.71667200  0.37416800  0.48203900  1
  Ca  Ca5  1  0.05348100  0.38004000  0.64080000  1
  Ca  Ca6  1  0.61996000  0.94651900  0.85920000  1
  Ca  Ca7  1  0.62583200  0.28332800  0.01796100  1
  Fe  Fe8  1  0.25870700  0.99143600  0.72001900  1
  Fe  Fe9  1  0.99143600  0.25870700  0.22001900  1
  Fe  Fe10  1  0.13637300  0.51675700  0.07648400  1
  Fe  Fe11  1  0.51675700  0.13637300  0.57648400  1
  Fe  Fe12  1  0.48324300  0.86362700  0.42351600  1
  Fe  Fe13  1  0.84037700  0.15962300  0.75000000  1
  Fe  Fe14  1  0.15962300  0.84037700  0.25000000  1
  Fe  Fe15  1  0.86362700  0.48324300  0.92351600  1
  Fe  Fe16  1  0.74129300  0.00856400  0.27998100  1
  Fe  Fe17  1  0.00856400  0.74129300  0.77998100  1
  Te  Te18  1  0.64910500  0.67241000  0.66364700  1
  Te  Te19  1  0.00000000  0.00000000  0.00000000  1
  Te  Te20  1  0.00000000  0.00000000  0.50000000  1
  Te  Te21  1  0.67241000  0.64910500  0.16364700  1
  Te  Te22  1  0.35089500  0.32759000  0.33635300  1
  Te  Te23  1  0.32759000  0.35089500  0.83635300  1
  O  O24  1  0.83367600  0.57014500  0.55569200  1
  O  O25  1  0.21802900  0.91868800  0.56342900  1
  O  O26  1  0.37993900  0.82238200  0.29883700  1
  O  O27  1  0.92618000  0.92944000  0.16523900  1
  O  O28  1  0.08131200  0.78197100  0.93657100  1
  O  O29  1  0.07056000  0.07382000  0.33476100  1
  O  O30  1  0.64523300  0.52685700  0.02856900  1
  O  O31  1  0.94687100  0.20511800  0.56808200  1
  O  O32  1  0.05312900  0.79488200  0.43191800  1
  O  O33  1  0.17970400  0.30662100  0.18171800  1
  O  O34  1  0.42361100  0.83939400  0.80290600  1
  O  O35  1  0.82029600  0.69337900  0.81828200  1
  O  O36  1  0.78197100  0.08131200  0.43657100  1
  O  O37  1  0.59302700  0.89136600  0.58553100  1
  O  O38  1  0.16060600  0.57638900  0.69709400  1
  O  O39  1  0.35476700  0.47314300  0.97143100  1
  O  O40  1  0.57638900  0.16060600  0.19709400  1
  O  O41  1  0.10863400  0.40697300  0.91446900  1
  O  O42  1  0.17761800  0.62006100  0.20116300  1
  O  O43  1  0.83939400  0.42361100  0.30290600  1
  O  O44  1  0.57014500  0.83367600  0.05569200  1
  O  O45  1  0.40697300  0.10863400  0.41446900  1
  O  O46  1  0.79488200  0.05312900  0.93191800  1
  O  O47  1  0.52685700  0.64523300  0.52856900  1
  O  O48  1  0.62006100  0.17761800  0.70116300  1
  O  O49  1  0.92944000  0.92618000  0.66523900  1
  O  O50  1  0.30662100  0.17970400  0.68171800  1
  O  O51  1  0.47314300  0.35476700  0.47143100  1
  O  O52  1  0.91868800  0.21802900  0.06342900  1
  O  O53  1  0.89136600  0.59302700  0.08553100  1
  O  O54  1  0.16632400  0.42985500  0.44430800  1
  O  O55  1  0.07382000  0.07056000  0.83476100  1
  O  O56  1  0.20511800  0.94687100  0.06808200  1
  O  O57  1  0.69337900  0.82029600  0.31828200  1
  O  O58  1  0.82238200  0.37993900  0.79883700  1
  O  O59  1  0.42985500  0.16632400  0.94430800  1
