# generated using pymatgen
data_Ca4V5(TeO6)3
_symmetry_space_group_name_H-M   'P 1'
_cell_length_a   9.15589900
_cell_length_b   9.15589900
_cell_length_c   11.52574529
_cell_angle_alpha   85.25309230
_cell_angle_beta   85.25309230
_cell_angle_gamma   69.64913421
_symmetry_Int_Tables_number   1
_chemical_formula_structural   Ca4V5(TeO6)3
_chemical_formula_sum   'Ca8 V10 Te6 O36'
_cell_volume   901.28380775
_cell_formula_units_Z   2
loop_
 _symmetry_equiv_pos_site_id
 _symmetry_equiv_pos_as_xyz
  1  'x, y, z'
loop_
 _atom_site_type_symbol
 _atom_site_label
 _atom_site_symmetry_multiplicity
 _atom_site_fract_x
 _atom_site_fract_y
 _atom_site_fract_z
 _atom_site_occupancy
  Ca  Ca0  1  0.56146200  0.85261500  0.39068800  1
  Ca  Ca1  1  0.57371700  0.52321000  0.20594100  1
  Ca  Ca2  1  0.14738500  0.43853800  0.60931200  1
  Ca  Ca3  1  0.47679000  0.42628300  0.79405900  1
  Ca  Ca4  1  0.93469400  0.16396100  0.72305600  1
  Ca  Ca5  1  0.26271400  0.15152800  0.89889300  1
  Ca  Ca6  1  0.84847200  0.73728600  0.10110700  1
  Ca  Ca7  1  0.83603900  0.06530600  0.27694400  1
  V  V8  1  0.51494300  0.79273900  0.93317400  1
  V  V9  1  0.19039300  0.09596800  0.44478100  1
  V  V10  1  0.31872500  0.35852400  0.31926100  1
  V  V11  1  0.73232600  0.94379700  0.81948900  1
  V  V12  1  0.64147600  0.68127500  0.68073900  1
  V  V13  1  0.09997200  0.90002800  0.00000000  1
  V  V14  1  0.34318200  0.65681800  0.50000000  1
  V  V15  1  0.05620300  0.26767400  0.18051100  1
  V  V16  1  0.90403200  0.80960700  0.55521900  1
  V  V17  1  0.20726100  0.48505700  0.06682600  1
  Te  Te18  1  0.85793100  0.44766000  0.89361700  1
  Te  Te19  1  0.21401000  0.78720200  0.24339800  1
  Te  Te20  1  0.21279800  0.78599000  0.75660200  1
  Te  Te21  1  0.85384800  0.45812900  0.39360800  1
  Te  Te22  1  0.54187100  0.14615200  0.60639200  1
  Te  Te23  1  0.55234000  0.14206900  0.10638300  1
  O  O24  1  0.04279100  0.34038600  0.79690700  1
  O  O25  1  0.44206500  0.71356600  0.80392300  1
  O  O26  1  0.54381000  0.66356300  0.54441200  1
  O  O27  1  0.09167400  0.72991100  0.50568800  1
  O  O28  1  0.28643400  0.55793500  0.19607700  1
  O  O29  1  0.27008900  0.90832600  0.49431200  1
  O  O30  1  0.83087300  0.33546100  0.26821200  1
  O  O31  1  0.10322100  0.01253700  0.85307200  1
  O  O32  1  0.29602900  0.57961300  0.66981300  1
  O  O33  1  0.36180700  0.14458100  0.41103700  1
  O  O34  1  0.61738400  0.66668300  0.04788300  1
  O  O35  1  0.00525800  0.46676800  0.09169100  1
  O  O36  1  0.90534300  0.90631900  0.68360100  1
  O  O37  1  0.71187600  0.74405300  0.82445600  1
  O  O38  1  0.33331700  0.38261600  0.95211700  1
  O  O39  1  0.53881600  0.27899900  0.23705400  1
  O  O40  1  0.78947500  0.93638200  0.44708700  1
  O  O41  1  0.25594700  0.28812400  0.17554400  1
  O  O42  1  0.33643700  0.45619000  0.45558800  1
  O  O43  1  0.06361800  0.21052400  0.55291300  1
  O  O44  1  0.76360700  0.64331200  0.30172800  1
  O  O45  1  0.58634000  0.93295300  0.65067600  1
  O  O46  1  0.98746300  0.89677900  0.14692800  1
  O  O47  1  0.72100100  0.46118400  0.76294600  1
  O  O48  1  0.84876500  0.93634400  0.92967000  1
  O  O49  1  0.10721300  0.68629400  0.00599400  1
  O  O50  1  0.53323200  0.99474200  0.90830900  1
  O  O51  1  0.66453900  0.16912700  0.73178800  1
  O  O52  1  0.09368100  0.09465700  0.31639900  1
  O  O53  1  0.06704700  0.41366000  0.34932400  1
  O  O54  1  0.35668800  0.23639300  0.69827200  1
  O  O55  1  0.31370600  0.89278700  0.99400600  1
  O  O56  1  0.42038700  0.70397100  0.33018700  1
  O  O57  1  0.85541900  0.63819300  0.58896300  1
  O  O58  1  0.06365600  0.15123500  0.07033000  1
  O  O59  1  0.65961400  0.95720900  0.20309300  1
