# generated using pymatgen
data_Ba2Mn3Tl2O10
_symmetry_space_group_name_H-M   'P 1'
_cell_length_a   3.78371300
_cell_length_b   3.78638859
_cell_length_c   18.17573908
_cell_angle_alpha   90.20726040
_cell_angle_beta   90.52485632
_cell_angle_gamma   90.14777966
_symmetry_Int_Tables_number   1
_chemical_formula_structural   Ba2Mn3Tl2O10
_chemical_formula_sum   'Ba2 Mn3 Tl2 O10'
_cell_volume   260.38316669
_cell_formula_units_Z   1
loop_
 _symmetry_equiv_pos_site_id
 _symmetry_equiv_pos_as_xyz
  1  'x, y, z'
loop_
 _atom_site_type_symbol
 _atom_site_label
 _atom_site_symmetry_multiplicity
 _atom_site_fract_x
 _atom_site_fract_y
 _atom_site_fract_z
 _atom_site_occupancy
  Ba  Ba0  1  0.21745300  0.19651000  0.26963700  1
  Ba  Ba1  1  0.78111100  0.70884600  0.72916400  1
  Mn  Mn2  1  0.29298900  0.20768000  0.85893400  1
  Mn  Mn3  1  0.71958300  0.69349700  0.13929000  1
  Mn  Mn4  1  0.23361400  0.70661300  0.99786700  1
  Tl  Tl5  1  0.72646400  0.70511100  0.43583400  1
  Tl  Tl6  1  0.24826100  0.20775500  0.56551900  1
  O  O7  1  0.28876300  0.70882200  0.83830300  1
  O  O8  1  0.27150600  0.20559200  0.67621800  1
  O  O9  1  0.78717400  0.21068500  0.83026100  1
  O  O10  1  0.73133900  0.73170200  0.55061900  1
  O  O11  1  0.73398500  0.70556200  0.03287000  1
  O  O12  1  0.21846500  0.69288900  0.16040900  1
  O  O13  1  0.71596000  0.70266500  0.32457800  1
  O  O14  1  0.71474400  0.19508200  0.16860900  1
  O  O15  1  0.22436700  0.23371700  0.45066700  1
  O  O16  1  0.24468800  0.20597600  0.96427400  1
