# generated using pymatgen
data_Mn5Zn4(TeO6)3
_symmetry_space_group_name_H-M   'P 1'
_cell_length_a   8.87695623
_cell_length_b   8.87695623
_cell_length_c   10.79210846
_cell_angle_alpha   87.40848083
_cell_angle_beta   87.40848083
_cell_angle_gamma   61.17444065
_symmetry_Int_Tables_number   1
_chemical_formula_structural   Mn5Zn4(TeO6)3
_chemical_formula_sum   'Mn10 Zn8 Te6 O36'
_cell_volume   744.01919708
_cell_formula_units_Z   2
loop_
 _symmetry_equiv_pos_site_id
 _symmetry_equiv_pos_as_xyz
  1  'x, y, z'
loop_
 _atom_site_type_symbol
 _atom_site_label
 _atom_site_symmetry_multiplicity
 _atom_site_fract_x
 _atom_site_fract_y
 _atom_site_fract_z
 _atom_site_occupancy
  Mn  Mn0  1  0.27894500  0.00287700  0.74053900  1
  Mn  Mn1  1  0.00287700  0.27894500  0.24053900  1
  Mn  Mn2  1  0.12982800  0.54864700  0.05575700  1
  Mn  Mn3  1  0.54864700  0.12982800  0.55575700  1
  Mn  Mn4  1  0.45135300  0.87017200  0.44424300  1
  Mn  Mn5  1  0.80551200  0.19448800  0.75000000  1
  Mn  Mn6  1  0.19448800  0.80551200  0.25000000  1
  Mn  Mn7  1  0.87017200  0.45135300  0.94424300  1
  Mn  Mn8  1  0.72105500  0.99712300  0.25946100  1
  Mn  Mn9  1  0.99712300  0.72105500  0.75946100  1
  Zn  Zn10  1  0.34630400  0.05761300  0.07290600  1
  Zn  Zn11  1  0.38500900  0.67629900  0.94708500  1
  Zn  Zn12  1  0.94238700  0.65369600  0.42709400  1
  Zn  Zn13  1  0.32370100  0.61499100  0.55291500  1
  Zn  Zn14  1  0.67629900  0.38500900  0.44708500  1
  Zn  Zn15  1  0.05761300  0.34630400  0.57290600  1
  Zn  Zn16  1  0.65369600  0.94238700  0.92709400  1
  Zn  Zn17  1  0.61499100  0.32370100  0.05291500  1
  Te  Te18  1  0.66115500  0.66657600  0.69495300  1
  Te  Te19  1  0.00000000  0.00000000  0.00000000  1
  Te  Te20  1  0.00000000  0.00000000  0.50000000  1
  Te  Te21  1  0.66657600  0.66115500  0.19495300  1
  Te  Te22  1  0.33884500  0.33342400  0.30504700  1
  Te  Te23  1  0.33342400  0.33884500  0.80504700  1
  O  O24  1  0.88691200  0.59552500  0.60423200  1
  O  O25  1  0.22692200  0.92404400  0.56674400  1
  O  O26  1  0.44582300  0.75627700  0.28053300  1
  O  O27  1  0.95363400  0.91437800  0.15666600  1
  O  O28  1  0.07595600  0.77307800  0.93325600  1
  O  O29  1  0.08562200  0.04636600  0.34333400  1
  O  O30  1  0.59864700  0.56430600  0.05597100  1
  O  O31  1  0.90318700  0.24337500  0.55136100  1
  O  O32  1  0.09681300  0.75662500  0.44863900  1
  O  O33  1  0.23789000  0.26326700  0.17187900  1
  O  O34  1  0.44729900  0.75157200  0.79134900  1
  O  O35  1  0.76211000  0.73673300  0.82812100  1
  O  O36  1  0.77307800  0.07595600  0.43325600  1
  O  O37  1  0.56158700  0.89082000  0.61221200  1
  O  O38  1  0.24842800  0.55270100  0.70865100  1
  O  O39  1  0.40135300  0.43569400  0.94402900  1
  O  O40  1  0.55270100  0.24842800  0.20865100  1
  O  O41  1  0.10918000  0.43841300  0.88778800  1
  O  O42  1  0.24372300  0.55417700  0.21946700  1
  O  O43  1  0.75157200  0.44729900  0.29134900  1
  O  O44  1  0.59552500  0.88691200  0.10423200  1
  O  O45  1  0.43841300  0.10918000  0.38778800  1
  O  O46  1  0.75662500  0.09681300  0.94863900  1
  O  O47  1  0.56430600  0.59864700  0.55597100  1
  O  O48  1  0.55417700  0.24372300  0.71946700  1
  O  O49  1  0.91437800  0.95363400  0.65666600  1
  O  O50  1  0.26326700  0.23789000  0.67187900  1
  O  O51  1  0.43569400  0.40135300  0.44402900  1
  O  O52  1  0.92404400  0.22692200  0.06674400  1
  O  O53  1  0.89082000  0.56158700  0.11221200  1
  O  O54  1  0.11308800  0.40447500  0.39576800  1
  O  O55  1  0.04636600  0.08562200  0.84333400  1
  O  O56  1  0.24337500  0.90318700  0.05136100  1
  O  O57  1  0.73673300  0.76211000  0.32812100  1
  O  O58  1  0.75627700  0.44582300  0.78053300  1
  O  O59  1  0.40447500  0.11308800  0.89576800  1
