# generated using pymatgen
data_MgCrPO5
_symmetry_space_group_name_H-M   'P 1'
_cell_length_a   5.29882582
_cell_length_b   5.29882582
_cell_length_c   7.05492501
_cell_angle_alpha   74.82413248
_cell_angle_beta   74.82413248
_cell_angle_gamma   101.49573652
_symmetry_Int_Tables_number   1
_chemical_formula_structural   MgCrPO5
_chemical_formula_sum   'Mg2 Cr2 P2 O10'
_cell_volume   176.71869420
_cell_formula_units_Z   2
loop_
 _symmetry_equiv_pos_site_id
 _symmetry_equiv_pos_as_xyz
  1  'x, y, z'
loop_
 _atom_site_type_symbol
 _atom_site_label
 _atom_site_symmetry_multiplicity
 _atom_site_fract_x
 _atom_site_fract_y
 _atom_site_fract_z
 _atom_site_occupancy
  Mg  Mg0  1  0.83053900  0.16946100  0.75000000  1
  Mg  Mg1  1  0.16946100  0.83053900  0.25000000  1
  Cr  Cr2  1  0.50000000  0.50000000  0.50000000  1
  Cr  Cr3  1  0.50000000  0.50000000  0.00000000  1
  P  P4  1  0.16998800  0.83001200  0.75000000  1
  P  P5  1  0.83001200  0.16998800  0.25000000  1
  O  O6  1  0.37761800  0.82463200  0.86693000  1
  O  O7  1  0.17536800  0.62238200  0.63307000  1
  O  O8  1  0.62238200  0.17536800  0.13307000  1
  O  O9  1  0.82463200  0.37761800  0.36693000  1
  O  O10  1  0.78625300  0.87598700  0.39891900  1
  O  O11  1  0.12401300  0.21374700  0.10108100  1
  O  O12  1  0.21374700  0.12401300  0.60108100  1
  O  O13  1  0.87598700  0.78625300  0.89891900  1
  O  O14  1  0.40722900  0.59277100  0.25000000  1
  O  O15  1  0.59277100  0.40722900  0.75000000  1
