# generated using pymatgen
data_Sr3Co2S2O5
_symmetry_space_group_name_H-M   'P 1'
_cell_length_a   11.65835433
_cell_length_b   11.65835433
_cell_length_c   11.65835433
_cell_angle_alpha   160.29366779
_cell_angle_beta   160.29366779
_cell_angle_gamma   28.00988692
_symmetry_Int_Tables_number   1
_chemical_formula_structural   Sr3Co2S2O5
_chemical_formula_sum   'Sr3 Co2 S2 O5'
_cell_volume   180.08908636
_cell_formula_units_Z   1
loop_
 _symmetry_equiv_pos_site_id
 _symmetry_equiv_pos_as_xyz
  1  'x, y, z'
loop_
 _atom_site_type_symbol
 _atom_site_label
 _atom_site_symmetry_multiplicity
 _atom_site_fract_x
 _atom_site_fract_y
 _atom_site_fract_z
 _atom_site_occupancy
  Sr  Sr0  1  0.50000000  0.50000000  0.00000000  1
  Sr  Sr1  1  0.65917500  0.65917500  0.00000000  1
  Sr  Sr2  1  0.34082500  0.34082500  0.00000000  1
  Co  Co3  1  0.08438300  0.08438300  0.00000000  1
  Co  Co4  1  0.91561700  0.91561700  0.00000000  1
  S  S5  1  0.19118400  0.19118400  0.00000000  1
  S  S6  1  0.80881600  0.80881600  0.00000000  1
  O  O7  1  0.58502300  0.08502300  0.50000000  1
  O  O8  1  0.08502300  0.58502300  0.50000000  1
  O  O9  1  0.41497700  0.91497700  0.50000000  1
  O  O10  1  0.91497700  0.41497700  0.50000000  1
  O  O11  1  0.00000000  0.00000000  0.00000000  1
