# generated using pymatgen
data_TlBiSe2
_symmetry_space_group_name_H-M   'P 1'
_cell_length_a   4.37236300
_cell_length_b   4.37236300
_cell_length_c   43.20052200
_cell_angle_alpha   90.00000000
_cell_angle_beta   90.00000000
_cell_angle_gamma   90.00000000
_symmetry_Int_Tables_number   1
_chemical_formula_structural   TlBiSe2
_chemical_formula_sum   'Tl7 Bi7 Se14'
_cell_volume   825.88849377
_cell_formula_units_Z   7
loop_
 _symmetry_equiv_pos_site_id
 _symmetry_equiv_pos_as_xyz
  1  'x, y, z'
loop_
 _atom_site_type_symbol
 _atom_site_label
 _atom_site_symmetry_multiplicity
 _atom_site_fract_x
 _atom_site_fract_y
 _atom_site_fract_z
 _atom_site_occupancy
  Tl  Tl0  1  0.50000000  0.50000000  0.79044100  1
  Tl  Tl1  1  0.00000000  0.00000000  0.86010200  1
  Tl  Tl2  1  0.50000000  0.50000000  0.92889400  1
  Tl  Tl3  1  0.00000000  0.00000000  0.00000000  1
  Tl  Tl4  1  0.50000000  0.50000000  0.07110600  1
  Tl  Tl5  1  0.00000000  0.00000000  0.13989800  1
  Tl  Tl6  1  0.50000000  0.50000000  0.20955900  1
  Bi  Bi7  1  0.00000000  0.00000000  0.28016100  1
  Bi  Bi8  1  0.50000000  0.50000000  0.35593900  1
  Bi  Bi9  1  0.00000000  0.00000000  0.42761100  1
  Bi  Bi10  1  0.50000000  0.50000000  0.50000000  1
  Bi  Bi11  1  0.00000000  0.00000000  0.57238900  1
  Bi  Bi12  1  0.50000000  0.50000000  0.64406100  1
  Bi  Bi13  1  0.00000000  0.00000000  0.71983900  1
  Se  Se14  1  0.00000000  0.00000000  0.36082700  1
  Se  Se15  1  0.50000000  0.50000000  0.43005200  1
  Se  Se16  1  0.00000000  0.00000000  0.50000000  1
  Se  Se17  1  0.50000000  0.50000000  0.56994800  1
  Se  Se18  1  0.00000000  0.00000000  0.63917300  1
  Se  Se19  1  0.50000000  0.50000000  0.70979200  1
  Se  Se20  1  0.00000000  0.00000000  0.78049200  1
  Se  Se21  1  0.50000000  0.50000000  0.85696400  1
  Se  Se22  1  0.00000000  0.00000000  0.92735100  1
  Se  Se23  1  0.50000000  0.50000000  0.00000000  1
  Se  Se24  1  0.00000000  0.00000000  0.07264900  1
  Se  Se25  1  0.50000000  0.50000000  0.14303600  1
  Se  Se26  1  0.00000000  0.00000000  0.21950800  1
  Se  Se27  1  0.50000000  0.50000000  0.29020800  1
