# generated using pymatgen
data_TiFe2O5
_symmetry_space_group_name_H-M   'P 1'
_cell_length_a   7.55061203
_cell_length_b   5.33317575
_cell_length_c   10.05424943
_cell_angle_alpha   89.75200543
_cell_angle_beta   89.99924939
_cell_angle_gamma   69.25926859
_symmetry_Int_Tables_number   1
_chemical_formula_structural   TiFe2O5
_chemical_formula_sum   'Ti4 Fe8 O20'
_cell_volume   378.62918331
_cell_formula_units_Z   4
loop_
 _symmetry_equiv_pos_site_id
 _symmetry_equiv_pos_as_xyz
  1  'x, y, z'
loop_
 _atom_site_type_symbol
 _atom_site_label
 _atom_site_symmetry_multiplicity
 _atom_site_fract_x
 _atom_site_fract_y
 _atom_site_fract_z
 _atom_site_occupancy
  Ti  Ti0  1  0.06624500  0.73326100  0.05951400  1
  Ti  Ti1  1  0.43274300  0.26178100  0.55959600  1
  Ti  Ti2  1  0.56670700  0.73887300  0.06060300  1
  Ti  Ti3  1  0.90714800  0.37228100  0.25385600  1
  Fe  Fe4  1  0.09551100  0.62246500  0.74788400  1
  Fe  Fe5  1  0.06849600  0.72657300  0.44021800  1
  Fe  Fe6  1  0.43128000  0.27446500  0.93232200  1
  Fe  Fe7  1  0.40515300  0.38255900  0.25141200  1
  Fe  Fe8  1  0.59428600  0.61284100  0.75029400  1
  Fe  Fe9  1  0.56872200  0.72208500  0.43826600  1
  Fe  Fe10  1  0.93037700  0.27617900  0.56432600  1
  Fe  Fe11  1  0.93097400  0.27878700  0.93134100  1
  O  O12  1  0.16240900  0.37758200  0.57083400  1
  O  O13  1  0.15244700  0.39367800  0.93604100  1
  O  O14  1  0.11350900  0.51418800  0.24402300  1
  O  O15  1  0.02395400  0.90352600  0.61482500  1
  O  O16  1  0.02840900  0.89731000  0.89007400  1
  O  O17  1  0.48091600  0.10137800  0.38772700  1
  O  O18  1  0.48042300  0.08691400  0.11788000  1
  O  O19  1  0.38145600  0.46696800  0.74965500  1
  O  O20  1  0.34181600  0.63303000  0.07956400  1
  O  O21  1  0.34602600  0.61710500  0.41980400  1
  O  O22  1  0.64654200  0.38310500  0.57304900  1
  O  O23  1  0.65257600  0.38861800  0.93254400  1
  O  O24  1  0.63083400  0.51371100  0.24387100  1
  O  O25  1  0.51741800  0.91164000  0.61897300  1
  O  O26  1  0.52263600  0.89380500  0.88781500  1
  O  O27  1  0.97281100  0.10139600  0.37816100  1
  O  O28  1  0.97729400  0.09498800  0.11870500  1
  O  O29  1  0.88191500  0.47425200  0.74914300  1
  O  O30  1  0.84667900  0.61062300  0.42424600  1
  O  O31  1  0.84228800  0.63403200  0.07343500  1
