# generated using pymatgen
data_Sr2GaW2O7
_symmetry_space_group_name_H-M   'P 1'
_cell_length_a   5.56233400
_cell_length_b   5.71319921
_cell_length_c   12.07291721
_cell_angle_alpha   103.62451271
_cell_angle_beta   103.30253374
_cell_angle_gamma   89.98464611
_symmetry_Int_Tables_number   1
_chemical_formula_structural   Sr2GaW2O7
_chemical_formula_sum   'Sr4 Ga2 W4 O14'
_cell_volume   362.27084173
_cell_formula_units_Z   2
loop_
 _symmetry_equiv_pos_site_id
 _symmetry_equiv_pos_as_xyz
  1  'x, y, z'
loop_
 _atom_site_type_symbol
 _atom_site_label
 _atom_site_symmetry_multiplicity
 _atom_site_fract_x
 _atom_site_fract_y
 _atom_site_fract_z
 _atom_site_occupancy
  Sr  Sr0  1  0.84473300  0.82652300  0.69485700  1
  Sr  Sr1  1  0.15154200  0.17430200  0.30526100  1
  Sr  Sr2  1  0.34631900  0.36877200  0.69477100  1
  Sr  Sr3  1  0.65043000  0.63183500  0.30485500  1
  Ga  Ga4  1  0.70885200  0.17468200  0.50016800  1
  Ga  Ga5  1  0.21088500  0.82384400  0.49966000  1
  W  W6  1  0.56895500  0.06306700  0.12839900  1
  W  W7  1  0.93807200  0.43453300  0.87107900  1
  W  W8  1  0.06560100  0.56409000  0.12477700  1
  W  W9  1  0.44130400  0.93958100  0.87551800  1
  O  O10  1  0.67302600  0.68797500  0.86147800  1
  O  O11  1  0.36808500  0.12226200  0.49950200  1
  O  O12  1  0.17652700  0.67862200  0.85134300  1
  O  O13  1  0.20034100  0.62647400  0.35416200  1
  O  O14  1  0.83642600  0.83258100  0.15997600  1
  O  O15  1  0.32210800  0.81253900  0.14806600  1
  O  O16  1  0.86887000  0.88016500  0.50028200  1
  O  O17  1  0.32384600  0.31998100  0.14834700  1
  O  O18  1  0.82774700  0.33182500  0.13867700  1
  O  O19  1  0.69650100  0.22146300  0.35094500  1
  O  O20  1  0.84384400  0.36860000  0.64988400  1
  O  O21  1  0.34806600  0.76873400  0.64422900  1
  O  O22  1  0.67305400  0.17048500  0.83994900  1
  O  O23  1  0.18822800  0.16727400  0.85042700  1
