# generated using pymatgen
data_Mg2Nb2AgO8
_symmetry_space_group_name_H-M   'P 1'
_cell_length_a   5.24784400
_cell_length_b   6.16518011
_cell_length_c   10.40261275
_cell_angle_alpha   105.66574665
_cell_angle_beta   91.57611443
_cell_angle_gamma   90.54519905
_symmetry_Int_Tables_number   1
_chemical_formula_structural   Mg2Nb2AgO8
_chemical_formula_sum   'Mg4 Nb4 Ag2 O16'
_cell_volume   323.89006685
_cell_formula_units_Z   2
loop_
 _symmetry_equiv_pos_site_id
 _symmetry_equiv_pos_as_xyz
  1  'x, y, z'
loop_
 _atom_site_type_symbol
 _atom_site_label
 _atom_site_symmetry_multiplicity
 _atom_site_fract_x
 _atom_site_fract_y
 _atom_site_fract_z
 _atom_site_occupancy
  Mg  Mg0  1  0.24882500  0.86800700  0.45862500  1
  Mg  Mg1  1  0.25410500  0.41431800  0.54495500  1
  Mg  Mg2  1  0.75117500  0.13199300  0.54137500  1
  Mg  Mg3  1  0.74589500  0.58568200  0.45504500  1
  Nb  Nb4  1  0.26881200  0.03794100  0.75561800  1
  Nb  Nb5  1  0.23620800  0.29083400  0.24559300  1
  Nb  Nb6  1  0.73118800  0.96205900  0.24438200  1
  Nb  Nb7  1  0.76379200  0.70916600  0.75440700  1
  Ag  Ag8  1  0.25229100  0.66770800  0.00056100  1
  Ag  Ag9  1  0.74770900  0.33229200  0.99943900  1
  O  O10  1  0.94542200  0.01218500  0.83848100  1
  O  O11  1  0.56144500  0.19361400  0.16078800  1
  O  O12  1  0.05457800  0.98781500  0.16151900  1
  O  O13  1  0.43855500  0.80638600  0.83921200  1
  O  O14  1  0.42411700  0.28676900  0.87315200  1
  O  O15  1  0.08292900  0.42996700  0.12614000  1
  O  O16  1  0.57588300  0.71323100  0.12684800  1
  O  O17  1  0.91707100  0.57003300  0.87386000  1
  O  O18  1  0.55020000  0.91231800  0.61952300  1
  O  O19  1  0.95425200  0.29814900  0.38373100  1
  O  O20  1  0.62440900  0.44925300  0.61361300  1
  O  O21  1  0.87940700  0.84048700  0.38889300  1
  O  O22  1  0.37559100  0.55074700  0.38638700  1
  O  O23  1  0.12059300  0.15951300  0.61110700  1
  O  O24  1  0.04574800  0.70185100  0.61626900  1
  O  O25  1  0.44980000  0.08768200  0.38047700  1
