# generated using pymatgen
data_Ca3Bi2O7
_symmetry_space_group_name_H-M   'P 1'
_cell_length_a   10.63547829
_cell_length_b   10.63547829
_cell_length_c   6.08405100
_cell_angle_alpha   90.00000000
_cell_angle_beta   90.00000000
_cell_angle_gamma   147.80564047
_symmetry_Int_Tables_number   1
_chemical_formula_structural   Ca3Bi2O7
_chemical_formula_sum   'Ca6 Bi4 O14'
_cell_volume   366.66156083
_cell_formula_units_Z   2
loop_
 _symmetry_equiv_pos_site_id
 _symmetry_equiv_pos_as_xyz
  1  'x, y, z'
loop_
 _atom_site_type_symbol
 _atom_site_label
 _atom_site_symmetry_multiplicity
 _atom_site_fract_x
 _atom_site_fract_y
 _atom_site_fract_z
 _atom_site_occupancy
  Ca  Ca0  1  0.23447900  0.23447900  0.30068300  1
  Ca  Ca1  1  0.76552100  0.76552100  0.80068300  1
  Ca  Ca2  1  0.04131100  0.43417900  0.18509100  1
  Ca  Ca3  1  0.95868900  0.56582100  0.68509100  1
  Ca  Ca4  1  0.43417900  0.04131100  0.18509100  1
  Ca  Ca5  1  0.56582100  0.95868900  0.68509100  1
  Bi  Bi6  1  0.85051400  0.64279600  0.24880000  1
  Bi  Bi7  1  0.14948600  0.35720400  0.74880000  1
  Bi  Bi8  1  0.35720400  0.14948600  0.74880000  1
  Bi  Bi9  1  0.64279600  0.85051400  0.24880000  1
  O  O10  1  0.66542100  0.07583900  0.30877900  1
  O  O11  1  0.33457900  0.92416100  0.80877900  1
  O  O12  1  0.92416100  0.33457900  0.80877900  1
  O  O13  1  0.07583900  0.66542100  0.30877900  1
  O  O14  1  0.42130500  0.69180900  0.94937300  1
  O  O15  1  0.57869500  0.30819100  0.44937300  1
  O  O16  1  0.30819100  0.57869500  0.44937300  1
  O  O17  1  0.69180900  0.42130500  0.94937300  1
  O  O18  1  0.98552800  0.13948000  0.06170600  1
  O  O19  1  0.01447200  0.86052000  0.56170600  1
  O  O20  1  0.61063300  0.61063300  0.17181600  1
  O  O21  1  0.38936700  0.38936700  0.67181600  1
  O  O22  1  0.13948000  0.98552800  0.06170600  1
  O  O23  1  0.86052000  0.01447200  0.56170600  1
