# generated using pymatgen
data_ZnFePO5
_symmetry_space_group_name_H-M   'P 1'
_cell_length_a   5.46924700
_cell_length_b   5.48731498
_cell_length_c   7.20873367
_cell_angle_alpha   107.89931957
_cell_angle_beta   107.87633085
_cell_angle_gamma   95.31535733
_symmetry_Int_Tables_number   1
_chemical_formula_structural   ZnFePO5
_chemical_formula_sum   'Zn2 Fe2 P2 O10'
_cell_volume   191.71260424
_cell_formula_units_Z   2
loop_
 _symmetry_equiv_pos_site_id
 _symmetry_equiv_pos_as_xyz
  1  'x, y, z'
loop_
 _atom_site_type_symbol
 _atom_site_label
 _atom_site_symmetry_multiplicity
 _atom_site_fract_x
 _atom_site_fract_y
 _atom_site_fract_z
 _atom_site_occupancy
  Zn  Zn0  1  0.32184800  0.17942800  0.78120800  1
  Zn  Zn1  1  0.70539200  0.82898800  0.29191400  1
  Fe  Fe2  1  0.00659800  0.49366600  0.51258600  1
  Fe  Fe3  1  0.00326300  0.49742900  0.01303300  1
  P  P4  1  0.65372100  0.84928700  0.76177100  1
  P  P5  1  0.34984800  0.13550500  0.25987500  1
  O  O6  1  0.72890200  0.70404400  0.91575200  1
  O  O7  1  0.79853600  0.78450100  0.60408600  1
  O  O8  1  0.27789500  0.27015700  0.09651700  1
  O  O9  1  0.19497200  0.20339100  0.40847600  1
  O  O10  1  0.65458800  0.20407500  0.38387600  1
  O  O11  1  0.31046100  0.83112100  0.15343500  1
  O  O12  1  0.34814500  0.79350500  0.64723100  1
  O  O13  1  0.70560900  0.15353800  0.87802000  1
  O  O14  1  0.91607100  0.58076000  0.26228900  1
  O  O15  1  0.09213400  0.40935100  0.76280100  1
