# generated using pymatgen
data_MgCrSF5
_symmetry_space_group_name_H-M   'P 1'
_cell_length_a   6.64544929
_cell_length_b   7.78948918
_cell_length_c   10.14986432
_cell_angle_alpha   78.45695584
_cell_angle_beta   34.70013145
_cell_angle_gamma   65.19394127
_symmetry_Int_Tables_number   1
_chemical_formula_structural   MgCrSF5
_chemical_formula_sum   'Mg2 Cr2 S2 F10'
_cell_volume   260.62499165
_cell_formula_units_Z   2
loop_
 _symmetry_equiv_pos_site_id
 _symmetry_equiv_pos_as_xyz
  1  'x, y, z'
loop_
 _atom_site_type_symbol
 _atom_site_label
 _atom_site_symmetry_multiplicity
 _atom_site_fract_x
 _atom_site_fract_y
 _atom_site_fract_z
 _atom_site_occupancy
  Mg  Mg0  1  0.44274600  0.26024000  0.69090100  1
  Mg  Mg1  1  0.46067000  0.71599500  0.35807500  1
  Cr  Cr2  1  0.49003900  0.47704900  0.97106100  1
  Cr  Cr3  1  0.47074300  0.97809900  0.01518200  1
  S  S4  1  0.26022500  0.44744000  0.32373000  1
  S  S5  1  0.84790600  0.70244800  0.55197600  1
  F  F6  1  0.57604800  0.87660900  0.15448800  1
  F  F7  1  0.67440300  0.43727400  0.19634000  1
  F  F8  1  0.37853400  0.07310600  0.86739500  1
  F  F9  1  0.50340300  0.42507700  0.76154600  1
  F  F10  1  0.91523800  0.58139800  0.23976800  1
  F  F11  1  0.04018400  0.83272700  0.69082600  1
  F  F12  1  0.04740500  0.37746000  0.74930800  1
  F  F13  1  0.91709700  0.13216200  0.34867600  1
  F  F14  1  0.37776400  0.75422300  0.04530900  1
  F  F15  1  0.58432600  0.19582100  0.96743200  1
