# generated using pymatgen
data_MgTiF5
_symmetry_space_group_name_H-M   'P 1'
_cell_length_a   9.80203700
_cell_length_b   5.27383100
_cell_length_c   7.45088064
_cell_angle_alpha   70.58080699
_cell_angle_beta   90.00000000
_cell_angle_gamma   90.00000000
_symmetry_Int_Tables_number   1
_chemical_formula_structural   MgTiF5
_chemical_formula_sum   'Mg4 Ti4 F20'
_cell_volume   363.25626884
_cell_formula_units_Z   4
loop_
 _symmetry_equiv_pos_site_id
 _symmetry_equiv_pos_as_xyz
  1  'x, y, z'
loop_
 _atom_site_type_symbol
 _atom_site_label
 _atom_site_symmetry_multiplicity
 _atom_site_fract_x
 _atom_site_fract_y
 _atom_site_fract_z
 _atom_site_occupancy
  Mg  Mg0  1  0.00969400  0.51940600  0.75286000  1
  Mg  Mg1  1  0.50969400  0.48059400  0.74714000  1
  Mg  Mg2  1  0.99030600  0.48059400  0.24714000  1
  Mg  Mg3  1  0.49030600  0.51940600  0.25286000  1
  Ti  Ti4  1  0.75415500  0.09594200  0.60464300  1
  Ti  Ti5  1  0.25415500  0.90405800  0.89535700  1
  Ti  Ti6  1  0.24584500  0.90405800  0.39535700  1
  Ti  Ti7  1  0.74584500  0.09594200  0.10464300  1
  F  F8  1  0.88979800  0.38905900  0.58003000  1
  F  F9  1  0.38979800  0.61094100  0.91997000  1
  F  F10  1  0.11020200  0.61094100  0.41997000  1
  F  F11  1  0.61020200  0.38905900  0.08003000  1
  F  F12  1  0.60606100  0.35517200  0.49143100  1
  F  F13  1  0.10606100  0.64482800  0.00856900  1
  F  F14  1  0.39393900  0.64482800  0.50856900  1
  F  F15  1  0.89393900  0.35517200  0.99143100  1
  F  F16  1  0.40107500  0.15657200  0.80395000  1
  F  F17  1  0.90107500  0.84342800  0.69605000  1
  F  F18  1  0.59892500  0.84342800  0.19605000  1
  F  F19  1  0.09892500  0.15657200  0.30395100  1
  F  F20  1  0.13490000  0.21903200  0.83804100  1
  F  F21  1  0.63490000  0.78096800  0.66195900  1
  F  F22  1  0.86510000  0.78096800  0.16195900  1
  F  F23  1  0.36510000  0.21903200  0.33804100  1
  F  F24  1  0.67791700  0.17973800  0.83263200  1
  F  F25  1  0.17791700  0.82026200  0.66736800  1
  F  F26  1  0.32208300  0.82026200  0.16736800  1
  F  F27  1  0.82208300  0.17973800  0.33263200  1
