# generated using pymatgen
data_Mg2Nb2WO8
_symmetry_space_group_name_H-M   'P 1'
_cell_length_a   5.32609900
_cell_length_b   5.94254143
_cell_length_c   10.11349127
_cell_angle_alpha   104.24941228
_cell_angle_beta   91.83786068
_cell_angle_gamma   91.73725384
_symmetry_Int_Tables_number   1
_chemical_formula_structural   Mg2Nb2WO8
_chemical_formula_sum   'Mg4 Nb4 W2 O16'
_cell_volume   309.84848818
_cell_formula_units_Z   2
loop_
 _symmetry_equiv_pos_site_id
 _symmetry_equiv_pos_as_xyz
  1  'x, y, z'
loop_
 _atom_site_type_symbol
 _atom_site_label
 _atom_site_symmetry_multiplicity
 _atom_site_fract_x
 _atom_site_fract_y
 _atom_site_fract_z
 _atom_site_occupancy
  Mg  Mg0  1  0.23954100  0.86217200  0.45972100  1
  Mg  Mg1  1  0.27109800  0.42154100  0.55416800  1
  Mg  Mg2  1  0.76045900  0.13782800  0.54027900  1
  Mg  Mg3  1  0.72890200  0.57845900  0.44583200  1
  Nb  Nb4  1  0.21859200  0.01678700  0.76783400  1
  Nb  Nb5  1  0.22190400  0.25116800  0.24960700  1
  Nb  Nb6  1  0.78140800  0.98321300  0.23216600  1
  Nb  Nb7  1  0.77809600  0.74883200  0.75039300  1
  W  W8  1  0.25742100  0.64154700  0.99709700  1
  W  W9  1  0.74257900  0.35845300  0.00290300  1
  O  O10  1  0.89630000  0.08647500  0.87572000  1
  O  O11  1  0.58900300  0.19405700  0.14073400  1
  O  O12  1  0.10370000  0.91352500  0.12428000  1
  O  O13  1  0.41099700  0.80594300  0.85926600  1
  O  O14  1  0.39063300  0.32752300  0.89568500  1
  O  O15  1  0.09819200  0.43307100  0.11761000  1
  O  O16  1  0.60936700  0.67247700  0.10431500  1
  O  O17  1  0.90180800  0.56692900  0.88239000  1
  O  O18  1  0.57233900  0.92120600  0.63625600  1
  O  O19  1  0.93238500  0.29779900  0.38189400  1
  O  O20  1  0.63085300  0.45491200  0.61570000  1
  O  O21  1  0.87266300  0.84897900  0.38686900  1
  O  O22  1  0.36914700  0.54508800  0.38430000  1
  O  O23  1  0.12733700  0.15102100  0.61313100  1
  O  O24  1  0.06761500  0.70220100  0.61810600  1
  O  O25  1  0.42766100  0.07879400  0.36374400  1
