# generated using pymatgen
data_CaCuF5
_symmetry_space_group_name_H-M   'P 1'
_cell_length_a   10.02269900
_cell_length_b   5.48834600
_cell_length_c   7.72751836
_cell_angle_alpha   69.67477626
_cell_angle_beta   90.00000000
_cell_angle_gamma   90.00000000
_symmetry_Int_Tables_number   1
_chemical_formula_structural   CaCuF5
_chemical_formula_sum   'Ca4 Cu4 F20'
_cell_volume   398.60877559
_cell_formula_units_Z   4
loop_
 _symmetry_equiv_pos_site_id
 _symmetry_equiv_pos_as_xyz
  1  'x, y, z'
loop_
 _atom_site_type_symbol
 _atom_site_label
 _atom_site_symmetry_multiplicity
 _atom_site_fract_x
 _atom_site_fract_y
 _atom_site_fract_z
 _atom_site_occupancy
  Ca  Ca0  1  0.02075400  0.52974000  0.74448200  1
  Ca  Ca1  1  0.52075400  0.47026000  0.75551800  1
  Ca  Ca2  1  0.97924600  0.47026000  0.25551800  1
  Ca  Ca3  1  0.47924600  0.52974000  0.24448200  1
  Cu  Cu4  1  0.75377300  0.10924700  0.59874200  1
  Cu  Cu5  1  0.25377300  0.89075300  0.90125800  1
  Cu  Cu6  1  0.24622700  0.89075300  0.40125800  1
  Cu  Cu7  1  0.74622700  0.10924700  0.09874200  1
  F  F8  1  0.88174900  0.38769000  0.55464900  1
  F  F9  1  0.38174900  0.61231000  0.94535100  1
  F  F10  1  0.11825100  0.61231000  0.44535100  1
  F  F11  1  0.61825100  0.38769000  0.05464900  1
  F  F12  1  0.61239400  0.35545600  0.50758300  1
  F  F13  1  0.11239400  0.64454400  0.99241700  1
  F  F14  1  0.38760600  0.64454400  0.49241700  1
  F  F15  1  0.88760600  0.35545600  0.00758300  1
  F  F16  1  0.39406500  0.11829200  0.81160500  1
  F  F17  1  0.89406500  0.88170800  0.68839500  1
  F  F18  1  0.60593500  0.88170800  0.18839500  1
  F  F19  1  0.10593500  0.11829200  0.31160500  1
  F  F20  1  0.13756100  0.16635400  0.86061300  1
  F  F21  1  0.63756100  0.83364600  0.63938700  1
  F  F22  1  0.86243900  0.83364600  0.13938700  1
  F  F23  1  0.36243900  0.16635400  0.36061300  1
  F  F24  1  0.70261600  0.15239700  0.83728800  1
  F  F25  1  0.20261600  0.84760300  0.66271200  1
  F  F26  1  0.29738400  0.84760300  0.16271200  1
  F  F27  1  0.79738400  0.15239700  0.33728800  1
