# generated using pymatgen
data_ZnSnF5
_symmetry_space_group_name_H-M   'P 1'
_cell_length_a   10.44226400
_cell_length_b   5.50065100
_cell_length_c   8.27406119
_cell_angle_alpha   69.46270038
_cell_angle_beta   90.00000000
_cell_angle_gamma   90.00000000
_symmetry_Int_Tables_number   1
_chemical_formula_structural   ZnSnF5
_chemical_formula_sum   'Zn4 Sn4 F20'
_cell_volume   445.05050899
_cell_formula_units_Z   4
loop_
 _symmetry_equiv_pos_site_id
 _symmetry_equiv_pos_as_xyz
  1  'x, y, z'
loop_
 _atom_site_type_symbol
 _atom_site_label
 _atom_site_symmetry_multiplicity
 _atom_site_fract_x
 _atom_site_fract_y
 _atom_site_fract_z
 _atom_site_occupancy
  Zn  Zn0  1  0.99160000  0.49433500  0.76320200  1
  Zn  Zn1  1  0.49160000  0.50566500  0.73679800  1
  Zn  Zn2  1  0.00840000  0.50566500  0.23679800  1
  Zn  Zn3  1  0.50840000  0.49433500  0.26320200  1
  Sn  Sn4  1  0.75603200  0.09080900  0.60656200  1
  Sn  Sn5  1  0.25603200  0.90919100  0.89343800  1
  Sn  Sn6  1  0.24396800  0.90919100  0.39343800  1
  Sn  Sn7  1  0.74396800  0.09080900  0.10656200  1
  F  F8  1  0.88983700  0.39166000  0.58999400  1
  F  F9  1  0.38983700  0.60834000  0.91000600  1
  F  F10  1  0.11016300  0.60834000  0.41000600  1
  F  F11  1  0.61016300  0.39166000  0.08999400  1
  F  F12  1  0.60528500  0.35646500  0.48752100  1
  F  F13  1  0.10528500  0.64353500  0.01247900  1
  F  F14  1  0.39471500  0.64353500  0.51247900  1
  F  F15  1  0.89471500  0.35646500  0.98752100  1
  F  F16  1  0.41784200  0.15953000  0.80334200  1
  F  F17  1  0.91784200  0.84047000  0.69665800  1
  F  F18  1  0.58215800  0.84047000  0.19665800  1
  F  F19  1  0.08215800  0.15953000  0.30334200  1
  F  F20  1  0.13016000  0.24361500  0.83081900  1
  F  F21  1  0.63016000  0.75638500  0.66918100  1
  F  F22  1  0.86984000  0.75638500  0.16918100  1
  F  F23  1  0.36984000  0.24361500  0.33081900  1
  F  F24  1  0.69400300  0.14697200  0.84128700  1
  F  F25  1  0.19400300  0.85302800  0.65871300  1
  F  F26  1  0.30599700  0.85302800  0.15871300  1
  F  F27  1  0.80599700  0.14697200  0.34128700  1
