# generated using pymatgen
data_Al2Mo2O7
_symmetry_space_group_name_H-M   'P 1'
_cell_length_a   6.68159100
_cell_length_b   6.75080020
_cell_length_c   6.76726541
_cell_angle_alpha   66.10967557
_cell_angle_beta   65.96916970
_cell_angle_gamma   65.33208670
_symmetry_Int_Tables_number   1
_chemical_formula_structural   Al2Mo2O7
_chemical_formula_sum   'Al4 Mo4 O14'
_cell_volume   242.97681736
_cell_formula_units_Z   2
loop_
 _symmetry_equiv_pos_site_id
 _symmetry_equiv_pos_as_xyz
  1  'x, y, z'
loop_
 _atom_site_type_symbol
 _atom_site_label
 _atom_site_symmetry_multiplicity
 _atom_site_fract_x
 _atom_site_fract_y
 _atom_site_fract_z
 _atom_site_occupancy
  Al  Al0  1  0.50000000  0.00000000  0.50000000  1
  Al  Al1  1  0.50000000  0.00000000  0.00000000  1
  Al  Al2  1  0.00000000  0.00000000  0.50000000  1
  Al  Al3  1  0.50000000  0.50000000  0.50000000  1
  Mo  Mo4  1  0.00000000  0.50000000  0.00000000  1
  Mo  Mo5  1  0.00000000  0.50000000  0.50000000  1
  Mo  Mo6  1  0.50000000  0.50000000  0.00000000  1
  Mo  Mo7  1  0.00000000  0.00000000  0.00000000  1
  O  O8  1  0.61095000  0.15287400  0.60687500  1
  O  O9  1  0.38905000  0.84712600  0.39312500  1
  O  O10  1  0.88254600  0.84377200  0.40518100  1
  O  O11  1  0.67984400  0.68425100  0.98807400  1
  O  O12  1  0.99131400  0.83659300  0.82111300  1
  O  O13  1  0.34592600  0.88270300  0.89575000  1
  O  O14  1  0.82885400  0.50576300  0.31758800  1
  O  O15  1  0.35588300  0.47814700  0.31959900  1
  O  O16  1  0.32015600  0.31574900  0.01192600  1
  O  O17  1  0.17114600  0.49423700  0.68241200  1
  O  O18  1  0.65407400  0.11729700  0.10425000  1
  O  O19  1  0.11745400  0.15622800  0.59481900  1
  O  O20  1  0.64411700  0.52185300  0.68040100  1
  O  O21  1  0.00868600  0.16340700  0.17888700  1
