# generated using pymatgen
data_TiZnF5
_symmetry_space_group_name_H-M   'P 1'
_cell_length_a   9.94808800
_cell_length_b   5.31969400
_cell_length_c   7.58628050
_cell_angle_alpha   69.95941259
_cell_angle_beta   90.00000000
_cell_angle_gamma   90.00000000
_symmetry_Int_Tables_number   1
_chemical_formula_structural   TiZnF5
_chemical_formula_sum   'Ti4 Zn4 F20'
_cell_volume   377.16282928
_cell_formula_units_Z   4
loop_
 _symmetry_equiv_pos_site_id
 _symmetry_equiv_pos_as_xyz
  1  'x, y, z'
loop_
 _atom_site_type_symbol
 _atom_site_label
 _atom_site_symmetry_multiplicity
 _atom_site_fract_x
 _atom_site_fract_y
 _atom_site_fract_z
 _atom_site_occupancy
  Ti  Ti0  1  0.75438500  0.09031900  0.60558000  1
  Ti  Ti1  1  0.25438500  0.90968100  0.89442000  1
  Ti  Ti2  1  0.24561500  0.90968100  0.39442000  1
  Ti  Ti3  1  0.74561500  0.09031900  0.10558000  1
  Zn  Zn4  1  0.00159000  0.50697800  0.75064500  1
  Zn  Zn5  1  0.50159000  0.49302200  0.74935500  1
  Zn  Zn6  1  0.99841000  0.49302200  0.24935500  1
  Zn  Zn7  1  0.49841000  0.50697800  0.25064500  1
  F  F8  1  0.88731200  0.38762600  0.57005700  1
  F  F9  1  0.38731200  0.61237400  0.92994300  1
  F  F10  1  0.11268800  0.61237400  0.42994300  1
  F  F11  1  0.61268800  0.38762600  0.07005700  1
  F  F12  1  0.60817200  0.34455900  0.49654800  1
  F  F13  1  0.10817200  0.65544100  0.00345200  1
  F  F14  1  0.39182800  0.65544100  0.50345200  1
  F  F15  1  0.89182800  0.34455900  0.99654800  1
  F  F16  1  0.40373300  0.15612000  0.79977000  1
  F  F17  1  0.90373300  0.84388000  0.70023000  1
  F  F18  1  0.59626700  0.84388000  0.20023000  1
  F  F19  1  0.09626700  0.15612000  0.29977000  1
  F  F20  1  0.13741400  0.22960900  0.84033500  1
  F  F21  1  0.63741400  0.77039100  0.65966500  1
  F  F22  1  0.86258600  0.77039100  0.15966500  1
  F  F23  1  0.36258600  0.22960900  0.34033500  1
  F  F24  1  0.69122400  0.14327500  0.84101700  1
  F  F25  1  0.19122400  0.85672500  0.65898300  1
  F  F26  1  0.30877600  0.85672500  0.15898300  1
  F  F27  1  0.80877600  0.14327500  0.34101700  1
