# generated using pymatgen
data_Zn2W3O8
_symmetry_space_group_name_H-M   'P 1'
_cell_length_a   6.47870336
_cell_length_b   6.47870336
_cell_length_c   5.00367807
_cell_angle_alpha   72.70465759
_cell_angle_beta   72.70465759
_cell_angle_gamma   54.28294120
_symmetry_Int_Tables_number   1
_chemical_formula_structural   Zn2W3O8
_chemical_formula_sum   'Zn2 W3 O8'
_cell_volume   160.72162710
_cell_formula_units_Z   1
loop_
 _symmetry_equiv_pos_site_id
 _symmetry_equiv_pos_as_xyz
  1  'x, y, z'
loop_
 _atom_site_type_symbol
 _atom_site_label
 _atom_site_symmetry_multiplicity
 _atom_site_fract_x
 _atom_site_fract_y
 _atom_site_fract_z
 _atom_site_occupancy
  Zn  Zn0  1  0.31299000  0.31299000  0.13786100  1
  Zn  Zn1  1  0.68701000  0.68701000  0.86213900  1
  W  W2  1  0.00000000  0.00000000  0.00000000  1
  W  W3  1  0.22853100  0.77146900  0.50000000  1
  W  W4  1  0.77146900  0.22853100  0.50000000  1
  O  O5  1  0.59732400  0.59732400  0.27678100  1
  O  O6  1  0.40267600  0.40267600  0.72321900  1
  O  O7  1  0.13244900  0.13244900  0.23530400  1
  O  O8  1  0.86755100  0.86755100  0.76469600  1
  O  O9  1  0.64656300  0.13443900  0.26151200  1
  O  O10  1  0.13443900  0.64656300  0.26151200  1
  O  O11  1  0.86556100  0.35343700  0.73848800  1
  O  O12  1  0.35343700  0.86556100  0.73848800  1
