# generated using pymatgen
data_Mg3Mo2O7
_symmetry_space_group_name_H-M   'P 1'
_cell_length_a   9.74352636
_cell_length_b   9.74352636
_cell_length_c   5.41481400
_cell_angle_alpha   90.00000000
_cell_angle_beta   90.00000000
_cell_angle_gamma   148.08460461
_symmetry_Int_Tables_number   1
_chemical_formula_structural   Mg3Mo2O7
_chemical_formula_sum   'Mg6 Mo4 O14'
_cell_volume   271.76755665
_cell_formula_units_Z   2
loop_
 _symmetry_equiv_pos_site_id
 _symmetry_equiv_pos_as_xyz
  1  'x, y, z'
loop_
 _atom_site_type_symbol
 _atom_site_label
 _atom_site_symmetry_multiplicity
 _atom_site_fract_x
 _atom_site_fract_y
 _atom_site_fract_z
 _atom_site_occupancy
  Mg  Mg0  1  0.26780500  0.26780500  0.27752800  1
  Mg  Mg1  1  0.73219500  0.73219500  0.77752800  1
  Mg  Mg2  1  0.01983200  0.42018500  0.19747900  1
  Mg  Mg3  1  0.98016800  0.57981500  0.69747900  1
  Mg  Mg4  1  0.42018500  0.01983200  0.19747900  1
  Mg  Mg5  1  0.57981500  0.98016800  0.69747900  1
  Mo  Mo6  1  0.85399800  0.64425700  0.24657700  1
  Mo  Mo7  1  0.14600200  0.35574300  0.74657700  1
  Mo  Mo8  1  0.35574300  0.14600200  0.74657700  1
  Mo  Mo9  1  0.64425700  0.85399800  0.24657700  1
  O  O10  1  0.65801600  0.07375700  0.32556100  1
  O  O11  1  0.34198400  0.92624300  0.82556100  1
  O  O12  1  0.92624300  0.34198400  0.82556100  1
  O  O13  1  0.07375700  0.65801600  0.32556100  1
  O  O14  1  0.44708100  0.71654600  0.92927800  1
  O  O15  1  0.55291900  0.28345400  0.42927800  1
  O  O16  1  0.28345400  0.55291900  0.42927800  1
  O  O17  1  0.71654600  0.44708100  0.92927800  1
  O  O18  1  0.01209300  0.16747900  0.07548400  1
  O  O19  1  0.98790700  0.83252100  0.57548400  1
  O  O20  1  0.62738300  0.62738300  0.15371300  1
  O  O21  1  0.37261700  0.37261700  0.65371300  1
  O  O22  1  0.16747900  0.01209300  0.07548400  1
  O  O23  1  0.83252100  0.98790700  0.57548400  1
