# generated using pymatgen
data_Sr2YAlV2O7
_symmetry_space_group_name_H-M   'P 1'
_cell_length_a   11.74095306
_cell_length_b   11.74095306
_cell_length_c   11.74095306
_cell_angle_alpha   152.28089249
_cell_angle_beta   151.37521009
_cell_angle_gamma   40.26933935
_symmetry_Int_Tables_number   1
_chemical_formula_structural   Sr2YAlV2O7
_chemical_formula_sum   'Sr4 Y2 Al2 V4 O14'
_cell_volume   359.93958620
_cell_formula_units_Z   2
loop_
 _symmetry_equiv_pos_site_id
 _symmetry_equiv_pos_as_xyz
  1  'x, y, z'
loop_
 _atom_site_type_symbol
 _atom_site_label
 _atom_site_symmetry_multiplicity
 _atom_site_fract_x
 _atom_site_fract_y
 _atom_site_fract_z
 _atom_site_occupancy
  Sr  Sr0  1  0.81859800  0.83112900  0.96357300  1
  Sr  Sr1  1  0.18140200  0.14497500  0.01253200  1
  Sr  Sr2  1  0.63244400  0.64497500  0.96357300  1
  Sr  Sr3  1  0.36755600  0.33112900  0.01253200  1
  Y  Y4  1  0.50000000  0.48908300  0.98908300  1
  Y  Y5  1  0.00000000  0.98908300  0.98908300  1
  Al  Al6  1  0.17359000  0.75902800  0.43261800  1
  Al  Al7  1  0.82641000  0.25902800  0.58543800  1
  V  V8  1  0.92430600  0.40425400  0.47928400  1
  V  V9  1  0.07569400  0.55497800  0.47994700  1
  V  V10  1  0.57503100  0.05497800  0.47928400  1
  V  V11  1  0.42496900  0.90425400  0.47994700  1
  O  O12  1  0.92458200  0.56526500  0.98984700  1
  O  O13  1  0.07541800  0.06526500  0.64068300  1
  O  O14  1  0.72272300  0.70332100  0.55974000  1
  O  O15  1  0.27727700  0.83701800  0.98059800  1
  O  O16  1  0.35641900  0.33701800  0.55974000  1
  O  O17  1  0.64358100  0.20332100  0.98059800  1
  O  O18  1  0.13107000  0.10810400  0.38553200  1
  O  O19  1  0.86893000  0.25446200  0.97703400  1
  O  O20  1  0.77742800  0.75446200  0.38553200  1
  O  O21  1  0.22257200  0.60810400  0.97703400  1
  O  O22  1  0.37950700  0.78463800  0.52325300  1
  O  O23  1  0.62049300  0.14374600  0.40513100  1
  O  O24  1  0.23861600  0.64374600  0.52325300  1
  O  O25  1  0.76138400  0.28463800  0.40513100  1
