# generated using pymatgen
data_TiZn(BiO3)2
_symmetry_space_group_name_H-M   'P 1'
_cell_length_a   4.76759805
_cell_length_b   4.76759805
_cell_length_c   7.16093300
_cell_angle_alpha   90.00000000
_cell_angle_beta   90.00000000
_cell_angle_gamma   99.11627773
_symmetry_Int_Tables_number   1
_chemical_formula_structural   TiZn(BiO3)2
_chemical_formula_sum   'Ti1 Zn1 Bi2 O6'
_cell_volume   160.71199493
_cell_formula_units_Z   1
loop_
 _symmetry_equiv_pos_site_id
 _symmetry_equiv_pos_as_xyz
  1  'x, y, z'
loop_
 _atom_site_type_symbol
 _atom_site_label
 _atom_site_symmetry_multiplicity
 _atom_site_fract_x
 _atom_site_fract_y
 _atom_site_fract_z
 _atom_site_occupancy
  Ti  Ti0  1  0.46656100  0.53343900  0.00000000  1
  Zn  Zn1  1  0.46483100  0.53516900  0.50000000  1
  Bi  Bi2  1  0.87982500  0.12017500  0.73877000  1
  Bi  Bi3  1  0.87982500  0.12017500  0.26123000  1
  O  O4  1  0.05652900  0.39455600  0.50000000  1
  O  O5  1  0.60544400  0.94347100  0.50000000  1
  O  O6  1  0.08553800  0.43881800  0.00000000  1
  O  O7  1  0.56118200  0.91446200  0.00000000  1
  O  O8  1  0.58163200  0.41836800  0.76142000  1
  O  O9  1  0.58163200  0.41836800  0.23858000  1
