# generated using pymatgen
data_ZnCoF5
_symmetry_space_group_name_H-M   'P 1'
_cell_length_a   9.66428100
_cell_length_b   5.21953200
_cell_length_c   7.43310127
_cell_angle_alpha   69.60825113
_cell_angle_beta   90.00000000
_cell_angle_gamma   90.00000000
_symmetry_Int_Tables_number   1
_chemical_formula_structural   ZnCoF5
_chemical_formula_sum   'Zn4 Co4 F20'
_cell_volume   351.45092403
_cell_formula_units_Z   4
loop_
 _symmetry_equiv_pos_site_id
 _symmetry_equiv_pos_as_xyz
  1  'x, y, z'
loop_
 _atom_site_type_symbol
 _atom_site_label
 _atom_site_symmetry_multiplicity
 _atom_site_fract_x
 _atom_site_fract_y
 _atom_site_fract_z
 _atom_site_occupancy
  Zn  Zn0  1  0.01089500  0.52125800  0.74312700  1
  Zn  Zn1  1  0.51089500  0.47874200  0.75687300  1
  Zn  Zn2  1  0.98910500  0.47874200  0.25687300  1
  Zn  Zn3  1  0.48910500  0.52125800  0.24312700  1
  Co  Co4  1  0.75295000  0.09880400  0.60204700  1
  Co  Co5  1  0.25295000  0.90119600  0.89795300  1
  Co  Co6  1  0.24705000  0.90119600  0.39795300  1
  Co  Co7  1  0.74705000  0.09880400  0.10204700  1
  F  F8  1  0.88615900  0.39472700  0.56691100  1
  F  F9  1  0.38615900  0.60527300  0.93308900  1
  F  F10  1  0.11384100  0.60527300  0.43308900  1
  F  F11  1  0.61384100  0.39472700  0.06691100  1
  F  F12  1  0.61005700  0.35349600  0.49431700  1
  F  F13  1  0.11005700  0.64650400  0.00568300  1
  F  F14  1  0.38994300  0.64650400  0.50568300  1
  F  F15  1  0.88994300  0.35349600  0.99431700  1
  F  F16  1  0.39924000  0.14402600  0.80147700  1
  F  F17  1  0.89924000  0.85597400  0.69852300  1
  F  F18  1  0.60076000  0.85597400  0.19852300  1
  F  F19  1  0.10076000  0.14402600  0.30147700  1
  F  F20  1  0.13465600  0.20962800  0.84977200  1
  F  F21  1  0.63465600  0.79037200  0.65022800  1
  F  F22  1  0.86534400  0.79037200  0.15022800  1
  F  F23  1  0.36534400  0.20962800  0.34977200  1
  F  F24  1  0.68616100  0.15742200  0.83692900  1
  F  F25  1  0.18616100  0.84257800  0.66307100  1
  F  F26  1  0.31383900  0.84257800  0.16307100  1
  F  F27  1  0.81383900  0.15742200  0.33692900  1
