# generated using pymatgen
data_CaVF5
_symmetry_space_group_name_H-M   'P 1'
_cell_length_a   10.27387200
_cell_length_b   5.58886300
_cell_length_c   7.81991976
_cell_angle_alpha   70.04110949
_cell_angle_beta   90.00000000
_cell_angle_gamma   90.00000000
_symmetry_Int_Tables_number   1
_chemical_formula_structural   CaVF5
_chemical_formula_sum   'Ca4 V4 F20'
_cell_volume   422.04524948
_cell_formula_units_Z   4
loop_
 _symmetry_equiv_pos_site_id
 _symmetry_equiv_pos_as_xyz
  1  'x, y, z'
loop_
 _atom_site_type_symbol
 _atom_site_label
 _atom_site_symmetry_multiplicity
 _atom_site_fract_x
 _atom_site_fract_y
 _atom_site_fract_z
 _atom_site_occupancy
  Ca  Ca0  1  0.02016200  0.53106700  0.74486000  1
  Ca  Ca1  1  0.52016200  0.46893300  0.75514000  1
  Ca  Ca2  1  0.97983800  0.46893300  0.25514000  1
  Ca  Ca3  1  0.47983800  0.53106700  0.24486000  1
  V  V4  1  0.75335600  0.10875000  0.59873300  1
  V  V5  1  0.25335600  0.89125000  0.90126700  1
  V  V6  1  0.24664400  0.89125000  0.40126700  1
  V  V7  1  0.74664400  0.10875000  0.09873300  1
  F  F8  1  0.88282900  0.38884300  0.55628300  1
  F  F9  1  0.38282900  0.61115700  0.94371700  1
  F  F10  1  0.11717100  0.61115700  0.44371700  1
  F  F11  1  0.61717100  0.38884300  0.05628300  1
  F  F12  1  0.61168000  0.35812700  0.50470700  1
  F  F13  1  0.11168000  0.64187300  0.99529300  1
  F  F14  1  0.38832000  0.64187300  0.49529300  1
  F  F15  1  0.88832000  0.35812700  0.00470700  1
  F  F16  1  0.39590500  0.12266100  0.81100500  1
  F  F17  1  0.89590500  0.87733900  0.68899500  1
  F  F18  1  0.60409500  0.87733900  0.18899500  1
  F  F19  1  0.10409500  0.12266100  0.31100500  1
  F  F20  1  0.13609300  0.17230700  0.85882400  1
  F  F21  1  0.63609300  0.82769300  0.64117600  1
  F  F22  1  0.86390700  0.82769300  0.14117600  1
  F  F23  1  0.36390700  0.17230700  0.35882400  1
  F  F24  1  0.70034500  0.15232000  0.83719000  1
  F  F25  1  0.20034500  0.84768000  0.66281000  1
  F  F26  1  0.29965500  0.84768000  0.16281000  1
  F  F27  1  0.79965500  0.15232000  0.33719000  1
