# generated using pymatgen
data_Sr2AlGaW2O7
_symmetry_space_group_name_H-M   'P 1'
_cell_length_a   5.68645100
_cell_length_b   6.13744782
_cell_length_c   11.80128513
_cell_angle_alpha   104.69495277
_cell_angle_beta   103.83701144
_cell_angle_gamma   88.74262995
_symmetry_Int_Tables_number   1
_chemical_formula_structural   Sr2AlGaW2O7
_chemical_formula_sum   'Sr4 Al2 Ga2 W4 O14'
_cell_volume   386.50576529
_cell_formula_units_Z   2
loop_
 _symmetry_equiv_pos_site_id
 _symmetry_equiv_pos_as_xyz
  1  'x, y, z'
loop_
 _atom_site_type_symbol
 _atom_site_label
 _atom_site_symmetry_multiplicity
 _atom_site_fract_x
 _atom_site_fract_y
 _atom_site_fract_z
 _atom_site_occupancy
  Sr  Sr0  1  0.88045900  0.81421700  0.69650800  1
  Sr  Sr1  1  0.14829700  0.21696300  0.33047000  1
  Sr  Sr2  1  0.34821100  0.36335200  0.69160800  1
  Sr  Sr3  1  0.65364800  0.61548400  0.31684200  1
  Al  Al4  1  0.38187400  0.59867200  0.97603000  1
  Al  Al5  1  0.95250800  0.12347700  0.05335400  1
  Ga  Ga6  1  0.72053100  0.16781700  0.50659800  1
  Ga  Ga7  1  0.22852700  0.82936000  0.50493200  1
  W  W8  1  0.58260300  0.07044000  0.14554500  1
  W  W9  1  0.92254100  0.38911400  0.85816500  1
  W  W10  1  0.09309900  0.58549600  0.14306800  1
  W  W11  1  0.45186900  0.93071200  0.85197000  1
  O  O12  1  0.60946400  0.59820900  0.89241300  1
  O  O13  1  0.39199500  0.09231300  0.50166100  1
  O  O14  1  0.15489900  0.70751900  0.87151500  1
  O  O15  1  0.21721300  0.63151300  0.35363500  1
  O  O16  1  0.94048700  0.91878000  0.14800000  1
  O  O17  1  0.43118200  0.73982600  0.13316300  1
  O  O18  1  0.89239100  0.89584000  0.49712400  1
  O  O19  1  0.25382700  0.24967300  0.14197000  1
  O  O20  1  0.81692800  0.35947300  0.15795000  1
  O  O21  1  0.69132700  0.22827500  0.35507700  1
  O  O22  1  0.84111700  0.39074100  0.64539400  1
  O  O23  1  0.33936100  0.74043100  0.64578200  1
  O  O24  1  0.66639100  0.12429000  0.78889300  1
  O  O25  1  0.18133000  0.15556300  0.80413500  1
