# generated using pymatgen
data_YWO3
_symmetry_space_group_name_H-M   'P 1'
_cell_length_a   6.21515378
_cell_length_b   6.21515378
_cell_length_c   12.63184900
_cell_angle_alpha   90.00000000
_cell_angle_beta   90.00000000
_cell_angle_gamma   119.99999767
_symmetry_Int_Tables_number   1
_chemical_formula_structural   YWO3
_chemical_formula_sum   'Y6 W6 O18'
_cell_volume   422.57259175
_cell_formula_units_Z   6
loop_
 _symmetry_equiv_pos_site_id
 _symmetry_equiv_pos_as_xyz
  1  'x, y, z'
loop_
 _atom_site_type_symbol
 _atom_site_label
 _atom_site_symmetry_multiplicity
 _atom_site_fract_x
 _atom_site_fract_y
 _atom_site_fract_z
 _atom_site_occupancy
  Y  Y0  1  0.66666700  0.33333300  0.23623000  1
  Y  Y1  1  0.33333300  0.66666700  0.73623000  1
  Y  Y2  1  0.66666700  0.33333300  0.73623000  1
  Y  Y3  1  0.33333300  0.66666700  0.23623000  1
  Y  Y4  1  0.00000000  0.00000000  0.77028200  1
  Y  Y5  1  0.00000000  0.00000000  0.27028200  1
  W  W6  1  0.66559300  0.00000000  0.50035600  1
  W  W7  1  0.66559300  0.66559300  0.00035600  1
  W  W8  1  0.00000000  0.33440700  0.00035600  1
  W  W9  1  0.00000000  0.66559300  0.50035600  1
  W  W10  1  0.33440700  0.33440700  0.50035600  1
  W  W11  1  0.33440700  0.00000000  0.00035600  1
  O  O12  1  0.66666700  0.33333300  0.02719300  1
  O  O13  1  0.33333300  0.66666700  0.52719300  1
  O  O14  1  0.66666700  0.33333300  0.52719300  1
  O  O15  1  0.33333300  0.66666700  0.02719300  1
  O  O16  1  0.00000000  0.00000000  0.97270000  1
  O  O17  1  0.00000000  0.00000000  0.47270000  1
  O  O18  1  0.35734100  0.00000000  0.83190600  1
  O  O19  1  0.35734100  0.35734100  0.33190600  1
  O  O20  1  0.00000000  0.64265900  0.33190600  1
  O  O21  1  0.00000000  0.35734100  0.83190600  1
  O  O22  1  0.64265900  0.64265900  0.83190600  1
  O  O23  1  0.64265900  0.00000000  0.33190600  1
  O  O24  1  0.30866400  0.00000000  0.16946200  1
  O  O25  1  0.30866400  0.30866400  0.66946200  1
  O  O26  1  0.00000000  0.69133600  0.66946200  1
  O  O27  1  0.00000000  0.30866400  0.16946200  1
  O  O28  1  0.69133600  0.69133600  0.16946200  1
  O  O29  1  0.69133600  0.00000000  0.66946200  1
