# generated using pymatgen
data_YCrO3
_symmetry_space_group_name_H-M   'P 1'
_cell_length_a   6.08692776
_cell_length_b   6.08692776
_cell_length_c   12.01284600
_cell_angle_alpha   90.00000000
_cell_angle_beta   90.00000000
_cell_angle_gamma   119.99999737
_symmetry_Int_Tables_number   1
_chemical_formula_structural   YCrO3
_chemical_formula_sum   'Y6 Cr6 O18'
_cell_volume   385.45425811
_cell_formula_units_Z   6
loop_
 _symmetry_equiv_pos_site_id
 _symmetry_equiv_pos_as_xyz
  1  'x, y, z'
loop_
 _atom_site_type_symbol
 _atom_site_label
 _atom_site_symmetry_multiplicity
 _atom_site_fract_x
 _atom_site_fract_y
 _atom_site_fract_z
 _atom_site_occupancy
  Y  Y0  1  0.66666700  0.33333300  0.23365800  1
  Y  Y1  1  0.33333300  0.66666700  0.73365800  1
  Y  Y2  1  0.66666700  0.33333300  0.73365800  1
  Y  Y3  1  0.33333300  0.66666700  0.23365800  1
  Y  Y4  1  0.00000000  0.00000000  0.77675600  1
  Y  Y5  1  0.00000000  0.00000000  0.27675600  1
  Cr  Cr6  1  0.66658400  0.00000000  0.50115900  1
  Cr  Cr7  1  0.66658400  0.66658400  0.00115900  1
  Cr  Cr8  1  0.00000000  0.33341600  0.00115900  1
  Cr  Cr9  1  0.00000000  0.66658400  0.50115900  1
  Cr  Cr10  1  0.33341600  0.33341600  0.50115900  1
  Cr  Cr11  1  0.33341600  0.00000000  0.00115900  1
  O  O12  1  0.66666700  0.33333300  0.01913200  1
  O  O13  1  0.33333300  0.66666700  0.51913200  1
  O  O14  1  0.66666700  0.33333300  0.51913200  1
  O  O15  1  0.33333300  0.66666700  0.01913200  1
  O  O16  1  0.00000000  0.00000000  0.97955100  1
  O  O17  1  0.00000000  0.00000000  0.47955100  1
  O  O18  1  0.36006200  0.00000000  0.83873300  1
  O  O19  1  0.36006200  0.36006200  0.33873300  1
  O  O20  1  0.00000000  0.63993800  0.33873300  1
  O  O21  1  0.00000000  0.36006200  0.83873300  1
  O  O22  1  0.63993800  0.63993800  0.83873300  1
  O  O23  1  0.63993800  0.00000000  0.33873300  1
  O  O24  1  0.30662300  0.00000000  0.16447900  1
  O  O25  1  0.30662300  0.30662300  0.66447900  1
  O  O26  1  0.00000000  0.69337700  0.66447900  1
  O  O27  1  0.00000000  0.30662300  0.16447900  1
  O  O28  1  0.69337700  0.69337700  0.16447900  1
  O  O29  1  0.69337700  0.00000000  0.66447900  1
