# generated using pymatgen
data_WF5
_symmetry_space_group_name_H-M   'P 1'
_cell_length_a   10.01454100
_cell_length_b   5.61320900
_cell_length_c   7.96447218
_cell_angle_alpha   69.05448165
_cell_angle_beta   90.00000000
_cell_angle_gamma   90.00000000
_symmetry_Int_Tables_number   1
_chemical_formula_structural   WF5
_chemical_formula_sum   'W4 F20'
_cell_volume   418.12804317
_cell_formula_units_Z   4
loop_
 _symmetry_equiv_pos_site_id
 _symmetry_equiv_pos_as_xyz
  1  'x, y, z'
loop_
 _atom_site_type_symbol
 _atom_site_label
 _atom_site_symmetry_multiplicity
 _atom_site_fract_x
 _atom_site_fract_y
 _atom_site_fract_z
 _atom_site_occupancy
  W  W0  1  0.75154600  0.11871700  0.59691900  1
  W  W1  1  0.25154600  0.88128300  0.90308100  1
  W  W2  1  0.24845400  0.88128300  0.40308100  1
  W  W3  1  0.74845400  0.11871700  0.09691900  1
  F  F4  1  0.86768200  0.40155200  0.56751800  1
  F  F5  1  0.36768200  0.59844800  0.93248200  1
  F  F6  1  0.13231800  0.59844800  0.43248200  1
  F  F7  1  0.63231800  0.40155200  0.06751800  1
  F  F8  1  0.61697400  0.35778400  0.48765200  1
  F  F9  1  0.11697400  0.64221600  0.01234800  1
  F  F10  1  0.38302600  0.64221600  0.51234800  1
  F  F11  1  0.88302600  0.35778400  0.98765200  1
  F  F12  1  0.38985300  0.11671800  0.79902000  1
  F  F13  1  0.88985300  0.88328200  0.70098000  1
  F  F14  1  0.61014700  0.88328200  0.20098000  1
  F  F15  1  0.11014700  0.11671800  0.29902000  1
  F  F16  1  0.13675100  0.16715300  0.87107400  1
  F  F17  1  0.63675100  0.83284700  0.62892600  1
  F  F18  1  0.86324900  0.83284700  0.12892600  1
  F  F19  1  0.36324900  0.16715300  0.37107400  1
  F  F20  1  0.69719900  0.11704500  0.84657000  1
  F  F21  1  0.19719900  0.88295500  0.65343000  1
  F  F22  1  0.30280100  0.88295500  0.15343000  1
  F  F23  1  0.80280100  0.11704500  0.34657000  1
