# generated using pymatgen
data_AlSbO3
_symmetry_space_group_name_H-M   'P 1'
_cell_length_a   5.25939600
_cell_length_b   5.35129900
_cell_length_c   9.21267100
_cell_angle_alpha   90.00000000
_cell_angle_beta   90.00000000
_cell_angle_gamma   90.00000000
_symmetry_Int_Tables_number   1
_chemical_formula_structural   AlSbO3
_chemical_formula_sum   'Al4 Sb4 O12'
_cell_volume   259.28694534
_cell_formula_units_Z   4
loop_
 _symmetry_equiv_pos_site_id
 _symmetry_equiv_pos_as_xyz
  1  'x, y, z'
loop_
 _atom_site_type_symbol
 _atom_site_label
 _atom_site_symmetry_multiplicity
 _atom_site_fract_x
 _atom_site_fract_y
 _atom_site_fract_z
 _atom_site_occupancy
  Al  Al0  1  0.95934400  0.53511300  0.75000000  1
  Al  Al1  1  0.45934400  0.96488700  0.25000000  1
  Al  Al2  1  0.54065600  0.03511300  0.75000000  1
  Al  Al3  1  0.04065600  0.46488700  0.25000000  1
  Sb  Sb4  1  0.00000000  0.00000000  0.50000000  1
  Sb  Sb5  1  0.50000000  0.50000000  0.50000000  1
  Sb  Sb6  1  0.50000000  0.50000000  0.00000000  1
  Sb  Sb7  1  0.00000000  0.00000000  0.00000000  1
  O  O8  1  0.63241100  0.85561900  0.40176000  1
  O  O9  1  0.13241100  0.64438100  0.59824000  1
  O  O10  1  0.86758900  0.35561900  0.09824000  1
  O  O11  1  0.36758900  0.14438100  0.90176000  1
  O  O12  1  0.36758900  0.14438100  0.59824000  1
  O  O13  1  0.86758900  0.35561900  0.40176000  1
  O  O14  1  0.13241100  0.64438100  0.90176000  1
  O  O15  1  0.63241100  0.85561900  0.09824000  1
  O  O16  1  0.16028800  0.78519500  0.25000000  1
  O  O17  1  0.66028800  0.71480500  0.75000000  1
  O  O18  1  0.33971200  0.28519500  0.25000000  1
  O  O19  1  0.83971200  0.21480500  0.75000000  1
