# generated using pymatgen
data_AlAgO3
_symmetry_space_group_name_H-M   'P 1'
_cell_length_a   4.72799100
_cell_length_b   5.29331400
_cell_length_c   9.49694400
_cell_angle_alpha   90.00000000
_cell_angle_beta   90.00000000
_cell_angle_gamma   90.00000000
_symmetry_Int_Tables_number   1
_chemical_formula_structural   AlAgO3
_chemical_formula_sum   'Al4 Ag4 O12'
_cell_volume   237.67755733
_cell_formula_units_Z   4
loop_
 _symmetry_equiv_pos_site_id
 _symmetry_equiv_pos_as_xyz
  1  'x, y, z'
loop_
 _atom_site_type_symbol
 _atom_site_label
 _atom_site_symmetry_multiplicity
 _atom_site_fract_x
 _atom_site_fract_y
 _atom_site_fract_z
 _atom_site_occupancy
  Al  Al0  1  0.96871500  0.57293400  0.75000000  1
  Al  Al1  1  0.46871500  0.92706600  0.25000000  1
  Al  Al2  1  0.53128500  0.07293400  0.75000000  1
  Al  Al3  1  0.03128500  0.42706600  0.25000000  1
  Ag  Ag4  1  0.00000000  0.00000000  0.50000000  1
  Ag  Ag5  1  0.50000000  0.50000000  0.50000000  1
  Ag  Ag6  1  0.50000000  0.50000000  0.00000000  1
  Ag  Ag7  1  0.00000000  0.00000000  0.00000000  1
  O  O8  1  0.65901100  0.82097000  0.40506100  1
  O  O9  1  0.15901100  0.67903000  0.59493900  1
  O  O10  1  0.84098900  0.32097000  0.09493900  1
  O  O11  1  0.34098900  0.17903000  0.90506100  1
  O  O12  1  0.34098900  0.17903000  0.59493900  1
  O  O13  1  0.84098900  0.32097000  0.40506100  1
  O  O14  1  0.15901100  0.67903000  0.90506100  1
  O  O15  1  0.65901100  0.82097000  0.09493900  1
  O  O16  1  0.17485600  0.72882700  0.25000000  1
  O  O17  1  0.67485600  0.77117300  0.75000000  1
  O  O18  1  0.32514400  0.22882700  0.25000000  1
  O  O19  1  0.82514400  0.27117300  0.75000000  1
