# generated using pymatgen
data_Mg3Co2(SiO4)3
_symmetry_space_group_name_H-M   'P 1'
_cell_length_a   10.01301170
_cell_length_b   10.01301170
_cell_length_c   10.01301170
_cell_angle_alpha   109.47122063
_cell_angle_beta   109.47122063
_cell_angle_gamma   109.47122063
_symmetry_Int_Tables_number   1
_chemical_formula_structural   Mg3Co2(SiO4)3
_chemical_formula_sum   'Mg12 Co8 Si12 O48'
_cell_volume   772.80919377
_cell_formula_units_Z   4
loop_
 _symmetry_equiv_pos_site_id
 _symmetry_equiv_pos_as_xyz
  1  'x, y, z'
loop_
 _atom_site_type_symbol
 _atom_site_label
 _atom_site_symmetry_multiplicity
 _atom_site_fract_x
 _atom_site_fract_y
 _atom_site_fract_z
 _atom_site_occupancy
  Mg  Mg0  1  0.25000000  0.37500000  0.12500000  1
  Mg  Mg1  1  0.75000000  0.12500000  0.37500000  1
  Mg  Mg2  1  0.37500000  0.12500000  0.25000000  1
  Mg  Mg3  1  0.12500000  0.37500000  0.75000000  1
  Mg  Mg4  1  0.25000000  0.87500000  0.62500000  1
  Mg  Mg5  1  0.12500000  0.25000000  0.37500000  1
  Mg  Mg6  1  0.62500000  0.25000000  0.87500000  1
  Mg  Mg7  1  0.75000000  0.62500000  0.87500000  1
  Mg  Mg8  1  0.87500000  0.75000000  0.62500000  1
  Mg  Mg9  1  0.87500000  0.62500000  0.25000000  1
  Mg  Mg10  1  0.62500000  0.87500000  0.75000000  1
  Mg  Mg11  1  0.37500000  0.75000000  0.12500000  1
  Co  Co12  1  0.50000000  0.00000000  0.00000000  1
  Co  Co13  1  0.50000000  0.50000000  0.00000000  1
  Co  Co14  1  0.00000000  0.50000000  0.50000000  1
  Co  Co15  1  0.00000000  0.00000000  0.50000000  1
  Co  Co16  1  0.50000000  0.50000000  0.50000000  1
  Co  Co17  1  0.00000000  0.50000000  0.00000000  1
  Co  Co18  1  0.50000000  0.00000000  0.50000000  1
  Co  Co19  1  0.00000000  0.00000000  0.00000000  1
  Si  Si20  1  0.12500000  0.75000000  0.87500000  1
  Si  Si21  1  0.87500000  0.25000000  0.12500000  1
  Si  Si22  1  0.75000000  0.37500000  0.62500000  1
  Si  Si23  1  0.12500000  0.87500000  0.25000000  1
  Si  Si24  1  0.25000000  0.12500000  0.87500000  1
  Si  Si25  1  0.37500000  0.62500000  0.75000000  1
  Si  Si26  1  0.37500000  0.25000000  0.62500000  1
  Si  Si27  1  0.87500000  0.12500000  0.75000000  1
  Si  Si28  1  0.62500000  0.37500000  0.25000000  1
  Si  Si29  1  0.75000000  0.87500000  0.12500000  1
  Si  Si30  1  0.25000000  0.62500000  0.37500000  1
  Si  Si31  1  0.62500000  0.75000000  0.37500000  1
  O  O32  1  0.58358300  0.89716600  0.37733500  1
  O  O33  1  0.37733500  0.58358300  0.89716600  1
  O  O34  1  0.29375200  0.31358300  0.91641700  1
  O  O35  1  0.48016900  0.60283400  0.18641700  1
  O  O36  1  0.31358300  0.89716600  0.01983100  1
  O  O37  1  0.12266500  0.01983100  0.20624800  1
  O  O38  1  0.37733500  0.29375200  0.48016900  1
  O  O39  1  0.89716600  0.37733500  0.58358300  1
  O  O40  1  0.18641700  0.20624800  0.58358300  1
  O  O41  1  0.48016900  0.37733500  0.29375200  1
  O  O42  1  0.89716600  0.01983100  0.31358300  1
  O  O43  1  0.60283400  0.91641700  0.12266500  1
  O  O44  1  0.91641700  0.12266500  0.60283400  1
  O  O45  1  0.29375200  0.48016900  0.37733500  1
  O  O46  1  0.58358300  0.18641700  0.20624800  1
  O  O47  1  0.20624800  0.58358300  0.18641700  1
  O  O48  1  0.01983100  0.31358300  0.89716600  1
  O  O49  1  0.91641700  0.29375200  0.31358300  1
  O  O50  1  0.01983100  0.20624800  0.12266500  1
  O  O51  1  0.81358300  0.79375200  0.41641700  1
  O  O52  1  0.18641700  0.48016900  0.60283400  1
  O  O53  1  0.60283400  0.18641700  0.48016900  1
  O  O54  1  0.20624800  0.12266500  0.01983100  1
  O  O55  1  0.12266500  0.60283400  0.91641700  1
  O  O56  1  0.41641700  0.10283400  0.62266500  1
  O  O57  1  0.62266500  0.41641700  0.10283400  1
  O  O58  1  0.70624800  0.68641700  0.08358300  1
  O  O59  1  0.51983100  0.39716600  0.81358300  1
  O  O60  1  0.68641700  0.10283400  0.98016900  1
  O  O61  1  0.87733500  0.98016900  0.79375200  1
  O  O62  1  0.62266500  0.70624800  0.51983100  1
  O  O63  1  0.10283400  0.62266500  0.41641700  1
  O  O64  1  0.87733500  0.39716600  0.08358300  1
  O  O65  1  0.79375200  0.87733500  0.98016900  1
  O  O66  1  0.39716600  0.81358300  0.51983100  1
  O  O67  1  0.68641700  0.08358300  0.70624800  1
  O  O68  1  0.81358300  0.51983100  0.39716600  1
  O  O69  1  0.98016900  0.79375200  0.87733500  1
  O  O70  1  0.08358300  0.70624800  0.68641700  1
  O  O71  1  0.98016900  0.68641700  0.10283400  1
  O  O72  1  0.79375200  0.41641700  0.81358300  1
  O  O73  1  0.41641700  0.81358300  0.79375200  1
  O  O74  1  0.70624800  0.51983100  0.62266500  1
  O  O75  1  0.08358300  0.87733500  0.39716600  1
  O  O76  1  0.39716600  0.08358300  0.87733500  1
  O  O77  1  0.10283400  0.98016900  0.68641700  1
  O  O78  1  0.51983100  0.62266500  0.70624800  1
  O  O79  1  0.31358300  0.91641700  0.29375200  1
