# generated using pymatgen
data_Mg2Co2O5
_symmetry_space_group_name_H-M   'P 1'
_cell_length_a   3.51367200
_cell_length_b   5.07844900
_cell_length_c   10.70967000
_cell_angle_alpha   90.00000000
_cell_angle_beta   90.00000000
_cell_angle_gamma   90.00000000
_symmetry_Int_Tables_number   1
_chemical_formula_structural   Mg2Co2O5
_chemical_formula_sum   'Mg4 Co4 O10'
_cell_volume   191.10339490
_cell_formula_units_Z   2
loop_
 _symmetry_equiv_pos_site_id
 _symmetry_equiv_pos_as_xyz
  1  'x, y, z'
loop_
 _atom_site_type_symbol
 _atom_site_label
 _atom_site_symmetry_multiplicity
 _atom_site_fract_x
 _atom_site_fract_y
 _atom_site_fract_z
 _atom_site_occupancy
  Mg  Mg0  1  0.00000000  0.73521200  0.40397700  1
  Mg  Mg1  1  0.00000000  0.26478800  0.59602300  1
  Mg  Mg2  1  0.00000000  0.23521200  0.09602300  1
  Mg  Mg3  1  0.00000000  0.76478800  0.90397700  1
  Co  Co4  1  0.50000000  0.71956500  0.13711600  1
  Co  Co5  1  0.50000000  0.28043500  0.86288400  1
  Co  Co6  1  0.50000000  0.78043500  0.63711600  1
  Co  Co7  1  0.50000000  0.21956500  0.36288400  1
  O  O8  1  0.50000000  0.00000000  0.00000000  1
  O  O9  1  0.50000000  0.65150700  0.80701300  1
  O  O10  1  0.50000000  0.15150700  0.69298700  1
  O  O11  1  0.50000000  0.84849300  0.30701300  1
  O  O12  1  0.00000000  0.82817600  0.59125200  1
  O  O13  1  0.00000000  0.17182400  0.40874800  1
  O  O14  1  0.50000000  0.34849300  0.19298700  1
  O  O15  1  0.00000000  0.67182400  0.09125200  1
  O  O16  1  0.50000000  0.50000000  0.50000000  1
  O  O17  1  0.00000000  0.32817600  0.90874800  1
