# generated using pymatgen
data_Mg2V2O5
_symmetry_space_group_name_H-M   'P 1'
_cell_length_a   3.50924400
_cell_length_b   5.81853900
_cell_length_c   10.84287000
_cell_angle_alpha   90.00000000
_cell_angle_beta   90.00000000
_cell_angle_gamma   90.00000000
_symmetry_Int_Tables_number   1
_chemical_formula_structural   Mg2V2O5
_chemical_formula_sum   'Mg4 V4 O10'
_cell_volume   221.39701772
_cell_formula_units_Z   2
loop_
 _symmetry_equiv_pos_site_id
 _symmetry_equiv_pos_as_xyz
  1  'x, y, z'
loop_
 _atom_site_type_symbol
 _atom_site_label
 _atom_site_symmetry_multiplicity
 _atom_site_fract_x
 _atom_site_fract_y
 _atom_site_fract_z
 _atom_site_occupancy
  Mg  Mg0  1  0.00000000  0.06192800  0.89580700  1
  Mg  Mg1  1  0.00000000  0.44139900  0.10379300  1
  Mg  Mg2  1  0.00000000  0.55860100  0.60379300  1
  Mg  Mg3  1  0.00000000  0.93807200  0.39580700  1
  V  V4  1  0.50000000  0.01764200  0.63480500  1
  V  V5  1  0.50000000  0.48165000  0.36531500  1
  V  V6  1  0.50000000  0.98235800  0.13480500  1
  V  V7  1  0.50000000  0.51835000  0.86531500  1
  O  O8  1  0.50000000  0.25687800  0.50360300  1
  O  O9  1  0.50000000  0.87879500  0.30246800  1
  O  O10  1  0.50000000  0.37764900  0.19767100  1
  O  O11  1  0.50000000  0.12120500  0.80246800  1
  O  O12  1  0.00000000  0.08837300  0.08180900  1
  O  O13  1  0.00000000  0.41460700  0.91803500  1
  O  O14  1  0.50000000  0.62235100  0.69767100  1
  O  O15  1  0.00000000  0.91162700  0.58180900  1
  O  O16  1  0.50000000  0.74312200  0.00360300  1
  O  O17  1  0.00000000  0.58539300  0.41803500  1
