# generated using pymatgen
data_AlSnO3
_symmetry_space_group_name_H-M   'P 1'
_cell_length_a   5.21653200
_cell_length_b   5.31744300
_cell_length_c   10.20113089
_cell_angle_alpha   64.73593709
_cell_angle_beta   90.00000000
_cell_angle_gamma   90.00000000
_symmetry_Int_Tables_number   1
_chemical_formula_structural   AlSnO3
_chemical_formula_sum   'Al4 Sn4 O12'
_cell_volume   255.89970394
_cell_formula_units_Z   4
loop_
 _symmetry_equiv_pos_site_id
 _symmetry_equiv_pos_as_xyz
  1  'x, y, z'
loop_
 _atom_site_type_symbol
 _atom_site_label
 _atom_site_symmetry_multiplicity
 _atom_site_fract_x
 _atom_site_fract_y
 _atom_site_fract_z
 _atom_site_occupancy
  Al  Al0  1  0.46899100  0.80455000  0.74473200  1
  Al  Al1  1  0.03100900  0.80455000  0.24473200  1
  Al  Al2  1  0.96899100  0.19545000  0.75526800  1
  Al  Al3  1  0.53100900  0.19545000  0.25526800  1
  Sn  Sn4  1  0.00000000  0.00000000  0.50000000  1
  Sn  Sn5  1  0.50000000  0.50000000  0.50000000  1
  Sn  Sn6  1  0.50000000  0.00000000  0.00000000  1
  Sn  Sn7  1  0.00000000  0.50000000  0.00000000  1
  O  O8  1  0.17168900  0.53018900  0.39223200  1
  O  O9  1  0.38512200  0.75635100  0.58859200  1
  O  O10  1  0.67168900  0.46981100  0.10776800  1
  O  O11  1  0.88512200  0.24364900  0.91140800  1
  O  O12  1  0.82831100  0.46981100  0.60776800  1
  O  O13  1  0.61487800  0.24364900  0.41140800  1
  O  O14  1  0.32831100  0.53018900  0.89223200  1
  O  O15  1  0.11487800  0.75635100  0.08859200  1
  O  O16  1  0.20593800  0.12958600  0.20834300  1
  O  O17  1  0.29406200  0.12958600  0.70834300  1
  O  O18  1  0.70593800  0.87041400  0.29165700  1
  O  O19  1  0.79406200  0.87041400  0.79165700  1
