# generated using pymatgen
data_Ca2TiSbO6
_symmetry_space_group_name_H-M   'P 1'
_cell_length_a   7.95551600
_cell_length_b   5.51761100
_cell_length_c   5.70249878
_cell_angle_alpha   89.91845457
_cell_angle_beta   90.00000000
_cell_angle_gamma   90.00000000
_symmetry_Int_Tables_number   1
_chemical_formula_structural   Ca2TiSbO6
_chemical_formula_sum   'Ca4 Ti2 Sb2 O12'
_cell_volume   250.31345411
_cell_formula_units_Z   2
loop_
 _symmetry_equiv_pos_site_id
 _symmetry_equiv_pos_as_xyz
  1  'x, y, z'
loop_
 _atom_site_type_symbol
 _atom_site_label
 _atom_site_symmetry_multiplicity
 _atom_site_fract_x
 _atom_site_fract_y
 _atom_site_fract_z
 _atom_site_occupancy
  Ca  Ca0  1  0.75000000  0.48459700  0.56135200  1
  Ca  Ca1  1  0.25000000  0.51540300  0.43864800  1
  Ca  Ca2  1  0.75000000  0.00869900  0.04555900  1
  Ca  Ca3  1  0.25000000  0.99130100  0.95444100  1
  Ti  Ti4  1  0.50000000  0.50000000  0.00000000  1
  Ti  Ti5  1  0.00000000  0.50000000  0.00000000  1
  Sb  Sb6  1  0.50000000  0.00000000  0.50000000  1
  Sb  Sb7  1  0.00000000  0.00000000  0.50000000  1
  O  O8  1  0.44955200  0.68785000  0.70851400  1
  O  O9  1  0.05064400  0.79324400  0.19189000  1
  O  O10  1  0.94955200  0.31215000  0.29148600  1
  O  O11  1  0.55064400  0.20675600  0.80811000  1
  O  O12  1  0.44935600  0.79324400  0.19189000  1
  O  O13  1  0.94935600  0.20675600  0.80811000  1
  O  O14  1  0.25000000  0.09525600  0.53164000  1
  O  O15  1  0.05044800  0.68785000  0.70851400  1
  O  O16  1  0.75000000  0.59098500  0.96798200  1
  O  O17  1  0.55044800  0.31215000  0.29148600  1
  O  O18  1  0.75000000  0.90474400  0.46836000  1
  O  O19  1  0.25000000  0.40901500  0.03201800  1
