# generated using pymatgen
data_Ca2SnSbO6
_symmetry_space_group_name_H-M   'P 1'
_cell_length_a   8.10462900
_cell_length_b   5.62206900
_cell_length_c   5.82373797
_cell_angle_alpha   89.96701212
_cell_angle_beta   90.00000000
_cell_angle_gamma   90.00000000
_symmetry_Int_Tables_number   1
_chemical_formula_structural   Ca2SnSbO6
_chemical_formula_sum   'Ca4 Sn2 Sb2 O12'
_cell_volume   265.35731532
_cell_formula_units_Z   2
loop_
 _symmetry_equiv_pos_site_id
 _symmetry_equiv_pos_as_xyz
  1  'x, y, z'
loop_
 _atom_site_type_symbol
 _atom_site_label
 _atom_site_symmetry_multiplicity
 _atom_site_fract_x
 _atom_site_fract_y
 _atom_site_fract_z
 _atom_site_occupancy
  Ca  Ca0  1  0.25000000  0.48573200  0.44361000  1
  Ca  Ca1  1  0.75000000  0.51426800  0.55639000  1
  Ca  Ca2  1  0.25000000  0.01232600  0.94902600  1
  Ca  Ca3  1  0.75000000  0.98767400  0.05097400  1
  Sn  Sn4  1  0.50000000  0.50000000  0.00000000  1
  Sn  Sn5  1  0.00000000  0.50000000  0.00000000  1
  Sb  Sb6  1  0.50000000  0.00000000  0.50000000  1
  Sb  Sb7  1  0.00000000  0.00000000  0.50000000  1
  O  O8  1  0.55665400  0.69178100  0.30062700  1
  O  O9  1  0.94347600  0.80326700  0.80350900  1
  O  O10  1  0.05665400  0.30821900  0.69937300  1
  O  O11  1  0.44347600  0.19673300  0.19649100  1
  O  O12  1  0.55652400  0.80326700  0.80350900  1
  O  O13  1  0.05652400  0.19673300  0.19649100  1
  O  O14  1  0.75000000  0.10023100  0.46180200  1
  O  O15  1  0.94334600  0.69178100  0.30062700  1
  O  O16  1  0.25000000  0.60944200  0.04530800  1
  O  O17  1  0.44334600  0.30821900  0.69937300  1
  O  O18  1  0.25000000  0.89976900  0.53819800  1
  O  O19  1  0.75000000  0.39055800  0.95469200  1
