# generated using pymatgen
data_Zn3Ge3(SbO6)2
_symmetry_space_group_name_H-M   'P 1'
_cell_length_a   10.96868112
_cell_length_b   10.96868112
_cell_length_c   10.96868112
_cell_angle_alpha   109.47122063
_cell_angle_beta   109.47122063
_cell_angle_gamma   109.47122063
_symmetry_Int_Tables_number   1
_chemical_formula_structural   Zn3Ge3(SbO6)2
_chemical_formula_sum   'Zn12 Ge12 Sb8 O48'
_cell_volume   1015.87750240
_cell_formula_units_Z   4
loop_
 _symmetry_equiv_pos_site_id
 _symmetry_equiv_pos_as_xyz
  1  'x, y, z'
loop_
 _atom_site_type_symbol
 _atom_site_label
 _atom_site_symmetry_multiplicity
 _atom_site_fract_x
 _atom_site_fract_y
 _atom_site_fract_z
 _atom_site_occupancy
  Zn  Zn0  1  0.25000000  0.87500000  0.62500000  1
  Zn  Zn1  1  0.75000000  0.62500000  0.87500000  1
  Zn  Zn2  1  0.62500000  0.87500000  0.75000000  1
  Zn  Zn3  1  0.87500000  0.62500000  0.25000000  1
  Zn  Zn4  1  0.62500000  0.25000000  0.87500000  1
  Zn  Zn5  1  0.87500000  0.75000000  0.62500000  1
  Zn  Zn6  1  0.75000000  0.12500000  0.37500000  1
  Zn  Zn7  1  0.25000000  0.37500000  0.12500000  1
  Zn  Zn8  1  0.37500000  0.12500000  0.25000000  1
  Zn  Zn9  1  0.12500000  0.37500000  0.75000000  1
  Zn  Zn10  1  0.37500000  0.75000000  0.12500000  1
  Zn  Zn11  1  0.12500000  0.25000000  0.37500000  1
  Ge  Ge12  1  0.12500000  0.75000000  0.87500000  1
  Ge  Ge13  1  0.87500000  0.25000000  0.12500000  1
  Ge  Ge14  1  0.62500000  0.37500000  0.25000000  1
  Ge  Ge15  1  0.75000000  0.87500000  0.12500000  1
  Ge  Ge16  1  0.87500000  0.12500000  0.75000000  1
  Ge  Ge17  1  0.25000000  0.62500000  0.37500000  1
  Ge  Ge18  1  0.75000000  0.37500000  0.62500000  1
  Ge  Ge19  1  0.25000000  0.12500000  0.87500000  1
  Ge  Ge20  1  0.12500000  0.87500000  0.25000000  1
  Ge  Ge21  1  0.37500000  0.62500000  0.75000000  1
  Ge  Ge22  1  0.62500000  0.75000000  0.37500000  1
  Ge  Ge23  1  0.37500000  0.25000000  0.62500000  1
  Sb  Sb24  1  0.50000000  0.50000000  0.50000000  1
  Sb  Sb25  1  0.50000000  0.00000000  0.50000000  1
  Sb  Sb26  1  0.00000000  0.50000000  0.50000000  1
  Sb  Sb27  1  0.50000000  0.50000000  0.00000000  1
  Sb  Sb28  1  0.00000000  0.00000000  0.50000000  1
  Sb  Sb29  1  0.00000000  0.50000000  0.00000000  1
  Sb  Sb30  1  0.50000000  0.00000000  0.00000000  1
  Sb  Sb31  1  0.00000000  0.00000000  0.00000000  1
  O  O32  1  0.41092600  0.80664900  0.77630200  1
  O  O33  1  0.86537600  0.39572300  0.08907400  1
  O  O34  1  0.10427700  0.96965300  0.69335100  1
  O  O35  1  0.53034700  0.63462400  0.72369800  1
  O  O36  1  0.69335100  0.08907400  0.72369800  1
  O  O37  1  0.63462400  0.72369800  0.53034700  1
  O  O38  1  0.63462400  0.41092600  0.10427700  1
  O  O39  1  0.72369800  0.53034700  0.63462400  1
  O  O40  1  0.80664900  0.53034700  0.39572300  1
  O  O41  1  0.96965300  0.77630200  0.86537600  1
  O  O42  1  0.77630200  0.86537600  0.96965300  1
  O  O43  1  0.72369800  0.69335100  0.08907400  1
  O  O44  1  0.41092600  0.10427700  0.63462400  1
  O  O45  1  0.39572300  0.80664900  0.53034700  1
  O  O46  1  0.08907400  0.72369800  0.69335100  1
  O  O47  1  0.10427700  0.63462400  0.41092600  1
  O  O48  1  0.53034700  0.39572300  0.80664900  1
  O  O49  1  0.08907400  0.86537600  0.39572300  1
  O  O50  1  0.96965300  0.69335100  0.10427700  1
  O  O51  1  0.19335100  0.46965300  0.60427700  1
  O  O52  1  0.69335100  0.10427700  0.96965300  1
  O  O53  1  0.77630200  0.41092600  0.80664900  1
  O  O54  1  0.39572300  0.08907400  0.86537600  1
  O  O55  1  0.86537600  0.96965300  0.77630200  1
  O  O56  1  0.58907400  0.19335100  0.22369800  1
  O  O57  1  0.13462400  0.60427700  0.91092600  1
  O  O58  1  0.89572300  0.03034700  0.30664900  1
  O  O59  1  0.46965300  0.36537600  0.27630200  1
  O  O60  1  0.30664900  0.91092600  0.27630200  1
  O  O61  1  0.36537600  0.27630200  0.46965300  1
  O  O62  1  0.36537600  0.58907400  0.89572300  1
  O  O63  1  0.27630200  0.46965300  0.36537600  1
  O  O64  1  0.13462400  0.03034700  0.22369800  1
  O  O65  1  0.60427700  0.91092600  0.13462400  1
  O  O66  1  0.22369800  0.58907400  0.19335100  1
  O  O67  1  0.19335100  0.22369800  0.58907400  1
  O  O68  1  0.30664900  0.89572300  0.03034700  1
  O  O69  1  0.03034700  0.30664900  0.89572300  1
  O  O70  1  0.91092600  0.13462400  0.60427700  1
  O  O71  1  0.46965300  0.60427700  0.19335100  1
  O  O72  1  0.89572300  0.36537600  0.58907400  1
  O  O73  1  0.91092600  0.27630200  0.30664900  1
  O  O74  1  0.60427700  0.19335100  0.46965300  1
  O  O75  1  0.58907400  0.89572300  0.36537600  1
  O  O76  1  0.27630200  0.30664900  0.91092600  1
  O  O77  1  0.22369800  0.13462400  0.03034700  1
  O  O78  1  0.03034700  0.22369800  0.13462400  1
  O  O79  1  0.80664900  0.77630200  0.41092600  1
