# generated using pymatgen
data_Ca3Sn2(GeO4)3
_symmetry_space_group_name_H-M   'P 1'
_cell_length_a   11.18640684
_cell_length_b   11.18640684
_cell_length_c   11.18640684
_cell_angle_alpha   109.47122063
_cell_angle_beta   109.47122063
_cell_angle_gamma   109.47122063
_symmetry_Int_Tables_number   1
_chemical_formula_structural   Ca3Sn2(GeO4)3
_chemical_formula_sum   'Ca12 Sn8 Ge12 O48'
_cell_volume   1077.58103599
_cell_formula_units_Z   4
loop_
 _symmetry_equiv_pos_site_id
 _symmetry_equiv_pos_as_xyz
  1  'x, y, z'
loop_
 _atom_site_type_symbol
 _atom_site_label
 _atom_site_symmetry_multiplicity
 _atom_site_fract_x
 _atom_site_fract_y
 _atom_site_fract_z
 _atom_site_occupancy
  Ca  Ca0  1  0.25000000  0.87500000  0.62500000  1
  Ca  Ca1  1  0.75000000  0.62500000  0.87500000  1
  Ca  Ca2  1  0.62500000  0.87500000  0.75000000  1
  Ca  Ca3  1  0.87500000  0.62500000  0.25000000  1
  Ca  Ca4  1  0.62500000  0.25000000  0.87500000  1
  Ca  Ca5  1  0.87500000  0.75000000  0.62500000  1
  Ca  Ca6  1  0.75000000  0.12500000  0.37500000  1
  Ca  Ca7  1  0.25000000  0.37500000  0.12500000  1
  Ca  Ca8  1  0.37500000  0.12500000  0.25000000  1
  Ca  Ca9  1  0.12500000  0.37500000  0.75000000  1
  Ca  Ca10  1  0.37500000  0.75000000  0.12500000  1
  Ca  Ca11  1  0.12500000  0.25000000  0.37500000  1
  Sn  Sn12  1  0.50000000  0.50000000  0.50000000  1
  Sn  Sn13  1  0.50000000  0.00000000  0.50000000  1
  Sn  Sn14  1  0.00000000  0.50000000  0.50000000  1
  Sn  Sn15  1  0.50000000  0.50000000  0.00000000  1
  Sn  Sn16  1  0.00000000  0.00000000  0.50000000  1
  Sn  Sn17  1  0.00000000  0.50000000  0.00000000  1
  Sn  Sn18  1  0.50000000  0.00000000  0.00000000  1
  Sn  Sn19  1  0.00000000  0.00000000  0.00000000  1
  Ge  Ge20  1  0.12500000  0.75000000  0.87500000  1
  Ge  Ge21  1  0.87500000  0.25000000  0.12500000  1
  Ge  Ge22  1  0.62500000  0.37500000  0.25000000  1
  Ge  Ge23  1  0.75000000  0.87500000  0.12500000  1
  Ge  Ge24  1  0.87500000  0.12500000  0.75000000  1
  Ge  Ge25  1  0.25000000  0.62500000  0.37500000  1
  Ge  Ge26  1  0.75000000  0.37500000  0.62500000  1
  Ge  Ge27  1  0.25000000  0.12500000  0.87500000  1
  Ge  Ge28  1  0.12500000  0.87500000  0.25000000  1
  Ge  Ge29  1  0.37500000  0.62500000  0.75000000  1
  Ge  Ge30  1  0.62500000  0.75000000  0.37500000  1
  Ge  Ge31  1  0.37500000  0.25000000  0.62500000  1
  O  O32  1  0.41294200  0.80837700  0.78806900  1
  O  O33  1  0.87512700  0.39543500  0.08705800  1
  O  O34  1  0.10456500  0.97969200  0.69162300  1
  O  O35  1  0.52030800  0.62487300  0.71193100  1
  O  O36  1  0.69162300  0.08705800  0.71193100  1
  O  O37  1  0.62487300  0.71193100  0.52030800  1
  O  O38  1  0.62487300  0.41294200  0.10456500  1
  O  O39  1  0.71193100  0.52030800  0.62487300  1
  O  O40  1  0.80837700  0.52030800  0.39543500  1
  O  O41  1  0.97969200  0.78806900  0.87512700  1
  O  O42  1  0.78806900  0.87512700  0.97969200  1
  O  O43  1  0.71193100  0.69162300  0.08705800  1
  O  O44  1  0.41294200  0.10456500  0.62487300  1
  O  O45  1  0.39543500  0.80837700  0.52030800  1
  O  O46  1  0.08705800  0.71193100  0.69162300  1
  O  O47  1  0.10456500  0.62487300  0.41294200  1
  O  O48  1  0.52030800  0.39543500  0.80837700  1
  O  O49  1  0.08705800  0.87512700  0.39543500  1
  O  O50  1  0.97969200  0.69162300  0.10456500  1
  O  O51  1  0.19162300  0.47969200  0.60456500  1
  O  O52  1  0.69162300  0.10456500  0.97969200  1
  O  O53  1  0.78806900  0.41294200  0.80837700  1
  O  O54  1  0.39543500  0.08705800  0.87512700  1
  O  O55  1  0.87512700  0.97969200  0.78806900  1
  O  O56  1  0.58705800  0.19162300  0.21193100  1
  O  O57  1  0.12487300  0.60456500  0.91294200  1
  O  O58  1  0.89543500  0.02030800  0.30837700  1
  O  O59  1  0.47969200  0.37512700  0.28806900  1
  O  O60  1  0.30837700  0.91294200  0.28806900  1
  O  O61  1  0.37512700  0.28806900  0.47969200  1
  O  O62  1  0.37512700  0.58705800  0.89543500  1
  O  O63  1  0.28806900  0.47969200  0.37512700  1
  O  O64  1  0.12487300  0.02030800  0.21193100  1
  O  O65  1  0.60456500  0.91294200  0.12487300  1
  O  O66  1  0.21193100  0.58705800  0.19162300  1
  O  O67  1  0.19162300  0.21193100  0.58705800  1
  O  O68  1  0.30837700  0.89543500  0.02030800  1
  O  O69  1  0.02030800  0.30837700  0.89543500  1
  O  O70  1  0.91294200  0.12487300  0.60456500  1
  O  O71  1  0.47969200  0.60456500  0.19162300  1
  O  O72  1  0.89543500  0.37512700  0.58705800  1
  O  O73  1  0.91294200  0.28806900  0.30837700  1
  O  O74  1  0.60456500  0.19162300  0.47969200  1
  O  O75  1  0.58705800  0.89543500  0.37512700  1
  O  O76  1  0.28806900  0.30837700  0.91294200  1
  O  O77  1  0.21193100  0.12487300  0.02030800  1
  O  O78  1  0.02030800  0.21193100  0.12487300  1
  O  O79  1  0.80837700  0.78806900  0.41294200  1
