# generated using pymatgen
data_Zn3Ge3(BiO6)2
_symmetry_space_group_name_H-M   'P 1'
_cell_length_a   11.08004333
_cell_length_b   11.08004333
_cell_length_c   11.08004333
_cell_angle_alpha   109.47122063
_cell_angle_beta   109.47122063
_cell_angle_gamma   109.47122063
_symmetry_Int_Tables_number   1
_chemical_formula_structural   Zn3Ge3(BiO6)2
_chemical_formula_sum   'Zn12 Ge12 Bi8 O48'
_cell_volume   1047.13454134
_cell_formula_units_Z   4
loop_
 _symmetry_equiv_pos_site_id
 _symmetry_equiv_pos_as_xyz
  1  'x, y, z'
loop_
 _atom_site_type_symbol
 _atom_site_label
 _atom_site_symmetry_multiplicity
 _atom_site_fract_x
 _atom_site_fract_y
 _atom_site_fract_z
 _atom_site_occupancy
  Zn  Zn0  1  0.25000000  0.87500000  0.62500000  1
  Zn  Zn1  1  0.75000000  0.62500000  0.87500000  1
  Zn  Zn2  1  0.62500000  0.87500000  0.75000000  1
  Zn  Zn3  1  0.87500000  0.62500000  0.25000000  1
  Zn  Zn4  1  0.62500000  0.25000000  0.87500000  1
  Zn  Zn5  1  0.87500000  0.75000000  0.62500000  1
  Zn  Zn6  1  0.75000000  0.12500000  0.37500000  1
  Zn  Zn7  1  0.25000000  0.37500000  0.12500000  1
  Zn  Zn8  1  0.37500000  0.12500000  0.25000000  1
  Zn  Zn9  1  0.12500000  0.37500000  0.75000000  1
  Zn  Zn10  1  0.37500000  0.75000000  0.12500000  1
  Zn  Zn11  1  0.12500000  0.25000000  0.37500000  1
  Ge  Ge12  1  0.12500000  0.75000000  0.87500000  1
  Ge  Ge13  1  0.87500000  0.25000000  0.12500000  1
  Ge  Ge14  1  0.62500000  0.37500000  0.25000000  1
  Ge  Ge15  1  0.75000000  0.87500000  0.12500000  1
  Ge  Ge16  1  0.87500000  0.12500000  0.75000000  1
  Ge  Ge17  1  0.25000000  0.62500000  0.37500000  1
  Ge  Ge18  1  0.75000000  0.37500000  0.62500000  1
  Ge  Ge19  1  0.25000000  0.12500000  0.87500000  1
  Ge  Ge20  1  0.12500000  0.87500000  0.25000000  1
  Ge  Ge21  1  0.37500000  0.62500000  0.75000000  1
  Ge  Ge22  1  0.62500000  0.75000000  0.37500000  1
  Ge  Ge23  1  0.37500000  0.25000000  0.62500000  1
  Bi  Bi24  1  0.50000000  0.50000000  0.50000000  1
  Bi  Bi25  1  0.50000000  0.00000000  0.50000000  1
  Bi  Bi26  1  0.00000000  0.50000000  0.50000000  1
  Bi  Bi27  1  0.50000000  0.50000000  0.00000000  1
  Bi  Bi28  1  0.00000000  0.00000000  0.50000000  1
  Bi  Bi29  1  0.00000000  0.50000000  0.00000000  1
  Bi  Bi30  1  0.50000000  0.00000000  0.00000000  1
  Bi  Bi31  1  0.00000000  0.00000000  0.00000000  1
  O  O32  1  0.40621400  0.80164700  0.77031600  1
  O  O33  1  0.86410200  0.39543200  0.09378600  1
  O  O34  1  0.10456800  0.96867000  0.69835300  1
  O  O35  1  0.53133000  0.63589800  0.72968400  1
  O  O36  1  0.69835300  0.09378600  0.72968400  1
  O  O37  1  0.63589800  0.72968400  0.53133000  1
  O  O38  1  0.63589800  0.40621400  0.10456800  1
  O  O39  1  0.72968400  0.53133000  0.63589800  1
  O  O40  1  0.80164700  0.53133000  0.39543200  1
  O  O41  1  0.96867000  0.77031600  0.86410200  1
  O  O42  1  0.77031600  0.86410200  0.96867000  1
  O  O43  1  0.72968400  0.69835300  0.09378600  1
  O  O44  1  0.40621400  0.10456800  0.63589800  1
  O  O45  1  0.39543200  0.80164700  0.53133000  1
  O  O46  1  0.09378600  0.72968400  0.69835300  1
  O  O47  1  0.10456800  0.63589800  0.40621400  1
  O  O48  1  0.53133000  0.39543200  0.80164700  1
  O  O49  1  0.09378600  0.86410200  0.39543200  1
  O  O50  1  0.96867000  0.69835300  0.10456800  1
  O  O51  1  0.19835300  0.46867000  0.60456800  1
  O  O52  1  0.69835300  0.10456800  0.96867000  1
  O  O53  1  0.77031600  0.40621400  0.80164700  1
  O  O54  1  0.39543200  0.09378600  0.86410200  1
  O  O55  1  0.86410200  0.96867000  0.77031600  1
  O  O56  1  0.59378600  0.19835300  0.22968400  1
  O  O57  1  0.13589800  0.60456800  0.90621400  1
  O  O58  1  0.89543200  0.03133000  0.30164700  1
  O  O59  1  0.46867000  0.36410200  0.27031600  1
  O  O60  1  0.30164700  0.90621400  0.27031600  1
  O  O61  1  0.36410200  0.27031600  0.46867000  1
  O  O62  1  0.36410200  0.59378600  0.89543200  1
  O  O63  1  0.27031600  0.46867000  0.36410200  1
  O  O64  1  0.13589800  0.03133000  0.22968400  1
  O  O65  1  0.60456800  0.90621400  0.13589800  1
  O  O66  1  0.22968400  0.59378600  0.19835300  1
  O  O67  1  0.19835300  0.22968400  0.59378600  1
  O  O68  1  0.30164700  0.89543200  0.03133000  1
  O  O69  1  0.03133000  0.30164700  0.89543200  1
  O  O70  1  0.90621400  0.13589800  0.60456800  1
  O  O71  1  0.46867000  0.60456800  0.19835300  1
  O  O72  1  0.89543200  0.36410200  0.59378600  1
  O  O73  1  0.90621400  0.27031600  0.30164700  1
  O  O74  1  0.60456800  0.19835300  0.46867000  1
  O  O75  1  0.59378600  0.89543200  0.36410200  1
  O  O76  1  0.27031600  0.30164700  0.90621400  1
  O  O77  1  0.22968400  0.13589800  0.03133000  1
  O  O78  1  0.03133000  0.22968400  0.13589800  1
  O  O79  1  0.80164700  0.77031600  0.40621400  1
