# generated using pymatgen
data_TaZn2MoO6
_symmetry_space_group_name_H-M   'P 1'
_cell_length_a   7.85846800
_cell_length_b   5.39094900
_cell_length_c   5.40205421
_cell_angle_alpha   88.31632659
_cell_angle_beta   90.00000000
_cell_angle_gamma   90.00000000
_symmetry_Int_Tables_number   1
_chemical_formula_structural   TaZn2MoO6
_chemical_formula_sum   'Ta2 Zn4 Mo2 O12'
_cell_volume   228.75706375
_cell_formula_units_Z   2
loop_
 _symmetry_equiv_pos_site_id
 _symmetry_equiv_pos_as_xyz
  1  'x, y, z'
loop_
 _atom_site_type_symbol
 _atom_site_label
 _atom_site_symmetry_multiplicity
 _atom_site_fract_x
 _atom_site_fract_y
 _atom_site_fract_z
 _atom_site_occupancy
  Ta  Ta0  1  0.00000000  0.50000000  0.00000000  1
  Ta  Ta1  1  0.50000000  0.50000000  0.00000000  1
  Zn  Zn2  1  0.25000000  0.98460500  0.97988700  1
  Zn  Zn3  1  0.25000000  0.46899800  0.50585100  1
  Zn  Zn4  1  0.75000000  0.53100200  0.49414900  1
  Zn  Zn5  1  0.75000000  0.01539500  0.02011300  1
  Mo  Mo6  1  0.00000000  0.00000000  0.50000000  1
  Mo  Mo7  1  0.50000000  0.00000000  0.50000000  1
  O  O8  1  0.56743100  0.81941300  0.84705900  1
  O  O9  1  0.43391700  0.66108600  0.31261300  1
  O  O10  1  0.43256900  0.18058700  0.15294100  1
  O  O11  1  0.93391700  0.33891400  0.68738700  1
  O  O12  1  0.75000000  0.42396400  0.12148100  1
  O  O13  1  0.56608300  0.33891400  0.68738700  1
  O  O14  1  0.06608300  0.66108600  0.31261300  1
  O  O15  1  0.93256900  0.81941300  0.84705900  1
  O  O16  1  0.25000000  0.10330100  0.62291000  1
  O  O17  1  0.06743100  0.18058700  0.15294100  1
  O  O18  1  0.75000000  0.89669900  0.37709000  1
  O  O19  1  0.25000000  0.57603600  0.87851900  1
