# generated using pymatgen
data_Ca2TaCoO6
_symmetry_space_group_name_H-M   'P 1'
_cell_length_a   7.72227700
_cell_length_b   5.47816600
_cell_length_c   5.65828561
_cell_angle_alpha   89.41136548
_cell_angle_beta   90.00000000
_cell_angle_gamma   90.00000000
_symmetry_Int_Tables_number   1
_chemical_formula_structural   Ca2TaCoO6
_chemical_formula_sum   'Ca4 Ta2 Co2 O12'
_cell_volume   239.35500284
_cell_formula_units_Z   2
loop_
 _symmetry_equiv_pos_site_id
 _symmetry_equiv_pos_as_xyz
  1  'x, y, z'
loop_
 _atom_site_type_symbol
 _atom_site_label
 _atom_site_symmetry_multiplicity
 _atom_site_fract_x
 _atom_site_fract_y
 _atom_site_fract_z
 _atom_site_occupancy
  Ca  Ca0  1  0.75000000  0.98179200  0.04469400  1
  Ca  Ca1  1  0.75000000  0.51232900  0.56873400  1
  Ca  Ca2  1  0.25000000  0.48767100  0.43126600  1
  Ca  Ca3  1  0.25000000  0.01820800  0.95530600  1
  Ta  Ta4  1  0.00000000  0.00000000  0.50000000  1
  Ta  Ta5  1  0.50000000  0.00000000  0.50000000  1
  Co  Co6  1  0.00000000  0.50000000  0.00000000  1
  Co  Co7  1  0.50000000  0.50000000  0.00000000  1
  O  O8  1  0.45123000  0.19737100  0.21133700  1
  O  O9  1  0.54440700  0.70991300  0.30234600  1
  O  O10  1  0.54877000  0.80262900  0.78866300  1
  O  O11  1  0.04440700  0.29008700  0.69765400  1
  O  O12  1  0.25000000  0.90498900  0.52959300  1
  O  O13  1  0.45559300  0.29008700  0.69765400  1
  O  O14  1  0.95559300  0.70991300  0.30234600  1
  O  O15  1  0.04877000  0.19737100  0.21133700  1
  O  O16  1  0.75000000  0.42153000  0.98473400  1
  O  O17  1  0.95123000  0.80262900  0.78866300  1
  O  O18  1  0.25000000  0.57847000  0.01526600  1
  O  O19  1  0.75000000  0.09501100  0.47040700  1
