# generated using pymatgen
data_Al2Cr3(SiO4)3
_symmetry_space_group_name_H-M   'P 1'
_cell_length_a   10.17751149
_cell_length_b   10.17751149
_cell_length_c   10.17751149
_cell_angle_alpha   109.47122063
_cell_angle_beta   109.47122063
_cell_angle_gamma   109.47122063
_symmetry_Int_Tables_number   1
_chemical_formula_structural   Al2Cr3(SiO4)3
_chemical_formula_sum   'Al8 Cr12 Si12 O48'
_cell_volume   811.52688790
_cell_formula_units_Z   4
loop_
 _symmetry_equiv_pos_site_id
 _symmetry_equiv_pos_as_xyz
  1  'x, y, z'
loop_
 _atom_site_type_symbol
 _atom_site_label
 _atom_site_symmetry_multiplicity
 _atom_site_fract_x
 _atom_site_fract_y
 _atom_site_fract_z
 _atom_site_occupancy
  Al  Al0  1  0.00000000  0.00000000  0.50000000  1
  Al  Al1  1  0.00000000  0.00000000  0.00000000  1
  Al  Al2  1  0.50000000  0.00000000  0.00000000  1
  Al  Al3  1  0.00000000  0.50000000  0.00000000  1
  Al  Al4  1  0.50000000  0.50000000  0.00000000  1
  Al  Al5  1  0.00000000  0.50000000  0.50000000  1
  Al  Al6  1  0.50000000  0.00000000  0.50000000  1
  Al  Al7  1  0.50000000  0.50000000  0.50000000  1
  Cr  Cr8  1  0.87500000  0.62500000  0.25000000  1
  Cr  Cr9  1  0.62500000  0.25000000  0.87500000  1
  Cr  Cr10  1  0.87500000  0.75000000  0.62500000  1
  Cr  Cr11  1  0.75000000  0.62500000  0.87500000  1
  Cr  Cr12  1  0.25000000  0.87500000  0.62500000  1
  Cr  Cr13  1  0.62500000  0.87500000  0.75000000  1
  Cr  Cr14  1  0.12500000  0.37500000  0.75000000  1
  Cr  Cr15  1  0.37500000  0.75000000  0.12500000  1
  Cr  Cr16  1  0.12500000  0.25000000  0.37500000  1
  Cr  Cr17  1  0.25000000  0.37500000  0.12500000  1
  Cr  Cr18  1  0.75000000  0.12500000  0.37500000  1
  Cr  Cr19  1  0.37500000  0.12500000  0.25000000  1
  Si  Si20  1  0.12500000  0.87500000  0.25000000  1
  Si  Si21  1  0.25000000  0.12500000  0.87500000  1
  Si  Si22  1  0.75000000  0.37500000  0.62500000  1
  Si  Si23  1  0.62500000  0.37500000  0.25000000  1
  Si  Si24  1  0.62500000  0.75000000  0.37500000  1
  Si  Si25  1  0.37500000  0.62500000  0.75000000  1
  Si  Si26  1  0.12500000  0.75000000  0.87500000  1
  Si  Si27  1  0.75000000  0.87500000  0.12500000  1
  Si  Si28  1  0.87500000  0.25000000  0.12500000  1
  Si  Si29  1  0.37500000  0.25000000  0.62500000  1
  Si  Si30  1  0.25000000  0.62500000  0.37500000  1
  Si  Si31  1  0.87500000  0.12500000  0.75000000  1
  O  O32  1  0.48822800  0.37920800  0.30235500  1
  O  O33  1  0.31412600  0.89098000  0.01177200  1
  O  O34  1  0.60902000  0.92314700  0.12079200  1
  O  O35  1  0.57685300  0.18587400  0.19764500  1
  O  O36  1  0.12079200  0.01177200  0.19764500  1
  O  O37  1  0.18587400  0.19764500  0.57685300  1
  O  O38  1  0.18587400  0.48822800  0.60902000  1
  O  O39  1  0.19764500  0.57685300  0.18587400  1
  O  O40  1  0.37920800  0.57685300  0.89098000  1
  O  O41  1  0.92314700  0.30235500  0.31412600  1
  O  O42  1  0.30235500  0.31412600  0.92314700  1
  O  O43  1  0.19764500  0.12079200  0.01177200  1
  O  O44  1  0.48822800  0.60902000  0.18587400  1
  O  O45  1  0.89098000  0.37920800  0.57685300  1
  O  O46  1  0.01177200  0.19764500  0.12079200  1
  O  O47  1  0.60902000  0.18587400  0.48822800  1
  O  O48  1  0.57685300  0.89098000  0.37920800  1
  O  O49  1  0.01177200  0.31412600  0.89098000  1
  O  O50  1  0.92314700  0.12079200  0.60902000  1
  O  O51  1  0.62079200  0.42314700  0.10902000  1
  O  O52  1  0.37920800  0.30235500  0.48822800  1
  O  O53  1  0.30235500  0.48822800  0.37920800  1
  O  O54  1  0.89098000  0.01177200  0.31412600  1
  O  O55  1  0.31412600  0.92314700  0.30235500  1
  O  O56  1  0.51177200  0.62079200  0.69764500  1
  O  O57  1  0.68587400  0.10902000  0.98822800  1
  O  O58  1  0.39098000  0.07685300  0.87920800  1
  O  O59  1  0.42314700  0.81412600  0.80235500  1
  O  O60  1  0.87920800  0.98822800  0.80235500  1
  O  O61  1  0.81412600  0.80235500  0.42314700  1
  O  O62  1  0.81412600  0.51177200  0.39098000  1
  O  O63  1  0.80235500  0.42314700  0.81412600  1
  O  O64  1  0.68587400  0.07685300  0.69764500  1
  O  O65  1  0.10902000  0.98822800  0.68587400  1
  O  O66  1  0.69764500  0.51177200  0.62079200  1
  O  O67  1  0.62079200  0.69764500  0.51177200  1
  O  O68  1  0.87920800  0.39098000  0.07685300  1
  O  O69  1  0.07685300  0.87920800  0.39098000  1
  O  O70  1  0.98822800  0.68587400  0.10902000  1
  O  O71  1  0.42314700  0.10902000  0.62079200  1
  O  O72  1  0.39098000  0.81412600  0.51177200  1
  O  O73  1  0.98822800  0.80235500  0.87920800  1
  O  O74  1  0.10902000  0.62079200  0.42314700  1
  O  O75  1  0.51177200  0.39098000  0.81412600  1
  O  O76  1  0.80235500  0.87920800  0.98822800  1
  O  O77  1  0.69764500  0.68587400  0.07685300  1
  O  O78  1  0.07685300  0.69764500  0.68587400  1
  O  O79  1  0.12079200  0.60902000  0.92314700  1
