# generated using pymatgen
data_Ti7(Fe3O8)3
_symmetry_space_group_name_H-M   'P 1'
_cell_length_a   7.57007100
_cell_length_b   7.61301657
_cell_length_c   8.94683151
_cell_angle_alpha   112.97587299
_cell_angle_beta   112.98143579
_cell_angle_gamma   85.69468889
_symmetry_Int_Tables_number   1
_chemical_formula_structural   Ti7(Fe3O8)3
_chemical_formula_sum   'Ti7 Fe9 O24'
_cell_volume   435.21145572
_cell_formula_units_Z   1
loop_
 _symmetry_equiv_pos_site_id
 _symmetry_equiv_pos_as_xyz
  1  'x, y, z'
loop_
 _atom_site_type_symbol
 _atom_site_label
 _atom_site_symmetry_multiplicity
 _atom_site_fract_x
 _atom_site_fract_y
 _atom_site_fract_z
 _atom_site_occupancy
  Ti  Ti0  1  0.71416500  0.71548800  0.14332500  1
  Ti  Ti1  1  0.53211200  0.02900000  0.35879900  1
  Ti  Ti2  1  0.96828200  0.47008400  0.64995900  1
  Ti  Ti3  1  0.77679400  0.78181800  0.85196300  1
  Ti  Ti4  1  0.21954600  0.21996900  0.14332000  1
  Ti  Ti5  1  0.03095400  0.53096300  0.35355900  1
  Ti  Ti6  1  0.28019700  0.28032300  0.85179700  1
  Fe  Fe7  1  0.28354500  0.78114600  0.85055900  1
  Fe  Fe8  1  0.21803000  0.71628200  0.14535800  1
  Fe  Fe9  1  0.46910200  0.47110600  0.64510900  1
  Fe  Fe10  1  0.77859100  0.27905500  0.85258500  1
  Fe  Fe11  1  0.71623400  0.21827000  0.14662200  1
  Fe  Fe12  1  0.47364700  0.97194600  0.64659300  1
  Fe  Fe13  1  0.03311600  0.03306300  0.35662000  1
  Fe  Fe14  1  0.97042700  0.96705300  0.64714800  1
  Fe  Fe15  1  0.52805100  0.53391900  0.35451100  1
  O  O16  1  0.27154700  0.46215900  0.75721200  1
  O  O17  1  0.95364300  0.30224000  0.41139200  1
  O  O18  1  0.81044800  0.93705800  0.09315200  1
  O  O19  1  0.51751800  0.21317400  0.25849200  1
  O  O20  1  0.78960600  0.95928900  0.39020400  1
  O  O21  1  0.46513200  0.79700400  0.10714500  1
  O  O22  1  0.77890000  0.96294300  0.75909900  1
  O  O23  1  0.45499700  0.81181200  0.40673400  1
  O  O24  1  0.03266500  0.70125000  0.88907300  1
  O  O25  1  0.29926300  0.43208300  0.08241400  1
  O  O26  1  0.71920600  0.54461700  0.60610600  1
  O  O27  1  0.02422200  0.72423800  0.26193800  1
  O  O28  1  0.97460700  0.28746700  0.74421200  1
  O  O29  1  0.28121000  0.45796100  0.39334200  1
  O  O30  1  0.70032500  0.56417600  0.91771600  1
  O  O31  1  0.96772000  0.29896700  0.10699500  1
  O  O32  1  0.55131200  0.19017000  0.58540100  1
  O  O33  1  0.21947600  0.04055300  0.25040400  1
  O  O34  1  0.53330900  0.20403700  0.89622200  1
  O  O35  1  0.20223600  0.04919400  0.59671200  1
  O  O36  1  0.48271000  0.78158200  0.74812000  1
  O  O37  1  0.19883500  0.06423800  0.91582000  1
  O  O38  1  0.04867100  0.67932000  0.58121600  1
  O  O39  1  0.72964800  0.53498500  0.24305200  1
