# generated using pymatgen
data_CaSb2O5
_symmetry_space_group_name_H-M   'P 1'
_cell_length_a   3.87834200
_cell_length_b   5.16183300
_cell_length_c   13.45351900
_cell_angle_alpha   90.00000000
_cell_angle_beta   90.00000000
_cell_angle_gamma   90.00000000
_symmetry_Int_Tables_number   1
_chemical_formula_structural   CaSb2O5
_chemical_formula_sum   'Ca2 Sb4 O10'
_cell_volume   269.33075565
_cell_formula_units_Z   2
loop_
 _symmetry_equiv_pos_site_id
 _symmetry_equiv_pos_as_xyz
  1  'x, y, z'
loop_
 _atom_site_type_symbol
 _atom_site_label
 _atom_site_symmetry_multiplicity
 _atom_site_fract_x
 _atom_site_fract_y
 _atom_site_fract_z
 _atom_site_occupancy
  Ca  Ca0  1  0.50000000  0.60527500  0.00000000  1
  Ca  Ca1  1  0.00000000  0.39472500  0.50000000  1
  Sb  Sb2  1  0.00000000  0.07686100  0.86021100  1
  Sb  Sb3  1  0.50000000  0.92313900  0.63978900  1
  Sb  Sb4  1  0.50000000  0.92313900  0.36021100  1
  Sb  Sb5  1  0.00000000  0.07686100  0.13978900  1
  O  O6  1  0.50000000  0.07808700  0.50000000  1
  O  O7  1  0.00000000  0.92191300  0.00000000  1
  O  O8  1  0.50000000  0.95065300  0.83944300  1
  O  O9  1  0.00000000  0.04934700  0.66055700  1
  O  O10  1  0.50000000  0.95065300  0.16055700  1
  O  O11  1  0.00000000  0.04934700  0.33944300  1
  O  O12  1  0.00000000  0.43665900  0.10549500  1
  O  O13  1  0.50000000  0.56334100  0.39450500  1
  O  O14  1  0.50000000  0.56334100  0.60549500  1
  O  O15  1  0.00000000  0.43665900  0.89450500  1
