# generated using pymatgen
data_Y(WO2)2
_symmetry_space_group_name_H-M   'P 1'
_cell_length_a   6.50498343
_cell_length_b   6.50498343
_cell_length_c   6.50498403
_cell_angle_alpha   61.94566686
_cell_angle_beta   61.94566686
_cell_angle_gamma   61.94566693
_symmetry_Int_Tables_number   1
_chemical_formula_structural   Y(WO2)2
_chemical_formula_sum   'Y2 W4 O8'
_cell_volume   203.11007136
_cell_formula_units_Z   2
loop_
 _symmetry_equiv_pos_site_id
 _symmetry_equiv_pos_as_xyz
  1  'x, y, z'
loop_
 _atom_site_type_symbol
 _atom_site_label
 _atom_site_symmetry_multiplicity
 _atom_site_fract_x
 _atom_site_fract_y
 _atom_site_fract_z
 _atom_site_occupancy
  Y  Y0  1  0.62063000  0.62063000  0.62063000  1
  Y  Y1  1  0.37937000  0.37937000  0.37937000  1
  W  W2  1  0.50000000  0.00000000  0.00000000  1
  W  W3  1  0.00000000  0.00000000  0.00000000  1
  W  W4  1  0.00000000  0.50000000  0.00000000  1
  W  W5  1  0.00000000  0.00000000  0.50000000  1
  O  O6  1  0.76359700  0.21203200  0.76359700  1
  O  O7  1  0.23640300  0.23640300  0.78796800  1
  O  O8  1  0.78796800  0.23640300  0.23640300  1
  O  O9  1  0.23725300  0.23725300  0.23725300  1
  O  O10  1  0.76359700  0.76359700  0.21203200  1
  O  O11  1  0.23640300  0.78796800  0.23640300  1
  O  O12  1  0.21203200  0.76359700  0.76359700  1
  O  O13  1  0.76274700  0.76274700  0.76274700  1
