# generated using pymatgen
data_YTi2O4
_symmetry_space_group_name_H-M   'P 1'
_cell_length_a   6.47378743
_cell_length_b   6.47378743
_cell_length_c   6.47378743
_cell_angle_alpha   126.53493663
_cell_angle_beta   126.53493663
_cell_angle_gamma   79.01070014
_symmetry_Int_Tables_number   1
_chemical_formula_structural   YTi2O4
_chemical_formula_sum   'Y2 Ti4 O8'
_cell_volume   169.43274800
_cell_formula_units_Z   2
loop_
 _symmetry_equiv_pos_site_id
 _symmetry_equiv_pos_as_xyz
  1  'x, y, z'
loop_
 _atom_site_type_symbol
 _atom_site_label
 _atom_site_symmetry_multiplicity
 _atom_site_fract_x
 _atom_site_fract_y
 _atom_site_fract_z
 _atom_site_occupancy
  Y  Y0  1  0.00000000  0.00000000  0.00000000  1
  Y  Y1  1  0.75000000  0.25000000  0.50000000  1
  Ti  Ti2  1  0.37500000  0.12500000  0.75000000  1
  Ti  Ti3  1  0.37500000  0.62500000  0.25000000  1
  Ti  Ti4  1  0.87500000  0.62500000  0.25000000  1
  Ti  Ti5  1  0.37500000  0.62500000  0.75000000  1
  O  O6  1  0.14458800  0.61024500  0.86121900  1
  O  O7  1  0.74902500  0.28336900  0.13878100  1
  O  O8  1  0.60541200  0.63975500  0.63878100  1
  O  O9  1  0.00097500  0.96663100  0.36121900  1
  O  O10  1  0.36024500  0.99902500  0.96565600  1
  O  O11  1  0.03336900  0.39458800  0.03434400  1
  O  O12  1  0.71663100  0.85541200  0.46565600  1
  O  O13  1  0.38975500  0.25097500  0.53434400  1
