# generated using pymatgen
data_Ta2O5
_symmetry_space_group_name_H-M   'P 1'
_cell_length_a   3.88433400
_cell_length_b   3.92929500
_cell_length_c   13.04477100
_cell_angle_alpha   90.00000000
_cell_angle_beta   90.00000000
_cell_angle_gamma   90.00000000
_symmetry_Int_Tables_number   1
_chemical_formula_structural   Ta2O5
_chemical_formula_sum   'Ta4 O10'
_cell_volume   199.09835022
_cell_formula_units_Z   2
loop_
 _symmetry_equiv_pos_site_id
 _symmetry_equiv_pos_as_xyz
  1  'x, y, z'
loop_
 _atom_site_type_symbol
 _atom_site_label
 _atom_site_symmetry_multiplicity
 _atom_site_fract_x
 _atom_site_fract_y
 _atom_site_fract_z
 _atom_site_occupancy
  Ta  Ta0  1  0.00000000  0.04349400  0.14657500  1
  Ta  Ta1  1  0.50000000  0.95650600  0.35342500  1
  Ta  Ta2  1  0.50000000  0.95650600  0.64657500  1
  Ta  Ta3  1  0.00000000  0.04349400  0.85342500  1
  O  O4  1  0.50000000  0.00827300  0.18414100  1
  O  O5  1  0.00000000  0.99172700  0.31585900  1
  O  O6  1  0.00000000  0.99172700  0.68414100  1
  O  O7  1  0.50000000  0.00827300  0.81585900  1
  O  O8  1  0.00000000  0.51699700  0.85174200  1
  O  O9  1  0.50000000  0.48300300  0.64825800  1
  O  O10  1  0.50000000  0.48300300  0.35174200  1
  O  O11  1  0.50000000  0.98670900  0.50000000  1
  O  O12  1  0.00000000  0.01329100  0.00000000  1
  O  O13  1  0.00000000  0.51699700  0.14825800  1
