# generated using pymatgen
data_Mg3Cr2(GeO4)3
_symmetry_space_group_name_H-M   'P 1'
_cell_length_a   10.44261919
_cell_length_b   10.44261919
_cell_length_c   10.44261919
_cell_angle_alpha   109.47122063
_cell_angle_beta   109.47122063
_cell_angle_gamma   109.47122063
_symmetry_Int_Tables_number   1
_chemical_formula_structural   Mg3Cr2(GeO4)3
_chemical_formula_sum   'Mg12 Cr8 Ge12 O48'
_cell_volume   876.61002285
_cell_formula_units_Z   4
loop_
 _symmetry_equiv_pos_site_id
 _symmetry_equiv_pos_as_xyz
  1  'x, y, z'
loop_
 _atom_site_type_symbol
 _atom_site_label
 _atom_site_symmetry_multiplicity
 _atom_site_fract_x
 _atom_site_fract_y
 _atom_site_fract_z
 _atom_site_occupancy
  Mg  Mg0  1  0.25000000  0.87500000  0.62500000  1
  Mg  Mg1  1  0.75000000  0.62500000  0.87500000  1
  Mg  Mg2  1  0.62500000  0.87500000  0.75000000  1
  Mg  Mg3  1  0.87500000  0.62500000  0.25000000  1
  Mg  Mg4  1  0.62500000  0.25000000  0.87500000  1
  Mg  Mg5  1  0.87500000  0.75000000  0.62500000  1
  Mg  Mg6  1  0.75000000  0.12500000  0.37500000  1
  Mg  Mg7  1  0.25000000  0.37500000  0.12500000  1
  Mg  Mg8  1  0.37500000  0.12500000  0.25000000  1
  Mg  Mg9  1  0.12500000  0.37500000  0.75000000  1
  Mg  Mg10  1  0.37500000  0.75000000  0.12500000  1
  Mg  Mg11  1  0.12500000  0.25000000  0.37500000  1
  Cr  Cr12  1  0.50000000  0.50000000  0.50000000  1
  Cr  Cr13  1  0.50000000  0.00000000  0.50000000  1
  Cr  Cr14  1  0.00000000  0.50000000  0.50000000  1
  Cr  Cr15  1  0.50000000  0.50000000  0.00000000  1
  Cr  Cr16  1  0.00000000  0.00000000  0.50000000  1
  Cr  Cr17  1  0.00000000  0.50000000  0.00000000  1
  Cr  Cr18  1  0.50000000  0.00000000  0.00000000  1
  Cr  Cr19  1  0.00000000  0.00000000  0.00000000  1
  Ge  Ge20  1  0.12500000  0.75000000  0.87500000  1
  Ge  Ge21  1  0.87500000  0.25000000  0.12500000  1
  Ge  Ge22  1  0.62500000  0.37500000  0.25000000  1
  Ge  Ge23  1  0.75000000  0.87500000  0.12500000  1
  Ge  Ge24  1  0.87500000  0.12500000  0.75000000  1
  Ge  Ge25  1  0.25000000  0.62500000  0.37500000  1
  Ge  Ge26  1  0.75000000  0.37500000  0.62500000  1
  Ge  Ge27  1  0.25000000  0.12500000  0.87500000  1
  Ge  Ge28  1  0.12500000  0.87500000  0.25000000  1
  Ge  Ge29  1  0.37500000  0.62500000  0.75000000  1
  Ge  Ge30  1  0.62500000  0.75000000  0.37500000  1
  Ge  Ge31  1  0.37500000  0.25000000  0.62500000  1
  O  O32  1  0.41818800  0.81824500  0.79071600  1
  O  O33  1  0.87252700  0.40005600  0.08181200  1
  O  O34  1  0.09994400  0.97247100  0.68175500  1
  O  O35  1  0.52752900  0.62747300  0.70928400  1
  O  O36  1  0.68175500  0.08181200  0.70928400  1
  O  O37  1  0.62747300  0.70928400  0.52752900  1
  O  O38  1  0.62747300  0.41818800  0.09994400  1
  O  O39  1  0.70928400  0.52752900  0.62747300  1
  O  O40  1  0.81824500  0.52752900  0.40005600  1
  O  O41  1  0.97247100  0.79071600  0.87252700  1
  O  O42  1  0.79071600  0.87252700  0.97247100  1
  O  O43  1  0.70928400  0.68175500  0.08181200  1
  O  O44  1  0.41818800  0.09994400  0.62747300  1
  O  O45  1  0.40005600  0.81824500  0.52752900  1
  O  O46  1  0.08181200  0.70928400  0.68175500  1
  O  O47  1  0.09994400  0.62747300  0.41818800  1
  O  O48  1  0.52752900  0.40005600  0.81824500  1
  O  O49  1  0.08181200  0.87252700  0.40005600  1
  O  O50  1  0.97247100  0.68175500  0.09994400  1
  O  O51  1  0.18175500  0.47247100  0.59994400  1
  O  O52  1  0.68175500  0.09994400  0.97247100  1
  O  O53  1  0.79071600  0.41818800  0.81824500  1
  O  O54  1  0.40005600  0.08181200  0.87252700  1
  O  O55  1  0.87252700  0.97247100  0.79071600  1
  O  O56  1  0.58181200  0.18175500  0.20928400  1
  O  O57  1  0.12747300  0.59994400  0.91818800  1
  O  O58  1  0.90005600  0.02752900  0.31824500  1
  O  O59  1  0.47247100  0.37252700  0.29071600  1
  O  O60  1  0.31824500  0.91818800  0.29071600  1
  O  O61  1  0.37252700  0.29071600  0.47247100  1
  O  O62  1  0.37252700  0.58181200  0.90005600  1
  O  O63  1  0.29071600  0.47247100  0.37252700  1
  O  O64  1  0.12747300  0.02752900  0.20928400  1
  O  O65  1  0.59994400  0.91818800  0.12747300  1
  O  O66  1  0.20928400  0.58181200  0.18175500  1
  O  O67  1  0.18175500  0.20928400  0.58181200  1
  O  O68  1  0.31824500  0.90005600  0.02752900  1
  O  O69  1  0.02752900  0.31824500  0.90005600  1
  O  O70  1  0.91818800  0.12747300  0.59994400  1
  O  O71  1  0.47247100  0.59994400  0.18175500  1
  O  O72  1  0.90005600  0.37252700  0.58181200  1
  O  O73  1  0.91818800  0.29071600  0.31824500  1
  O  O74  1  0.59994400  0.18175500  0.47247100  1
  O  O75  1  0.58181200  0.90005600  0.37252700  1
  O  O76  1  0.29071600  0.31824500  0.91818800  1
  O  O77  1  0.20928400  0.12747300  0.02752900  1
  O  O78  1  0.02752900  0.20928400  0.12747300  1
  O  O79  1  0.81824500  0.79071600  0.41818800  1
