# generated using pymatgen
data_Zn3Ge3(MoO6)2
_symmetry_space_group_name_H-M   'P 1'
_cell_length_a   10.74945719
_cell_length_b   10.74945719
_cell_length_c   10.74945719
_cell_angle_alpha   109.47122063
_cell_angle_beta   109.47122063
_cell_angle_gamma   109.47122063
_symmetry_Int_Tables_number   1
_chemical_formula_structural   Zn3Ge3(MoO6)2
_chemical_formula_sum   'Zn12 Ge12 Mo8 O48'
_cell_volume   956.17572130
_cell_formula_units_Z   4
loop_
 _symmetry_equiv_pos_site_id
 _symmetry_equiv_pos_as_xyz
  1  'x, y, z'
loop_
 _atom_site_type_symbol
 _atom_site_label
 _atom_site_symmetry_multiplicity
 _atom_site_fract_x
 _atom_site_fract_y
 _atom_site_fract_z
 _atom_site_occupancy
  Zn  Zn0  1  0.25000000  0.87500000  0.62500000  1
  Zn  Zn1  1  0.75000000  0.62500000  0.87500000  1
  Zn  Zn2  1  0.62500000  0.87500000  0.75000000  1
  Zn  Zn3  1  0.87500000  0.62500000  0.25000000  1
  Zn  Zn4  1  0.62500000  0.25000000  0.87500000  1
  Zn  Zn5  1  0.87500000  0.75000000  0.62500000  1
  Zn  Zn6  1  0.75000000  0.12500000  0.37500000  1
  Zn  Zn7  1  0.25000000  0.37500000  0.12500000  1
  Zn  Zn8  1  0.37500000  0.12500000  0.25000000  1
  Zn  Zn9  1  0.12500000  0.37500000  0.75000000  1
  Zn  Zn10  1  0.37500000  0.75000000  0.12500000  1
  Zn  Zn11  1  0.12500000  0.25000000  0.37500000  1
  Ge  Ge12  1  0.12500000  0.75000000  0.87500000  1
  Ge  Ge13  1  0.87500000  0.25000000  0.12500000  1
  Ge  Ge14  1  0.62500000  0.37500000  0.25000000  1
  Ge  Ge15  1  0.75000000  0.87500000  0.12500000  1
  Ge  Ge16  1  0.87500000  0.12500000  0.75000000  1
  Ge  Ge17  1  0.25000000  0.62500000  0.37500000  1
  Ge  Ge18  1  0.75000000  0.37500000  0.62500000  1
  Ge  Ge19  1  0.25000000  0.12500000  0.87500000  1
  Ge  Ge20  1  0.12500000  0.87500000  0.25000000  1
  Ge  Ge21  1  0.37500000  0.62500000  0.75000000  1
  Ge  Ge22  1  0.62500000  0.75000000  0.37500000  1
  Ge  Ge23  1  0.37500000  0.25000000  0.62500000  1
  Mo  Mo24  1  0.50000000  0.50000000  0.50000000  1
  Mo  Mo25  1  0.50000000  0.00000000  0.50000000  1
  Mo  Mo26  1  0.00000000  0.50000000  0.50000000  1
  Mo  Mo27  1  0.50000000  0.50000000  0.00000000  1
  Mo  Mo28  1  0.00000000  0.00000000  0.50000000  1
  Mo  Mo29  1  0.00000000  0.50000000  0.00000000  1
  Mo  Mo30  1  0.50000000  0.00000000  0.00000000  1
  Mo  Mo31  1  0.00000000  0.00000000  0.00000000  1
  O  O32  1  0.41573100  0.81202600  0.78432700  1
  O  O33  1  0.86859600  0.39629500  0.08426900  1
  O  O34  1  0.10370500  0.97230100  0.68797400  1
  O  O35  1  0.52769900  0.63140400  0.71567300  1
  O  O36  1  0.68797400  0.08426900  0.71567300  1
  O  O37  1  0.63140400  0.71567300  0.52769900  1
  O  O38  1  0.63140400  0.41573100  0.10370500  1
  O  O39  1  0.71567300  0.52769900  0.63140400  1
  O  O40  1  0.81202600  0.52769900  0.39629500  1
  O  O41  1  0.97230100  0.78432700  0.86859600  1
  O  O42  1  0.78432700  0.86859600  0.97230100  1
  O  O43  1  0.71567300  0.68797400  0.08426900  1
  O  O44  1  0.41573100  0.10370500  0.63140400  1
  O  O45  1  0.39629500  0.81202600  0.52769900  1
  O  O46  1  0.08426900  0.71567300  0.68797400  1
  O  O47  1  0.10370500  0.63140400  0.41573100  1
  O  O48  1  0.52769900  0.39629500  0.81202600  1
  O  O49  1  0.08426900  0.86859600  0.39629500  1
  O  O50  1  0.97230100  0.68797400  0.10370500  1
  O  O51  1  0.18797400  0.47230100  0.60370500  1
  O  O52  1  0.68797400  0.10370500  0.97230100  1
  O  O53  1  0.78432700  0.41573100  0.81202600  1
  O  O54  1  0.39629500  0.08426900  0.86859600  1
  O  O55  1  0.86859600  0.97230100  0.78432700  1
  O  O56  1  0.58426900  0.18797400  0.21567300  1
  O  O57  1  0.13140400  0.60370500  0.91573100  1
  O  O58  1  0.89629500  0.02769900  0.31202600  1
  O  O59  1  0.47230100  0.36859600  0.28432700  1
  O  O60  1  0.31202600  0.91573100  0.28432700  1
  O  O61  1  0.36859600  0.28432700  0.47230100  1
  O  O62  1  0.36859600  0.58426900  0.89629500  1
  O  O63  1  0.28432700  0.47230100  0.36859600  1
  O  O64  1  0.13140400  0.02769900  0.21567300  1
  O  O65  1  0.60370500  0.91573100  0.13140400  1
  O  O66  1  0.21567300  0.58426900  0.18797400  1
  O  O67  1  0.18797400  0.21567300  0.58426900  1
  O  O68  1  0.31202600  0.89629500  0.02769900  1
  O  O69  1  0.02769900  0.31202600  0.89629500  1
  O  O70  1  0.91573100  0.13140400  0.60370500  1
  O  O71  1  0.47230100  0.60370500  0.18797400  1
  O  O72  1  0.89629500  0.36859600  0.58426900  1
  O  O73  1  0.91573100  0.28432700  0.31202600  1
  O  O74  1  0.60370500  0.18797400  0.47230100  1
  O  O75  1  0.58426900  0.89629500  0.36859600  1
  O  O76  1  0.28432700  0.31202600  0.91573100  1
  O  O77  1  0.21567300  0.13140400  0.02769900  1
  O  O78  1  0.02769900  0.21567300  0.13140400  1
  O  O79  1  0.81202600  0.78432700  0.41573100  1
