# generated using pymatgen
data_Zn3Ge3(WO6)2
_symmetry_space_group_name_H-M   'P 1'
_cell_length_a   10.76212021
_cell_length_b   10.76212021
_cell_length_c   10.76212021
_cell_angle_alpha   109.47122063
_cell_angle_beta   109.47122063
_cell_angle_gamma   109.47122063
_symmetry_Int_Tables_number   1
_chemical_formula_structural   Zn3Ge3(WO6)2
_chemical_formula_sum   'Zn12 Ge12 W8 O48'
_cell_volume   959.55887204
_cell_formula_units_Z   4
loop_
 _symmetry_equiv_pos_site_id
 _symmetry_equiv_pos_as_xyz
  1  'x, y, z'
loop_
 _atom_site_type_symbol
 _atom_site_label
 _atom_site_symmetry_multiplicity
 _atom_site_fract_x
 _atom_site_fract_y
 _atom_site_fract_z
 _atom_site_occupancy
  Zn  Zn0  1  0.25000000  0.87500000  0.62500000  1
  Zn  Zn1  1  0.75000000  0.62500000  0.87500000  1
  Zn  Zn2  1  0.62500000  0.87500000  0.75000000  1
  Zn  Zn3  1  0.87500000  0.62500000  0.25000000  1
  Zn  Zn4  1  0.62500000  0.25000000  0.87500000  1
  Zn  Zn5  1  0.87500000  0.75000000  0.62500000  1
  Zn  Zn6  1  0.75000000  0.12500000  0.37500000  1
  Zn  Zn7  1  0.25000000  0.37500000  0.12500000  1
  Zn  Zn8  1  0.37500000  0.12500000  0.25000000  1
  Zn  Zn9  1  0.12500000  0.37500000  0.75000000  1
  Zn  Zn10  1  0.37500000  0.75000000  0.12500000  1
  Zn  Zn11  1  0.12500000  0.25000000  0.37500000  1
  Ge  Ge12  1  0.12500000  0.75000000  0.87500000  1
  Ge  Ge13  1  0.87500000  0.25000000  0.12500000  1
  Ge  Ge14  1  0.62500000  0.37500000  0.25000000  1
  Ge  Ge15  1  0.75000000  0.87500000  0.12500000  1
  Ge  Ge16  1  0.87500000  0.12500000  0.75000000  1
  Ge  Ge17  1  0.25000000  0.62500000  0.37500000  1
  Ge  Ge18  1  0.75000000  0.37500000  0.62500000  1
  Ge  Ge19  1  0.25000000  0.12500000  0.87500000  1
  Ge  Ge20  1  0.12500000  0.87500000  0.25000000  1
  Ge  Ge21  1  0.37500000  0.62500000  0.75000000  1
  Ge  Ge22  1  0.62500000  0.75000000  0.37500000  1
  Ge  Ge23  1  0.37500000  0.25000000  0.62500000  1
  W  W24  1  0.50000000  0.50000000  0.50000000  1
  W  W25  1  0.50000000  0.00000000  0.50000000  1
  W  W26  1  0.00000000  0.50000000  0.50000000  1
  W  W27  1  0.50000000  0.50000000  0.00000000  1
  W  W28  1  0.00000000  0.00000000  0.50000000  1
  W  W29  1  0.00000000  0.50000000  0.00000000  1
  W  W30  1  0.50000000  0.00000000  0.00000000  1
  W  W31  1  0.00000000  0.00000000  0.00000000  1
  O  O32  1  0.41460600  0.81149500  0.78306100  1
  O  O33  1  0.86845400  0.39688800  0.08539400  1
  O  O34  1  0.10311200  0.97156600  0.68850500  1
  O  O35  1  0.52843400  0.63154600  0.71693900  1
  O  O36  1  0.68850500  0.08539400  0.71693900  1
  O  O37  1  0.63154600  0.71693900  0.52843400  1
  O  O38  1  0.63154600  0.41460600  0.10311200  1
  O  O39  1  0.71693900  0.52843400  0.63154600  1
  O  O40  1  0.81149500  0.52843400  0.39688800  1
  O  O41  1  0.97156600  0.78306100  0.86845400  1
  O  O42  1  0.78306100  0.86845400  0.97156600  1
  O  O43  1  0.71693900  0.68850500  0.08539400  1
  O  O44  1  0.41460600  0.10311200  0.63154600  1
  O  O45  1  0.39688800  0.81149500  0.52843400  1
  O  O46  1  0.08539400  0.71693900  0.68850500  1
  O  O47  1  0.10311200  0.63154600  0.41460600  1
  O  O48  1  0.52843400  0.39688800  0.81149500  1
  O  O49  1  0.08539400  0.86845400  0.39688800  1
  O  O50  1  0.97156600  0.68850500  0.10311200  1
  O  O51  1  0.18850500  0.47156600  0.60311200  1
  O  O52  1  0.68850500  0.10311200  0.97156600  1
  O  O53  1  0.78306100  0.41460600  0.81149500  1
  O  O54  1  0.39688800  0.08539400  0.86845400  1
  O  O55  1  0.86845400  0.97156600  0.78306100  1
  O  O56  1  0.58539400  0.18850500  0.21693900  1
  O  O57  1  0.13154600  0.60311200  0.91460600  1
  O  O58  1  0.89688800  0.02843400  0.31149500  1
  O  O59  1  0.47156600  0.36845400  0.28306100  1
  O  O60  1  0.31149500  0.91460600  0.28306100  1
  O  O61  1  0.36845400  0.28306100  0.47156600  1
  O  O62  1  0.36845400  0.58539400  0.89688800  1
  O  O63  1  0.28306100  0.47156600  0.36845400  1
  O  O64  1  0.13154600  0.02843400  0.21693900  1
  O  O65  1  0.60311200  0.91460600  0.13154600  1
  O  O66  1  0.21693900  0.58539400  0.18850500  1
  O  O67  1  0.18850500  0.21693900  0.58539400  1
  O  O68  1  0.31149500  0.89688800  0.02843400  1
  O  O69  1  0.02843400  0.31149500  0.89688800  1
  O  O70  1  0.91460600  0.13154600  0.60311200  1
  O  O71  1  0.47156600  0.60311200  0.18850500  1
  O  O72  1  0.89688800  0.36845400  0.58539400  1
  O  O73  1  0.91460600  0.28306100  0.31149500  1
  O  O74  1  0.60311200  0.18850500  0.47156600  1
  O  O75  1  0.58539400  0.89688800  0.36845400  1
  O  O76  1  0.28306100  0.31149500  0.91460600  1
  O  O77  1  0.21693900  0.13154600  0.02843400  1
  O  O78  1  0.02843400  0.21693900  0.13154600  1
  O  O79  1  0.81149500  0.78306100  0.41460600  1
