# generated using pymatgen
data_Cr2(GeO4)3
_symmetry_space_group_name_H-M   'P 1'
_cell_length_a   10.33454961
_cell_length_b   10.33454961
_cell_length_c   10.33454961
_cell_angle_alpha   109.47122063
_cell_angle_beta   109.47122063
_cell_angle_gamma   109.47122063
_symmetry_Int_Tables_number   1
_chemical_formula_structural   Cr2(GeO4)3
_chemical_formula_sum   'Cr8 Ge12 O48'
_cell_volume   849.67486771
_cell_formula_units_Z   4
loop_
 _symmetry_equiv_pos_site_id
 _symmetry_equiv_pos_as_xyz
  1  'x, y, z'
loop_
 _atom_site_type_symbol
 _atom_site_label
 _atom_site_symmetry_multiplicity
 _atom_site_fract_x
 _atom_site_fract_y
 _atom_site_fract_z
 _atom_site_occupancy
  Cr  Cr0  1  0.50000000  0.50000000  0.50000000  1
  Cr  Cr1  1  0.50000000  0.00000000  0.50000000  1
  Cr  Cr2  1  0.00000000  0.50000000  0.50000000  1
  Cr  Cr3  1  0.50000000  0.50000000  0.00000000  1
  Cr  Cr4  1  0.00000000  0.00000000  0.50000000  1
  Cr  Cr5  1  0.00000000  0.50000000  0.00000000  1
  Cr  Cr6  1  0.50000000  0.00000000  0.00000000  1
  Cr  Cr7  1  0.00000000  0.00000000  0.00000000  1
  Ge  Ge8  1  0.12500000  0.75000000  0.87500000  1
  Ge  Ge9  1  0.87500000  0.25000000  0.12500000  1
  Ge  Ge10  1  0.62500000  0.37500000  0.25000000  1
  Ge  Ge11  1  0.75000000  0.87500000  0.12500000  1
  Ge  Ge12  1  0.87500000  0.12500000  0.75000000  1
  Ge  Ge13  1  0.25000000  0.62500000  0.37500000  1
  Ge  Ge14  1  0.75000000  0.37500000  0.62500000  1
  Ge  Ge15  1  0.25000000  0.12500000  0.87500000  1
  Ge  Ge16  1  0.12500000  0.87500000  0.25000000  1
  Ge  Ge17  1  0.37500000  0.62500000  0.75000000  1
  Ge  Ge18  1  0.62500000  0.75000000  0.37500000  1
  Ge  Ge19  1  0.37500000  0.25000000  0.62500000  1
  O  O20  1  0.41302400  0.82202800  0.80807100  1
  O  O21  1  0.89504700  0.40900400  0.08697600  1
  O  O22  1  0.09099600  0.98604300  0.67797200  1
  O  O23  1  0.51395700  0.60495300  0.69192900  1
  O  O24  1  0.67797200  0.08697600  0.69192900  1
  O  O25  1  0.60495300  0.69192900  0.51395700  1
  O  O26  1  0.60495300  0.41302400  0.09099600  1
  O  O27  1  0.69192900  0.51395700  0.60495300  1
  O  O28  1  0.82202800  0.51395700  0.40900400  1
  O  O29  1  0.98604300  0.80807100  0.89504700  1
  O  O30  1  0.80807100  0.89504700  0.98604300  1
  O  O31  1  0.69192900  0.67797200  0.08697600  1
  O  O32  1  0.41302400  0.09099600  0.60495300  1
  O  O33  1  0.40900400  0.82202800  0.51395700  1
  O  O34  1  0.08697600  0.69192900  0.67797200  1
  O  O35  1  0.09099600  0.60495300  0.41302400  1
  O  O36  1  0.51395700  0.40900400  0.82202800  1
  O  O37  1  0.08697600  0.89504700  0.40900400  1
  O  O38  1  0.98604300  0.67797200  0.09099600  1
  O  O39  1  0.17797200  0.48604300  0.59099600  1
  O  O40  1  0.67797200  0.09099600  0.98604300  1
  O  O41  1  0.80807100  0.41302400  0.82202800  1
  O  O42  1  0.40900400  0.08697600  0.89504700  1
  O  O43  1  0.89504700  0.98604300  0.80807100  1
  O  O44  1  0.58697600  0.17797200  0.19192900  1
  O  O45  1  0.10495300  0.59099600  0.91302400  1
  O  O46  1  0.90900400  0.01395700  0.32202800  1
  O  O47  1  0.48604300  0.39504700  0.30807100  1
  O  O48  1  0.32202800  0.91302400  0.30807100  1
  O  O49  1  0.39504700  0.30807100  0.48604300  1
  O  O50  1  0.39504700  0.58697600  0.90900400  1
  O  O51  1  0.30807100  0.48604300  0.39504700  1
  O  O52  1  0.10495300  0.01395700  0.19192900  1
  O  O53  1  0.59099600  0.91302400  0.10495300  1
  O  O54  1  0.19192900  0.58697600  0.17797200  1
  O  O55  1  0.17797200  0.19192900  0.58697600  1
  O  O56  1  0.32202800  0.90900400  0.01395700  1
  O  O57  1  0.01395700  0.32202800  0.90900400  1
  O  O58  1  0.91302400  0.10495300  0.59099600  1
  O  O59  1  0.48604300  0.59099600  0.17797200  1
  O  O60  1  0.90900400  0.39504700  0.58697600  1
  O  O61  1  0.91302400  0.30807100  0.32202800  1
  O  O62  1  0.59099600  0.17797200  0.48604300  1
  O  O63  1  0.58697600  0.90900400  0.39504700  1
  O  O64  1  0.30807100  0.32202800  0.91302400  1
  O  O65  1  0.19192900  0.10495300  0.01395700  1
  O  O66  1  0.01395700  0.19192900  0.10495300  1
  O  O67  1  0.82202800  0.80807100  0.41302400  1
