# generated using pymatgen
data_MgSb2O5
_symmetry_space_group_name_H-M   'P 1'
_cell_length_a   3.58278300
_cell_length_b   5.29055176
_cell_length_c   13.36360496
_cell_angle_alpha   97.42742545
_cell_angle_beta   93.96164215
_cell_angle_gamma   99.61350261
_symmetry_Int_Tables_number   1
_chemical_formula_structural   MgSb2O5
_chemical_formula_sum   'Mg2 Sb4 O10'
_cell_volume   246.58554553
_cell_formula_units_Z   2
loop_
 _symmetry_equiv_pos_site_id
 _symmetry_equiv_pos_as_xyz
  1  'x, y, z'
loop_
 _atom_site_type_symbol
 _atom_site_label
 _atom_site_symmetry_multiplicity
 _atom_site_fract_x
 _atom_site_fract_y
 _atom_site_fract_z
 _atom_site_occupancy
  Mg  Mg0  1  0.88438100  0.88618800  0.21503400  1
  Mg  Mg1  1  0.14213900  0.11215300  0.78104600  1
  Sb  Sb2  1  0.25507500  0.35219900  0.10658400  1
  Sb  Sb3  1  0.75683400  0.64522300  0.89063000  1
  Sb  Sb4  1  0.79609000  0.57202000  0.61443600  1
  Sb  Sb5  1  0.19894600  0.42400500  0.38280100  1
  O  O6  1  0.74668900  0.41588900  0.73874100  1
  O  O7  1  0.24716100  0.57869500  0.25822100  1
  O  O8  1  0.73454700  0.59302900  0.10038300  1
  O  O9  1  0.27285600  0.40783500  0.89512000  1
  O  O10  1  0.74539100  0.55860800  0.44142400  1
  O  O11  1  0.24914400  0.43489300  0.55655300  1
  O  O12  1  0.00865500  0.06921600  0.35700400  1
  O  O13  1  0.99377600  0.92507600  0.64038500  1
  O  O14  1  0.60336400  0.93469300  0.82508800  1
  O  O15  1  0.41949600  0.06689500  0.17304000  1
