# generated using pymatgen
data_MgSn3(P2O7)2
_symmetry_space_group_name_H-M   'P 1'
_cell_length_a   7.89931300
_cell_length_b   8.06088800
_cell_length_c   10.20856389
_cell_angle_alpha   74.24281070
_cell_angle_beta   90.00000000
_cell_angle_gamma   90.00000000
_symmetry_Int_Tables_number   1
_chemical_formula_structural   MgSn3(P2O7)2
_chemical_formula_sum   'Mg2 Sn6 P8 O28'
_cell_volume   625.60761728
_cell_formula_units_Z   2
loop_
 _symmetry_equiv_pos_site_id
 _symmetry_equiv_pos_as_xyz
  1  'x, y, z'
loop_
 _atom_site_type_symbol
 _atom_site_label
 _atom_site_symmetry_multiplicity
 _atom_site_fract_x
 _atom_site_fract_y
 _atom_site_fract_z
 _atom_site_occupancy
  Mg  Mg0  1  0.00000000  0.50000000  0.00000000  1
  Mg  Mg1  1  0.50000000  0.50000000  0.50000000  1
  Sn  Sn2  1  0.14056600  0.80353000  0.51941700  1
  Sn  Sn3  1  0.64056600  0.19647000  0.98058300  1
  Sn  Sn4  1  0.85943400  0.19647000  0.48058300  1
  Sn  Sn5  1  0.35943400  0.80353000  0.01941700  1
  Sn  Sn6  1  0.00000000  0.00000000  0.00000000  1
  Sn  Sn7  1  0.50000000  0.00000000  0.50000000  1
  P  P8  1  0.94136300  0.44127900  0.70028100  1
  P  P9  1  0.44136300  0.55872100  0.79971900  1
  P  P10  1  0.05863700  0.55872100  0.29971900  1
  P  P11  1  0.55863700  0.44127900  0.20028100  1
  P  P12  1  0.20431300  0.18717500  0.67163800  1
  P  P13  1  0.70431300  0.81282500  0.82836200  1
  P  P14  1  0.79568700  0.81282500  0.32836200  1
  P  P15  1  0.29568700  0.18717500  0.17163800  1
  O  O16  1  0.37336900  0.23643800  0.59578900  1
  O  O17  1  0.87336900  0.76356200  0.90421100  1
  O  O18  1  0.62663100  0.76356200  0.40421100  1
  O  O19  1  0.12663100  0.23643800  0.09578900  1
  O  O20  1  0.43478200  0.60795900  0.64379300  1
  O  O21  1  0.93478200  0.39204100  0.85620700  1
  O  O22  1  0.56521800  0.39204100  0.35620700  1
  O  O23  1  0.06521800  0.60795900  0.14379300  1
  O  O24  1  0.80188100  0.35199100  0.63776100  1
  O  O25  1  0.30188100  0.64800900  0.86223900  1
  O  O26  1  0.19811900  0.64800900  0.36223900  1
  O  O27  1  0.69811900  0.35199100  0.13776100  1
  O  O28  1  0.12172500  0.37542900  0.65811600  1
  O  O29  1  0.62172500  0.62457100  0.84188400  1
  O  O30  1  0.87827500  0.62457100  0.34188400  1
  O  O31  1  0.37827500  0.37542900  0.15811600  1
  O  O32  1  0.55080100  0.63555100  0.13765600  1
  O  O33  1  0.05080100  0.36444900  0.36234400  1
  O  O34  1  0.44919900  0.36444900  0.86234400  1
  O  O35  1  0.94919900  0.63555100  0.63765600  1
  O  O36  1  0.78653000  0.91361400  0.17975600  1
  O  O37  1  0.28653000  0.08638600  0.32024400  1
  O  O38  1  0.21347000  0.08638600  0.82024400  1
  O  O39  1  0.71347000  0.91361400  0.67975600  1
  O  O40  1  0.41973900  0.09153800  0.09727300  1
  O  O41  1  0.91973900  0.90846200  0.40272700  1
  O  O42  1  0.58026100  0.90846200  0.90272700  1
  O  O43  1  0.08026100  0.09153800  0.59727300  1
