# generated using pymatgen
data_Ti2ZnO4
_symmetry_space_group_name_H-M   'P 1'
_cell_length_a   6.12795509
_cell_length_b   6.12795509
_cell_length_c   20.08475362
_cell_angle_alpha   80.40921074
_cell_angle_beta   80.40921074
_cell_angle_gamma   58.18849997
_symmetry_Int_Tables_number   1
_chemical_formula_structural   Ti2ZnO4
_chemical_formula_sum   'Ti16 Zn8 O32'
_cell_volume   629.16758145
_cell_formula_units_Z   8
loop_
 _symmetry_equiv_pos_site_id
 _symmetry_equiv_pos_as_xyz
  1  'x, y, z'
loop_
 _atom_site_type_symbol
 _atom_site_label
 _atom_site_symmetry_multiplicity
 _atom_site_fract_x
 _atom_site_fract_y
 _atom_site_fract_z
 _atom_site_occupancy
  Ti  Ti0  1  0.61314800  0.13618500  0.12748500  1
  Ti  Ti1  1  0.25572500  0.25572500  0.24510200  1
  Ti  Ti2  1  0.13618500  0.61314800  0.12748500  1
  Ti  Ti3  1  0.15345400  0.15345400  0.53501100  1
  Ti  Ti4  1  0.90277500  0.36254000  0.37121100  1
  Ti  Ti5  1  0.59934700  0.59934700  0.22072700  1
  Ti  Ti6  1  0.40442800  0.40442800  0.78389300  1
  Ti  Ti7  1  0.36254000  0.90277500  0.37121100  1
  Ti  Ti8  1  0.11097100  0.63785700  0.62486700  1
  Ti  Ti9  1  0.84673800  0.84673800  0.46256700  1
  Ti  Ti10  1  0.63785700  0.11097100  0.62486700  1
  Ti  Ti11  1  0.88987100  0.34703500  0.88073300  1
  Ti  Ti12  1  0.34703500  0.88987100  0.88073300  1
  Ti  Ti13  1  0.09775100  0.09775100  0.71744000  1
  Ti  Ti14  1  0.00536100  0.00536100  0.99706500  1
  Ti  Ti15  1  0.34837500  0.34837500  0.97276000  1
  Zn  Zn16  1  0.66306700  0.66306700  0.03179600  1
  Zn  Zn17  1  0.11634300  0.11634300  0.12271800  1
  Zn  Zn18  1  0.90729000  0.90729000  0.27973300  1
  Zn  Zn19  1  0.38127800  0.38127800  0.37187000  1
  Zn  Zn20  1  0.62312900  0.62312900  0.62538100  1
  Zn  Zn21  1  0.50187200  0.50187200  0.49795500  1
  Zn  Zn22  1  0.86403800  0.86403800  0.87669800  1
  Zn  Zn23  1  0.74239700  0.74239700  0.75356000  1
  O  O24  1  0.28691800  0.80811000  0.06247300  1
  O  O25  1  0.93146900  0.93146900  0.18022500  1
  O  O26  1  0.80811000  0.28691800  0.06247300  1
  O  O27  1  0.82676800  0.82676800  0.06538500  1
  O  O28  1  0.44516500  0.44516500  0.18971500  1
  O  O29  1  0.53653300  0.07171400  0.31301900  1
  O  O30  1  0.43585400  0.94958200  0.18618200  1
  O  O31  1  0.18159000  0.18159000  0.43846400  1
  O  O32  1  0.07171400  0.53653300  0.31301900  1
  O  O33  1  0.30910600  0.30910600  0.06802100  1
  O  O34  1  0.07173000  0.07173000  0.31023900  1
  O  O35  1  0.94958200  0.43585400  0.18618200  1
  O  O36  1  0.79606300  0.31514200  0.56528300  1
  O  O37  1  0.68771200  0.68771200  0.43275200  1
  O  O38  1  0.69095800  0.20238300  0.43319200  1
  O  O39  1  0.43164100  0.43164100  0.68758200  1
  O  O40  1  0.31514200  0.79606300  0.56528300  1
  O  O41  1  0.56874200  0.56874200  0.31655500  1
  O  O42  1  0.31294600  0.31294600  0.56596300  1
  O  O43  1  0.20238300  0.69095800  0.43319200  1
  O  O44  1  0.94123700  0.94123700  0.68550000  1
  O  O45  1  0.05285700  0.55475200  0.81454200  1
  O  O46  1  0.93595600  0.45275300  0.68504000  1
  O  O47  1  0.68001400  0.68001400  0.92961200  1
  O  O48  1  0.55475200  0.05285700  0.81454200  1
  O  O49  1  0.81837500  0.81837500  0.55926700  1
  O  O50  1  0.55850900  0.55850900  0.81677900  1
  O  O51  1  0.45275300  0.93595600  0.68504000  1
  O  O52  1  0.19475800  0.19475800  0.94233000  1
  O  O53  1  0.18021000  0.69713700  0.93743800  1
  O  O54  1  0.06228800  0.06228800  0.81440200  1
  O  O55  1  0.69713700  0.18021000  0.93743800  1
