# generated using pymatgen
data_AlV2O4
_symmetry_space_group_name_H-M   'P 1'
_cell_length_a   6.55550120
_cell_length_b   6.55550120
_cell_length_c   5.39885658
_cell_angle_alpha   65.89284413
_cell_angle_beta   65.89284413
_cell_angle_gamma   108.97085896
_symmetry_Int_Tables_number   1
_chemical_formula_structural   AlV2O4
_chemical_formula_sum   'Al2 V4 O8'
_cell_volume   156.01914615
_cell_formula_units_Z   2
loop_
 _symmetry_equiv_pos_site_id
 _symmetry_equiv_pos_as_xyz
  1  'x, y, z'
loop_
 _atom_site_type_symbol
 _atom_site_label
 _atom_site_symmetry_multiplicity
 _atom_site_fract_x
 _atom_site_fract_y
 _atom_site_fract_z
 _atom_site_occupancy
  Al  Al0  1  0.12150500  0.87849500  0.25000000  1
  Al  Al1  1  0.87849500  0.12150500  0.75000000  1
  V  V2  1  0.50000000  0.50000000  0.50000000  1
  V  V3  1  0.50000000  0.50000000  0.00000000  1
  V  V4  1  0.50000000  0.00000000  0.50000000  1
  V  V5  1  0.00000000  0.50000000  0.00000000  1
  O  O6  1  0.90904400  0.71517900  0.72341500  1
  O  O7  1  0.28482100  0.09095600  0.77658500  1
  O  O8  1  0.09095600  0.28482100  0.27658500  1
  O  O9  1  0.71517900  0.90904400  0.22341500  1
  O  O10  1  0.13215100  0.43600300  0.65543400  1
  O  O11  1  0.56399700  0.86784900  0.84456600  1
  O  O12  1  0.43600300  0.13215100  0.15543400  1
  O  O13  1  0.86784900  0.56399700  0.34456600  1
