# generated using pymatgen
data_Nb2MoO8
_symmetry_space_group_name_H-M   'P 1'
_cell_length_a   10.55228824
_cell_length_b   10.55228824
_cell_length_c   5.14275333
_cell_angle_alpha   89.84228224
_cell_angle_beta   89.84228224
_cell_angle_gamma   34.22094848
_symmetry_Int_Tables_number   1
_chemical_formula_structural   Nb2MoO8
_chemical_formula_sum   'Nb4 Mo2 O16'
_cell_volume   322.04864945
_cell_formula_units_Z   2
loop_
 _symmetry_equiv_pos_site_id
 _symmetry_equiv_pos_as_xyz
  1  'x, y, z'
loop_
 _atom_site_type_symbol
 _atom_site_label
 _atom_site_symmetry_multiplicity
 _atom_site_fract_x
 _atom_site_fract_y
 _atom_site_fract_z
 _atom_site_occupancy
  Nb  Nb0  1  0.05275900  0.68402900  0.75581100  1
  Nb  Nb1  1  0.31597100  0.94724100  0.74418900  1
  Nb  Nb2  1  0.94724100  0.31597100  0.24418900  1
  Nb  Nb3  1  0.68402900  0.05275900  0.25581100  1
  Mo  Mo4  1  0.66318500  0.33681500  0.75000000  1
  Mo  Mo5  1  0.33681500  0.66318500  0.25000000  1
  O  O6  1  0.10625400  0.78080300  0.08521800  1
  O  O7  1  0.21919700  0.89374600  0.41478200  1
  O  O8  1  0.89374600  0.21919700  0.91478200  1
  O  O9  1  0.78080300  0.10625400  0.58521800  1
  O  O10  1  0.33817800  0.55760600  0.56832400  1
  O  O11  1  0.44239400  0.66182200  0.93167600  1
  O  O12  1  0.66182200  0.44239400  0.43167600  1
  O  O13  1  0.55760600  0.33817800  0.06832400  1
  O  O14  1  0.92289900  0.75701000  0.42708000  1
  O  O15  1  0.24299000  0.07710100  0.07292000  1
  O  O16  1  0.43486000  0.19033500  0.35999300  1
  O  O17  1  0.80966500  0.56514000  0.14000700  1
  O  O18  1  0.56514000  0.80966500  0.64000700  1
  O  O19  1  0.19033500  0.43486000  0.85999300  1
  O  O20  1  0.75701000  0.92289900  0.92708000  1
  O  O21  1  0.07710100  0.24299000  0.57292000  1
