# generated using pymatgen
data_MgSnO2
_symmetry_space_group_name_H-M   'P 1'
_cell_length_a   3.30185300
_cell_length_b   8.75370295
_cell_length_c   8.91559953
_cell_angle_alpha   104.85069965
_cell_angle_beta   90.26952689
_cell_angle_gamma   92.52825611
_symmetry_Int_Tables_number   1
_chemical_formula_structural   MgSnO2
_chemical_formula_sum   'Mg4 Sn4 O8'
_cell_volume   248.80715883
_cell_formula_units_Z   4
loop_
 _symmetry_equiv_pos_site_id
 _symmetry_equiv_pos_as_xyz
  1  'x, y, z'
loop_
 _atom_site_type_symbol
 _atom_site_label
 _atom_site_symmetry_multiplicity
 _atom_site_fract_x
 _atom_site_fract_y
 _atom_site_fract_z
 _atom_site_occupancy
  Mg  Mg0  1  0.75373400  0.22174600  0.06005900  1
  Mg  Mg1  1  0.28913100  0.82275300  0.93156800  1
  Mg  Mg2  1  0.20691700  0.09586500  0.71398100  1
  Mg  Mg3  1  0.78845100  0.93373000  0.27763200  1
  Sn  Sn4  1  0.14705100  0.59057100  0.15960200  1
  Sn  Sn5  1  0.42450500  0.31164100  0.40503900  1
  Sn  Sn6  1  0.65302900  0.79342100  0.57350400  1
  Sn  Sn7  1  0.87564700  0.44643200  0.78506800  1
  O  O8  1  0.39425800  0.59709800  0.80807800  1
  O  O9  1  0.26672000  0.80866900  0.31651500  1
  O  O10  1  0.70076000  0.04513100  0.57582800  1
  O  O11  1  0.59204000  0.44646900  0.23514500  1
  O  O12  1  0.79221900  0.85647400  0.05041800  1
  O  O13  1  0.87756900  0.16969600  0.27344700  1
  O  O14  1  0.25036300  0.21010500  0.93912700  1
  O  O15  1  0.17999700  0.87581500  0.73432100  1
