# generated using pymatgen
data_ZnFeO2
_symmetry_space_group_name_H-M   'P 1'
_cell_length_a   3.01088200
_cell_length_b   8.18827938
_cell_length_c   8.42244969
_cell_angle_alpha   89.66513835
_cell_angle_beta   99.38458444
_cell_angle_gamma   99.95881503
_symmetry_Int_Tables_number   1
_chemical_formula_structural   ZnFeO2
_chemical_formula_sum   'Zn4 Fe4 O8'
_cell_volume   201.72718715
_cell_formula_units_Z   4
loop_
 _symmetry_equiv_pos_site_id
 _symmetry_equiv_pos_as_xyz
  1  'x, y, z'
loop_
 _atom_site_type_symbol
 _atom_site_label
 _atom_site_symmetry_multiplicity
 _atom_site_fract_x
 _atom_site_fract_y
 _atom_site_fract_z
 _atom_site_occupancy
  Zn  Zn0  1  0.63677800  0.08186400  0.75238900  1
  Zn  Zn1  1  0.36322200  0.91813600  0.24761100  1
  Zn  Zn2  1  0.91104500  0.74013100  0.58876200  1
  Zn  Zn3  1  0.08895500  0.25986900  0.41123800  1
  Fe  Fe4  1  0.37973400  0.23771000  0.08639600  1
  Fe  Fe5  1  0.81088400  0.41628400  0.73459200  1
  Fe  Fe6  1  0.18911600  0.58371600  0.26540800  1
  Fe  Fe7  1  0.62026600  0.76229000  0.91360400  1
  O  O8  1  0.17776300  0.73656500  0.07010600  1
  O  O9  1  0.60802700  0.40140200  0.30076300  1
  O  O10  1  0.39197300  0.59859800  0.69923700  1
  O  O11  1  0.82223700  0.26343500  0.92989400  1
  O  O12  1  0.94362000  0.09288300  0.23253000  1
  O  O13  1  0.17114000  0.23723900  0.63843300  1
  O  O14  1  0.05638000  0.90711700  0.76747000  1
  O  O15  1  0.82886000  0.76276100  0.36156700  1
