# generated using pymatgen
data_Si2SbO6
_symmetry_space_group_name_H-M   'P 1'
_cell_length_a   6.83553922
_cell_length_b   6.83553922
_cell_length_c   5.49177451
_cell_angle_alpha   75.37744136
_cell_angle_beta   75.37744136
_cell_angle_gamma   85.72500203
_symmetry_Int_Tables_number   1
_chemical_formula_structural   Si2SbO6
_chemical_formula_sum   'Si4 Sb2 O12'
_cell_volume   240.23144567
_cell_formula_units_Z   2
loop_
 _symmetry_equiv_pos_site_id
 _symmetry_equiv_pos_as_xyz
  1  'x, y, z'
loop_
 _atom_site_type_symbol
 _atom_site_label
 _atom_site_symmetry_multiplicity
 _atom_site_fract_x
 _atom_site_fract_y
 _atom_site_fract_z
 _atom_site_occupancy
  Si  Si0  1  0.77781900  0.61841600  0.25991100  1
  Si  Si1  1  0.38158400  0.22218100  0.24008900  1
  Si  Si2  1  0.61841600  0.77781900  0.75991100  1
  Si  Si3  1  0.22218100  0.38158400  0.74008900  1
  Sb  Sb4  1  0.87923800  0.12076200  0.25000000  1
  Sb  Sb5  1  0.12076200  0.87923800  0.75000000  1
  O  O6  1  0.65783100  0.63344700  0.03136300  1
  O  O7  1  0.36655300  0.34216900  0.46863700  1
  O  O8  1  0.34216900  0.36655300  0.96863700  1
  O  O9  1  0.63344700  0.65783100  0.53136300  1
  O  O10  1  0.88609100  0.39760100  0.31717800  1
  O  O11  1  0.60239900  0.11390900  0.18282200  1
  O  O12  1  0.11390900  0.60239900  0.68282200  1
  O  O13  1  0.39760100  0.88609100  0.81717800  1
  O  O14  1  0.80767500  0.94708300  0.64659900  1
  O  O15  1  0.05291700  0.19232500  0.85340100  1
  O  O16  1  0.94708300  0.80767500  0.14659900  1
  O  O17  1  0.19232500  0.05291700  0.35340100  1
