# generated using pymatgen
data_Nb2WO8
_symmetry_space_group_name_H-M   'P 1'
_cell_length_a   10.58364383
_cell_length_b   10.58364383
_cell_length_c   5.16482054
_cell_angle_alpha   89.02866521
_cell_angle_beta   89.02866521
_cell_angle_gamma   34.22634905
_symmetry_Int_Tables_number   1
_chemical_formula_structural   Nb2WO8
_chemical_formula_sum   'Nb4 W2 O16'
_cell_volume   325.35075441
_cell_formula_units_Z   2
loop_
 _symmetry_equiv_pos_site_id
 _symmetry_equiv_pos_as_xyz
  1  'x, y, z'
loop_
 _atom_site_type_symbol
 _atom_site_label
 _atom_site_symmetry_multiplicity
 _atom_site_fract_x
 _atom_site_fract_y
 _atom_site_fract_z
 _atom_site_occupancy
  Nb  Nb0  1  0.68947300  0.04671400  0.73985100  1
  Nb  Nb1  1  0.95328600  0.31052700  0.76014900  1
  Nb  Nb2  1  0.31052700  0.95328600  0.26014900  1
  Nb  Nb3  1  0.04671400  0.68947300  0.23985100  1
  W  W4  1  0.34391600  0.65608400  0.75000000  1
  W  W5  1  0.65608400  0.34391600  0.25000000  1
  O  O6  1  0.78146600  0.10441600  0.41527700  1
  O  O7  1  0.89558400  0.21853400  0.08472300  1
  O  O8  1  0.21853400  0.89558400  0.58472300  1
  O  O9  1  0.10441600  0.78146600  0.91527700  1
  O  O10  1  0.55738900  0.34014500  0.93224400  1
  O  O11  1  0.65985500  0.44261100  0.56775600  1
  O  O12  1  0.44261100  0.65985500  0.06775600  1
  O  O13  1  0.34014500  0.55738900  0.43224400  1
  O  O14  1  0.75663500  0.92062500  0.07125500  1
  O  O15  1  0.07937500  0.24336500  0.42874500  1
  O  O16  1  0.18910300  0.43766800  0.14035000  1
  O  O17  1  0.56233200  0.81089700  0.35965000  1
  O  O18  1  0.81089700  0.56233200  0.85965000  1
  O  O19  1  0.43766800  0.18910300  0.64035000  1
  O  O20  1  0.92062500  0.75663500  0.57125500  1
  O  O21  1  0.24336500  0.07937500  0.92874500  1
