# generated using pymatgen
data_MnZnO2
_symmetry_space_group_name_H-M   'P 1'
_cell_length_a   3.05016600
_cell_length_b   8.31941829
_cell_length_c   8.47384495
_cell_angle_alpha   86.54799912
_cell_angle_beta   79.99276842
_cell_angle_gamma   80.25227358
_symmetry_Int_Tables_number   1
_chemical_formula_structural   MnZnO2
_chemical_formula_sum   'Mn4 Zn4 O8'
_cell_volume   208.59523117
_cell_formula_units_Z   4
loop_
 _symmetry_equiv_pos_site_id
 _symmetry_equiv_pos_as_xyz
  1  'x, y, z'
loop_
 _atom_site_type_symbol
 _atom_site_label
 _atom_site_symmetry_multiplicity
 _atom_site_fract_x
 _atom_site_fract_y
 _atom_site_fract_z
 _atom_site_occupancy
  Mn  Mn0  1  0.18276800  0.72313300  0.91664900  1
  Mn  Mn1  1  0.40521300  0.91161700  0.26943200  1
  Mn  Mn2  1  0.59478700  0.08838300  0.73056800  1
  Mn  Mn3  1  0.81723200  0.27686700  0.08335100  1
  Zn  Zn4  1  0.59377400  0.58611800  0.26062500  1
  Zn  Zn5  1  0.40622600  0.41388200  0.73937500  1
  Zn  Zn6  1  0.18438000  0.23730200  0.39748000  1
  Zn  Zn7  1  0.81562000  0.76269800  0.60252000  1
  O  O8  1  0.41052600  0.24155500  0.92289300  1
  O  O9  1  0.19804400  0.89800500  0.70880800  1
  O  O10  1  0.80195600  0.10199500  0.29119200  1
  O  O11  1  0.58947400  0.75844500  0.07710700  1
  O  O12  1  0.80807700  0.58154200  0.76914800  1
  O  O13  1  0.94570400  0.73821900  0.37722600  1
  O  O14  1  0.19192300  0.41845800  0.23085200  1
  O  O15  1  0.05429600  0.26178100  0.62277400  1
