# generated using pymatgen
data_Ca(AgO2)2
_symmetry_space_group_name_H-M   'P 1'
_cell_length_a   6.59554921
_cell_length_b   6.59554921
_cell_length_c   22.00830289
_cell_angle_alpha   81.11542370
_cell_angle_beta   81.11542370
_cell_angle_gamma   60.00414071
_symmetry_Int_Tables_number   1
_chemical_formula_structural   Ca(AgO2)2
_chemical_formula_sum   'Ca8 Ag16 O32'
_cell_volume   815.86547500
_cell_formula_units_Z   8
loop_
 _symmetry_equiv_pos_site_id
 _symmetry_equiv_pos_as_xyz
  1  'x, y, z'
loop_
 _atom_site_type_symbol
 _atom_site_label
 _atom_site_symmetry_multiplicity
 _atom_site_fract_x
 _atom_site_fract_y
 _atom_site_fract_z
 _atom_site_occupancy
  Ca  Ca0  1  0.63871100  0.63871100  0.02577000  1
  Ca  Ca1  1  0.12730100  0.12730100  0.12544500  1
  Ca  Ca2  1  0.88879500  0.88879500  0.28126300  1
  Ca  Ca3  1  0.37241200  0.37241200  0.37449700  1
  Ca  Ca4  1  0.62463600  0.62463600  0.62512800  1
  Ca  Ca5  1  0.50130700  0.50130700  0.49841900  1
  Ca  Ca6  1  0.87935600  0.87935600  0.87610600  1
  Ca  Ca7  1  0.74923900  0.74923900  0.75114900  1
  Ag  Ag8  1  0.62672000  0.12497700  0.12537800  1
  Ag  Ag9  1  0.25064800  0.25064800  0.24957000  1
  Ag  Ag10  1  0.12497700  0.62672000  0.12537800  1
  Ag  Ag11  1  0.14813500  0.14813500  0.53515200  1
  Ag  Ag12  1  0.87671600  0.36847200  0.37482800  1
  Ag  Ag13  1  0.59892000  0.59892000  0.22055200  1
  Ag  Ag14  1  0.39925400  0.39925400  0.78034600  1
  Ag  Ag15  1  0.36847200  0.87671600  0.37482800  1
  Ag  Ag16  1  0.12509600  0.62500600  0.62486600  1
  Ag  Ag17  1  0.84878500  0.84878500  0.47011600  1
  Ag  Ag18  1  0.62500600  0.12509600  0.62486600  1
  Ag  Ag19  1  0.87873000  0.37512500  0.87437800  1
  Ag  Ag20  1  0.37512500  0.87873000  0.87437800  1
  Ag  Ag21  1  0.10242100  0.10242100  0.71453900  1
  Ag  Ag22  1  0.99895800  0.99895800  0.00116300  1
  Ag  Ag23  1  0.34831000  0.34831000  0.96692800  1
  O  O24  1  0.26012000  0.81901900  0.06440900  1
  O  O25  1  0.92763600  0.92763600  0.17524700  1
  O  O26  1  0.81901900  0.26012000  0.06440900  1
  O  O27  1  0.81994100  0.81994100  0.05855200  1
  O  O28  1  0.43855800  0.43855800  0.18664000  1
  O  O29  1  0.50527300  0.06591100  0.31310000  1
  O  O30  1  0.44005500  0.98845200  0.18800700  1
  O  O31  1  0.17587900  0.17587900  0.43063100  1
  O  O32  1  0.06591100  0.50527300  0.31310000  1
  O  O33  1  0.32894100  0.32894100  0.07525400  1
  O  O34  1  0.06695600  0.06695600  0.31917300  1
  O  O35  1  0.98845200  0.44005500  0.18800700  1
  O  O36  1  0.77558100  0.30437300  0.56908600  1
  O  O37  1  0.68800200  0.68800200  0.42548100  1
  O  O38  1  0.69759500  0.21715400  0.42860500  1
  O  O39  1  0.42657500  0.42657500  0.67923500  1
  O  O40  1  0.30437300  0.77558100  0.56908600  1
  O  O41  1  0.57409100  0.57409100  0.32235300  1
  O  O42  1  0.31925200  0.31925200  0.57083800  1
  O  O43  1  0.21715400  0.69759500  0.42860500  1
  O  O44  1  0.93119700  0.93119700  0.67878800  1
  O  O45  1  0.03453100  0.55388800  0.82072200  1
  O  O46  1  0.94592400  0.47419000  0.68056200  1
  O  O47  1  0.67974800  0.67974800  0.92241500  1
  O  O48  1  0.55388800  0.03453100  0.82072200  1
  O  O49  1  0.82242200  0.82242200  0.57087900  1
  O  O50  1  0.55996200  0.55996200  0.81798100  1
  O  O51  1  0.47419000  0.94592400  0.68056200  1
  O  O52  1  0.17440800  0.17440800  0.94161800  1
  O  O53  1  0.19127900  0.73809800  0.93899700  1
  O  O54  1  0.07690200  0.07690200  0.82289700  1
  O  O55  1  0.73809800  0.19127900  0.93899700  1
