# generated using pymatgen
data_Ti3(P2O7)2
_symmetry_space_group_name_H-M   'P 1'
_cell_length_a   7.90549300
_cell_length_b   7.39046900
_cell_length_c   9.62787249
_cell_angle_alpha   69.38634039
_cell_angle_beta   90.00000000
_cell_angle_gamma   90.00000000
_symmetry_Int_Tables_number   1
_chemical_formula_structural   Ti3(P2O7)2
_chemical_formula_sum   'Ti6 P8 O28'
_cell_volume   526.49691191
_cell_formula_units_Z   2
loop_
 _symmetry_equiv_pos_site_id
 _symmetry_equiv_pos_as_xyz
  1  'x, y, z'
loop_
 _atom_site_type_symbol
 _atom_site_label
 _atom_site_symmetry_multiplicity
 _atom_site_fract_x
 _atom_site_fract_y
 _atom_site_fract_z
 _atom_site_occupancy
  Ti  Ti0  1  0.63321500  0.18584900  0.47214100  1
  Ti  Ti1  1  0.86678500  0.18584900  0.97214100  1
  Ti  Ti2  1  0.13321500  0.81415100  0.02785900  1
  Ti  Ti3  1  0.50000000  0.00000000  0.00000000  1
  Ti  Ti4  1  0.36678500  0.81415100  0.52785900  1
  Ti  Ti5  1  0.00000000  0.00000000  0.50000000  1
  P  P6  1  0.70887600  0.88060400  0.30535200  1
  P  P7  1  0.04895900  0.59966600  0.79487300  1
  P  P8  1  0.45104100  0.59966600  0.29487300  1
  P  P9  1  0.54895900  0.40033400  0.70512700  1
  P  P10  1  0.95104100  0.40033400  0.20512700  1
  P  P11  1  0.29112400  0.11939600  0.69464800  1
  P  P12  1  0.79112400  0.88060400  0.80535200  1
  P  P13  1  0.20887600  0.11939600  0.19464800  1
  O  O14  1  0.61168600  0.27133600  0.86294800  1
  O  O15  1  0.71147900  0.99685100  0.13658400  1
  O  O16  1  0.07805300  0.03635800  0.11181500  1
  O  O17  1  0.37918700  0.13737300  0.11991900  1
  O  O18  1  0.78852100  0.99685100  0.63658400  1
  O  O19  1  0.42194700  0.03635800  0.61181500  1
  O  O20  1  0.28852100  0.00314900  0.86341600  1
  O  O21  1  0.92194700  0.96364200  0.88818500  1
  O  O22  1  0.62081300  0.86262700  0.88008100  1
  O  O23  1  0.21147900  0.00314900  0.36341600  1
  O  O24  1  0.57805300  0.96364200  0.38818500  1
  O  O25  1  0.85778500  0.67513300  0.81273400  1
  O  O26  1  0.15881600  0.63734400  0.91165300  1
  O  O27  1  0.87918700  0.86262700  0.38008100  1
  O  O28  1  0.11168600  0.72866400  0.63705200  1
  O  O29  1  0.51905900  0.61142800  0.68201100  1
  O  O30  1  0.64221500  0.67513300  0.31273400  1
  O  O31  1  0.84118400  0.36265600  0.08834700  1
  O  O32  1  0.38831400  0.72866400  0.13705200  1
  O  O33  1  0.01905900  0.38857200  0.81798900  1
  O  O34  1  0.98094100  0.61142800  0.18201100  1
  O  O35  1  0.14221500  0.32486700  0.18726600  1
  O  O36  1  0.65881600  0.36265600  0.58834700  1
  O  O37  1  0.35778500  0.32486700  0.68726600  1
  O  O38  1  0.48094100  0.38857200  0.31798900  1
  O  O39  1  0.88831400  0.27133600  0.36294800  1
  O  O40  1  0.12081300  0.13737300  0.61991900  1
  O  O41  1  0.34118400  0.63734400  0.41165300  1
