# generated using pymatgen
data_Ti2ZnO4
_symmetry_space_group_name_H-M   'P 1'
_cell_length_a   6.12726970
_cell_length_b   6.12726970
_cell_length_c   14.85471554
_cell_angle_alpha   89.55762370
_cell_angle_beta   89.55762370
_cell_angle_gamma   58.30873687
_symmetry_Int_Tables_number   1
_chemical_formula_structural   Ti2ZnO4
_chemical_formula_sum   'Ti12 Zn6 O24'
_cell_volume   474.52096685
_cell_formula_units_Z   6
loop_
 _symmetry_equiv_pos_site_id
 _symmetry_equiv_pos_as_xyz
  1  'x, y, z'
loop_
 _atom_site_type_symbol
 _atom_site_label
 _atom_site_symmetry_multiplicity
 _atom_site_fract_x
 _atom_site_fract_y
 _atom_site_fract_z
 _atom_site_occupancy
  Ti  Ti0  1  0.81048800  0.34452800  0.83699800  1
  Ti  Ti1  1  0.50235500  0.50235500  0.62036800  1
  Ti  Ti2  1  0.49497000  0.49497000  0.00816800  1
  Ti  Ti3  1  0.34452800  0.81048800  0.83699800  1
  Ti  Ti4  1  0.51459900  0.98705600  0.50004000  1
  Ti  Ti5  1  0.16817000  0.16817000  0.28854800  1
  Ti  Ti6  1  0.98705600  0.51459900  0.50004000  1
  Ti  Ti7  1  0.19281000  0.64832400  0.15963400  1
  Ti  Ti8  1  0.83089800  0.83089800  0.71560400  1
  Ti  Ti9  1  0.64832400  0.19281000  0.15963400  1
  Ti  Ti10  1  0.49620800  0.49620800  0.37660800  1
  Ti  Ti11  1  0.15994600  0.15994600  0.03582700  1
  Zn  Zn12  1  0.83142600  0.83142600  0.96088500  1
  Zn  Zn13  1  0.16686300  0.16686300  0.66828800  1
  Zn  Zn14  1  0.33064400  0.33064400  0.83672100  1
  Zn  Zn15  1  0.83967500  0.83967500  0.32905100  1
  Zn  Zn16  1  0.00195800  0.00195800  0.49944400  1
  Zn  Zn17  1  0.67591800  0.67591800  0.16584700  1
  O  O18  1  0.65946100  0.19207500  0.91585900  1
  O  O19  1  0.50540800  0.50540800  0.74876000  1
  O  O20  1  0.19207500  0.65946100  0.91585900  1
  O  O21  1  0.65634700  0.65634700  0.91759600  1
  O  O22  1  0.33012100  0.84881900  0.57965900  1
  O  O23  1  0.00094400  0.00094400  0.75533800  1
  O  O24  1  0.17267600  0.17267600  0.41646200  1
  O  O25  1  0.48589700  0.99857900  0.75497100  1
  O  O26  1  0.84881900  0.33012100  0.57965900  1
  O  O27  1  0.16063000  0.16063000  0.90950300  1
  O  O28  1  0.33215600  0.33215600  0.57846700  1
  O  O29  1  0.99857900  0.48589700  0.75497100  1
  O  O30  1  0.00672500  0.50905200  0.24753900  1
  O  O31  1  0.66348600  0.66348600  0.41928000  1
  O  O32  1  0.15269300  0.66904900  0.41978000  1
  O  O33  1  0.50905200  0.00672500  0.24753900  1
  O  O34  1  0.84248200  0.84248200  0.09475000  1
  O  O35  1  0.82899400  0.82899400  0.58679500  1
  O  O36  1  0.00250600  0.00250600  0.24505500  1
  O  O37  1  0.66904900  0.15269300  0.41978000  1
  O  O38  1  0.32458300  0.32458300  0.07834600  1
  O  O39  1  0.82412300  0.33869700  0.08406100  1
  O  O40  1  0.49998200  0.49998200  0.24735900  1
  O  O41  1  0.33869700  0.82412300  0.08406100  1
