# generated using pymatgen
data_Zn2Ni11O13
_symmetry_space_group_name_H-M   'P 1'
_cell_length_a   3.00033893
_cell_length_b   19.67506716
_cell_length_c   4.23952400
_cell_angle_alpha   96.18554446
_cell_angle_beta   90.00015284
_cell_angle_gamma   85.62704098
_symmetry_Int_Tables_number   1
_chemical_formula_structural   Zn2Ni11O13
_chemical_formula_sum   'Zn2 Ni11 O13'
_cell_volume   248.07718098
_cell_formula_units_Z   1
loop_
 _symmetry_equiv_pos_site_id
 _symmetry_equiv_pos_as_xyz
  1  'x, y, z'
loop_
 _atom_site_type_symbol
 _atom_site_label
 _atom_site_symmetry_multiplicity
 _atom_site_fract_x
 _atom_site_fract_y
 _atom_site_fract_z
 _atom_site_occupancy
  Zn  Zn0  1  0.69227800  0.61543100  0.30770300  1
  Zn  Zn1  1  0.00002100  0.99995200  0.99997700  1
  Ni  Ni2  1  0.53860900  0.92272100  0.46134000  1
  Ni  Ni3  1  0.61498700  0.77003700  0.38502200  1
  Ni  Ni4  1  0.76966400  0.46067500  0.23033900  1
  Ni  Ni5  1  0.84613300  0.30769000  0.15387600  1
  Ni  Ni6  1  0.92264500  0.15471000  0.07737200  1
  Ni  Ni7  1  0.07732800  0.84534400  0.92265600  1
  Ni  Ni8  1  0.23098500  0.53806200  0.76902300  1
  Ni  Ni9  1  0.15368200  0.69267700  0.84631800  1
  Ni  Ni10  1  0.38457900  0.23083400  0.61541900  1
  Ni  Ni11  1  0.46137200  0.07731200  0.53867700  1
  Ni  Ni12  1  0.30773400  0.38454200  0.69225700  1
  O  O13  1  0.30791200  0.38415800  0.19209000  1
  O  O14  1  0.07671000  0.84656800  0.42328500  1
  O  O15  1  0.46051100  0.07900400  0.03951900  1
  O  O16  1  0.15287600  0.69426000  0.34713900  1
  O  O17  1  0.38437500  0.23122500  0.11560700  1
  O  O18  1  0.23181100  0.53638000  0.26818700  1
  O  O19  1  0.53942300  0.92112700  0.96054800  1
  O  O20  1  0.84614200  0.30769400  0.65384600  1
  O  O21  1  0.99995400  0.00009200  0.50004800  1
  O  O22  1  0.61560200  0.76881700  0.88441700  1
  O  O23  1  0.92300700  0.15399600  0.57699700  1
  O  O24  1  0.69236000  0.61529500  0.80763600  1
  O  O25  1  0.76929800  0.46139600  0.73070300  1
