# generated using pymatgen
data_MgV2O4
_symmetry_space_group_name_H-M   'P 1'
_cell_length_a   6.05262088
_cell_length_b   6.05262088
_cell_length_c   14.83510556
_cell_angle_alpha   89.67470558
_cell_angle_beta   89.67470558
_cell_angle_gamma   59.92659331
_symmetry_Int_Tables_number   1
_chemical_formula_structural   MgV2O4
_chemical_formula_sum   'Mg6 V12 O24'
_cell_volume   470.30237183
_cell_formula_units_Z   6
loop_
 _symmetry_equiv_pos_site_id
 _symmetry_equiv_pos_as_xyz
  1  'x, y, z'
loop_
 _atom_site_type_symbol
 _atom_site_label
 _atom_site_symmetry_multiplicity
 _atom_site_fract_x
 _atom_site_fract_y
 _atom_site_fract_z
 _atom_site_occupancy
  Mg  Mg0  1  0.33614900  0.33614900  0.04133100  1
  Mg  Mg1  1  0.66531800  0.66531800  0.33319500  1
  Mg  Mg2  1  0.83276500  0.83276500  0.16748200  1
  Mg  Mg3  1  0.33013600  0.33013600  0.66595200  1
  Mg  Mg4  1  0.49823200  0.49823200  0.49998900  1
  Mg  Mg5  1  0.16661800  0.16661800  0.83270800  1
  V  V6  1  0.83603100  0.32807000  0.16699400  1
  V  V7  1  0.00278000  0.00278000  0.37762500  1
  V  V8  1  0.99855700  0.99855700  0.00310100  1
  V  V9  1  0.32807000  0.83603100  0.16699400  1
  V  V10  1  0.49964200  0.99723400  0.49977500  1
  V  V11  1  0.66860200  0.66860200  0.70906100  1
  V  V12  1  0.99723400  0.49964200  0.49977500  1
  V  V13  1  0.16676200  0.66093700  0.83306100  1
  V  V14  1  0.32733500  0.32733500  0.28974600  1
  V  V15  1  0.66093700  0.16676100  0.83306100  1
  V  V16  1  0.99379800  0.99379800  0.62416700  1
  V  V17  1  0.66231500  0.66231500  0.95989100  1
  O  O18  1  0.69748900  0.15895600  0.08575200  1
  O  O19  1  0.00109500  0.00109500  0.24540300  1
  O  O20  1  0.15895600  0.69748900  0.08575200  1
  O  O21  1  0.15502500  0.15502500  0.08860200  1
  O  O22  1  0.35396200  0.82250500  0.41983600  1
  O  O23  1  0.50551100  0.50551100  0.24482900  1
  O  O24  1  0.66729500  0.66729500  0.57635500  1
  O  O25  1  0.50614400  0.98009500  0.24634700  1
  O  O26  1  0.82250500  0.35396200  0.41983600  1
  O  O27  1  0.66345900  0.66345900  0.09054900  1
  O  O28  1  0.82427100  0.82427100  0.42098300  1
  O  O29  1  0.98009500  0.50614400  0.24634700  1
  O  O30  1  0.01720400  0.49548600  0.75261200  1
  O  O31  1  0.17178100  0.17178100  0.57909300  1
  O  O32  1  0.16707000  0.64214000  0.57866500  1
  O  O33  1  0.49548600  0.01720400  0.75261200  1
  O  O34  1  0.33352100  0.33352100  0.90661700  1
  O  O35  1  0.32925300  0.32925300  0.42336600  1
  O  O36  1  0.49110600  0.49110600  0.75464500  1
  O  O37  1  0.64214000  0.16707000  0.57866500  1
  O  O38  1  0.84010900  0.84010900  0.91355800  1
  O  O39  1  0.83866600  0.30746900  0.91582200  1
  O  O40  1  0.99765600  0.99765600  0.75733700  1
  O  O41  1  0.30746900  0.83866600  0.91582200  1
