# generated using pymatgen
data_TiZnP2O7
_symmetry_space_group_name_H-M   'P 1'
_cell_length_a   6.51959900
_cell_length_b   6.60645992
_cell_length_c   6.75506763
_cell_angle_alpha   83.89951552
_cell_angle_beta   66.89358883
_cell_angle_gamma   81.06016123
_symmetry_Int_Tables_number   1
_chemical_formula_structural   TiZnP2O7
_chemical_formula_sum   'Ti2 Zn2 P4 O14'
_cell_volume   264.03042025
_cell_formula_units_Z   2
loop_
 _symmetry_equiv_pos_site_id
 _symmetry_equiv_pos_as_xyz
  1  'x, y, z'
loop_
 _atom_site_type_symbol
 _atom_site_label
 _atom_site_symmetry_multiplicity
 _atom_site_fract_x
 _atom_site_fract_y
 _atom_site_fract_z
 _atom_site_occupancy
  Ti  Ti0  1  0.90000600  0.35095900  0.22036600  1
  Ti  Ti1  1  0.09999400  0.64904100  0.77963400  1
  Zn  Zn2  1  0.70588600  0.12401400  0.83124900  1
  Zn  Zn3  1  0.29411400  0.87598600  0.16875100  1
  P  P4  1  0.77658800  0.86081700  0.23991200  1
  P  P5  1  0.22341200  0.13918300  0.76008800  1
  P  P6  1  0.35331400  0.38734700  0.33737600  1
  P  P7  1  0.64668600  0.61265300  0.66262400  1
  O  O8  1  0.37651900  0.21791200  0.52446300  1
  O  O9  1  0.62348100  0.78208800  0.47553700  1
  O  O10  1  0.91671800  0.02127400  0.25491000  1
  O  O11  1  0.08328200  0.97872600  0.74509000  1
  O  O12  1  0.74898500  0.40646300  0.55137300  1
  O  O13  1  0.25101500  0.59353700  0.44862700  1
  O  O14  1  0.40337500  0.61179400  0.82188000  1
  O  O15  1  0.59662500  0.38820600  0.17812000  1
  O  O16  1  0.39087700  0.05064000  0.86619400  1
  O  O17  1  0.60912300  0.94936000  0.13380600  1
  O  O18  1  0.06602100  0.33026000  0.87373500  1
  O  O19  1  0.93397900  0.66974000  0.12626500  1
  O  O20  1  0.79606900  0.69330700  0.75339600  1
  O  O21  1  0.20393100  0.30669300  0.24660400  1
