# generated using pymatgen
data_Ca(SnO2)2
_symmetry_space_group_name_H-M   'P 1'
_cell_length_a   6.73862991
_cell_length_b   6.73862991
_cell_length_c   17.78461633
_cell_angle_alpha   85.74154519
_cell_angle_beta   85.74154519
_cell_angle_gamma   56.50914924
_symmetry_Int_Tables_number   1
_chemical_formula_structural   Ca(SnO2)2
_chemical_formula_sum   'Ca6 Sn12 O24'
_cell_volume   671.10664939
_cell_formula_units_Z   6
loop_
 _symmetry_equiv_pos_site_id
 _symmetry_equiv_pos_as_xyz
  1  'x, y, z'
loop_
 _atom_site_type_symbol
 _atom_site_label
 _atom_site_symmetry_multiplicity
 _atom_site_fract_x
 _atom_site_fract_y
 _atom_site_fract_z
 _atom_site_occupancy
  Ca  Ca0  1  0.83547300  0.83547300  0.95928600  1
  Ca  Ca1  1  0.16671400  0.16671400  0.66652000  1
  Ca  Ca2  1  0.33707500  0.33707500  0.83170300  1
  Ca  Ca3  1  0.83190900  0.83190900  0.33369500  1
  Ca  Ca4  1  0.00006800  0.00006800  0.49988400  1
  Ca  Ca5  1  0.66266000  0.66266000  0.16837100  1
  Sn  Sn6  1  0.83799500  0.33543800  0.83322200  1
  Sn  Sn7  1  0.50292900  0.50292900  0.62349200  1
  Sn  Sn8  1  0.49940800  0.49940800  0.99095100  1
  Sn  Sn9  1  0.33543800  0.83799500  0.83322200  1
  Sn  Sn10  1  0.49989900  0.00010100  0.50006300  1
  Sn  Sn11  1  0.16756900  0.16756900  0.28832000  1
  Sn  Sn12  1  0.00010100  0.49989900  0.50006300  1
  Sn  Sn13  1  0.16165500  0.66431200  0.16562400  1
  Sn  Sn14  1  0.83262300  0.83262300  0.71042500  1
  Sn  Sn15  1  0.66431200  0.16165500  0.16562400  1
  Sn  Sn16  1  0.49689100  0.49689100  0.37641600  1
  Sn  Sn17  1  0.16366500  0.16366500  0.04703000  1
  O  O18  1  0.67304600  0.20128200  0.90662700  1
  O  O19  1  0.52312200  0.52312200  0.77389600  1
  O  O20  1  0.20128200  0.67304600  0.90662700  1
  O  O21  1  0.65723300  0.65723300  0.89847900  1
  O  O22  1  0.34362500  0.85527800  0.57485500  1
  O  O23  1  0.02315000  0.02315000  0.76917700  1
  O  O24  1  0.18377100  0.18377100  0.44005700  1
  O  O25  1  0.47890000  0.99220900  0.75773100  1
  O  O26  1  0.85527800  0.34362500  0.57485500  1
  O  O27  1  0.15327100  0.15327100  0.89180300  1
  O  O28  1  0.31092500  0.31092500  0.56436100  1
  O  O29  1  0.99220900  0.47890000  0.75773100  1
  O  O30  1  0.00649300  0.52149700  0.24176400  1
  O  O31  1  0.68829800  0.68829800  0.43592900  1
  O  O32  1  0.14438500  0.65629800  0.42515600  1
  O  O33  1  0.52149700  0.00649300  0.24176400  1
  O  O34  1  0.84421200  0.84421200  0.09943000  1
  O  O35  1  0.81642200  0.81642200  0.55955700  1
  O  O36  1  0.96940000  0.96940000  0.23037500  1
  O  O37  1  0.65629800  0.14438500  0.42515600  1
  O  O38  1  0.34555300  0.34555300  0.10512100  1
  O  O39  1  0.82523300  0.31317800  0.10002500  1
  O  O40  1  0.47845800  0.47845800  0.22558000  1
  O  O41  1  0.31317800  0.82523300  0.10002500  1
