# generated using pymatgen
data_CaTi3(P2O7)2
_symmetry_space_group_name_H-M   'P 1'
_cell_length_a   7.62135600
_cell_length_b   7.60724300
_cell_length_c   9.72471834
_cell_angle_alpha   69.78982776
_cell_angle_beta   90.00000000
_cell_angle_gamma   90.00000000
_symmetry_Int_Tables_number   1
_chemical_formula_structural   CaTi3(P2O7)2
_chemical_formula_sum   'Ca2 Ti6 P8 O28'
_cell_volume   529.10180199
_cell_formula_units_Z   2
loop_
 _symmetry_equiv_pos_site_id
 _symmetry_equiv_pos_as_xyz
  1  'x, y, z'
loop_
 _atom_site_type_symbol
 _atom_site_label
 _atom_site_symmetry_multiplicity
 _atom_site_fract_x
 _atom_site_fract_y
 _atom_site_fract_z
 _atom_site_occupancy
  Ca  Ca0  1  0.00000000  0.50000000  0.00000000  1
  Ca  Ca1  1  0.50000000  0.50000000  0.50000000  1
  Ti  Ti2  1  0.15150800  0.82286200  0.52093500  1
  Ti  Ti3  1  0.65150800  0.17713800  0.97906500  1
  Ti  Ti4  1  0.84849200  0.17713800  0.47906500  1
  Ti  Ti5  1  0.34849200  0.82286200  0.02093500  1
  Ti  Ti6  1  0.00000000  0.00000000  0.00000000  1
  Ti  Ti7  1  0.50000000  0.00000000  0.50000000  1
  P  P8  1  0.94006800  0.41089300  0.69987200  1
  P  P9  1  0.44006800  0.58910700  0.80012800  1
  P  P10  1  0.05993200  0.58910700  0.30012800  1
  P  P11  1  0.55993200  0.41089300  0.19987200  1
  P  P12  1  0.20546300  0.12888400  0.68265800  1
  P  P13  1  0.70546300  0.87111600  0.81734200  1
  P  P14  1  0.79453700  0.87111600  0.31734200  1
  P  P15  1  0.29453700  0.12888400  0.18265800  1
  O  O16  1  0.38100200  0.18107100  0.60228700  1
  O  O17  1  0.88100200  0.81892900  0.89771300  1
  O  O18  1  0.61899800  0.81892900  0.39771300  1
  O  O19  1  0.11899800  0.18107100  0.10228700  1
  O  O20  1  0.39782400  0.70182600  0.63666100  1
  O  O21  1  0.89782400  0.29817400  0.86333900  1
  O  O22  1  0.60217600  0.29817400  0.36333900  1
  O  O23  1  0.10217600  0.70182600  0.13666100  1
  O  O24  1  0.80374100  0.37840700  0.59524700  1
  O  O25  1  0.30374100  0.62159300  0.90475300  1
  O  O26  1  0.19625900  0.62159300  0.40475300  1
  O  O27  1  0.69625900  0.37840700  0.09524700  1
  O  O28  1  0.12574700  0.32951200  0.66787300  1
  O  O29  1  0.62574700  0.67048800  0.83212700  1
  O  O30  1  0.87425300  0.67048800  0.33212700  1
  O  O31  1  0.37425300  0.32951200  0.16787300  1
  O  O32  1  0.51463900  0.61185300  0.18356500  1
  O  O33  1  0.01463900  0.38814700  0.31643500  1
  O  O34  1  0.48536100  0.38814700  0.81643500  1
  O  O35  1  0.98536100  0.61185300  0.68356500  1
  O  O36  1  0.78722000  0.97851700  0.15137500  1
  O  O37  1  0.28722000  0.02148300  0.34862500  1
  O  O38  1  0.21278000  0.02148300  0.84862500  1
  O  O39  1  0.71278000  0.97851700  0.65137500  1
  O  O40  1  0.42177200  0.03587800  0.10613100  1
  O  O41  1  0.92177200  0.96412200  0.39386900  1
  O  O42  1  0.57822800  0.96412200  0.89386900  1
  O  O43  1  0.07822800  0.03587800  0.60613100  1
