# generated using pymatgen
data_Y2Zr2O7
_symmetry_space_group_name_H-M   'P 1'
_cell_length_a   5.94499931
_cell_length_b   5.94499931
_cell_length_c   5.62808398
_cell_angle_alpha   83.94817943
_cell_angle_beta   83.94817943
_cell_angle_gamma   108.12065219
_symmetry_Int_Tables_number   1
_chemical_formula_structural   Y2Zr2O7
_chemical_formula_sum   'Y2 Zr2 O7'
_cell_volume   185.97325163
_cell_formula_units_Z   1
loop_
 _symmetry_equiv_pos_site_id
 _symmetry_equiv_pos_as_xyz
  1  'x, y, z'
loop_
 _atom_site_type_symbol
 _atom_site_label
 _atom_site_symmetry_multiplicity
 _atom_site_fract_x
 _atom_site_fract_y
 _atom_site_fract_z
 _atom_site_occupancy
  Y  Y0  1  0.31013900  0.68986100  0.00000000  1
  Y  Y1  1  0.68986100  0.31013900  0.00000000  1
  Zr  Zr2  1  0.74339200  0.74339200  0.39706200  1
  Zr  Zr3  1  0.25660800  0.25660800  0.60293800  1
  O  O4  1  0.94223400  0.59572400  0.19727400  1
  O  O5  1  0.59572400  0.94223400  0.19727400  1
  O  O6  1  0.55775800  0.55775800  0.73067800  1
  O  O7  1  0.00000000  0.00000000  0.50000000  1
  O  O8  1  0.44224200  0.44224200  0.26932200  1
  O  O9  1  0.05776600  0.40427600  0.80272600  1
  O  O10  1  0.40427600  0.05776600  0.80272600  1
