# generated using pymatgen
data_CaTiAsO5
_symmetry_space_group_name_H-M   'P 1'
_cell_length_a   7.98253600
_cell_length_b   5.97428900
_cell_length_c   9.25477299
_cell_angle_alpha   88.40384253
_cell_angle_beta   90.00000000
_cell_angle_gamma   90.00000000
_symmetry_Int_Tables_number   1
_chemical_formula_structural   CaTiAsO5
_chemical_formula_sum   'Ca4 Ti4 As4 O20'
_cell_volume   441.18865696
_cell_formula_units_Z   4
loop_
 _symmetry_equiv_pos_site_id
 _symmetry_equiv_pos_as_xyz
  1  'x, y, z'
loop_
 _atom_site_type_symbol
 _atom_site_label
 _atom_site_symmetry_multiplicity
 _atom_site_fract_x
 _atom_site_fract_y
 _atom_site_fract_z
 _atom_site_occupancy
  Ca  Ca0  1  0.05913500  0.48677500  0.94198700  1
  Ca  Ca1  1  0.40929600  0.00016800  0.38168200  1
  Ca  Ca2  1  0.55913500  0.51322500  0.05801300  1
  Ca  Ca3  1  0.90929600  0.99983200  0.61831800  1
  Ti  Ti4  1  0.00959400  0.79191900  0.26788800  1
  Ti  Ti5  1  0.50290400  0.72940200  0.72594500  1
  Ti  Ti6  1  0.50959400  0.20808100  0.73211200  1
  Ti  Ti7  1  0.00290400  0.27059800  0.27405500  1
  As  As8  1  0.32092500  0.95976000  0.01875900  1
  As  As9  1  0.14976400  0.52235600  0.57156600  1
  As  As10  1  0.82092500  0.04024000  0.98124100  1
  As  As11  1  0.64976400  0.47764400  0.42843400  1
  O  O12  1  0.15801600  0.04036500  0.24168400  1
  O  O13  1  0.34835200  0.47596700  0.64504300  1
  O  O14  1  0.65801600  0.95963500  0.75831600  1
  O  O15  1  0.84835200  0.52403300  0.35495700  1
  O  O16  1  0.47352000  0.87322500  0.14772500  1
  O  O17  1  0.01675800  0.61460800  0.70098500  1
  O  O18  1  0.97352000  0.12677500  0.85227500  1
  O  O19  1  0.51675800  0.38539200  0.29901500  1
  O  O20  1  0.43163200  0.20530200  0.92963100  1
  O  O21  1  0.09064100  0.27451200  0.49409800  1
  O  O22  1  0.93163200  0.79469800  0.07036900  1
  O  O23  1  0.59064100  0.72548800  0.50590200  1
  O  O24  1  0.36364200  0.71888200  0.89805700  1
  O  O25  1  0.16625200  0.73964600  0.44661400  1
  O  O26  1  0.86364200  0.28111800  0.10194300  1
  O  O27  1  0.66625200  0.26035400  0.55338600  1
  O  O28  1  0.12839100  0.50209600  0.20059200  1
  O  O29  1  0.37033300  0.00910600  0.64886500  1
  O  O30  1  0.62839100  0.49790400  0.79940800  1
  O  O31  1  0.87033300  0.99089400  0.35113500  1
