# generated using pymatgen
data_SbO2
_symmetry_space_group_name_H-M   'P 1'
_cell_length_a   6.59735821
_cell_length_b   6.59735821
_cell_length_c   20.92862374
_cell_angle_alpha   86.42251104
_cell_angle_beta   86.42251104
_cell_angle_gamma   58.20954758
_symmetry_Int_Tables_number   1
_chemical_formula_structural   SbO2
_chemical_formula_sum   'Sb16 O32'
_cell_volume   772.28823933
_cell_formula_units_Z   16
loop_
 _symmetry_equiv_pos_site_id
 _symmetry_equiv_pos_as_xyz
  1  'x, y, z'
loop_
 _atom_site_type_symbol
 _atom_site_label
 _atom_site_symmetry_multiplicity
 _atom_site_fract_x
 _atom_site_fract_y
 _atom_site_fract_z
 _atom_site_occupancy
  Sb  Sb0  1  0.83063100  0.32658600  0.87829800  1
  Sb  Sb1  1  0.03034100  0.03034100  0.72853300  1
  Sb  Sb2  1  0.32658600  0.83063100  0.87829800  1
  Sb  Sb3  1  0.15352100  0.15352100  0.49076900  1
  Sb  Sb4  1  0.19650500  0.68634600  0.61326600  1
  Sb  Sb5  1  0.35913600  0.35913600  0.77507100  1
  Sb  Sb6  1  0.69595900  0.69595900  0.25399300  1
  Sb  Sb7  1  0.68634600  0.19650500  0.61326600  1
  Sb  Sb8  1  0.72577900  0.22711500  0.37890900  1
  Sb  Sb9  1  0.75439600  0.75439600  0.50842600  1
  Sb  Sb10  1  0.22711500  0.72577900  0.37890900  1
  Sb  Sb11  1  0.78375700  0.25747600  0.13950100  1
  Sb  Sb12  1  0.25747600  0.78375700  0.13950100  1
  Sb  Sb13  1  0.30017800  0.30017800  0.26337300  1
  Sb  Sb14  1  0.53703700  0.53703700  0.01094000  1
  Sb  Sb15  1  0.81068000  0.81068000  0.99807900  1
  O  O16  1  0.45492300  0.86151900  0.97245100  1
  O  O17  1  0.65432900  0.65432900  0.83735100  1
  O  O18  1  0.86151900  0.45492300  0.97245100  1
  O  O19  1  0.46713300  0.46713300  0.92431700  1
  O  O20  1  0.17535900  0.17535900  0.77234000  1
  O  O21  1  0.84617400  0.30259800  0.66532200  1
  O  O22  1  0.73161500  0.18243300  0.78609200  1
  O  O23  1  0.00435400  0.00435400  0.55548000  1
  O  O24  1  0.30259800  0.84617400  0.66532200  1
  O  O25  1  0.91704900  0.91704900  0.92392200  1
  O  O26  1  0.87983600  0.87983600  0.66995800  1
  O  O27  1  0.18243300  0.73161500  0.78609200  1
  O  O28  1  0.33868500  0.85767900  0.44144100  1
  O  O29  1  0.50899300  0.50899300  0.56494000  1
  O  O30  1  0.04108700  0.56793700  0.56256400  1
  O  O31  1  0.56488300  0.56488300  0.33061200  1
  O  O32  1  0.85767900  0.33868500  0.44144100  1
  O  O33  1  0.36987900  0.36987900  0.67228800  1
  O  O34  1  0.40047600  0.40047600  0.42303600  1
  O  O35  1  0.56793700  0.04108700  0.56256400  1
  O  O36  1  0.05160500  0.05160500  0.33478800  1
  O  O37  1  0.86451500  0.38785400  0.20977700  1
  O  O38  1  0.59539300  0.12220200  0.31345300  1
  O  O39  1  0.11579600  0.11579600  0.10341300  1
  O  O40  1  0.38785400  0.86451500  0.20977700  1
  O  O41  1  0.88664600  0.88664600  0.42957000  1
  O  O42  1  0.91546000  0.91546000  0.17334600  1
  O  O43  1  0.12220200  0.59539300  0.31345300  1
  O  O44  1  0.61225200  0.61225200  0.09821400  1
  O  O45  1  0.21504800  0.66810600  0.05667200  1
  O  O46  1  0.42897700  0.42897700  0.18331900  1
  O  O47  1  0.66810600  0.21504800  0.05667200  1
