# generated using pymatgen
data_WN2
_symmetry_space_group_name_H-M   'P 1'
_cell_length_a   5.95845519
_cell_length_b   5.95845519
_cell_length_c   5.95845519
_cell_angle_alpha   121.50061215
_cell_angle_beta   121.50061215
_cell_angle_gamma   87.41993864
_symmetry_Int_Tables_number   1
_chemical_formula_structural   WN2
_chemical_formula_sum   'W2 N4'
_cell_volume   146.03056347
_cell_formula_units_Z   2
loop_
 _symmetry_equiv_pos_site_id
 _symmetry_equiv_pos_as_xyz
  1  'x, y, z'
loop_
 _atom_site_type_symbol
 _atom_site_label
 _atom_site_symmetry_multiplicity
 _atom_site_fract_x
 _atom_site_fract_y
 _atom_site_fract_z
 _atom_site_occupancy
  W  W0  1  0.50000000  0.50000000  0.00000000  1
  W  W1  1  0.25000000  0.75000000  0.50000000  1
  N  N2  1  0.87500000  0.54999300  0.17499300  1
  N  N3  1  0.29999300  0.12500000  0.67499300  1
  N  N4  1  0.37500000  0.70000700  0.82500700  1
  N  N5  1  0.45000700  0.62500000  0.32500700  1
