# generated using pymatgen
data_VO2
_symmetry_space_group_name_H-M   'P 1'
_cell_length_a   6.01549290
_cell_length_b   6.00651887
_cell_length_c   17.74721064
_cell_angle_alpha   59.36673501
_cell_angle_beta   59.38448070
_cell_angle_gamma   60.07937985
_symmetry_Int_Tables_number   1
_chemical_formula_structural   VO2
_chemical_formula_sum   'V12 O24'
_cell_volume   449.36588115
_cell_formula_units_Z   12
loop_
 _symmetry_equiv_pos_site_id
 _symmetry_equiv_pos_as_xyz
  1  'x, y, z'
loop_
 _atom_site_type_symbol
 _atom_site_label
 _atom_site_symmetry_multiplicity
 _atom_site_fract_x
 _atom_site_fract_y
 _atom_site_fract_z
 _atom_site_occupancy
  V  V0  1  0.48928300  0.48914900  0.16558500  1
  V  V1  1  0.00527200  0.50879300  0.49628800  1
  V  V2  1  0.51727700  0.50162300  0.32422700  1
  V  V3  1  0.48603600  0.02345500  0.16676500  1
  V  V4  1  0.50160700  0.51175500  0.49398400  1
  V  V5  1  0.02592000  0.49056500  0.16461800  1
  V  V6  1  0.50637800  0.49555200  0.66288100  1
  V  V7  1  0.49943600  0.00507500  0.49676100  1
  V  V8  1  0.50251300  0.50072700  0.82498300  1
  V  V9  1  0.48814300  0.00798000  0.83648600  1
  V  V10  1  0.00673400  0.49067400  0.83585500  1
  V  V11  1  0.87615900  0.87497400  0.95570100  1
  O  O12  1  0.23412300  0.23313500  0.10697400  1
  O  O13  1  0.23354100  0.71259500  0.10559300  1
  O  O14  1  0.25668100  0.25872200  0.24207200  1
  O  O15  1  0.70857300  0.23590100  0.10681300  1
  O  O16  1  0.26867300  0.27729800  0.41825200  1
  O  O17  1  0.30622900  0.72353900  0.24746000  1
  O  O18  1  0.74784200  0.74618300  0.08555100  1
  O  O19  1  0.72743800  0.29832800  0.24864100  1
  O  O20  1  0.27824100  0.70297800  0.41624700  1
  O  O21  1  0.26939400  0.27720500  0.56322800  1
  O  O22  1  0.70098000  0.26812300  0.41658600  1
  O  O23  1  0.72831500  0.72409900  0.24834700  1
  O  O24  1  0.26858100  0.27034100  0.75420200  1
  O  O25  1  0.30332700  0.74724100  0.57297400  1
  O  O26  1  0.73682200  0.73177300  0.42882800  1
  O  O27  1  0.72928300  0.30570400  0.57638700  1
  O  O28  1  0.27298700  0.27507100  0.90370900  1
  O  O29  1  0.28397500  0.70385100  0.74851900  1
  O  O30  1  0.70666300  0.27834000  0.75067500  1
  O  O31  1  0.74490900  0.73834400  0.57070900  1
  O  O32  1  0.22878200  0.76342000  0.91259200  1
  O  O33  1  0.76437600  0.22914900  0.91227400  1
  O  O34  1  0.71140900  0.71429800  0.78197300  1
  O  O35  1  0.76249500  0.76244200  0.91215900  1
