# generated using pymatgen
data_MgCrAsO5
_symmetry_space_group_name_H-M   'P 1'
_cell_length_a   6.05044900
_cell_length_b   7.72152500
_cell_length_c   8.49629800
_cell_angle_alpha   90.00000000
_cell_angle_beta   90.00000000
_cell_angle_gamma   90.00000000
_symmetry_Int_Tables_number   1
_chemical_formula_structural   MgCrAsO5
_chemical_formula_sum   'Mg4 Cr4 As4 O20'
_cell_volume   396.93593972
_cell_formula_units_Z   4
loop_
 _symmetry_equiv_pos_site_id
 _symmetry_equiv_pos_as_xyz
  1  'x, y, z'
loop_
 _atom_site_type_symbol
 _atom_site_label
 _atom_site_symmetry_multiplicity
 _atom_site_fract_x
 _atom_site_fract_y
 _atom_site_fract_z
 _atom_site_occupancy
  Mg  Mg0  1  0.05330100  0.82611500  0.68533900  1
  Mg  Mg1  1  0.44669900  0.17388500  0.18533900  1
  Mg  Mg2  1  0.94669900  0.32611500  0.81466100  1
  Mg  Mg3  1  0.55330100  0.67388500  0.31466100  1
  Cr  Cr4  1  0.25691700  0.75530600  0.00025800  1
  Cr  Cr5  1  0.24308300  0.24469400  0.50025800  1
  Cr  Cr6  1  0.74308300  0.25530600  0.49974200  1
  Cr  Cr7  1  0.75691700  0.74469400  0.99974200  1
  As  As8  1  0.48163500  0.10092500  0.81964500  1
  As  As9  1  0.01836500  0.89907500  0.31964500  1
  As  As10  1  0.51836500  0.60092500  0.68035500  1
  As  As11  1  0.98163500  0.39907500  0.18035500  1
  O  O12  1  0.50982600  0.90329900  0.91660800  1
  O  O13  1  0.99017400  0.09670100  0.41660800  1
  O  O14  1  0.49017400  0.40329900  0.58339200  1
  O  O15  1  0.00982600  0.59670100  0.08339200  1
  O  O16  1  0.43042600  0.24780000  0.96273500  1
  O  O17  1  0.06957400  0.75220000  0.46273500  1
  O  O18  1  0.56957400  0.74780000  0.53726500  1
  O  O19  1  0.93042600  0.25220000  0.03726500  1
  O  O20  1  0.72762000  0.14033100  0.72211800  1
  O  O21  1  0.77238000  0.85966900  0.22211800  1
  O  O22  1  0.27238000  0.64033100  0.77788200  1
  O  O23  1  0.22762000  0.35966900  0.27788200  1
  O  O24  1  0.25399200  0.08705100  0.69652100  1
  O  O25  1  0.24600800  0.91294900  0.19652100  1
  O  O26  1  0.74600800  0.58705100  0.80347900  1
  O  O27  1  0.75399200  0.41294900  0.30347900  1
  O  O28  1  0.00018900  0.87056600  0.90598500  1
  O  O29  1  0.49981100  0.12943400  0.40598500  1
  O  O30  1  0.99981100  0.37056600  0.59401500  1
  O  O31  1  0.50018900  0.62943400  0.09401500  1
