# generated using pymatgen
data_ZnSnP2O7
_symmetry_space_group_name_H-M   'P 1'
_cell_length_a   7.00016800
_cell_length_b   7.04945317
_cell_length_c   7.15590117
_cell_angle_alpha   67.08792977
_cell_angle_beta   82.46961370
_cell_angle_gamma   73.63386020
_symmetry_Int_Tables_number   1
_chemical_formula_structural   ZnSnP2O7
_chemical_formula_sum   'Zn2 Sn2 P4 O14'
_cell_volume   311.99386682
_cell_formula_units_Z   2
loop_
 _symmetry_equiv_pos_site_id
 _symmetry_equiv_pos_as_xyz
  1  'x, y, z'
loop_
 _atom_site_type_symbol
 _atom_site_label
 _atom_site_symmetry_multiplicity
 _atom_site_fract_x
 _atom_site_fract_y
 _atom_site_fract_z
 _atom_site_occupancy
  Zn  Zn0  1  0.20628400  0.94728200  0.59111800  1
  Zn  Zn1  1  0.79371600  0.05271800  0.40888200  1
  Sn  Sn2  1  0.28238400  0.27378400  0.89617400  1
  Sn  Sn3  1  0.71761600  0.72621600  0.10382600  1
  P  P4  1  0.82343200  0.20417700  0.78584200  1
  P  P5  1  0.17656800  0.79582300  0.21415800  1
  P  P6  1  0.36958600  0.32609800  0.34106800  1
  P  P7  1  0.63041400  0.67390200  0.65893200  1
  O  O8  1  0.29780100  0.56059800  0.35750200  1
  O  O9  1  0.70219900  0.43940200  0.64249800  1
  O  O10  1  0.96849500  0.22782100  0.90929800  1
  O  O11  1  0.03150500  0.77217900  0.09070200  1
  O  O12  1  0.41002200  0.69305400  0.72888300  1
  O  O13  1  0.58997800  0.30694600  0.27111700  1
  O  O14  1  0.65474200  0.83045300  0.44012700  1
  O  O15  1  0.34525800  0.16954700  0.55987300  1
  O  O16  1  0.07700200  0.89760300  0.37380300  1
  O  O17  1  0.92299800  0.10239700  0.62619700  1
  O  O18  1  0.33459900  0.91042800  0.08581500  1
  O  O19  1  0.66540100  0.08957200  0.91418500  1
  O  O20  1  0.76434900  0.68684100  0.80244400  1
  O  O21  1  0.23565100  0.31315900  0.19755600  1
