# generated using pymatgen
data_ZnP2WO7
_symmetry_space_group_name_H-M   'P 1'
_cell_length_a   6.73214900
_cell_length_b   6.73305744
_cell_length_c   6.96684507
_cell_angle_alpha   85.59478641
_cell_angle_beta   67.91646576
_cell_angle_gamma   82.37564246
_symmetry_Int_Tables_number   1
_chemical_formula_structural   ZnP2WO7
_chemical_formula_sum   'Zn2 P4 W2 O14'
_cell_volume   289.91345560
_cell_formula_units_Z   2
loop_
 _symmetry_equiv_pos_site_id
 _symmetry_equiv_pos_as_xyz
  1  'x, y, z'
loop_
 _atom_site_type_symbol
 _atom_site_label
 _atom_site_symmetry_multiplicity
 _atom_site_fract_x
 _atom_site_fract_y
 _atom_site_fract_z
 _atom_site_occupancy
  Zn  Zn0  1  0.68871900  0.12908000  0.84503800  1
  Zn  Zn1  1  0.31128100  0.87092000  0.15496200  1
  P  P2  1  0.77241000  0.86189300  0.24434400  1
  P  P3  1  0.22759000  0.13810700  0.75565600  1
  P  P4  1  0.34817000  0.38203600  0.34905800  1
  P  P5  1  0.65183000  0.61796400  0.65094200  1
  W  W6  1  0.89855500  0.34790500  0.21884800  1
  W  W7  1  0.10144500  0.65209500  0.78115200  1
  O  O8  1  0.36250700  0.21331000  0.52727000  1
  O  O9  1  0.63749300  0.78669000  0.47273000  1
  O  O10  1  0.90610600  0.02348000  0.25988500  1
  O  O11  1  0.09389400  0.97652000  0.74011500  1
  O  O12  1  0.74827500  0.41983300  0.53795200  1
  O  O13  1  0.25172500  0.58016700  0.46204800  1
  O  O14  1  0.41866300  0.61408600  0.79936400  1
  O  O15  1  0.58133700  0.38591400  0.20063600  1
  O  O16  1  0.38959400  0.05980100  0.85945900  1
  O  O17  1  0.61040600  0.94019900  0.14054100  1
  O  O18  1  0.07383600  0.32641400  0.86953300  1
  O  O19  1  0.92616400  0.67358600  0.13046700  1
  O  O20  1  0.79141300  0.69073300  0.75292300  1
  O  O21  1  0.20858700  0.30926700  0.24707700  1
