# generated using pymatgen
data_CaCoAsO5
_symmetry_space_group_name_H-M   'P 1'
_cell_length_a   5.82317900
_cell_length_b   7.62987400
_cell_length_c   8.95542200
_cell_angle_alpha   90.00000000
_cell_angle_beta   90.00000000
_cell_angle_gamma   90.00000000
_symmetry_Int_Tables_number   1
_chemical_formula_structural   CaCoAsO5
_chemical_formula_sum   'Ca4 Co4 As4 O20'
_cell_volume   397.89049246
_cell_formula_units_Z   4
loop_
 _symmetry_equiv_pos_site_id
 _symmetry_equiv_pos_as_xyz
  1  'x, y, z'
loop_
 _atom_site_type_symbol
 _atom_site_label
 _atom_site_symmetry_multiplicity
 _atom_site_fract_x
 _atom_site_fract_y
 _atom_site_fract_z
 _atom_site_occupancy
  Ca  Ca0  1  0.97511500  0.85487000  0.66785700  1
  Ca  Ca1  1  0.52488500  0.14513000  0.16785700  1
  Ca  Ca2  1  0.02488500  0.35487000  0.83214300  1
  Ca  Ca3  1  0.47511500  0.64513000  0.33214300  1
  Co  Co4  1  0.25369000  0.75315700  0.99855100  1
  Co  Co5  1  0.24631000  0.24684300  0.49855100  1
  Co  Co6  1  0.74631000  0.25315700  0.50144900  1
  Co  Co7  1  0.75369000  0.74684300  0.00144900  1
  As  As8  1  0.48367000  0.11070900  0.81252700  1
  As  As9  1  0.01633000  0.88929100  0.31252700  1
  As  As10  1  0.51633000  0.61070900  0.68747300  1
  As  As11  1  0.98367000  0.38929100  0.18747300  1
  O  O12  1  0.50887200  0.93044100  0.93256100  1
  O  O13  1  0.99112800  0.06955900  0.43256100  1
  O  O14  1  0.49112800  0.43044100  0.56743900  1
  O  O15  1  0.00887200  0.56955900  0.06743900  1
  O  O16  1  0.41602400  0.27823300  0.93035000  1
  O  O17  1  0.08397600  0.72176700  0.43035000  1
  O  O18  1  0.58397600  0.77823300  0.56965000  1
  O  O19  1  0.91602400  0.22176700  0.06965000  1
  O  O20  1  0.74247800  0.13518900  0.72026900  1
  O  O21  1  0.75752200  0.86481100  0.22026900  1
  O  O22  1  0.25752200  0.63518900  0.77973100  1
  O  O23  1  0.24247800  0.36481100  0.27973100  1
  O  O24  1  0.24728400  0.09669300  0.69608000  1
  O  O25  1  0.25271600  0.90330700  0.19608000  1
  O  O26  1  0.75271600  0.59669300  0.80392000  1
  O  O27  1  0.74728400  0.40330700  0.30392000  1
  O  O28  1  0.99742800  0.86421200  0.93018000  1
  O  O29  1  0.50257200  0.13578800  0.43018000  1
  O  O30  1  0.00257200  0.36421200  0.56982000  1
  O  O31  1  0.49742800  0.63578800  0.06982000  1
