# generated using pymatgen
data_ZnSnAsO5
_symmetry_space_group_name_H-M   'P 1'
_cell_length_a   8.70552900
_cell_length_b   6.86344500
_cell_length_c   8.04003971
_cell_angle_alpha   86.83396019
_cell_angle_beta   90.00000000
_cell_angle_gamma   90.00000000
_symmetry_Int_Tables_number   1
_chemical_formula_structural   ZnSnAsO5
_chemical_formula_sum   'Zn4 Sn4 As4 O20'
_cell_volume   479.65849166
_cell_formula_units_Z   4
loop_
 _symmetry_equiv_pos_site_id
 _symmetry_equiv_pos_as_xyz
  1  'x, y, z'
loop_
 _atom_site_type_symbol
 _atom_site_label
 _atom_site_symmetry_multiplicity
 _atom_site_fract_x
 _atom_site_fract_y
 _atom_site_fract_z
 _atom_site_occupancy
  Zn  Zn0  1  0.93931500  0.22217600  0.69196700  1
  Zn  Zn1  1  0.43931500  0.77782400  0.30803300  1
  Zn  Zn2  1  0.05876500  0.24583800  0.22056000  1
  Zn  Zn3  1  0.55876500  0.75416200  0.77944000  1
  Sn  Sn4  1  0.25220500  0.99213700  0.74705800  1
  Sn  Sn5  1  0.75220500  0.00786300  0.25294200  1
  Sn  Sn6  1  0.74452200  0.51040400  0.24415200  1
  Sn  Sn7  1  0.24452200  0.48959600  0.75584800  1
  As  As8  1  0.10202100  0.76204900  0.12925800  1
  As  As9  1  0.60202100  0.23795100  0.87074200  1
  As  As10  1  0.89975300  0.73932400  0.62386400  1
  As  As11  1  0.39975300  0.26067600  0.37613600  1
  O  O12  1  0.20495700  0.77635200  0.94292100  1
  O  O13  1  0.70495700  0.22364800  0.05707900  1
  O  O14  1  0.79841200  0.76783100  0.43601600  1
  O  O15  1  0.29841200  0.23216900  0.56398400  1
  O  O16  1  0.22059400  0.77843400  0.29615800  1
  O  O17  1  0.72059400  0.22156600  0.70384200  1
  O  O18  1  0.77680600  0.74769100  0.78839800  1
  O  O19  1  0.27680600  0.25230900  0.21160200  1
  O  O20  1  0.00418500  0.54201600  0.13526100  1
  O  O21  1  0.50418500  0.45798400  0.86473900  1
  O  O22  1  0.02708500  0.93582900  0.63098600  1
  O  O23  1  0.52708500  0.06417100  0.36901400  1
  O  O24  1  0.97415400  0.95915700  0.13181200  1
  O  O25  1  0.47415400  0.04084300  0.86818800  1
  O  O26  1  0.99614300  0.52005000  0.62307100  1
  O  O27  1  0.49614300  0.47995000  0.37692900  1
  O  O28  1  0.12469100  0.20668700  0.83845000  1
  O  O29  1  0.62469100  0.79331300  0.16155000  1
  O  O30  1  0.87632100  0.21471600  0.36085000  1
  O  O31  1  0.37632100  0.78528400  0.63915000  1
