# generated using pymatgen
data_Ca(BiO2)2
_symmetry_space_group_name_H-M   'P 1'
_cell_length_a   3.41437200
_cell_length_b   10.25341500
_cell_length_c   12.54953600
_cell_angle_alpha   90.00000000
_cell_angle_beta   90.00000000
_cell_angle_gamma   90.00000000
_symmetry_Int_Tables_number   1
_chemical_formula_structural   Ca(BiO2)2
_chemical_formula_sum   'Ca4 Bi8 O16'
_cell_volume   439.34636800
_cell_formula_units_Z   4
loop_
 _symmetry_equiv_pos_site_id
 _symmetry_equiv_pos_as_xyz
  1  'x, y, z'
loop_
 _atom_site_type_symbol
 _atom_site_label
 _atom_site_symmetry_multiplicity
 _atom_site_fract_x
 _atom_site_fract_y
 _atom_site_fract_z
 _atom_site_occupancy
  Ca  Ca0  1  0.75000000  0.23971000  0.34894200  1
  Ca  Ca1  1  0.25000000  0.76029000  0.65105800  1
  Ca  Ca2  1  0.75000000  0.73971000  0.15105800  1
  Ca  Ca3  1  0.25000000  0.26029000  0.84894200  1
  Bi  Bi4  1  0.25000000  0.41645100  0.10859600  1
  Bi  Bi5  1  0.75000000  0.08354900  0.60859600  1
  Bi  Bi6  1  0.25000000  0.91645100  0.39140400  1
  Bi  Bi7  1  0.75000000  0.58354900  0.89140400  1
  Bi  Bi8  1  0.75000000  0.57096000  0.37877000  1
  Bi  Bi9  1  0.25000000  0.42904000  0.62123000  1
  Bi  Bi10  1  0.75000000  0.07096000  0.12123000  1
  Bi  Bi11  1  0.25000000  0.92904000  0.87877000  1
  O  O12  1  0.25000000  0.91777900  0.09286400  1
  O  O13  1  0.75000000  0.08222100  0.90713600  1
  O  O14  1  0.25000000  0.41777900  0.40713600  1
  O  O15  1  0.75000000  0.58222100  0.59286400  1
  O  O16  1  0.25000000  0.01739100  0.71581000  1
  O  O17  1  0.75000000  0.98260900  0.28419000  1
  O  O18  1  0.25000000  0.51739100  0.78419000  1
  O  O19  1  0.75000000  0.48260900  0.21581000  1
  O  O20  1  0.25000000  0.62833900  0.04097300  1
  O  O21  1  0.75000000  0.37166100  0.95902700  1
  O  O22  1  0.25000000  0.12834000  0.45902700  1
  O  O23  1  0.75000000  0.87166100  0.54097300  1
  O  O24  1  0.75000000  0.79188200  0.79100000  1
  O  O25  1  0.25000000  0.20811800  0.20900000  1
  O  O26  1  0.25000000  0.70811800  0.29100000  1
  O  O27  1  0.75000000  0.29188200  0.70900000  1
