# generated using pymatgen
data_MoWO6
_symmetry_space_group_name_H-M   'P 1'
_cell_length_a   5.46504709
_cell_length_b   5.46504709
_cell_length_c   5.53394461
_cell_angle_alpha   59.81022236
_cell_angle_beta   59.81022236
_cell_angle_gamma   60.30361817
_symmetry_Int_Tables_number   1
_chemical_formula_structural   MoWO6
_chemical_formula_sum   'Mo1 W1 O6'
_cell_volume   116.79835259
_cell_formula_units_Z   1
loop_
 _symmetry_equiv_pos_site_id
 _symmetry_equiv_pos_as_xyz
  1  'x, y, z'
loop_
 _atom_site_type_symbol
 _atom_site_label
 _atom_site_symmetry_multiplicity
 _atom_site_fract_x
 _atom_site_fract_y
 _atom_site_fract_z
 _atom_site_occupancy
  Mo  Mo0  1  0.48951600  0.48951600  0.49645800  1
  W  W1  1  0.98943600  0.98943600  0.99535200  1
  O  O2  1  0.74498800  0.25416600  0.19810200  1
  O  O3  1  0.25281000  0.75045000  0.69943800  1
  O  O4  1  0.74896500  0.74896500  0.19239400  1
  O  O5  1  0.25416600  0.74498800  0.19810200  1
  O  O6  1  0.75045000  0.25281000  0.69943800  1
  O  O7  1  0.25075700  0.25075700  0.69585800  1
