# generated using pymatgen
data_WN2
_symmetry_space_group_name_H-M   'P 1'
_cell_length_a   6.61904111
_cell_length_b   6.61904111
_cell_length_c   6.88175337
_cell_angle_alpha   74.08791947
_cell_angle_beta   74.08791947
_cell_angle_gamma   33.22529144
_symmetry_Int_Tables_number   1
_chemical_formula_structural   WN2
_chemical_formula_sum   'W4 N8'
_cell_volume   158.29669617
_cell_formula_units_Z   4
loop_
 _symmetry_equiv_pos_site_id
 _symmetry_equiv_pos_as_xyz
  1  'x, y, z'
loop_
 _atom_site_type_symbol
 _atom_site_label
 _atom_site_symmetry_multiplicity
 _atom_site_fract_x
 _atom_site_fract_y
 _atom_site_fract_z
 _atom_site_occupancy
  W  W0  1  0.90199800  0.90199800  0.71236000  1
  W  W1  1  0.80848500  0.80848500  0.27614100  1
  W  W2  1  0.19151500  0.19151500  0.72385900  1
  W  W3  1  0.09800200  0.09800200  0.28764000  1
  N  N4  1  0.94397100  0.94397100  0.36061200  1
  N  N5  1  0.36013700  0.36013700  0.70713600  1
  N  N6  1  0.86597500  0.86597500  0.00152100  1
  N  N7  1  0.73701600  0.73701600  0.64643700  1
  N  N8  1  0.26298400  0.26298400  0.35356300  1
  N  N9  1  0.13402500  0.13402500  0.99847900  1
  N  N10  1  0.63986300  0.63986300  0.29286400  1
  N  N11  1  0.05602900  0.05602900  0.63938800  1
