# generated using pymatgen
data_CaV2O4
_symmetry_space_group_name_H-M   'P 1'
_cell_length_a   6.31138403
_cell_length_b   6.31138403
_cell_length_c   15.30349967
_cell_angle_alpha   89.51143496
_cell_angle_beta   89.51143496
_cell_angle_gamma   59.71093316
_symmetry_Int_Tables_number   1
_chemical_formula_structural   CaV2O4
_chemical_formula_sum   'Ca6 V12 O24'
_cell_volume   526.35312040
_cell_formula_units_Z   6
loop_
 _symmetry_equiv_pos_site_id
 _symmetry_equiv_pos_as_xyz
  1  'x, y, z'
loop_
 _atom_site_type_symbol
 _atom_site_label
 _atom_site_symmetry_multiplicity
 _atom_site_fract_x
 _atom_site_fract_y
 _atom_site_fract_z
 _atom_site_occupancy
  Ca  Ca0  1  0.83799400  0.83799400  0.95908300  1
  Ca  Ca1  1  0.16697300  0.16697300  0.66739000  1
  Ca  Ca2  1  0.33249800  0.33249800  0.83293300  1
  Ca  Ca3  1  0.83508800  0.83508800  0.33145700  1
  Ca  Ca4  1  0.99995000  0.99995000  0.49981600  1
  Ca  Ca5  1  0.66494000  0.66494000  0.16783300  1
  V  V6  1  0.82498700  0.33788300  0.83401600  1
  V  V7  1  0.50505900  0.50505900  0.62057400  1
  V  V8  1  0.49929900  0.49929900  0.99624200  1
  V  V9  1  0.33788300  0.82498700  0.83401600  1
  V  V10  1  0.49977500  0.99984400  0.49995100  1
  V  V11  1  0.17296800  0.17296800  0.29009800  1
  V  V12  1  0.99984400  0.49977500  0.49995100  1
  V  V13  1  0.16839600  0.66576400  0.16685300  1
  V  V14  1  0.82758700  0.82758700  0.71047400  1
  V  V15  1  0.66576400  0.16839600  0.16685300  1
  V  V16  1  0.49445100  0.49445100  0.37884400  1
  V  V17  1  0.16027600  0.16027600  0.04224100  1
  O  O18  1  0.66153500  0.22048000  0.91638400  1
  O  O19  1  0.50988800  0.50988800  0.74826900  1
  O  O20  1  0.22048000  0.66153500  0.91638400  1
  O  O21  1  0.64556700  0.64556700  0.90716300  1
  O  O22  1  0.35718700  0.84012200  0.57621500  1
  O  O23  1  0.99813800  0.99813800  0.76459400  1
  O  O24  1  0.17874200  0.17874200  0.42115600  1
  O  O25  1  0.50064500  0.97332100  0.75864500  1
  O  O26  1  0.84012200  0.35718700  0.57621500  1
  O  O27  1  0.15237200  0.15237200  0.91519300  1
  O  O28  1  0.33298500  0.33298500  0.57536200  1
  O  O29  1  0.97332100  0.50064500  0.75864500  1
  O  O30  1  0.02636300  0.50170600  0.24227800  1
  O  O31  1  0.66641300  0.66641300  0.42387700  1
  O  O32  1  0.16229500  0.64258500  0.42370900  1
  O  O33  1  0.50170600  0.02636300  0.24227800  1
  O  O34  1  0.84860600  0.84860600  0.10446300  1
  O  O35  1  0.82181000  0.82181000  0.57929200  1
  O  O36  1  0.00689100  0.00689100  0.24106300  1
  O  O37  1  0.64258500  0.16229500  0.42370900  1
  O  O38  1  0.33717400  0.33717400  0.08192200  1
  O  O39  1  0.80641300  0.32309800  0.08018900  1
  O  O40  1  0.48629800  0.48629800  0.24637900  1
  O  O41  1  0.32309800  0.80641300  0.08018900  1
