# generated using pymatgen
data_MnZnAsO5
_symmetry_space_group_name_H-M   'P 1'
_cell_length_a   6.20788300
_cell_length_b   8.24928400
_cell_length_c   8.39338100
_cell_angle_alpha   90.00000000
_cell_angle_beta   90.00000000
_cell_angle_gamma   90.00000000
_symmetry_Int_Tables_number   1
_chemical_formula_structural   MnZnAsO5
_chemical_formula_sum   'Mn4 Zn4 As4 O20'
_cell_volume   429.82999231
_cell_formula_units_Z   4
loop_
 _symmetry_equiv_pos_site_id
 _symmetry_equiv_pos_as_xyz
  1  'x, y, z'
loop_
 _atom_site_type_symbol
 _atom_site_label
 _atom_site_symmetry_multiplicity
 _atom_site_fract_x
 _atom_site_fract_y
 _atom_site_fract_z
 _atom_site_occupancy
  Mn  Mn0  1  0.25705000  0.75025800  0.99965700  1
  Mn  Mn1  1  0.24295000  0.24974200  0.49965700  1
  Mn  Mn2  1  0.74295000  0.25025800  0.50034300  1
  Mn  Mn3  1  0.75705000  0.74974200  0.00034300  1
  Zn  Zn4  1  0.00454000  0.75091700  0.69412600  1
  Zn  Zn5  1  0.49546000  0.24908300  0.19412600  1
  Zn  Zn6  1  0.99546000  0.25091700  0.80587400  1
  Zn  Zn7  1  0.50454000  0.74908300  0.30587400  1
  As  As8  1  0.49155000  0.10464900  0.83037300  1
  As  As9  1  0.00845000  0.89535100  0.33037300  1
  As  As10  1  0.50845000  0.60464900  0.66962700  1
  As  As11  1  0.99155000  0.39535100  0.16962700  1
  O  O12  1  0.50422200  0.91421900  0.90980400  1
  O  O13  1  0.99577800  0.08578100  0.40980400  1
  O  O14  1  0.49577800  0.41421900  0.59019600  1
  O  O15  1  0.00422200  0.58578100  0.09019600  1
  O  O16  1  0.47215500  0.25381000  0.97050200  1
  O  O17  1  0.02784500  0.74619000  0.47050200  1
  O  O18  1  0.52784500  0.75381000  0.52949800  1
  O  O19  1  0.97215500  0.24619000  0.02949800  1
  O  O20  1  0.72211300  0.13071400  0.71567500  1
  O  O21  1  0.77788700  0.86928600  0.21567500  1
  O  O22  1  0.27788700  0.63071400  0.78432500  1
  O  O23  1  0.22211300  0.36928600  0.28432500  1
  O  O24  1  0.26121700  0.12348400  0.71295700  1
  O  O25  1  0.23878300  0.87651600  0.21295700  1
  O  O26  1  0.73878300  0.62348400  0.78704300  1
  O  O27  1  0.76121700  0.37651600  0.28704300  1
  O  O28  1  0.00641600  0.85085400  0.90833300  1
  O  O29  1  0.49358400  0.14914600  0.40833300  1
  O  O30  1  0.99358400  0.35085400  0.59166700  1
  O  O31  1  0.50641600  0.64914600  0.09166700  1
