# generated using pymatgen
data_CaMn2O4
_symmetry_space_group_name_H-M   'P 1'
_cell_length_a   6.36047061
_cell_length_b   6.36047061
_cell_length_c   20.88096975
_cell_angle_alpha   79.97862856
_cell_angle_beta   79.97862856
_cell_angle_gamma   58.88995686
_symmetry_Int_Tables_number   1
_chemical_formula_structural   CaMn2O4
_chemical_formula_sum   'Ca8 Mn16 O32'
_cell_volume   708.66941827
_cell_formula_units_Z   8
loop_
 _symmetry_equiv_pos_site_id
 _symmetry_equiv_pos_as_xyz
  1  'x, y, z'
loop_
 _atom_site_type_symbol
 _atom_site_label
 _atom_site_symmetry_multiplicity
 _atom_site_fract_x
 _atom_site_fract_y
 _atom_site_fract_z
 _atom_site_occupancy
  Ca  Ca0  1  0.64575400  0.64575400  0.02529200  1
  Ca  Ca1  1  0.12647200  0.12647200  0.12496100  1
  Ca  Ca2  1  0.89651200  0.89651200  0.28215400  1
  Ca  Ca3  1  0.37421800  0.37421800  0.37476000  1
  Ca  Ca4  1  0.62436000  0.62436000  0.62568200  1
  Ca  Ca5  1  0.50540000  0.50540000  0.49766400  1
  Ca  Ca6  1  0.87527100  0.87527100  0.87650400  1
  Ca  Ca7  1  0.74515000  0.74515000  0.75204700  1
  Mn  Mn8  1  0.62843500  0.12314000  0.12453200  1
  Mn  Mn9  1  0.25389900  0.25389900  0.24960200  1
  Mn  Mn10  1  0.12314000  0.62843500  0.12453200  1
  Mn  Mn11  1  0.14669700  0.14669700  0.53682700  1
  Mn  Mn12  1  0.88177900  0.37013700  0.37309200  1
  Mn  Mn13  1  0.60583500  0.60583500  0.22114300  1
  Mn  Mn14  1  0.39252000  0.39252000  0.78289800  1
  Mn  Mn15  1  0.37013700  0.88177900  0.37309200  1
  Mn  Mn16  1  0.12451100  0.62485200  0.62490200  1
  Mn  Mn17  1  0.85590200  0.85590200  0.46735000  1
  Mn  Mn18  1  0.62485200  0.12451100  0.62490200  1
  Mn  Mn19  1  0.87702500  0.36808900  0.87540200  1
  Mn  Mn20  1  0.36808900  0.87702500  0.87540200  1
  Mn  Mn21  1  0.10334900  0.10334900  0.71393200  1
  Mn  Mn22  1  0.99785500  0.99785500  0.00261800  1
  Mn  Mn23  1  0.35376200  0.35376200  0.97082500  1
  O  O24  1  0.25156900  0.81549300  0.06293800  1
  O  O25  1  0.92073900  0.92073900  0.17308800  1
  O  O26  1  0.81549300  0.25156900  0.06293800  1
  O  O27  1  0.83114500  0.83114500  0.05504500  1
  O  O28  1  0.43149400  0.43149400  0.19405700  1
  O  O29  1  0.49848900  0.06744300  0.31086800  1
  O  O30  1  0.44154900  0.98610900  0.18914000  1
  O  O31  1  0.17323900  0.17323900  0.43047900  1
  O  O32  1  0.06744300  0.49848900  0.31086800  1
  O  O33  1  0.33170000  0.33170000  0.07476000  1
  O  O34  1  0.08586400  0.08586400  0.31350600  1
  O  O35  1  0.98610900  0.44154900  0.18914000  1
  O  O36  1  0.78718800  0.28912500  0.56989000  1
  O  O37  1  0.69471600  0.69471600  0.42172900  1
  O  O38  1  0.71693500  0.20840600  0.42542700  1
  O  O39  1  0.42134400  0.42134400  0.67998000  1
  O  O40  1  0.28912500  0.78718800  0.56989000  1
  O  O41  1  0.57962500  0.57962500  0.32100000  1
  O  O42  1  0.31893900  0.31893900  0.57110200  1
  O  O43  1  0.20840600  0.71693500  0.42542700  1
  O  O44  1  0.93147700  0.93147700  0.67825000  1
  O  O45  1  0.04592100  0.53122400  0.82292500  1
  O  O46  1  0.96221800  0.46244900  0.67971900  1
  O  O47  1  0.66929100  0.66929100  0.91919000  1
  O  O48  1  0.53122400  0.04592100  0.82292500  1
  O  O49  1  0.82662100  0.82662100  0.56972600  1
  O  O50  1  0.54811100  0.54811100  0.81904700  1
  O  O51  1  0.46244900  0.96221800  0.67971900  1
  O  O52  1  0.16931100  0.16931100  0.94954300  1
  O  O53  1  0.18764900  0.73704400  0.94213200  1
  O  O54  1  0.07659300  0.07659300  0.82330500  1
  O  O55  1  0.73704400  0.18764900  0.94213200  1
