# generated using pymatgen
data_Ca2VWO6
_symmetry_space_group_name_H-M   'P 1'
_cell_length_a   5.56396800
_cell_length_b   5.57684584
_cell_length_c   5.58737127
_cell_angle_alpha   60.17858320
_cell_angle_beta   60.58802330
_cell_angle_gamma   60.31256745
_symmetry_Int_Tables_number   1
_chemical_formula_structural   Ca2VWO6
_chemical_formula_sum   'Ca2 V1 W1 O6'
_cell_volume   123.58734271
_cell_formula_units_Z   1
loop_
 _symmetry_equiv_pos_site_id
 _symmetry_equiv_pos_as_xyz
  1  'x, y, z'
loop_
 _atom_site_type_symbol
 _atom_site_label
 _atom_site_symmetry_multiplicity
 _atom_site_fract_x
 _atom_site_fract_y
 _atom_site_fract_z
 _atom_site_occupancy
  Ca  Ca0  1  0.24539300  0.22985100  0.25488800  1
  Ca  Ca1  1  0.75460700  0.77014900  0.74511200  1
  V  V2  1  0.50000000  0.50000000  0.50000000  1
  W  W3  1  0.00000000  0.00000000  0.00000000  1
  O  O4  1  0.80232700  0.18368000  0.29835600  1
  O  O5  1  0.19767300  0.81632000  0.70164400  1
  O  O6  1  0.77320500  0.33650400  0.75317700  1
  O  O7  1  0.70491400  0.81414700  0.17641800  1
  O  O8  1  0.29508600  0.18585300  0.82358200  1
  O  O9  1  0.22679500  0.66349600  0.24682300  1
