# generated using pymatgen
data_CaP2WO7
_symmetry_space_group_name_H-M   'P 1'
_cell_length_a   6.64162500
_cell_length_b   6.76801224
_cell_length_c   7.37048403
_cell_angle_alpha   80.84562825
_cell_angle_beta   68.50494978
_cell_angle_gamma   83.07728745
_symmetry_Int_Tables_number   1
_chemical_formula_structural   CaP2WO7
_chemical_formula_sum   'Ca2 P4 W2 O14'
_cell_volume   303.63942244
_cell_formula_units_Z   2
loop_
 _symmetry_equiv_pos_site_id
 _symmetry_equiv_pos_as_xyz
  1  'x, y, z'
loop_
 _atom_site_type_symbol
 _atom_site_label
 _atom_site_symmetry_multiplicity
 _atom_site_fract_x
 _atom_site_fract_y
 _atom_site_fract_z
 _atom_site_occupancy
  Ca  Ca0  1  0.71921500  0.15641800  0.86077900  1
  Ca  Ca1  1  0.28078500  0.84358200  0.13922100  1
  P  P2  1  0.76337000  0.82248500  0.26508900  1
  P  P3  1  0.23663000  0.17751500  0.73491100  1
  P  P4  1  0.37420500  0.34696900  0.31238900  1
  P  P5  1  0.62579500  0.65303100  0.68761100  1
  W  W6  1  0.90315500  0.30926800  0.23893100  1
  W  W7  1  0.09684500  0.69073200  0.76106900  1
  O  O8  1  0.40297900  0.22691000  0.51391600  1
  O  O9  1  0.59702100  0.77309000  0.48608400  1
  O  O10  1  0.91386600  0.98262500  0.26113500  1
  O  O11  1  0.08613400  0.01737500  0.73886500  1
  O  O12  1  0.70717300  0.43907800  0.65293600  1
  O  O13  1  0.29282700  0.56092200  0.34706400  1
  O  O14  1  0.39127300  0.67173100  0.83892400  1
  O  O15  1  0.60872700  0.32826900  0.16107600  1
  O  O16  1  0.37794600  0.10193300  0.85758200  1
  O  O17  1  0.62205400  0.89806700  0.14241800  1
  O  O18  1  0.08371000  0.36381000  0.79694500  1
  O  O19  1  0.91629000  0.63619000  0.20305500  1
  O  O20  1  0.77771100  0.77199500  0.73704600  1
  O  O21  1  0.22228900  0.22800500  0.26295400  1
