# generated using pymatgen
data_YV(WO4)2
_symmetry_space_group_name_H-M   'P 1'
_cell_length_a   5.15481600
_cell_length_b   5.74923179
_cell_length_c   5.97076752
_cell_angle_alpha   106.86854690
_cell_angle_beta   91.47040090
_cell_angle_gamma   108.21558095
_symmetry_Int_Tables_number   1
_chemical_formula_structural   YV(WO4)2
_chemical_formula_sum   'Y1 V1 W2 O8'
_cell_volume   159.52794133
_cell_formula_units_Z   1
loop_
 _symmetry_equiv_pos_site_id
 _symmetry_equiv_pos_as_xyz
  1  'x, y, z'
loop_
 _atom_site_type_symbol
 _atom_site_label
 _atom_site_symmetry_multiplicity
 _atom_site_fract_x
 _atom_site_fract_y
 _atom_site_fract_z
 _atom_site_occupancy
  Y  Y0  1  0.47540300  0.09810700  0.70459900  1
  V  V1  1  0.97185600  0.09869400  0.22978500  1
  W  W2  1  0.71675000  0.58669400  0.38943100  1
  W  W3  1  0.22471200  0.61733500  0.06231200  1
  O  O4  1  0.70126300  0.82165500  0.66761200  1
  O  O5  1  0.74446900  0.29306900  0.48279700  1
  O  O6  1  0.61384700  0.78624700  0.17584700  1
  O  O7  1  0.84160900  0.38520300  0.06352700  1
  O  O8  1  0.19688400  0.88228200  0.95611500  1
  O  O9  1  0.26384100  0.38997600  0.79201600  1
  O  O10  1  0.32261400  0.40526300  0.26659400  1
  O  O11  1  0.12684700  0.83157000  0.38786300  1
