# generated using pymatgen
data_WO2
_symmetry_space_group_name_H-M   'P 1'
_cell_length_a   3.31464300
_cell_length_b   9.18138500
_cell_length_c   11.20331800
_cell_angle_alpha   90.00000000
_cell_angle_beta   90.00000000
_cell_angle_gamma   90.00000000
_symmetry_Int_Tables_number   1
_chemical_formula_structural   WO2
_chemical_formula_sum   'W8 O16'
_cell_volume   340.95072817
_cell_formula_units_Z   8
loop_
 _symmetry_equiv_pos_site_id
 _symmetry_equiv_pos_as_xyz
  1  'x, y, z'
loop_
 _atom_site_type_symbol
 _atom_site_label
 _atom_site_symmetry_multiplicity
 _atom_site_fract_x
 _atom_site_fract_y
 _atom_site_fract_z
 _atom_site_occupancy
  W  W0  1  0.75000000  0.43375900  0.11238500  1
  W  W1  1  0.25000000  0.06624100  0.61238500  1
  W  W2  1  0.75000000  0.93375900  0.38761500  1
  W  W3  1  0.25000000  0.56624100  0.88761500  1
  W  W4  1  0.25000000  0.57470000  0.38935000  1
  W  W5  1  0.75000000  0.42530000  0.61065000  1
  W  W6  1  0.25000000  0.07470000  0.11065000  1
  W  W7  1  0.75000000  0.92530000  0.88935000  1
  O  O8  1  0.75000000  0.93626200  0.07291900  1
  O  O9  1  0.25000000  0.06373800  0.92708100  1
  O  O10  1  0.75000000  0.43626200  0.42708100  1
  O  O11  1  0.25000000  0.56373800  0.57291900  1
  O  O12  1  0.75000000  0.00765500  0.72145500  1
  O  O13  1  0.25000000  0.99234500  0.27854500  1
  O  O14  1  0.75000000  0.50765500  0.77854500  1
  O  O15  1  0.25000000  0.49234500  0.22145500  1
  O  O16  1  0.75000000  0.60981000  0.00054300  1
  O  O17  1  0.25000000  0.39019000  0.99945700  1
  O  O18  1  0.75000000  0.10981000  0.49945700  1
  O  O19  1  0.25000000  0.89019000  0.50054300  1
  O  O20  1  0.25000000  0.78542300  0.85620700  1
  O  O21  1  0.75000000  0.21457700  0.14379300  1
  O  O22  1  0.75000000  0.71457700  0.35620700  1
  O  O23  1  0.25000000  0.28542300  0.64379300  1
