# generated using pymatgen
data_Mg2TiWO6
_symmetry_space_group_name_H-M   'P 1'
_cell_length_a   5.57081449
_cell_length_b   5.57081449
_cell_length_c   5.57081414
_cell_angle_alpha   55.83020947
_cell_angle_beta   55.83020947
_cell_angle_gamma   55.83020918
_symmetry_Int_Tables_number   1
_chemical_formula_structural   Mg2TiWO6
_chemical_formula_sum   'Mg2 Ti1 W1 O6'
_cell_volume   110.42945753
_cell_formula_units_Z   1
loop_
 _symmetry_equiv_pos_site_id
 _symmetry_equiv_pos_as_xyz
  1  'x, y, z'
loop_
 _atom_site_type_symbol
 _atom_site_label
 _atom_site_symmetry_multiplicity
 _atom_site_fract_x
 _atom_site_fract_y
 _atom_site_fract_z
 _atom_site_occupancy
  Mg  Mg0  1  0.77207200  0.77207200  0.77207200  1
  Mg  Mg1  1  0.27808200  0.27808200  0.27808200  1
  Ti  Ti2  1  0.48530400  0.48530400  0.48530400  1
  W  W3  1  0.98213600  0.98213600  0.98213600  1
  O  O4  1  0.58564300  0.86034700  0.20814300  1
  O  O5  1  0.36389200  0.09845400  0.69712700  1
  O  O6  1  0.69712700  0.36389200  0.09845400  1
  O  O7  1  0.09845400  0.69712700  0.36389200  1
  O  O8  1  0.86034700  0.20814300  0.58564300  1
  O  O9  1  0.20814300  0.58564300  0.86034700  1
