# generated using pymatgen
data_WO2
_symmetry_space_group_name_H-M   'P 1'
_cell_length_a   6.48310300
_cell_length_b   6.51862400
_cell_length_c   15.49302782
_cell_angle_alpha   90.68623411
_cell_angle_beta   90.18964227
_cell_angle_gamma   119.51073523
_symmetry_Int_Tables_number   1
_chemical_formula_structural   WO2
_chemical_formula_sum   'W12 O24'
_cell_volume   569.73173140
_cell_formula_units_Z   12
loop_
 _symmetry_equiv_pos_site_id
 _symmetry_equiv_pos_as_xyz
  1  'x, y, z'
loop_
 _atom_site_type_symbol
 _atom_site_label
 _atom_site_symmetry_multiplicity
 _atom_site_fract_x
 _atom_site_fract_y
 _atom_site_fract_z
 _atom_site_occupancy
  W  W0  1  0.65742200  0.32482300  0.16281500  1
  W  W1  1  0.50340800  0.49690600  0.50284200  1
  W  W2  1  0.83817800  0.66789300  0.32934200  1
  W  W3  1  0.66175700  0.85033200  0.16290500  1
  W  W4  1  0.99608500  0.99255200  0.49860300  1
  W  W5  1  0.18048500  0.83856800  0.16084700  1
  W  W6  1  0.15786800  0.33231800  0.66504700  1
  W  W7  1  0.99280400  0.49436100  0.49908100  1
  W  W8  1  0.33290800  0.66460400  0.83396200  1
  W  W9  1  0.32889900  0.16964800  0.84008400  1
  W  W10  1  0.83681900  0.17013600  0.83352500  1
  W  W11  1  0.83612400  0.66820100  0.95451000  1
  O  O12  1  0.36512900  0.69092900  0.10372400  1
  O  O13  1  0.34689100  0.14438000  0.10094200  1
  O  O14  1  0.50931700  0.00236900  0.23211600  1
  O  O15  1  0.80983000  0.15305000  0.10516700  1
  O  O16  1  0.70743200  0.39120800  0.42063600  1
  O  O17  1  0.56680800  0.54362600  0.23650600  1
  O  O18  1  0.82707600  0.66969300  0.08468600  1
  O  O19  1  0.97487200  0.53981800  0.23529500  1
  O  O20  1  0.70130000  0.80481600  0.42012200  1
  O  O21  1  0.85910800  0.67962400  0.56556400  1
  O  O22  1  0.11079300  0.79470300  0.41851200  1
  O  O23  1  0.96426800  0.94010400  0.23069100  1
  O  O24  1  0.02051300  0.06539100  0.75366900  1
  O  O25  1  0.88305600  0.18703100  0.58316200  1
  O  O26  1  0.15144100  0.32098700  0.44146200  1
  O  O27  1  0.28833500  0.18126800  0.58390300  1
  O  O28  1  0.15289500  0.35039000  0.90128100  1
  O  O29  1  0.02487600  0.47380600  0.75581700  1
  O  O30  1  0.43526700  0.47492000  0.75736700  1
  O  O31  1  0.28913100  0.60181500  0.58817000  1
  O  O32  1  0.16114800  0.82191100  0.90526100  1
  O  O33  1  0.67829900  0.83006900  0.89976300  1
  O  O34  1  0.50311700  0.99347600  0.78190400  1
  O  O35  1  0.67963900  0.34087200  0.90561600  1
