# generated using pymatgen
data_VZn2WO6
_symmetry_space_group_name_H-M   'P 1'
_cell_length_a   5.59281959
_cell_length_b   5.59281959
_cell_length_c   5.59281957
_cell_angle_alpha   56.55914068
_cell_angle_beta   56.55914068
_cell_angle_gamma   56.55914525
_symmetry_Int_Tables_number   1
_chemical_formula_structural   VZn2WO6
_chemical_formula_sum   'V1 Zn2 W1 O6'
_cell_volume   113.86686453
_cell_formula_units_Z   1
loop_
 _symmetry_equiv_pos_site_id
 _symmetry_equiv_pos_as_xyz
  1  'x, y, z'
loop_
 _atom_site_type_symbol
 _atom_site_label
 _atom_site_symmetry_multiplicity
 _atom_site_fract_x
 _atom_site_fract_y
 _atom_site_fract_z
 _atom_site_occupancy
  V  V0  1  0.49631900  0.49631900  0.49631900  1
  Zn  Zn1  1  0.77838900  0.77838900  0.77838900  1
  Zn  Zn2  1  0.25295500  0.25295500  0.25295500  1
  W  W3  1  0.99982800  0.99982800  0.99982800  1
  O  O4  1  0.62464600  0.22034600  0.89546200  1
  O  O5  1  0.36946400  0.75979700  0.09685300  1
  O  O6  1  0.09685300  0.36946400  0.75979700  1
  O  O7  1  0.75979700  0.09685300  0.36946400  1
  O  O8  1  0.22034600  0.89546200  0.62464600  1
  O  O9  1  0.89546200  0.62464600  0.22034600  1
