# generated using pymatgen
data_CaCr2O4
_symmetry_space_group_name_H-M   'P 1'
_cell_length_a   6.30279153
_cell_length_b   6.30279153
_cell_length_c   15.26132063
_cell_angle_alpha   87.86699100
_cell_angle_beta   87.86699100
_cell_angle_gamma   58.92698346
_symmetry_Int_Tables_number   1
_chemical_formula_structural   CaCr2O4
_chemical_formula_sum   'Ca6 Cr12 O24'
_cell_volume   518.79214190
_cell_formula_units_Z   6
loop_
 _symmetry_equiv_pos_site_id
 _symmetry_equiv_pos_as_xyz
  1  'x, y, z'
loop_
 _atom_site_type_symbol
 _atom_site_label
 _atom_site_symmetry_multiplicity
 _atom_site_fract_x
 _atom_site_fract_y
 _atom_site_fract_z
 _atom_site_occupancy
  Ca  Ca0  1  0.83485300  0.83485300  0.95772600  1
  Ca  Ca1  1  0.16640000  0.16640000  0.66937600  1
  Ca  Ca2  1  0.33407900  0.33407900  0.83445700  1
  Ca  Ca3  1  0.83458700  0.83458700  0.33074500  1
  Ca  Ca4  1  0.00059600  0.00059600  0.50008600  1
  Ca  Ca5  1  0.66358900  0.66358900  0.16625200  1
  Cr  Cr6  1  0.82388100  0.33670500  0.83489000  1
  Cr  Cr7  1  0.50598900  0.50598900  0.62227500  1
  Cr  Cr8  1  0.49934900  0.49934900  0.99701500  1
  Cr  Cr9  1  0.33670500  0.82388000  0.83489000  1
  Cr  Cr10  1  0.50248000  0.99826100  0.49971900  1
  Cr  Cr11  1  0.17155600  0.17155600  0.29062000  1
  Cr  Cr12  1  0.99826100  0.50248000  0.49971900  1
  Cr  Cr13  1  0.17159200  0.66308000  0.16572700  1
  Cr  Cr14  1  0.82713700  0.82713700  0.70967900  1
  Cr  Cr15  1  0.66308000  0.17159200  0.16572700  1
  Cr  Cr16  1  0.49461300  0.49461300  0.37664800  1
  Cr  Cr17  1  0.14725300  0.14725300  0.03980700  1
  O  O18  1  0.65879100  0.21961700  0.91774300  1
  O  O19  1  0.51753400  0.51753400  0.75275600  1
  O  O20  1  0.21961700  0.65879100  0.91774300  1
  O  O21  1  0.64171000  0.64171000  0.90919300  1
  O  O22  1  0.35335100  0.83579200  0.57906800  1
  O  O23  1  0.99725600  0.99725600  0.76746800  1
  O  O24  1  0.18589000  0.18589000  0.42204900  1
  O  O25  1  0.50259300  0.98056400  0.75872600  1
  O  O26  1  0.83579200  0.35335100  0.57906800  1
  O  O27  1  0.14833000  0.14833000  0.91313600  1
  O  O28  1  0.33132200  0.33132200  0.56993400  1
  O  O29  1  0.98056400  0.50259300  0.75872600  1
  O  O30  1  0.02344200  0.49684400  0.24315300  1
  O  O31  1  0.66955800  0.66955800  0.42923500  1
  O  O32  1  0.16535700  0.64891500  0.42063800  1
  O  O33  1  0.49684400  0.02344200  0.24315300  1
  O  O34  1  0.85073900  0.85073900  0.10258600  1
  O  O35  1  0.81512400  0.81512400  0.57809200  1
  O  O36  1  0.00434500  0.00434500  0.23495700  1
  O  O37  1  0.64891500  0.16535700  0.42063800  1
  O  O38  1  0.35170000  0.35170000  0.08672400  1
  O  O39  1  0.80866400  0.32334300  0.07757600  1
  O  O40  1  0.48224800  0.48224800  0.24561100  1
  O  O41  1  0.32334300  0.80866400  0.07757600  1
