# generated using pymatgen
data_V3O5F
_symmetry_space_group_name_H-M   'P 1'
_cell_length_a   4.59041590
_cell_length_b   4.59041590
_cell_length_c   9.16504900
_cell_angle_alpha   90.00000000
_cell_angle_beta   90.00000000
_cell_angle_gamma   92.02581022
_symmetry_Int_Tables_number   1
_chemical_formula_structural   V3O5F
_chemical_formula_sum   'V6 O10 F2'
_cell_volume   193.00445970
_cell_formula_units_Z   2
loop_
 _symmetry_equiv_pos_site_id
 _symmetry_equiv_pos_as_xyz
  1  'x, y, z'
loop_
 _atom_site_type_symbol
 _atom_site_label
 _atom_site_symmetry_multiplicity
 _atom_site_fract_x
 _atom_site_fract_y
 _atom_site_fract_z
 _atom_site_occupancy
  V  V0  1  0.99199900  0.00800100  0.65625200  1
  V  V1  1  0.99199900  0.00800100  0.34374800  1
  V  V2  1  0.99102900  0.00897100  0.00000000  1
  V  V3  1  0.48989000  0.51011000  0.50000000  1
  V  V4  1  0.52946700  0.47053300  0.83449500  1
  V  V5  1  0.52946700  0.47053300  0.16550500  1
  O  O6  1  0.79738100  0.20261900  0.50000000  1
  O  O7  1  0.80015300  0.19984700  0.16867300  1
  O  O8  1  0.80015300  0.19984700  0.83132700  1
  O  O9  1  0.29688200  0.30328800  0.67064500  1
  O  O10  1  0.29688200  0.30328800  0.32935500  1
  O  O11  1  0.30439900  0.30924700  0.00000000  1
  O  O12  1  0.69671200  0.70311800  0.67064500  1
  O  O13  1  0.69671200  0.70311800  0.32935500  1
  O  O14  1  0.69075300  0.69560100  0.00000000  1
  O  O15  1  0.19421400  0.80578600  0.50000000  1
  F  F16  1  0.20095300  0.79904700  0.83168700  1
  F  F17  1  0.20095300  0.79904700  0.16831300  1
