# generated using pymatgen
data_Mg3Cu3(AsO4)4
_symmetry_space_group_name_H-M   'P 1'
_cell_length_a   5.08606800
_cell_length_b   8.72399896
_cell_length_c   14.67676480
_cell_angle_alpha   99.81602673
_cell_angle_beta   90.00000000
_cell_angle_gamma   90.00000000
_symmetry_Int_Tables_number   1
_chemical_formula_structural   Mg3Cu3(AsO4)4
_chemical_formula_sum   'Mg6 Cu6 As8 O32'
_cell_volume   641.68685087
_cell_formula_units_Z   2
loop_
 _symmetry_equiv_pos_site_id
 _symmetry_equiv_pos_as_xyz
  1  'x, y, z'
loop_
 _atom_site_type_symbol
 _atom_site_label
 _atom_site_symmetry_multiplicity
 _atom_site_fract_x
 _atom_site_fract_y
 _atom_site_fract_z
 _atom_site_occupancy
  Mg  Mg0  1  0.97458900  0.01816800  0.72280800  1
  Mg  Mg1  1  0.47458900  0.48183200  0.77719200  1
  Mg  Mg2  1  0.02541100  0.98183200  0.27719200  1
  Mg  Mg3  1  0.52541100  0.51816800  0.22280800  1
  Mg  Mg4  1  0.00000000  0.00000000  0.00000000  1
  Mg  Mg5  1  0.50000000  0.50000000  0.50000000  1
  Cu  Cu6  1  0.01022000  0.32961700  0.12141500  1
  Cu  Cu7  1  0.98978000  0.67038300  0.87858500  1
  Cu  Cu8  1  0.51022000  0.17038300  0.37858500  1
  Cu  Cu9  1  0.48978000  0.82961700  0.62141500  1
  Cu  Cu10  1  0.50000000  0.50000000  0.00000000  1
  Cu  Cu11  1  0.00000000  0.00000000  0.50000000  1
  As  As12  1  0.50403200  0.88998500  0.84849500  1
  As  As13  1  0.99638800  0.32078600  0.89925500  1
  As  As14  1  0.49638800  0.17921400  0.60074500  1
  As  As15  1  0.50361200  0.82078600  0.39925500  1
  As  As16  1  0.49596800  0.11001500  0.15150500  1
  As  As17  1  0.00361200  0.67921400  0.10074500  1
  As  As18  1  0.99596800  0.38998500  0.34849500  1
  As  As19  1  0.00403200  0.61001500  0.65150500  1
  O  O20  1  0.09613000  0.56241600  0.75863900  1
  O  O21  1  0.56096100  0.26715900  0.50634600  1
  O  O22  1  0.09685200  0.21338700  0.80039100  1
  O  O23  1  0.09916300  0.80310200  0.65369100  1
  O  O24  1  0.90314800  0.78661300  0.19960900  1
  O  O25  1  0.40387000  0.06241600  0.25863900  1
  O  O26  1  0.59685200  0.28661300  0.69960900  1
  O  O27  1  0.82092200  0.89235500  0.39180100  1
  O  O28  1  0.82410400  0.51725000  0.42472700  1
  O  O29  1  0.90387000  0.43758400  0.24136100  1
  O  O30  1  0.40083700  0.30310200  0.15369100  1
  O  O31  1  0.17907800  0.10764500  0.60819900  1
  O  O32  1  0.19483800  0.49202300  0.91882300  1
  O  O33  1  0.17589600  0.48275000  0.57527300  1
  O  O34  1  0.83301700  0.09517500  0.13872000  1
  O  O35  1  0.33301700  0.40482500  0.36128000  1
  O  O36  1  0.69483800  0.00797700  0.58117700  1
  O  O37  1  0.40314800  0.71338700  0.30039100  1
  O  O38  1  0.32410400  0.98275000  0.07527300  1
  O  O39  1  0.32092200  0.60764500  0.10819900  1
  O  O40  1  0.66698300  0.59517500  0.63872000  1
  O  O41  1  0.16698300  0.90482500  0.86128000  1
  O  O42  1  0.43903900  0.73284100  0.49365400  1
  O  O43  1  0.06096100  0.23284100  0.99365400  1
  O  O44  1  0.80516200  0.50797700  0.08117700  1
  O  O45  1  0.59613000  0.93758400  0.74136100  1
  O  O46  1  0.90083700  0.19689800  0.34630900  1
  O  O47  1  0.67589600  0.01725000  0.92472700  1
  O  O48  1  0.93903900  0.76715900  0.00634600  1
  O  O49  1  0.67907800  0.39235500  0.89180100  1
  O  O50  1  0.30516200  0.99202300  0.41882300  1
  O  O51  1  0.59916300  0.69689800  0.84630900  1
