# generated using pymatgen
data_Mg(SnO2)2
_symmetry_space_group_name_H-M   'P 1'
_cell_length_a   3.10269400
_cell_length_b   8.55644100
_cell_length_c   14.58772600
_cell_angle_alpha   90.00000000
_cell_angle_beta   90.00000000
_cell_angle_gamma   90.00000000
_symmetry_Int_Tables_number   1
_chemical_formula_structural   Mg(SnO2)2
_chemical_formula_sum   'Mg4 Sn8 O16'
_cell_volume   387.27521465
_cell_formula_units_Z   4
loop_
 _symmetry_equiv_pos_site_id
 _symmetry_equiv_pos_as_xyz
  1  'x, y, z'
loop_
 _atom_site_type_symbol
 _atom_site_label
 _atom_site_symmetry_multiplicity
 _atom_site_fract_x
 _atom_site_fract_y
 _atom_site_fract_z
 _atom_site_occupancy
  Mg  Mg0  1  0.25000000  0.29557400  0.77960900  1
  Mg  Mg1  1  0.75000000  0.70442600  0.22039100  1
  Mg  Mg2  1  0.25000000  0.79557400  0.72039100  1
  Mg  Mg3  1  0.75000000  0.20442600  0.27960900  1
  Sn  Sn4  1  0.75000000  0.46949800  0.59852900  1
  Sn  Sn5  1  0.25000000  0.03050200  0.09852900  1
  Sn  Sn6  1  0.75000000  0.96949800  0.90147100  1
  Sn  Sn7  1  0.25000000  0.53050200  0.40147100  1
  Sn  Sn8  1  0.25000000  0.57724800  0.90491100  1
  Sn  Sn9  1  0.75000000  0.42275200  0.09508900  1
  Sn  Sn10  1  0.25000000  0.07724800  0.59508900  1
  Sn  Sn11  1  0.75000000  0.92275200  0.40491100  1
  O  O12  1  0.75000000  0.91813100  0.65546200  1
  O  O13  1  0.25000000  0.08186900  0.34453800  1
  O  O14  1  0.75000000  0.41813100  0.84453800  1
  O  O15  1  0.25000000  0.58186900  0.15546200  1
  O  O16  1  0.75000000  0.92704300  0.17061000  1
  O  O17  1  0.25000000  0.07295700  0.82939000  1
  O  O18  1  0.75000000  0.42704300  0.32939000  1
  O  O19  1  0.25000000  0.57295700  0.67061000  1
  O  O20  1  0.75000000  0.62657900  0.48302500  1
  O  O21  1  0.25000000  0.37342100  0.51697500  1
  O  O22  1  0.75000000  0.12657900  0.01697500  1
  O  O23  1  0.25000000  0.87342100  0.98302500  1
  O  O24  1  0.25000000  0.73528200  0.32154400  1
  O  O25  1  0.75000000  0.26471800  0.67845600  1
  O  O26  1  0.75000000  0.76471800  0.82154400  1
  O  O27  1  0.25000000  0.23528200  0.17845600  1
