# generated using pymatgen
data_Mg(WO2)2
_symmetry_space_group_name_H-M   'P 1'
_cell_length_a   6.33410941
_cell_length_b   6.33410941
_cell_length_c   15.52094588
_cell_angle_alpha   88.95859996
_cell_angle_beta   88.95859996
_cell_angle_gamma   61.68421217
_symmetry_Int_Tables_number   1
_chemical_formula_structural   Mg(WO2)2
_chemical_formula_sum   'Mg6 W12 O24'
_cell_volume   548.08221905
_cell_formula_units_Z   6
loop_
 _symmetry_equiv_pos_site_id
 _symmetry_equiv_pos_as_xyz
  1  'x, y, z'
loop_
 _atom_site_type_symbol
 _atom_site_label
 _atom_site_symmetry_multiplicity
 _atom_site_fract_x
 _atom_site_fract_y
 _atom_site_fract_z
 _atom_site_occupancy
  Mg  Mg0  1  0.33724000  0.33724000  0.04712700  1
  Mg  Mg1  1  0.66275900  0.66275900  0.33111700  1
  Mg  Mg2  1  0.82846600  0.82846600  0.16318000  1
  Mg  Mg3  1  0.33386000  0.33386000  0.66350200  1
  Mg  Mg4  1  0.49905000  0.49905000  0.49826000  1
  Mg  Mg5  1  0.17616500  0.17616500  0.83559800  1
  W  W6  1  0.82324300  0.33615600  0.16884700  1
  W  W7  1  0.03745300  0.03745300  0.36404300  1
  W  W8  1  0.00244600  0.00244600  0.00817700  1
  W  W9  1  0.33615600  0.82324300  0.16884700  1
  W  W10  1  0.50216500  0.99240200  0.49576900  1
  W  W11  1  0.67638400  0.67638400  0.74512900  1
  W  W12  1  0.99240200  0.50216500  0.49576900  1
  W  W13  1  0.17527500  0.67153100  0.83437000  1
  W  W14  1  0.28974100  0.28974100  0.29851300  1
  W  W15  1  0.67153100  0.17527500  0.83437000  1
  W  W16  1  0.99372000  0.99372000  0.59239400  1
  W  W17  1  0.66764200  0.66764200  0.93635000  1
  O  O18  1  0.68376600  0.15499800  0.08730900  1
  O  O19  1  0.98806900  0.98806900  0.24023200  1
  O  O20  1  0.15499800  0.68376600  0.08730900  1
  O  O21  1  0.15916700  0.15916700  0.09094500  1
  O  O22  1  0.34974200  0.80737700  0.42007200  1
  O  O23  1  0.50785400  0.50785400  0.25114700  1
  O  O24  1  0.66185700  0.66185700  0.56827800  1
  O  O25  1  0.52188000  0.97587200  0.24476800  1
  O  O26  1  0.80737700  0.34974200  0.42007200  1
  O  O27  1  0.66491600  0.66491600  0.08974700  1
  O  O28  1  0.81284000  0.81284000  0.41415800  1
  O  O29  1  0.97587200  0.52188000  0.24476800  1
  O  O30  1  0.03684700  0.49016700  0.75149800  1
  O  O31  1  0.17902200  0.17902200  0.58210100  1
  O  O32  1  0.17991900  0.63354400  0.57982800  1
  O  O33  1  0.49016700  0.03684700  0.75149800  1
  O  O34  1  0.33402300  0.33402300  0.91014200  1
  O  O35  1  0.34044400  0.34044400  0.42313100  1
  O  O36  1  0.49058900  0.49058900  0.74838400  1
  O  O37  1  0.63354400  0.17991900  0.57982800  1
  O  O38  1  0.85125500  0.85125500  0.91904300  1
  O  O39  1  0.85028400  0.31195700  0.92159300  1
  O  O40  1  0.01462200  0.01462200  0.77131300  1
  O  O41  1  0.31195700  0.85028400  0.92159300  1
