# generated using pymatgen
data_AsWO5
_symmetry_space_group_name_H-M   'P 1'
_cell_length_a   8.52422000
_cell_length_b   6.16719000
_cell_length_c   8.85607107
_cell_angle_alpha   87.41582706
_cell_angle_beta   90.00000000
_cell_angle_gamma   90.00000000
_symmetry_Int_Tables_number   1
_chemical_formula_structural   AsWO5
_chemical_formula_sum   'As4 W4 O20'
_cell_volume   465.09449205
_cell_formula_units_Z   4
loop_
 _symmetry_equiv_pos_site_id
 _symmetry_equiv_pos_as_xyz
  1  'x, y, z'
loop_
 _atom_site_type_symbol
 _atom_site_label
 _atom_site_symmetry_multiplicity
 _atom_site_fract_x
 _atom_site_fract_y
 _atom_site_fract_z
 _atom_site_occupancy
  As  As0  1  0.40187900  0.52156200  0.36850900  1
  As  As1  1  0.04429300  0.13130400  0.90034200  1
  As  As2  1  0.90187900  0.47843800  0.63149100  1
  As  As3  1  0.54429300  0.86869600  0.09965800  1
  W  W4  1  0.02797300  0.74103700  0.30175400  1
  W  W5  1  0.50298500  0.78324700  0.69177500  1
  W  W6  1  0.52797300  0.25896300  0.69824600  1
  W  W7  1  0.00298500  0.21675300  0.30822500  1
  O  O8  1  0.15107900  0.99556800  0.36936900  1
  O  O9  1  0.38926900  0.50360100  0.71337600  1
  O  O10  1  0.65107900  0.00443200  0.63063100  1
  O  O11  1  0.88926900  0.49639900  0.28662400  1
  O  O12  1  0.18899100  0.50347800  0.36711900  1
  O  O13  1  0.36777100  0.01518700  0.72177200  1
  O  O14  1  0.68899100  0.49652200  0.63288100  1
  O  O15  1  0.86777100  0.98481300  0.27822800  1
  O  O16  1  0.47275000  0.56381600  0.19172800  1
  O  O17  1  0.87551800  0.00750000  0.92387800  1
  O  O18  1  0.97275100  0.43618400  0.80827200  1
  O  O19  1  0.37551800  0.99250000  0.07612200  1
  O  O20  1  0.46254300  0.28898900  0.46074500  1
  O  O21  1  0.07123400  0.25744400  0.11515100  1
  O  O22  1  0.96254300  0.71101100  0.53925500  1
  O  O23  1  0.57123400  0.74255600  0.88484900  1
  O  O24  1  0.44651400  0.74789900  0.47081800  1
  O  O25  1  0.09428300  0.75425700  0.11676200  1
  O  O26  1  0.94651400  0.25210100  0.52918200  1
  O  O27  1  0.59428300  0.24574300  0.88323800  1
