# generated using pymatgen
data_Zn3Cu3(AsO4)4
_symmetry_space_group_name_H-M   'P 1'
_cell_length_a   5.12770900
_cell_length_b   8.71199800
_cell_length_c   15.66791260
_cell_angle_alpha   68.12610079
_cell_angle_beta   90.00000000
_cell_angle_gamma   90.00000000
_symmetry_Int_Tables_number   1
_chemical_formula_structural   Zn3Cu3(AsO4)4
_chemical_formula_sum   'Zn6 Cu6 As8 O32'
_cell_volume   649.53580348
_cell_formula_units_Z   2
loop_
 _symmetry_equiv_pos_site_id
 _symmetry_equiv_pos_as_xyz
  1  'x, y, z'
loop_
 _atom_site_type_symbol
 _atom_site_label
 _atom_site_symmetry_multiplicity
 _atom_site_fract_x
 _atom_site_fract_y
 _atom_site_fract_z
 _atom_site_occupancy
  Zn  Zn0  1  0.52170100  0.27867900  0.23053400  1
  Zn  Zn1  1  0.02170100  0.72132100  0.26946600  1
  Zn  Zn2  1  0.47829900  0.72132100  0.76946600  1
  Zn  Zn3  1  0.97829900  0.27867900  0.73053400  1
  Zn  Zn4  1  0.50000000  0.00000000  0.50000000  1
  Zn  Zn5  1  0.00000000  0.00000000  0.00000000  1
  Cu  Cu6  1  0.49503600  0.21244200  0.62073400  1
  Cu  Cu7  1  0.50496400  0.78755800  0.37926600  1
  Cu  Cu8  1  0.99503600  0.78755800  0.87926600  1
  Cu  Cu9  1  0.00496400  0.21244200  0.12073400  1
  Cu  Cu10  1  0.00000000  0.50000000  0.50000000  1
  Cu  Cu11  1  0.50000000  0.50000000  0.00000000  1
  As  As12  1  0.99229600  0.04096600  0.34870100  1
  As  As13  1  0.50564900  0.41892900  0.39977600  1
  As  As14  1  0.00564900  0.58107100  0.10022400  1
  As  As15  1  0.99435100  0.41892900  0.89977600  1
  As  As16  1  0.00770400  0.95903400  0.65129900  1
  As  As17  1  0.49435100  0.58107100  0.60022400  1
  As  As18  1  0.50770400  0.04096600  0.84870100  1
  As  As19  1  0.49229600  0.95903400  0.15129900  1
  O  O20  1  0.39999000  0.80542500  0.25713800  1
  O  O21  1  0.93412700  0.75993300  0.00645100  1
  O  O22  1  0.40342100  0.40776700  0.30004600  1
  O  O23  1  0.39127000  0.15009600  0.15355600  1
  O  O24  1  0.59657900  0.59223300  0.69995400  1
  O  O25  1  0.10001000  0.80542500  0.75713800  1
  O  O26  1  0.90342100  0.59223300  0.19995400  1
  O  O27  1  0.67850400  0.49443800  0.89308700  1
  O  O28  1  0.67444000  0.09454700  0.92619500  1
  O  O29  1  0.60001000  0.19457500  0.74286200  1
  O  O30  1  0.10873000  0.15009600  0.65355600  1
  O  O31  1  0.32149600  0.50556200  0.10691300  1
  O  O32  1  0.30785800  0.57049700  0.41986200  1
  O  O33  1  0.32556000  0.90545300  0.07380500  1
  O  O34  1  0.67258600  0.96073600  0.64023000  1
  O  O35  1  0.17258600  0.03926400  0.85977000  1
  O  O36  1  0.80785800  0.42950300  0.08013800  1
  O  O37  1  0.09657900  0.40776700  0.80004600  1
  O  O38  1  0.17444000  0.90545300  0.57380500  1
  O  O39  1  0.17850400  0.50556200  0.60691300  1
  O  O40  1  0.82741400  0.96073600  0.14023000  1
  O  O41  1  0.32741400  0.03926400  0.35977000  1
  O  O42  1  0.06587300  0.24006700  0.99354900  1
  O  O43  1  0.43412700  0.24006700  0.49354900  1
  O  O44  1  0.69214200  0.42950300  0.58013800  1
  O  O45  1  0.89999000  0.19457500  0.24286200  1
  O  O46  1  0.60873000  0.84990400  0.84644400  1
  O  O47  1  0.82556000  0.09454700  0.42619500  1
  O  O48  1  0.56587300  0.75993300  0.50645100  1
  O  O49  1  0.82149600  0.49443800  0.39308700  1
  O  O50  1  0.19214200  0.57049700  0.91986200  1
  O  O51  1  0.89127000  0.84990400  0.34644400  1
