# generated using pymatgen
data_BaTi4O8
_symmetry_space_group_name_H-M   'P 1'
_cell_length_a   5.78506230
_cell_length_b   5.78506230
_cell_length_c   7.95869700
_cell_angle_alpha   90.00000000
_cell_angle_beta   90.00000000
_cell_angle_gamma   120.00000342
_symmetry_Int_Tables_number   1
_chemical_formula_structural   BaTi4O8
_chemical_formula_sum   'Ba1 Ti4 O8'
_cell_volume   230.66869993
_cell_formula_units_Z   1
loop_
 _symmetry_equiv_pos_site_id
 _symmetry_equiv_pos_as_xyz
  1  'x, y, z'
loop_
 _atom_site_type_symbol
 _atom_site_label
 _atom_site_symmetry_multiplicity
 _atom_site_fract_x
 _atom_site_fract_y
 _atom_site_fract_z
 _atom_site_occupancy
  Ba  Ba0  1  0.00000000  0.00000000  0.00000000  1
  Ti  Ti1  1  0.33333300  0.66666700  0.76521800  1
  Ti  Ti2  1  0.66666700  0.33333300  0.76521800  1
  Ti  Ti3  1  0.33333300  0.66666700  0.23478200  1
  Ti  Ti4  1  0.66666700  0.33333300  0.23478200  1
  O  O5  1  0.36813400  0.36813400  0.72289700  1
  O  O6  1  0.63186600  0.00000000  0.72289700  1
  O  O7  1  0.00000000  0.63186600  0.72289700  1
  O  O8  1  0.63186600  0.63186600  0.27710300  1
  O  O9  1  0.00000000  0.36813400  0.27710300  1
  O  O10  1  0.36813400  0.00000000  0.27710300  1
  O  O11  1  0.33333300  0.66666700  0.00000000  1
  O  O12  1  0.66666700  0.33333300  0.00000000  1
