# generated using pymatgen
data_MgSnAsO5
_symmetry_space_group_name_H-M   'P 1'
_cell_length_a   6.37064600
_cell_length_b   9.00213580
_cell_length_c   9.08609468
_cell_angle_alpha   69.56696970
_cell_angle_beta   89.93011197
_cell_angle_gamma   89.86018678
_symmetry_Int_Tables_number   1
_chemical_formula_structural   MgSnAsO5
_chemical_formula_sum   'Mg4 Sn4 As4 O20'
_cell_volume   488.29473833
_cell_formula_units_Z   4
loop_
 _symmetry_equiv_pos_site_id
 _symmetry_equiv_pos_as_xyz
  1  'x, y, z'
loop_
 _atom_site_type_symbol
 _atom_site_label
 _atom_site_symmetry_multiplicity
 _atom_site_fract_x
 _atom_site_fract_y
 _atom_site_fract_z
 _atom_site_occupancy
  Mg  Mg0  1  0.74620600  0.02957800  0.03301600  1
  Mg  Mg1  1  0.25389600  0.40285500  0.59191200  1
  Mg  Mg2  1  0.75499000  0.59648800  0.90413800  1
  Mg  Mg3  1  0.24792500  0.97650900  0.47089800  1
  Sn  Sn4  1  0.49597300  0.00065100  0.75300900  1
  Sn  Sn5  1  0.50459400  0.50001400  0.24841000  1
  Sn  Sn6  1  0.00463000  0.49814600  0.24791800  1
  Sn  Sn7  1  0.99551000  0.00139800  0.75137800  1
  As  As8  1  0.25687700  0.39078600  0.96038400  1
  As  As9  1  0.74570100  0.11301600  0.37881200  1
  As  As10  1  0.24552300  0.88618900  0.12478100  1
  As  As11  1  0.75498300  0.60795800  0.53483900  1
  O  O12  1  0.24597300  0.16392500  0.70628900  1
  O  O13  1  0.75287100  0.31693500  0.30370600  1
  O  O14  1  0.25169600  0.68209300  0.18993900  1
  O  O15  1  0.74681000  0.83814800  0.79305200  1
  O  O16  1  0.25869000  0.48887300  0.76230000  1
  O  O17  1  0.73691500  0.02985400  0.24147800  1
  O  O18  1  0.23615100  0.96065700  0.26832800  1
  O  O19  1  0.75893500  0.51152900  0.73319300  1
  O  O20  1  0.02895100  0.49319500  0.02223700  1
  O  O21  1  0.96357400  0.05528500  0.49759300  1
  O  O22  1  0.46284600  0.94939600  0.00593100  1
  O  O23  1  0.52833600  0.50355900  0.47462100  1
  O  O24  1  0.48187000  0.49419400  0.02293400  1
  O  O25  1  0.52854900  0.05881700  0.49877100  1
  O  O26  1  0.02851000  0.94689600  0.00491000  1
  O  O27  1  0.98060900  0.50317800  0.47361400  1
  O  O28  1  0.74513000  0.12953200  0.79324800  1
  O  O29  1  0.25545200  0.35772300  0.33442500  1
  O  O30  1  0.75492500  0.64013400  0.16185900  1
  O  O31  1  0.24640300  0.87249000  0.71207900  1
