# generated using pymatgen
data_BaCa(SnO2)4
_symmetry_space_group_name_H-M   'P 1'
_cell_length_a   6.12574630
_cell_length_b   6.12574630
_cell_length_c   7.06289100
_cell_angle_alpha   90.00000000
_cell_angle_beta   90.00000000
_cell_angle_gamma   120.00000324
_symmetry_Int_Tables_number   1
_chemical_formula_structural   BaCa(SnO2)4
_chemical_formula_sum   'Ba1 Ca1 Sn4 O8'
_cell_volume   229.52560153
_cell_formula_units_Z   1
loop_
 _symmetry_equiv_pos_site_id
 _symmetry_equiv_pos_as_xyz
  1  'x, y, z'
loop_
 _atom_site_type_symbol
 _atom_site_label
 _atom_site_symmetry_multiplicity
 _atom_site_fract_x
 _atom_site_fract_y
 _atom_site_fract_z
 _atom_site_occupancy
  Ba  Ba0  1  0.00000000  0.00000000  0.00000000  1
  Ca  Ca1  1  0.00000000  0.00000000  0.50000000  1
  Sn  Sn2  1  0.33333300  0.66666700  0.71435600  1
  Sn  Sn3  1  0.66666700  0.33333300  0.71435600  1
  Sn  Sn4  1  0.33333300  0.66666700  0.28564400  1
  Sn  Sn5  1  0.66666700  0.33333300  0.28564400  1
  O  O6  1  0.30535200  0.30535200  0.70842100  1
  O  O7  1  0.69464800  0.00000000  0.70842100  1
  O  O8  1  0.00000000  0.69464800  0.70842100  1
  O  O9  1  0.69464800  0.69464800  0.29157900  1
  O  O10  1  0.00000000  0.30535200  0.29157900  1
  O  O11  1  0.30535200  0.00000000  0.29157900  1
  O  O12  1  0.33333300  0.66666700  0.00000000  1
  O  O13  1  0.66666700  0.33333300  0.00000000  1
