# generated using pymatgen
data_Ca3Cr3(AsO4)4
_symmetry_space_group_name_H-M   'P 1'
_cell_length_a   5.22903100
_cell_length_b   9.34354700
_cell_length_c   17.35693136
_cell_angle_alpha   63.20877392
_cell_angle_beta   90.00000000
_cell_angle_gamma   90.00000000
_symmetry_Int_Tables_number   1
_chemical_formula_structural   Ca3Cr3(AsO4)4
_chemical_formula_sum   'Ca6 Cr6 As8 O32'
_cell_volume   756.98889269
_cell_formula_units_Z   2
loop_
 _symmetry_equiv_pos_site_id
 _symmetry_equiv_pos_as_xyz
  1  'x, y, z'
loop_
 _atom_site_type_symbol
 _atom_site_label
 _atom_site_symmetry_multiplicity
 _atom_site_fract_x
 _atom_site_fract_y
 _atom_site_fract_z
 _atom_site_occupancy
  Ca  Ca0  1  0.53315200  0.30424200  0.23385900  1
  Ca  Ca1  1  0.03315200  0.69575800  0.26614100  1
  Ca  Ca2  1  0.46684800  0.69575800  0.76614100  1
  Ca  Ca3  1  0.96684800  0.30424200  0.73385900  1
  Ca  Ca4  1  0.50000000  0.00000000  0.50000000  1
  Ca  Ca5  1  0.00000000  0.00000000  0.00000000  1
  Cr  Cr6  1  0.47740300  0.20740200  0.61943500  1
  Cr  Cr7  1  0.52259700  0.79259800  0.38056500  1
  Cr  Cr8  1  0.97740300  0.79259800  0.88056500  1
  Cr  Cr9  1  0.02259700  0.20740200  0.11943500  1
  Cr  Cr10  1  0.00000000  0.50000000  0.50000000  1
  Cr  Cr11  1  0.50000000  0.50000000  0.00000000  1
  As  As12  1  0.00680500  0.04123300  0.34155800  1
  As  As13  1  0.49239800  0.43525100  0.40310300  1
  As  As14  1  0.99239800  0.56474900  0.09689700  1
  As  As15  1  0.00760200  0.43525100  0.90310300  1
  As  As16  1  0.99319500  0.95876700  0.65844200  1
  As  As17  1  0.50760200  0.56474900  0.59689700  1
  As  As18  1  0.49319500  0.04123300  0.84155800  1
  As  As19  1  0.50680500  0.95876700  0.15844200  1
  O  O20  1  0.44262300  0.81103900  0.26252800  1
  O  O21  1  0.94091400  0.74554000  0.00809800  1
  O  O22  1  0.38954500  0.43684600  0.31085500  1
  O  O23  1  0.41276200  0.14326900  0.15055300  1
  O  O24  1  0.61045500  0.56315400  0.68914500  1
  O  O25  1  0.05737700  0.81103900  0.76252800  1
  O  O26  1  0.88954500  0.56315400  0.18914500  1
  O  O27  1  0.69690600  0.50463500  0.89608400  1
  O  O28  1  0.66554800  0.09915200  0.90475700  1
  O  O29  1  0.55737700  0.18896100  0.73747200  1
  O  O30  1  0.08723800  0.14326900  0.65055300  1
  O  O31  1  0.30309400  0.49536500  0.10391600  1
  O  O32  1  0.30496600  0.57689000  0.41878900  1
  O  O33  1  0.33445200  0.90084800  0.09524300  1
  O  O34  1  0.66574900  0.96052000  0.64233800  1
  O  O35  1  0.16574900  0.03948000  0.85766200  1
  O  O36  1  0.80496600  0.42311000  0.08121100  1
  O  O37  1  0.11045500  0.43684600  0.81085500  1
  O  O38  1  0.16554800  0.90084800  0.59524300  1
  O  O39  1  0.19690600  0.49536500  0.60391600  1
  O  O40  1  0.83425100  0.96052000  0.14233800  1
  O  O41  1  0.33425100  0.03948000  0.35766200  1
  O  O42  1  0.05908600  0.25446000  0.99190200  1
  O  O43  1  0.44091400  0.25446000  0.49190200  1
  O  O44  1  0.69503400  0.42311000  0.58121100  1
  O  O45  1  0.94262300  0.18896100  0.23747200  1
  O  O46  1  0.58723800  0.85673100  0.84944700  1
  O  O47  1  0.83445200  0.09915200  0.40475700  1
  O  O48  1  0.55908600  0.74554000  0.50809800  1
  O  O49  1  0.80309400  0.50463500  0.39608400  1
  O  O50  1  0.19503400  0.57689000  0.91878900  1
  O  O51  1  0.91276200  0.85673100  0.34944700  1
