# generated using pymatgen
data_Ca2YVO5
_symmetry_space_group_name_H-M   'P 1'
_cell_length_a   8.93504853
_cell_length_b   8.93504853
_cell_length_c   8.93504853
_cell_angle_alpha   144.16001452
_cell_angle_beta   142.67762281
_cell_angle_gamma   52.70693303
_symmetry_Int_Tables_number   1
_chemical_formula_structural   Ca2YVO5
_chemical_formula_sum   'Ca4 Y2 V2 O10'
_cell_volume   251.71923995
_cell_formula_units_Z   2
loop_
 _symmetry_equiv_pos_site_id
 _symmetry_equiv_pos_as_xyz
  1  'x, y, z'
loop_
 _atom_site_type_symbol
 _atom_site_label
 _atom_site_symmetry_multiplicity
 _atom_site_fract_x
 _atom_site_fract_y
 _atom_site_fract_z
 _atom_site_occupancy
  Ca  Ca0  1  0.43006600  0.90869600  0.53769800  1
  Ca  Ca1  1  0.12900200  0.60763200  0.53769800  1
  Ca  Ca2  1  0.56993400  0.10763200  0.47863000  1
  Ca  Ca3  1  0.87099800  0.40869600  0.47863000  1
  Y  Y4  1  0.79503100  0.79167300  0.08670400  1
  Y  Y5  1  0.20496900  0.29167300  0.99664200  1
  V  V6  1  0.50000000  0.48281800  0.98281800  1
  V  V7  1  0.00000000  0.98281800  0.98281800  1
  O  O8  1  0.83301300  0.19353900  0.52655200  1
  O  O9  1  0.16698700  0.69353900  0.36052600  1
  O  O10  1  0.45210700  0.32148700  0.03244300  1
  O  O11  1  0.54789300  0.58033500  0.86938000  1
  O  O12  1  0.78904500  0.82148700  0.86938000  1
  O  O13  1  0.21095500  0.08033500  0.03244300  1
  O  O14  1  0.77022600  0.25224600  0.98471100  1
  O  O15  1  0.22977400  0.21448500  0.48202000  1
  O  O16  1  0.23246500  0.71448500  0.98471100  1
  O  O17  1  0.76753500  0.75224600  0.48202000  1
