# generated using pymatgen
data_Mg(MoO2)2
_symmetry_space_group_name_H-M   'P 1'
_cell_length_a   6.26320300
_cell_length_b   6.42931511
_cell_length_c   15.23136703
_cell_angle_alpha   89.30371000
_cell_angle_beta   88.70501978
_cell_angle_gamma   61.19604574
_symmetry_Int_Tables_number   1
_chemical_formula_structural   Mg(MoO2)2
_chemical_formula_sum   'Mg6 Mo12 O24'
_cell_volume   537.31422546
_cell_formula_units_Z   6
loop_
 _symmetry_equiv_pos_site_id
 _symmetry_equiv_pos_as_xyz
  1  'x, y, z'
loop_
 _atom_site_type_symbol
 _atom_site_label
 _atom_site_symmetry_multiplicity
 _atom_site_fract_x
 _atom_site_fract_y
 _atom_site_fract_z
 _atom_site_occupancy
  Mg  Mg0  1  0.17896400  0.16816600  0.04210300  1
  Mg  Mg1  1  0.82216500  0.83834800  0.33214000  1
  Mg  Mg2  1  0.15978300  0.66849100  0.16641900  1
  Mg  Mg3  1  0.17222300  0.16269300  0.66269400  1
  Mg  Mg4  1  0.49798700  0.00310800  0.50254300  1
  Mg  Mg5  1  0.84902600  0.32418200  0.83338700  1
  Mo  Mo6  1  0.66195600  0.16433000  0.16947700  1
  Mo  Mo7  1  0.50116600  0.49776200  0.39417500  1
  Mo  Mo8  1  0.50483600  0.50298500  0.00566700  1
  Mo  Mo9  1  0.65767300  0.67339600  0.16581800  1
  Mo  Mo10  1  0.99389600  0.50572800  0.50271400  1
  Mo  Mo11  1  0.84882500  0.82341900  0.74336200  1
  Mo  Mo12  1  0.99089700  0.00249300  0.49903600  1
  Mo  Mo13  1  0.34575100  0.82359300  0.83275500  1
  Mo  Mo14  1  0.12454600  0.18927100  0.29038200  1
  Mo  Mo15  1  0.34421100  0.32272300  0.83108900  1
  Mo  Mo16  1  0.49305500  0.51311600  0.61521000  1
  Mo  Mo17  1  0.82740800  0.84941000  0.93585500  1
  O  O18  1  0.33947400  0.34844200  0.09077600  1
  O  O19  1  0.48886800  0.50203800  0.24018100  1
  O  O20  1  0.34573300  0.82067100  0.09053500  1
  O  O21  1  0.82080800  0.35178400  0.09171700  1
  O  O22  1  0.67232000  0.68518600  0.41924700  1
  O  O23  1  0.52463900  0.96438900  0.24675600  1
  O  O24  1  0.82211700  0.83401900  0.56959300  1
  O  O25  1  0.96071000  0.53882000  0.24584600  1
  O  O26  1  0.67326600  0.14383200  0.41363400  1
  O  O27  1  0.83132900  0.83817000  0.09310800  1
  O  O28  1  0.13295000  0.68532100  0.41272300  1
  O  O29  1  0.98978700  0.98215400  0.24610300  1
  O  O30  1  0.02299100  0.01220100  0.75271600  1
  O  O31  1  0.87193500  0.30050000  0.58262600  1
  O  O32  1  0.30130000  0.87507000  0.57841000  1
  O  O33  1  0.02336200  0.46550600  0.74985400  1
  O  O34  1  0.17904300  0.15049600  0.90878800  1
  O  O35  1  0.17233300  0.17579400  0.42285200  1
  O  O36  1  0.48139000  0.00693300  0.74532400  1
  O  O37  1  0.32185100  0.32026600  0.57651200  1
  O  O38  1  0.21299500  0.62668400  0.91421500  1
  O  O39  1  0.64801900  0.21467700  0.91770200  1
  O  O40  1  0.51694500  0.49512900  0.75583400  1
  O  O41  1  0.67146500  0.62870400  0.91012100  1
