# generated using pymatgen
data_ZnSn3(P2O7)2
_symmetry_space_group_name_H-M   'P 1'
_cell_length_a   8.26691500
_cell_length_b   8.13510600
_cell_length_c   10.04028329
_cell_angle_alpha   76.23165587
_cell_angle_beta   90.00000000
_cell_angle_gamma   90.00000000
_symmetry_Int_Tables_number   1
_chemical_formula_structural   ZnSn3(P2O7)2
_chemical_formula_sum   'Zn2 Sn6 P8 O28'
_cell_volume   655.82928596
_cell_formula_units_Z   2
loop_
 _symmetry_equiv_pos_site_id
 _symmetry_equiv_pos_as_xyz
  1  'x, y, z'
loop_
 _atom_site_type_symbol
 _atom_site_label
 _atom_site_symmetry_multiplicity
 _atom_site_fract_x
 _atom_site_fract_y
 _atom_site_fract_z
 _atom_site_occupancy
  Zn  Zn0  1  0.00000000  0.50000000  0.00000000  1
  Zn  Zn1  1  0.50000000  0.50000000  0.50000000  1
  Sn  Sn2  1  0.13737000  0.80305600  0.51716400  1
  Sn  Sn3  1  0.63737000  0.19694400  0.98283600  1
  Sn  Sn4  1  0.86263000  0.19694400  0.48283600  1
  Sn  Sn5  1  0.36263000  0.80305600  0.01716400  1
  Sn  Sn6  1  0.00000000  0.00000000  0.00000000  1
  Sn  Sn7  1  0.50000000  0.00000000  0.50000000  1
  P  P8  1  0.96185900  0.43930200  0.70590900  1
  P  P9  1  0.46185900  0.56069800  0.79409100  1
  P  P10  1  0.03814100  0.56069800  0.29409100  1
  P  P11  1  0.53814100  0.43930200  0.20590900  1
  P  P12  1  0.20308600  0.18072300  0.67407100  1
  P  P13  1  0.70308600  0.81927700  0.82592900  1
  P  P14  1  0.79691400  0.81927700  0.32592900  1
  P  P15  1  0.29691400  0.18072300  0.17407100  1
  O  O16  1  0.36571800  0.21759100  0.59981100  1
  O  O17  1  0.86571800  0.78240900  0.90018900  1
  O  O18  1  0.63428200  0.78240900  0.40018900  1
  O  O19  1  0.13428200  0.21759100  0.09981100  1
  O  O20  1  0.44299400  0.60959200  0.63536200  1
  O  O21  1  0.94299400  0.39040800  0.86463800  1
  O  O22  1  0.55700600  0.39040800  0.36463800  1
  O  O23  1  0.05700600  0.60959200  0.13536200  1
  O  O24  1  0.83082500  0.34845200  0.64253600  1
  O  O25  1  0.33082500  0.65154800  0.85746400  1
  O  O26  1  0.16917500  0.65154800  0.35746400  1
  O  O27  1  0.66917500  0.34845200  0.14253600  1
  O  O28  1  0.13588900  0.37071100  0.67105300  1
  O  O29  1  0.63588900  0.62928900  0.82894700  1
  O  O30  1  0.86411100  0.62928900  0.32894700  1
  O  O31  1  0.36411100  0.37071100  0.17105300  1
  O  O32  1  0.53009600  0.62965000  0.14862800  1
  O  O33  1  0.03009600  0.37035000  0.35137200  1
  O  O34  1  0.46990400  0.37035000  0.85137200  1
  O  O35  1  0.96990400  0.62965000  0.64862800  1
  O  O36  1  0.79256700  0.92183500  0.17853300  1
  O  O37  1  0.29256700  0.07816500  0.32146700  1
  O  O38  1  0.20743300  0.07816500  0.82146700  1
  O  O39  1  0.70743300  0.92183500  0.67853300  1
  O  O40  1  0.42203900  0.09964300  0.09162800  1
  O  O41  1  0.92203900  0.90035700  0.40837200  1
  O  O42  1  0.57796100  0.90035700  0.90837200  1
  O  O43  1  0.07796100  0.09964300  0.59162800  1
