# generated using pymatgen
data_YTi3F15
_symmetry_space_group_name_H-M   'P 1'
_cell_length_a   10.35748700
_cell_length_b   6.14459000
_cell_length_c   10.07235419
_cell_angle_alpha   73.67986914
_cell_angle_beta   90.00000000
_cell_angle_gamma   90.00000000
_symmetry_Int_Tables_number   1
_chemical_formula_structural   YTi3F15
_chemical_formula_sum   'Y2 Ti6 F30'
_cell_volume   615.20065123
_cell_formula_units_Z   2
loop_
 _symmetry_equiv_pos_site_id
 _symmetry_equiv_pos_as_xyz
  1  'x, y, z'
loop_
 _atom_site_type_symbol
 _atom_site_label
 _atom_site_symmetry_multiplicity
 _atom_site_fract_x
 _atom_site_fract_y
 _atom_site_fract_z
 _atom_site_occupancy
  Y  Y0  1  0.25000000  0.71332500  0.78967800  1
  Y  Y1  1  0.75000000  0.28667500  0.21032200  1
  Ti  Ti2  1  0.50000000  0.00000000  0.00000000  1
  Ti  Ti3  1  0.43574400  0.61752600  0.34741600  1
  Ti  Ti4  1  0.56425600  0.38247400  0.65258400  1
  Ti  Ti5  1  0.00000000  0.00000000  0.00000000  1
  Ti  Ti6  1  0.06425600  0.61752600  0.34741600  1
  Ti  Ti7  1  0.93574400  0.38247400  0.65258400  1
  F  F8  1  0.25000000  0.60253600  0.99982400  1
  F  F9  1  0.25000000  0.55066700  0.33167700  1
  F  F10  1  0.25000000  0.97681800  0.61093400  1
  F  F11  1  0.75000000  0.39746400  0.00017600  1
  F  F12  1  0.75000000  0.02318200  0.38906600  1
  F  F13  1  0.75000000  0.44933300  0.66832300  1
  F  F14  1  0.58532500  0.24138100  0.84628100  1
  F  F15  1  0.59930300  0.05338700  0.14672100  1
  F  F16  1  0.58613900  0.62972100  0.49190900  1
  F  F17  1  0.41467500  0.75861900  0.15371900  1
  F  F18  1  0.41386100  0.37027900  0.50809100  1
  F  F19  1  0.40069700  0.94661300  0.85327900  1
  F  F20  1  0.88551400  0.79044600  0.97997200  1
  F  F21  1  0.92397700  0.47413700  0.28644300  1
  F  F22  1  0.90545400  0.12169300  0.62010200  1
  F  F23  1  0.11448600  0.20955400  0.02002800  1
  F  F24  1  0.09454600  0.87830700  0.37989800  1
  F  F25  1  0.07602300  0.52586300  0.71355700  1
  F  F26  1  0.38551400  0.20955400  0.02002800  1
  F  F27  1  0.40545400  0.87830700  0.37989800  1
  F  F28  1  0.42397700  0.52586300  0.71355700  1
  F  F29  1  0.61448600  0.79044600  0.97997200  1
  F  F30  1  0.57602300  0.47413700  0.28644300  1
  F  F31  1  0.59454600  0.12169300  0.62010200  1
  F  F32  1  0.91467500  0.24138100  0.84628100  1
  F  F33  1  0.90069700  0.05338700  0.14672100  1
  F  F34  1  0.91386100  0.62972100  0.49190900  1
  F  F35  1  0.08532500  0.75861900  0.15371900  1
  F  F36  1  0.08613900  0.37027900  0.50809100  1
  F  F37  1  0.09930300  0.94661300  0.85327900  1
