# generated using pymatgen
data_ZnAsWO5
_symmetry_space_group_name_H-M   'P 1'
_cell_length_a   8.29865200
_cell_length_b   6.63569700
_cell_length_c   8.95564696
_cell_angle_alpha   89.43077852
_cell_angle_beta   90.00000000
_cell_angle_gamma   90.00000000
_symmetry_Int_Tables_number   1
_chemical_formula_structural   ZnAsWO5
_chemical_formula_sum   'Zn4 As4 W4 O20'
_cell_volume   493.13932012
_cell_formula_units_Z   4
loop_
 _symmetry_equiv_pos_site_id
 _symmetry_equiv_pos_as_xyz
  1  'x, y, z'
loop_
 _atom_site_type_symbol
 _atom_site_label
 _atom_site_symmetry_multiplicity
 _atom_site_fract_x
 _atom_site_fract_y
 _atom_site_fract_z
 _atom_site_occupancy
  Zn  Zn0  1  0.08351900  0.63139700  0.57375600  1
  Zn  Zn1  1  0.58351900  0.36860300  0.42624400  1
  Zn  Zn2  1  0.91753000  0.87942400  0.07967200  1
  Zn  Zn3  1  0.41753000  0.12057600  0.92032800  1
  As  As4  1  0.93167700  0.20989300  0.39011900  1
  As  As5  1  0.43167700  0.79010700  0.60988100  1
  As  As6  1  0.06877900  0.29500900  0.88775600  1
  As  As7  1  0.56877900  0.70499100  0.11224400  1
  W  W8  1  0.72157900  0.43580500  0.76465800  1
  W  W9  1  0.22157900  0.56419500  0.23534200  1
  W  W10  1  0.27812000  0.06386300  0.26383800  1
  W  W11  1  0.77812000  0.93613700  0.73616200  1
  O  O12  1  0.71179100  0.19464700  0.62861100  1
  O  O13  1  0.21179100  0.80535300  0.37138900  1
  O  O14  1  0.28783200  0.30978500  0.13005600  1
  O  O15  1  0.78783200  0.69021500  0.86994400  1
  O  O16  1  0.77429100  0.33246700  0.30266100  1
  O  O17  1  0.27429100  0.66753300  0.69733900  1
  O  O18  1  0.22602400  0.17340400  0.80140800  1
  O  O19  1  0.72602400  0.82659600  0.19859200  1
  O  O20  1  0.03664600  0.09270100  0.22569900  1
  O  O21  1  0.53664600  0.90729900  0.77430100  1
  O  O22  1  0.96289700  0.41080000  0.72322100  1
  O  O23  1  0.46289700  0.58920000  0.27677900  1
  O  O24  1  0.08993200  0.43974000  0.39390400  1
  O  O25  1  0.58993200  0.56026000  0.60609600  1
  O  O26  1  0.90848800  0.06217800  0.89423800  1
  O  O27  1  0.40848800  0.93782200  0.10576200  1
  O  O28  1  0.90795200  0.83305300  0.59338300  1
  O  O29  1  0.40795200  0.16694700  0.40661700  1
  O  O30  1  0.09328800  0.67575900  0.09252100  1
  O  O31  1  0.59328800  0.32424100  0.90747900  1
