# generated using pymatgen
data_Zn(WO2)2
_symmetry_space_group_name_H-M   'P 1'
_cell_length_a   6.39777700
_cell_length_b   6.41146753
_cell_length_c   15.55962335
_cell_angle_alpha   88.22676072
_cell_angle_beta   88.73386893
_cell_angle_gamma   60.91495653
_symmetry_Int_Tables_number   1
_chemical_formula_structural   Zn(WO2)2
_chemical_formula_sum   'Zn6 W12 O24'
_cell_volume   557.47417438
_cell_formula_units_Z   6
loop_
 _symmetry_equiv_pos_site_id
 _symmetry_equiv_pos_as_xyz
  1  'x, y, z'
loop_
 _atom_site_type_symbol
 _atom_site_label
 _atom_site_symmetry_multiplicity
 _atom_site_fract_x
 _atom_site_fract_y
 _atom_site_fract_z
 _atom_site_occupancy
  Zn  Zn0  1  0.64916500  0.17496000  0.95972900  1
  Zn  Zn1  1  0.34415700  0.84104400  0.67271400  1
  Zn  Zn2  1  0.17896100  0.66777800  0.83758900  1
  Zn  Zn3  1  0.66423200  0.16419300  0.33276600  1
  Zn  Zn4  1  0.49260900  0.99269300  0.49739800  1
  Zn  Zn5  1  0.83138700  0.33518600  0.16173400  1
  W  W6  1  0.18136000  0.16461300  0.82909600  1
  W  W7  1  0.98761200  0.48892100  0.60924800  1
  W  W8  1  0.99125100  0.50343900  0.98944400  1
  W  W9  1  0.67864000  0.67591000  0.83361600  1
  W  W10  1  0.49216000  0.50025800  0.50498100  1
  W  W11  1  0.32270500  0.82494800  0.25231800  1
  W  W12  1  0.99910700  0.99484700  0.50594700  1
  W  W13  1  0.83083500  0.83137800  0.16460200  1
  W  W14  1  0.71281000  0.20525700  0.70476000  1
  W  W15  1  0.33037800  0.33207400  0.16432700  1
  W  W16  1  0.99740000  0.50030600  0.41780600  1
  W  W17  1  0.32183600  0.82990400  0.05767100  1
  O  O18  1  0.31373400  0.34615200  0.90845200  1
  O  O19  1  0.00499000  0.50508100  0.75537800  1
  O  O20  1  0.83102900  0.82876400  0.90728900  1
  O  O21  1  0.83936600  0.34663400  0.90281900  1
  O  O22  1  0.62996500  0.67611700  0.58850200  1
  O  O23  1  0.51178500  0.97583800  0.75427900  1
  O  O24  1  0.32846400  0.83373900  0.43795700  1
  O  O25  1  0.50871600  0.52456200  0.75902100  1
  O  O26  1  0.17546500  0.13308900  0.58971800  1
  O  O27  1  0.34562700  0.83047500  0.90488700  1
  O  O28  1  0.17557700  0.67253000  0.59080400  1
  O  O29  1  0.03237700  0.98027700  0.75428500  1
  O  O30  1  0.96543000  0.00271200  0.25315000  1
  O  O31  1  0.81431100  0.31654600  0.42318300  1
  O  O32  1  0.81721700  0.86044000  0.42352500  1
  O  O33  1  0.50047200  0.46752300  0.25316900  1
  O  O34  1  0.67721700  0.17714300  0.09183500  1
  O  O35  1  0.65608500  0.15921000  0.58079500  1
  O  O36  1  0.50931800  0.00822000  0.24761700  1
  O  O37  1  0.35788300  0.31730700  0.42308500  1
  O  O38  1  0.13827700  0.64149600  0.07647700  1
  O  O39  1  0.17556400  0.20445700  0.07348900  1
  O  O40  1  0.98829700  0.48627600  0.22890400  1
  O  O41  1  0.69623200  0.67769900  0.07563600  1
