# generated using pymatgen
data_Ca(AgO2)2
_symmetry_space_group_name_H-M   'P 1'
_cell_length_a   3.49488900
_cell_length_b   9.95370300
_cell_length_c   11.00812200
_cell_angle_alpha   90.00000000
_cell_angle_beta   90.00000000
_cell_angle_gamma   90.00000000
_symmetry_Int_Tables_number   1
_chemical_formula_structural   Ca(AgO2)2
_chemical_formula_sum   'Ca4 Ag8 O16'
_cell_volume   382.94049909
_cell_formula_units_Z   4
loop_
 _symmetry_equiv_pos_site_id
 _symmetry_equiv_pos_as_xyz
  1  'x, y, z'
loop_
 _atom_site_type_symbol
 _atom_site_label
 _atom_site_symmetry_multiplicity
 _atom_site_fract_x
 _atom_site_fract_y
 _atom_site_fract_z
 _atom_site_occupancy
  Ca  Ca0  1  0.37297900  0.75000000  0.85044000  1
  Ca  Ca1  1  0.37297900  0.25000000  0.64956000  1
  Ca  Ca2  1  0.62702100  0.75000000  0.35044000  1
  Ca  Ca3  1  0.62702100  0.25000000  0.14956000  1
  Ag  Ag4  1  0.84650600  0.56993800  0.61432000  1
  Ag  Ag5  1  0.84650600  0.06993800  0.88568000  1
  Ag  Ag6  1  0.15349400  0.06993800  0.38568000  1
  Ag  Ag7  1  0.84650600  0.43006200  0.88568000  1
  Ag  Ag8  1  0.15349400  0.43006200  0.38568000  1
  Ag  Ag9  1  0.84650600  0.93006200  0.61432000  1
  Ag  Ag10  1  0.15349400  0.93006200  0.11432000  1
  Ag  Ag11  1  0.15349400  0.56993800  0.11432000  1
  O  O12  1  0.13507400  0.88076100  0.45670600  1
  O  O13  1  0.86492600  0.11923900  0.54329400  1
  O  O14  1  0.50754200  0.00000000  0.75000000  1
  O  O15  1  0.86492600  0.88076100  0.95670600  1
  O  O16  1  0.86492600  0.61923900  0.95670600  1
  O  O17  1  0.86572500  0.25000000  0.79763400  1
  O  O18  1  0.13507400  0.11923900  0.04329400  1
  O  O19  1  0.13427500  0.25000000  0.29763400  1
  O  O20  1  0.50754200  0.50000000  0.75000000  1
  O  O21  1  0.49245800  0.00000000  0.25000000  1
  O  O22  1  0.13507400  0.61923900  0.45670600  1
  O  O23  1  0.13427500  0.75000000  0.20236600  1
  O  O24  1  0.86572500  0.75000000  0.70236600  1
  O  O25  1  0.49245800  0.50000000  0.25000000  1
  O  O26  1  0.13507400  0.38076100  0.04329400  1
  O  O27  1  0.86492600  0.38076100  0.54329400  1
