# generated using pymatgen
data_YTi(WO4)2
_symmetry_space_group_name_H-M   'P 1'
_cell_length_a   5.06643600
_cell_length_b   5.56115788
_cell_length_c   6.12742651
_cell_angle_alpha   104.83622241
_cell_angle_beta   90.11103973
_cell_angle_gamma   107.05350711
_symmetry_Int_Tables_number   1
_chemical_formula_structural   YTi(WO4)2
_chemical_formula_sum   'Y1 Ti1 W2 O8'
_cell_volume   158.99322373
_cell_formula_units_Z   1
loop_
 _symmetry_equiv_pos_site_id
 _symmetry_equiv_pos_as_xyz
  1  'x, y, z'
loop_
 _atom_site_type_symbol
 _atom_site_label
 _atom_site_symmetry_multiplicity
 _atom_site_fract_x
 _atom_site_fract_y
 _atom_site_fract_z
 _atom_site_occupancy
  Y  Y0  1  0.50410000  0.10717100  0.74458100  1
  Ti  Ti1  1  0.98633100  0.09031900  0.24737900  1
  W  W2  1  0.71992200  0.57487600  0.36997400  1
  W  W3  1  0.22396300  0.61314100  0.06001400  1
  O  O4  1  0.66159600  0.79194200  0.64808100  1
  O  O5  1  0.78226800  0.27000900  0.46833700  1
  O  O6  1  0.63463400  0.80156500  0.16220300  1
  O  O7  1  0.82342300  0.35266700  0.05036900  1
  O  O8  1  0.17661400  0.92348600  0.97591100  1
  O  O9  1  0.27081300  0.40287400  0.79540900  1
  O  O10  1  0.29076000  0.39996900  0.27477300  1
  O  O11  1  0.12567200  0.86807600  0.38146600  1
