# generated using pymatgen
data_ZnCuSb2O7
_symmetry_space_group_name_H-M   'P 1'
_cell_length_a   8.53145600
_cell_length_b   10.35983100
_cell_length_c   10.83989529
_cell_angle_alpha   83.12854087
_cell_angle_beta   90.00000000
_cell_angle_gamma   90.00000000
_symmetry_Int_Tables_number   1
_chemical_formula_structural   ZnCuSb2O7
_chemical_formula_sum   'Zn6 Cu6 Sb12 O42'
_cell_volume   951.19628519
_cell_formula_units_Z   6
loop_
 _symmetry_equiv_pos_site_id
 _symmetry_equiv_pos_as_xyz
  1  'x, y, z'
loop_
 _atom_site_type_symbol
 _atom_site_label
 _atom_site_symmetry_multiplicity
 _atom_site_fract_x
 _atom_site_fract_y
 _atom_site_fract_z
 _atom_site_occupancy
  Zn  Zn0  1  0.44292000  0.86402600  0.57934600  1
  Zn  Zn1  1  0.93594900  0.50000000  0.75000000  1
  Zn  Zn2  1  0.44292000  0.13597400  0.92065400  1
  Zn  Zn3  1  0.06405100  0.50000000  0.25000000  1
  Zn  Zn4  1  0.55708000  0.13597400  0.42065400  1
  Zn  Zn5  1  0.55708000  0.86402600  0.07934600  1
  Cu  Cu6  1  0.92436500  0.19786200  0.41444600  1
  Cu  Cu7  1  0.07563500  0.80213800  0.58555400  1
  Cu  Cu8  1  0.43047800  0.50000000  0.25000000  1
  Cu  Cu9  1  0.92436500  0.80213800  0.08555400  1
  Cu  Cu10  1  0.56952200  0.50000000  0.75000000  1
  Cu  Cu11  1  0.07563500  0.19786200  0.91444600  1
  Sb  Sb12  1  0.22209500  0.82108500  0.29440900  1
  Sb  Sb13  1  0.75106700  0.83667200  0.37362200  1
  Sb  Sb14  1  0.24893300  0.83667200  0.87362200  1
  Sb  Sb15  1  0.77790500  0.82108500  0.79440900  1
  Sb  Sb16  1  0.27420100  0.49640900  0.96361600  1
  Sb  Sb17  1  0.75106700  0.16332800  0.12637800  1
  Sb  Sb18  1  0.72579900  0.49640900  0.46361600  1
  Sb  Sb19  1  0.24893300  0.16332800  0.62637800  1
  Sb  Sb20  1  0.27420100  0.50359100  0.53638400  1
  Sb  Sb21  1  0.72579900  0.50359100  0.03638400  1
  Sb  Sb22  1  0.77790500  0.17891500  0.70559100  1
  Sb  Sb23  1  0.22209500  0.17891500  0.20559100  1
  O  O24  1  0.74269900  0.78871300  0.97376300  1
  O  O25  1  0.76090800  0.14406500  0.30443800  1
  O  O26  1  0.84959600  0.00000000  0.75000000  1
  O  O27  1  0.92177300  0.49419700  0.11179900  1
  O  O28  1  0.40969400  0.06275400  0.56311000  1
  O  O29  1  0.93113000  0.72734800  0.70981300  1
  O  O30  1  0.34640000  0.67652400  0.94155200  1
  O  O31  1  0.07822700  0.49419700  0.61179900  1
  O  O32  1  0.74123300  0.54442700  0.85797700  1
  O  O33  1  0.40969400  0.93724600  0.93689000  1
  O  O34  1  0.74123300  0.45557300  0.64202300  1
  O  O35  1  0.43977300  0.42035400  0.88043100  1
  O  O36  1  0.95669300  0.14487900  0.06236700  1
  O  O37  1  0.06887000  0.72734800  0.20981300  1
  O  O38  1  0.65360000  0.32347600  0.05844800  1
  O  O39  1  0.34640000  0.32347600  0.55844800  1
  O  O40  1  0.93113000  0.27265200  0.79018700  1
  O  O41  1  0.59030600  0.93724600  0.43689000  1
  O  O42  1  0.25730100  0.78871300  0.47376300  1
  O  O43  1  0.56022700  0.57964600  0.11956900  1
  O  O44  1  0.41894200  0.19538200  0.28029900  1
  O  O45  1  0.25876700  0.45557300  0.14202300  1
  O  O46  1  0.04330700  0.14487900  0.56236700  1
  O  O47  1  0.25876700  0.54442700  0.35797700  1
  O  O48  1  0.92177300  0.50580300  0.38820100  1
  O  O49  1  0.56022700  0.42035400  0.38043100  1
  O  O50  1  0.07822700  0.50580300  0.88820100  1
  O  O51  1  0.58105800  0.19538200  0.78029900  1
  O  O52  1  0.58105800  0.80461800  0.71970100  1
  O  O53  1  0.04330700  0.85512100  0.93763300  1
  O  O54  1  0.06887000  0.27265200  0.29018700  1
  O  O55  1  0.74269900  0.21128700  0.52623700  1
  O  O56  1  0.15040400  0.00000000  0.25000000  1
  O  O57  1  0.23909200  0.14406500  0.80443800  1
  O  O58  1  0.59030600  0.06275400  0.06311000  1
  O  O59  1  0.95669300  0.85512100  0.43763300  1
  O  O60  1  0.25730100  0.21128700  0.02623700  1
  O  O61  1  0.76090800  0.85593500  0.19556200  1
  O  O62  1  0.43977300  0.57964600  0.61956900  1
  O  O63  1  0.65360000  0.67652400  0.44155200  1
  O  O64  1  0.23909200  0.85593500  0.69556200  1
  O  O65  1  0.41894200  0.80461800  0.21970100  1
