# generated using pymatgen
data_Zn(BiO2)2
_symmetry_space_group_name_H-M   'P 1'
_cell_length_a   3.40066100
_cell_length_b   10.69482900
_cell_length_c   11.47874900
_cell_angle_alpha   90.00000000
_cell_angle_beta   90.00000000
_cell_angle_gamma   90.00000000
_symmetry_Int_Tables_number   1
_chemical_formula_structural   Zn(BiO2)2
_chemical_formula_sum   'Zn4 Bi8 O16'
_cell_volume   417.47622266
_cell_formula_units_Z   4
loop_
 _symmetry_equiv_pos_site_id
 _symmetry_equiv_pos_as_xyz
  1  'x, y, z'
loop_
 _atom_site_type_symbol
 _atom_site_label
 _atom_site_symmetry_multiplicity
 _atom_site_fract_x
 _atom_site_fract_y
 _atom_site_fract_z
 _atom_site_occupancy
  Zn  Zn0  1  0.85762600  0.35822100  0.75000000  1
  Zn  Zn1  1  0.85762600  0.14177900  0.25000000  1
  Zn  Zn2  1  0.14237400  0.85822100  0.75000000  1
  Zn  Zn3  1  0.14237400  0.64177900  0.25000000  1
  Bi  Bi4  1  0.67119000  0.12222100  0.91262300  1
  Bi  Bi5  1  0.67119000  0.37777900  0.41262300  1
  Bi  Bi6  1  0.32881000  0.87777900  0.41262300  1
  Bi  Bi7  1  0.67119000  0.37777900  0.08737700  1
  Bi  Bi8  1  0.32881000  0.87777900  0.08737700  1
  Bi  Bi9  1  0.67119000  0.12222100  0.58737700  1
  Bi  Bi10  1  0.32881000  0.62222100  0.58737700  1
  Bi  Bi11  1  0.32881000  0.62222100  0.91262300  1
  O  O12  1  0.24044100  0.96501500  0.60365500  1
  O  O13  1  0.75955900  0.03498500  0.39634500  1
  O  O14  1  0.24369200  0.25000000  0.50000000  1
  O  O15  1  0.75955900  0.46501500  0.60365500  1
  O  O16  1  0.75955900  0.46501500  0.89634500  1
  O  O17  1  0.36042700  0.25309400  0.25000000  1
  O  O18  1  0.24044100  0.53498500  0.39634500  1
  O  O19  1  0.63957300  0.75309400  0.25000000  1
  O  O20  1  0.24369200  0.25000000  0.00000000  1
  O  O21  1  0.75630800  0.75000000  0.50000000  1
  O  O22  1  0.24044100  0.96501500  0.89634500  1
  O  O23  1  0.63957300  0.74690600  0.75000000  1
  O  O24  1  0.36042700  0.24690600  0.75000000  1
  O  O25  1  0.75630800  0.75000000  0.00000000  1
  O  O26  1  0.24044100  0.53498500  0.10365500  1
  O  O27  1  0.75955900  0.03498500  0.10365500  1
