# generated using pymatgen
data_Mg(MoO2)2
_symmetry_space_group_name_H-M   'P 1'
_cell_length_a   5.40579173
_cell_length_b   5.40579173
_cell_length_c   10.33654700
_cell_angle_alpha   90.00000000
_cell_angle_beta   90.00000000
_cell_angle_gamma   146.47460789
_symmetry_Int_Tables_number   1
_chemical_formula_structural   Mg(MoO2)2
_chemical_formula_sum   'Mg2 Mo4 O8'
_cell_volume   166.83003811
_cell_formula_units_Z   2
loop_
 _symmetry_equiv_pos_site_id
 _symmetry_equiv_pos_as_xyz
  1  'x, y, z'
loop_
 _atom_site_type_symbol
 _atom_site_label
 _atom_site_symmetry_multiplicity
 _atom_site_fract_x
 _atom_site_fract_y
 _atom_site_fract_z
 _atom_site_occupancy
  Mg  Mg0  1  0.60795700  0.39204300  0.75000000  1
  Mg  Mg1  1  0.39204300  0.60795700  0.25000000  1
  Mo  Mo2  1  0.13235600  0.86764400  0.07377400  1
  Mo  Mo3  1  0.86764400  0.13235600  0.92622600  1
  Mo  Mo4  1  0.13235600  0.86764400  0.42622600  1
  Mo  Mo5  1  0.86764400  0.13235600  0.57377400  1
  O  O6  1  0.77160700  0.22839300  0.38364300  1
  O  O7  1  0.22839300  0.77160700  0.61635700  1
  O  O8  1  0.22839300  0.77160700  0.88364300  1
  O  O9  1  0.77160700  0.22839300  0.11635700  1
  O  O10  1  0.02280200  0.97719800  0.25000000  1
  O  O11  1  0.97719800  0.02280200  0.75000000  1
  O  O12  1  0.50000000  0.50000000  0.00000000  1
  O  O13  1  0.50000000  0.50000000  0.50000000  1
