# generated using pymatgen
data_MnO2
_symmetry_space_group_name_H-M   'P 1'
_cell_length_a   5.77563938
_cell_length_b   5.77563938
_cell_length_c   19.58398734
_cell_angle_alpha   78.02969574
_cell_angle_beta   78.02969574
_cell_angle_gamma   62.51883953
_symmetry_Int_Tables_number   1
_chemical_formula_structural   MnO2
_chemical_formula_sum   'Mn16 O32'
_cell_volume   562.25030614
_cell_formula_units_Z   16
loop_
 _symmetry_equiv_pos_site_id
 _symmetry_equiv_pos_as_xyz
  1  'x, y, z'
loop_
 _atom_site_type_symbol
 _atom_site_label
 _atom_site_symmetry_multiplicity
 _atom_site_fract_x
 _atom_site_fract_y
 _atom_site_fract_z
 _atom_site_occupancy
  Mn  Mn0  1  0.23702400  0.75637300  0.12600300  1
  Mn  Mn1  1  0.50248300  0.50248300  0.25510700  1
  Mn  Mn2  1  0.75637300  0.23702400  0.12600300  1
  Mn  Mn3  1  0.30943800  0.30943800  0.52965300  1
  Mn  Mn4  1  0.74952200  0.25417100  0.37891100  1
  Mn  Mn5  1  0.17997000  0.17997000  0.22745700  1
  Mn  Mn6  1  0.81231200  0.81231200  0.77397700  1
  Mn  Mn7  1  0.25417100  0.74952200  0.37891100  1
  Mn  Mn8  1  0.25362800  0.75613800  0.62392300  1
  Mn  Mn9  1  0.69660100  0.69660100  0.47121000  1
  Mn  Mn10  1  0.75613800  0.25362800  0.62392300  1
  Mn  Mn11  1  0.25572200  0.74467200  0.86911900  1
  Mn  Mn12  1  0.74467200  0.25572200  0.86911900  1
  Mn  Mn13  1  0.19760000  0.19760000  0.72050300  1
  Mn  Mn14  1  0.00562200  0.00562200  0.99875400  1
  Mn  Mn15  1  0.68539000  0.68539000  0.97529000  1
  O  O16  1  0.67510300  0.11916700  0.05601900  1
  O  O17  1  0.90105400  0.90105400  0.17618600  1
  O  O18  1  0.11916700  0.67510300  0.05601900  1
  O  O19  1  0.10649500  0.10649500  0.07202300  1
  O  O20  1  0.39047700  0.39047700  0.18215200  1
  O  O21  1  0.17299500  0.62587900  0.31168300  1
  O  O22  1  0.38252200  0.84010000  0.19327200  1
  O  O23  1  0.39772600  0.39772600  0.43541800  1
  O  O24  1  0.62587900  0.17299500  0.31168300  1
  O  O25  1  0.59878900  0.59878900  0.07367400  1
  O  O26  1  0.60587500  0.60587500  0.32548100  1
  O  O27  1  0.84010000  0.38252200  0.19327200  1
  O  O28  1  0.61535100  0.14193200  0.56110100  1
  O  O29  1  0.88890000  0.88890000  0.42872000  1
  O  O30  1  0.87290100  0.39451700  0.44010400  1
  O  O31  1  0.89828900  0.89828900  0.67805300  1
  O  O32  1  0.14193200  0.61535100  0.56110100  1
  O  O33  1  0.10820300  0.10820300  0.32949600  1
  O  O34  1  0.11838100  0.11838100  0.57122600  1
  O  O35  1  0.39451700  0.87290100  0.44010400  1
  O  O36  1  0.39144100  0.39144100  0.67655300  1
  O  O37  1  0.10894600  0.63069800  0.80912700  1
  O  O38  1  0.36739400  0.89468400  0.68703400  1
  O  O39  1  0.40037900  0.40037900  0.91496800  1
  O  O40  1  0.63069800  0.10894600  0.80912700  1
  O  O41  1  0.61082000  0.61082000  0.56825100  1
  O  O42  1  0.61712000  0.61712000  0.82042900  1
  O  O43  1  0.89468400  0.36739400  0.68703400  1
  O  O44  1  0.89423400  0.89423400  0.92719000  1
  O  O45  1  0.87751500  0.34197100  0.93871800  1
  O  O46  1  0.10561200  0.10561200  0.81415200  1
  O  O47  1  0.34197100  0.87751500  0.93871800  1
