# generated using pymatgen
data_V3O2F5
_symmetry_space_group_name_H-M   'P 1'
_cell_length_a   6.42782400
_cell_length_b   7.54212300
_cell_length_c   8.47852819
_cell_angle_alpha   116.40719177
_cell_angle_beta   112.27324596
_cell_angle_gamma   90.00078722
_symmetry_Int_Tables_number   1
_chemical_formula_structural   V3O2F5
_chemical_formula_sum   'V6 O4 F10'
_cell_volume   333.55519435
_cell_formula_units_Z   2
loop_
 _symmetry_equiv_pos_site_id
 _symmetry_equiv_pos_as_xyz
  1  'x, y, z'
loop_
 _atom_site_type_symbol
 _atom_site_label
 _atom_site_symmetry_multiplicity
 _atom_site_fract_x
 _atom_site_fract_y
 _atom_site_fract_z
 _atom_site_occupancy
  V  V0  1  0.11589100  0.11586800  0.23172800  1
  V  V1  1  0.49999300  0.50000200  0.50000500  1
  V  V2  1  0.00000700  0.50000100  0.49999700  1
  V  V3  1  0.99999800  0.00000000  0.50000300  1
  V  V4  1  0.50000100  0.99999300  0.49999800  1
  V  V5  1  0.88411900  0.88414000  0.76827500  1
  O  O6  1  0.00948300  0.78822700  0.57646100  1
  O  O7  1  0.56695000  0.78822500  0.57645900  1
  O  O8  1  0.99051600  0.21177100  0.42354000  1
  O  O9  1  0.43304900  0.21177100  0.42354100  1
  F  F10  1  0.19158600  0.99997200  0.99995700  1
  F  F11  1  0.80840900  0.00003000  0.00004200  1
  F  F12  1  0.14828200  0.87326900  0.29654900  1
  F  F13  1  0.85167300  0.57668600  0.70340600  1
  F  F14  1  0.33462800  0.56137000  0.66924200  1
  F  F15  1  0.66535500  0.89216200  0.33078000  1
  F  F16  1  0.66537000  0.43863000  0.33075500  1
  F  F17  1  0.33464500  0.10783900  0.66921900  1
  F  F18  1  0.85171500  0.12673200  0.70345100  1
  F  F19  1  0.14833100  0.42331200  0.29659300  1
