# generated using pymatgen
data_V(WO4)2
_symmetry_space_group_name_H-M   'P 1'
_cell_length_a   5.84204500
_cell_length_b   5.02613600
_cell_length_c   10.39728815
_cell_angle_alpha   63.22976437
_cell_angle_beta   90.00000000
_cell_angle_gamma   90.00000000
_symmetry_Int_Tables_number   1
_chemical_formula_structural   V(WO4)2
_chemical_formula_sum   'V2 W4 O16'
_cell_volume   272.57315837
_cell_formula_units_Z   2
loop_
 _symmetry_equiv_pos_site_id
 _symmetry_equiv_pos_as_xyz
  1  'x, y, z'
loop_
 _atom_site_type_symbol
 _atom_site_label
 _atom_site_symmetry_multiplicity
 _atom_site_fract_x
 _atom_site_fract_y
 _atom_site_fract_z
 _atom_site_occupancy
  V  V0  1  0.35609800  0.50000000  0.75000000  1
  V  V1  1  0.64390200  0.50000000  0.25000000  1
  W  W2  1  0.16442000  0.26788000  0.49072700  1
  W  W3  1  0.16442000  0.73212000  0.00927300  1
  W  W4  1  0.83558000  0.73212000  0.50927300  1
  W  W5  1  0.83558000  0.26788000  0.99072700  1
  O  O6  1  0.33320400  0.70489300  0.85920600  1
  O  O7  1  0.33320400  0.29510700  0.64079400  1
  O  O8  1  0.66679600  0.29510700  0.14079400  1
  O  O9  1  0.66679600  0.70489300  0.35920600  1
  O  O10  1  0.88982100  0.18347000  0.39209300  1
  O  O11  1  0.88982100  0.81653000  0.10790700  1
  O  O12  1  0.11017900  0.81653000  0.60790700  1
  O  O13  1  0.11017900  0.18347000  0.89209300  1
  O  O14  1  0.59792100  0.25269200  0.87978900  1
  O  O15  1  0.59792100  0.74730800  0.62021100  1
  O  O16  1  0.40207900  0.74730800  0.12021100  1
  O  O17  1  0.40207900  0.25269200  0.37978900  1
  O  O18  1  0.88972700  0.67227200  0.88858300  1
  O  O19  1  0.11027300  0.32772800  0.11141700  1
  O  O20  1  0.88972700  0.32772800  0.61141700  1
  O  O21  1  0.11027300  0.67227200  0.38858300  1
