# generated using pymatgen
data_VBiO4
_symmetry_space_group_name_H-M   'P 1'
_cell_length_a   5.33855316
_cell_length_b   4.80111639
_cell_length_c   4.78990316
_cell_angle_alpha   76.08055038
_cell_angle_beta   65.11249779
_cell_angle_gamma   65.07395532
_symmetry_Int_Tables_number   1
_chemical_formula_structural   VBiO4
_chemical_formula_sum   'V1 Bi1 O4'
_cell_volume   100.69693140
_cell_formula_units_Z   1
loop_
 _symmetry_equiv_pos_site_id
 _symmetry_equiv_pos_as_xyz
  1  'x, y, z'
loop_
 _atom_site_type_symbol
 _atom_site_label
 _atom_site_symmetry_multiplicity
 _atom_site_fract_x
 _atom_site_fract_y
 _atom_site_fract_z
 _atom_site_occupancy
  V  V0  1  0.49974600  0.35410700  0.64662200  1
  Bi  Bi1  1  0.00021900  0.95061600  0.04995300  1
  O  O2  1  0.83994900  0.07180100  0.66999700  1
  O  O3  1  0.46217800  0.72069600  0.67682500  1
  O  O4  1  0.53777500  0.32326200  0.27841100  1
  O  O5  1  0.16013200  0.32951800  0.92819300  1
