# generated using pymatgen
data_Mg(SnO2)2
_symmetry_space_group_name_H-M   'P 1'
_cell_length_a   6.52467126
_cell_length_b   6.52467126
_cell_length_c   6.52467126
_cell_angle_alpha   121.65807491
_cell_angle_beta   114.77102538
_cell_angle_gamma   93.21931525
_symmetry_Int_Tables_number   1
_chemical_formula_structural   Mg(SnO2)2
_chemical_formula_sum   'Mg2 Sn4 O8'
_cell_volume   200.51509706
_cell_formula_units_Z   2
loop_
 _symmetry_equiv_pos_site_id
 _symmetry_equiv_pos_as_xyz
  1  'x, y, z'
loop_
 _atom_site_type_symbol
 _atom_site_label
 _atom_site_symmetry_multiplicity
 _atom_site_fract_x
 _atom_site_fract_y
 _atom_site_fract_z
 _atom_site_occupancy
  Mg  Mg0  1  0.00000000  0.50000000  0.50000000  1
  Mg  Mg1  1  0.50000000  0.50000000  0.00000000  1
  Sn  Sn2  1  0.11468200  0.86468200  0.25000000  1
  Sn  Sn3  1  0.88531800  0.13531800  0.75000000  1
  Sn  Sn4  1  0.50000000  0.00000000  0.00000000  1
  Sn  Sn5  1  0.50000000  0.50000000  0.50000000  1
  O  O6  1  0.73393100  0.25651400  0.02258300  1
  O  O7  1  0.71300300  0.26488700  0.44811600  1
  O  O8  1  0.73393100  0.71134800  0.47741700  1
  O  O9  1  0.31677000  0.26488700  0.05188400  1
  O  O10  1  0.68323000  0.73511300  0.94811600  1
  O  O11  1  0.28699700  0.73511300  0.55188400  1
  O  O12  1  0.26606900  0.28865200  0.52258300  1
  O  O13  1  0.26606900  0.74348600  0.97741700  1
