# generated using pymatgen
data_Mn3Zn3(AsO4)4
_symmetry_space_group_name_H-M   'P 1'
_cell_length_a   5.30450800
_cell_length_b   8.71762000
_cell_length_c   16.33657657
_cell_angle_alpha   68.45994112
_cell_angle_beta   90.00000000
_cell_angle_gamma   90.00000000
_symmetry_Int_Tables_number   1
_chemical_formula_structural   Mn3Zn3(AsO4)4
_chemical_formula_sum   'Mn6 Zn6 As8 O32'
_cell_volume   702.68756431
_cell_formula_units_Z   2
loop_
 _symmetry_equiv_pos_site_id
 _symmetry_equiv_pos_as_xyz
  1  'x, y, z'
loop_
 _atom_site_type_symbol
 _atom_site_label
 _atom_site_symmetry_multiplicity
 _atom_site_fract_x
 _atom_site_fract_y
 _atom_site_fract_z
 _atom_site_occupancy
  Mn  Mn0  1  0.49965700  0.19926400  0.62366100  1
  Mn  Mn1  1  0.50034300  0.80073600  0.37633900  1
  Mn  Mn2  1  0.99965700  0.80073600  0.87633900  1
  Mn  Mn3  1  0.00034300  0.19926400  0.12366100  1
  Mn  Mn4  1  0.00000000  0.50000000  0.50000000  1
  Mn  Mn5  1  0.50000000  0.50000000  0.00000000  1
  Zn  Zn6  1  0.55156000  0.30432400  0.21620600  1
  Zn  Zn7  1  0.05156000  0.69567600  0.28379400  1
  Zn  Zn8  1  0.44844000  0.69567600  0.78379400  1
  Zn  Zn9  1  0.94844000  0.30432400  0.71620600  1
  Zn  Zn10  1  0.50000000  0.00000000  0.50000000  1
  Zn  Zn11  1  0.00000000  0.00000000  0.00000000  1
  As  As12  1  0.98032200  0.03117400  0.35252400  1
  As  As13  1  0.49989900  0.41677200  0.39154900  1
  As  As14  1  0.99989900  0.58322800  0.10845100  1
  As  As15  1  0.00010100  0.41677200  0.89154900  1
  As  As16  1  0.01967800  0.96882600  0.64747600  1
  As  As17  1  0.50010100  0.58322800  0.60845100  1
  As  As18  1  0.51967800  0.03117400  0.85252400  1
  As  As19  1  0.48032200  0.96882600  0.14747600  1
  O  O20  1  0.39166900  0.82216400  0.24845100  1
  O  O21  1  0.94483100  0.75074400  0.01327200  1
  O  O22  1  0.41092400  0.39477500  0.29725200  1
  O  O23  1  0.39540600  0.16415100  0.14927500  1
  O  O24  1  0.58907600  0.60522500  0.70274800  1
  O  O25  1  0.10833100  0.82216400  0.74845100  1
  O  O26  1  0.91092400  0.60522500  0.20274800  1
  O  O27  1  0.70618800  0.50117900  0.89166500  1
  O  O28  1  0.68925200  0.07654900  0.92840700  1
  O  O29  1  0.60833100  0.17783600  0.75154900  1
  O  O30  1  0.10459400  0.16415100  0.64927500  1
  O  O31  1  0.29381200  0.49882100  0.10833500  1
  O  O32  1  0.29136100  0.56940700  0.40129700  1
  O  O33  1  0.31074800  0.92345100  0.07159300  1
  O  O34  1  0.69797300  0.97869400  0.63118100  1
  O  O35  1  0.19797300  0.02130600  0.86881900  1
  O  O36  1  0.79136100  0.43059300  0.09870300  1
  O  O37  1  0.08907600  0.39477500  0.79725200  1
  O  O38  1  0.18925200  0.92345100  0.57159300  1
  O  O39  1  0.20618800  0.49882100  0.60833500  1
  O  O40  1  0.80202700  0.97869400  0.13118100  1
  O  O41  1  0.30202700  0.02130600  0.36881900  1
  O  O42  1  0.05516900  0.24925600  0.98672800  1
  O  O43  1  0.44483100  0.24925600  0.48672800  1
  O  O44  1  0.70863900  0.43059300  0.59870300  1
  O  O45  1  0.89166900  0.17783600  0.25154900  1
  O  O46  1  0.60459400  0.83584900  0.85072500  1
  O  O47  1  0.81074800  0.07654900  0.42840700  1
  O  O48  1  0.55516900  0.75074400  0.51327200  1
  O  O49  1  0.79381200  0.50117900  0.39166500  1
  O  O50  1  0.20863900  0.56940700  0.90129700  1
  O  O51  1  0.89540600  0.83584900  0.35072500  1
