# generated using pymatgen
data_V5BiO10
_symmetry_space_group_name_H-M   'P 1'
_cell_length_a   10.43369664
_cell_length_b   10.43369664
_cell_length_c   10.43369664
_cell_angle_alpha   122.95447687
_cell_angle_beta   122.95447687
_cell_angle_gamma   84.95460279
_symmetry_Int_Tables_number   1
_chemical_formula_structural   V5BiO10
_chemical_formula_sum   'V20 Bi4 O40'
_cell_volume   764.05409685
_cell_formula_units_Z   4
loop_
 _symmetry_equiv_pos_site_id
 _symmetry_equiv_pos_as_xyz
  1  'x, y, z'
loop_
 _atom_site_type_symbol
 _atom_site_label
 _atom_site_symmetry_multiplicity
 _atom_site_fract_x
 _atom_site_fract_y
 _atom_site_fract_z
 _atom_site_occupancy
  V  V0  1  0.74025500  0.92847500  0.47406400  1
  V  V1  1  0.87413500  0.34950200  0.81728900  1
  V  V2  1  0.92847500  0.45441100  0.18822000  1
  V  V3  1  0.73380900  0.25974500  0.18822000  1
  V  V4  1  0.05684600  0.87413500  0.52463300  1
  V  V5  1  0.85105700  0.66900400  0.52006100  1
  V  V6  1  0.14894300  0.33099700  0.47993900  1
  V  V7  1  0.34950200  0.53221200  0.47536700  1
  V  V8  1  0.94315400  0.12586500  0.47536700  1
  V  V9  1  0.07152500  0.54558900  0.81178000  1
  V  V10  1  0.26619100  0.74025500  0.81178000  1
  V  V11  1  0.12586500  0.65049800  0.18271100  1
  V  V12  1  0.53221200  0.05684600  0.18271100  1
  V  V13  1  0.33099700  0.85105700  0.18205400  1
  V  V14  1  0.25974500  0.07152500  0.52593600  1
  V  V15  1  0.45441100  0.26619100  0.52593600  1
  V  V16  1  0.54558900  0.73380900  0.47406400  1
  V  V17  1  0.66900300  0.14894300  0.81794600  1
  V  V18  1  0.46778800  0.94315400  0.81728900  1
  V  V19  1  0.65049800  0.46778800  0.52463300  1
  Bi  Bi20  1  0.11202600  0.11202600  0.00000000  1
  Bi  Bi21  1  0.88797400  0.88797400  0.00000000  1
  Bi  Bi22  1  0.68204900  0.68204900  0.00000000  1
  Bi  Bi23  1  0.31795100  0.31795100  0.00000000  1
  O  O24  1  0.84803000  0.88929800  0.34345700  1
  O  O25  1  0.86487300  0.15625900  0.62231700  1
  O  O26  1  0.88929800  0.54584000  0.04126800  1
  O  O27  1  0.70240400  0.04971400  0.96063600  1
  O  O28  1  0.91092200  0.25823200  0.96063600  1
  O  O29  1  0.94121500  0.64186200  0.37733300  1
  O  O30  1  0.73547100  0.43611900  0.37733300  1
  O  O31  1  0.74176800  0.70240400  0.65269000  1
  O  O32  1  0.95028600  0.91092200  0.65269000  1
  O  O33  1  0.95428100  0.33331500  0.28759600  1
  O  O34  1  0.15625900  0.53394200  0.29138700  1
  O  O35  1  0.75744500  0.13512700  0.29138700  1
  O  O36  1  0.84374100  0.46605800  0.70861300  1
  O  O37  1  0.04571900  0.66668500  0.71240400  1
  O  O38  1  0.24255500  0.86487300  0.70861300  1
  O  O39  1  0.04971400  0.08907800  0.34731000  1
  O  O40  1  0.25823200  0.29759600  0.34731000  1
  O  O41  1  0.05878500  0.35813800  0.62266700  1
  O  O42  1  0.26452900  0.56388100  0.62266700  1
  O  O43  1  0.29759600  0.95028600  0.03936400  1
  O  O44  1  0.08907800  0.74176800  0.03936400  1
  O  O45  1  0.11070200  0.45416000  0.95873200  1
  O  O46  1  0.29514000  0.65581500  0.95095500  1
  O  O47  1  0.50457200  0.84803000  0.95873200  1
  O  O48  1  0.13512700  0.84374100  0.37768300  1
  O  O49  1  0.53394200  0.24255500  0.37768300  1
  O  O50  1  0.33331500  0.04571900  0.37903400  1
  O  O51  1  0.34418500  0.29514000  0.63932600  1
  O  O52  1  0.15197000  0.11070200  0.65654300  1
  O  O53  1  0.54584000  0.50457200  0.65654300  1
  O  O54  1  0.56388100  0.94121500  0.29935200  1
  O  O55  1  0.35813800  0.73547100  0.29935200  1
  O  O56  1  0.43611900  0.05878500  0.70064800  1
  O  O57  1  0.64186200  0.26452900  0.70064800  1
  O  O58  1  0.65581500  0.70486000  0.36067400  1
  O  O59  1  0.45416000  0.49542800  0.34345700  1
  O  O60  1  0.66668500  0.95428100  0.62096600  1
  O  O61  1  0.46605800  0.75744500  0.62231700  1
  O  O62  1  0.70486000  0.34418500  0.04904500  1
  O  O63  1  0.49542800  0.15197000  0.04126800  1
