# generated using pymatgen
data_Ca(WO2)2
_symmetry_space_group_name_H-M   'P 1'
_cell_length_a   6.59550354
_cell_length_b   6.59550354
_cell_length_c   6.59550354
_cell_angle_alpha   118.96152400
_cell_angle_beta   118.96152400
_cell_angle_gamma   91.80830574
_symmetry_Int_Tables_number   1
_chemical_formula_structural   Ca(WO2)2
_chemical_formula_sum   'Ca2 W4 O8'
_cell_volume   205.94861336
_cell_formula_units_Z   2
loop_
 _symmetry_equiv_pos_site_id
 _symmetry_equiv_pos_as_xyz
  1  'x, y, z'
loop_
 _atom_site_type_symbol
 _atom_site_label
 _atom_site_symmetry_multiplicity
 _atom_site_fract_x
 _atom_site_fract_y
 _atom_site_fract_z
 _atom_site_occupancy
  Ca  Ca0  1  0.75000000  0.25000000  0.50000000  1
  Ca  Ca1  1  0.00000000  0.00000000  0.00000000  1
  W  W2  1  0.37500000  0.62500000  0.75000000  1
  W  W3  1  0.87500000  0.62500000  0.25000000  1
  W  W4  1  0.37500000  0.62500000  0.25000000  1
  W  W5  1  0.37500000  0.12500000  0.75000000  1
  O  O6  1  0.57858800  0.86495200  0.71363500  1
  O  O7  1  0.13504800  0.84868300  0.71363500  1
  O  O8  1  0.13504800  0.42141200  0.28636500  1
  O  O9  1  0.59868300  0.38504800  0.21363500  1
  O  O10  1  0.61495200  0.82858800  0.21363500  1
  O  O11  1  0.61495200  0.40131700  0.78636500  1
  O  O12  1  0.15131700  0.86495200  0.28636500  1
  O  O13  1  0.17141200  0.38504800  0.78636500  1
