# generated using pymatgen
data_Ca(BiO2)2
_symmetry_space_group_name_H-M   'P 1'
_cell_length_a   3.43735600
_cell_length_b   11.38404500
_cell_length_c   11.48282300
_cell_angle_alpha   90.00000000
_cell_angle_beta   90.00000000
_cell_angle_gamma   90.00000000
_symmetry_Int_Tables_number   1
_chemical_formula_structural   Ca(BiO2)2
_chemical_formula_sum   'Ca4 Bi8 O16'
_cell_volume   449.33452348
_cell_formula_units_Z   4
loop_
 _symmetry_equiv_pos_site_id
 _symmetry_equiv_pos_as_xyz
  1  'x, y, z'
loop_
 _atom_site_type_symbol
 _atom_site_label
 _atom_site_symmetry_multiplicity
 _atom_site_fract_x
 _atom_site_fract_y
 _atom_site_fract_z
 _atom_site_occupancy
  Ca  Ca0  1  0.80880200  0.75000000  0.36504500  1
  Ca  Ca1  1  0.80880200  0.25000000  0.13495500  1
  Ca  Ca2  1  0.19119800  0.75000000  0.86504500  1
  Ca  Ca3  1  0.19119800  0.25000000  0.63495500  1
  Bi  Bi4  1  0.28819000  0.57743500  0.11884000  1
  Bi  Bi5  1  0.28819000  0.07743500  0.38116000  1
  Bi  Bi6  1  0.71181000  0.07743500  0.88116000  1
  Bi  Bi7  1  0.28819000  0.42256500  0.38116000  1
  Bi  Bi8  1  0.71181000  0.42256500  0.88116000  1
  Bi  Bi9  1  0.28819000  0.92256500  0.11884000  1
  Bi  Bi10  1  0.71181000  0.92256500  0.61884000  1
  Bi  Bi11  1  0.71181000  0.57743500  0.61884000  1
  O  O12  1  0.72538900  0.87929400  0.97645400  1
  O  O13  1  0.27461100  0.12070600  0.02354600  1
  O  O14  1  0.73776600  0.00000000  0.25000000  1
  O  O15  1  0.27461100  0.87929400  0.47645400  1
  O  O16  1  0.27461100  0.62070600  0.47645400  1
  O  O17  1  0.31098000  0.25000000  0.27491800  1
  O  O18  1  0.72538900  0.12070600  0.52354600  1
  O  O19  1  0.68902000  0.25000000  0.77491800  1
  O  O20  1  0.73776600  0.50000000  0.25000000  1
  O  O21  1  0.26223400  0.00000000  0.75000000  1
  O  O22  1  0.72538900  0.62070600  0.97645400  1
  O  O23  1  0.68902000  0.75000000  0.72508200  1
  O  O24  1  0.31098000  0.75000000  0.22508200  1
  O  O25  1  0.26223400  0.50000000  0.75000000  1
  O  O26  1  0.72538900  0.37929400  0.52354600  1
  O  O27  1  0.27461100  0.37929400  0.02354600  1
