# generated using pymatgen
data_Ca(SbO2)2
_symmetry_space_group_name_H-M   'P 1'
_cell_length_a   6.80478704
_cell_length_b   6.80478704
_cell_length_c   6.80478704
_cell_angle_alpha   123.18417616
_cell_angle_beta   113.62149470
_cell_angle_gamma   92.97929699
_symmetry_Int_Tables_number   1
_chemical_formula_structural   Ca(SbO2)2
_chemical_formula_sum   'Ca2 Sb4 O8'
_cell_volume   225.98680534
_cell_formula_units_Z   2
loop_
 _symmetry_equiv_pos_site_id
 _symmetry_equiv_pos_as_xyz
  1  'x, y, z'
loop_
 _atom_site_type_symbol
 _atom_site_label
 _atom_site_symmetry_multiplicity
 _atom_site_fract_x
 _atom_site_fract_y
 _atom_site_fract_z
 _atom_site_occupancy
  Ca  Ca0  1  0.00000000  0.50000000  0.50000000  1
  Ca  Ca1  1  0.50000000  0.50000000  0.00000000  1
  Sb  Sb2  1  0.10760800  0.85760800  0.25000000  1
  Sb  Sb3  1  0.89239200  0.14239200  0.75000000  1
  Sb  Sb4  1  0.50000000  0.00000000  0.00000000  1
  Sb  Sb5  1  0.50000000  0.50000000  0.50000000  1
  O  O6  1  0.75169400  0.24965900  0.99796500  1
  O  O7  1  0.71910500  0.25002400  0.46908100  1
  O  O8  1  0.75169400  0.75372800  0.50203500  1
  O  O9  1  0.28094300  0.25002400  0.03091900  1
  O  O10  1  0.71905700  0.74997600  0.96908100  1
  O  O11  1  0.28089500  0.74997600  0.53091900  1
  O  O12  1  0.24830600  0.24627200  0.49796500  1
  O  O13  1  0.24830600  0.75034100  0.00203500  1
