# generated using pymatgen
data_CaTi2O4
_symmetry_space_group_name_H-M   'P 1'
_cell_length_a   6.26781346
_cell_length_b   6.26781346
_cell_length_c   6.26781346
_cell_angle_alpha   121.23133166
_cell_angle_beta   119.18332247
_cell_angle_gamma   89.65048039
_symmetry_Int_Tables_number   1
_chemical_formula_structural   CaTi2O4
_chemical_formula_sum   'Ca2 Ti4 O8'
_cell_volume   173.49484052
_cell_formula_units_Z   2
loop_
 _symmetry_equiv_pos_site_id
 _symmetry_equiv_pos_as_xyz
  1  'x, y, z'
loop_
 _atom_site_type_symbol
 _atom_site_label
 _atom_site_symmetry_multiplicity
 _atom_site_fract_x
 _atom_site_fract_y
 _atom_site_fract_z
 _atom_site_occupancy
  Ca  Ca0  1  0.00000000  0.50000000  0.50000000  1
  Ca  Ca1  1  0.50000000  0.50000000  0.00000000  1
  Ti  Ti2  1  0.36823900  0.11823900  0.25000000  1
  Ti  Ti3  1  0.63176100  0.88176100  0.75000000  1
  Ti  Ti4  1  0.00000000  0.50000000  0.00000000  1
  Ti  Ti5  1  0.00000000  0.00000000  0.50000000  1
  O  O6  1  0.76879100  0.76244500  0.00634600  1
  O  O7  1  0.25609800  0.76244500  0.49365400  1
  O  O8  1  0.76317100  0.78035300  0.51718200  1
  O  O9  1  0.23120900  0.23755500  0.99365400  1
  O  O10  1  0.23682900  0.75401100  0.01718200  1
  O  O11  1  0.74390200  0.23755500  0.50634600  1
  O  O12  1  0.76317100  0.24598900  0.98281800  1
  O  O13  1  0.23682900  0.21964700  0.48281800  1
