# generated using pymatgen
data_V2ZnO4
_symmetry_space_group_name_H-M   'P 1'
_cell_length_a   2.98393400
_cell_length_b   9.80194000
_cell_length_c   9.97800100
_cell_angle_alpha   90.00000000
_cell_angle_beta   90.00000000
_cell_angle_gamma   90.00000000
_symmetry_Int_Tables_number   1
_chemical_formula_structural   V2ZnO4
_chemical_formula_sum   'V8 Zn4 O16'
_cell_volume   291.83998604
_cell_formula_units_Z   4
loop_
 _symmetry_equiv_pos_site_id
 _symmetry_equiv_pos_as_xyz
  1  'x, y, z'
loop_
 _atom_site_type_symbol
 _atom_site_label
 _atom_site_symmetry_multiplicity
 _atom_site_fract_x
 _atom_site_fract_y
 _atom_site_fract_z
 _atom_site_occupancy
  V  V0  1  0.72700500  0.61821300  0.92791000  1
  V  V1  1  0.72700500  0.88178700  0.42791000  1
  V  V2  1  0.27299500  0.38178700  0.42791000  1
  V  V3  1  0.72700500  0.88178700  0.07209000  1
  V  V4  1  0.27299500  0.38178700  0.07209000  1
  V  V5  1  0.72700500  0.61821300  0.57209000  1
  V  V6  1  0.27299500  0.11821300  0.57209000  1
  V  V7  1  0.27299500  0.11821300  0.92791000  1
  Zn  Zn8  1  0.17383900  0.86026800  0.75000000  1
  Zn  Zn9  1  0.17383900  0.63973200  0.25000000  1
  Zn  Zn10  1  0.82616100  0.36026800  0.75000000  1
  Zn  Zn11  1  0.82616100  0.13973200  0.25000000  1
  O  O12  1  0.24346400  0.48050600  0.61203100  1
  O  O13  1  0.75653600  0.51949400  0.38796900  1
  O  O14  1  0.19991200  0.75000000  0.50000000  1
  O  O15  1  0.75653600  0.98050600  0.61203100  1
  O  O16  1  0.75653600  0.98050600  0.88796900  1
  O  O17  1  0.67618900  0.78519700  0.25000000  1
  O  O18  1  0.24346400  0.01949400  0.38796900  1
  O  O19  1  0.32381100  0.28519700  0.25000000  1
  O  O20  1  0.19991200  0.75000000  0.00000000  1
  O  O21  1  0.80008800  0.25000000  0.50000000  1
  O  O22  1  0.24346400  0.48050600  0.88796900  1
  O  O23  1  0.32381100  0.21480300  0.75000000  1
  O  O24  1  0.67618900  0.71480300  0.75000000  1
  O  O25  1  0.80008800  0.25000000  0.00000000  1
  O  O26  1  0.24346400  0.01949400  0.11203100  1
  O  O27  1  0.75653600  0.51949400  0.11203100  1
