# generated using pymatgen
data_Sn(WO4)2
_symmetry_space_group_name_H-M   'P 1'
_cell_length_a   5.88362000
_cell_length_b   5.09640800
_cell_length_c   10.77475630
_cell_angle_alpha   62.77143449
_cell_angle_beta   90.00000000
_cell_angle_gamma   90.00000000
_symmetry_Int_Tables_number   1
_chemical_formula_structural   Sn(WO4)2
_chemical_formula_sum   'Sn2 W4 O16'
_cell_volume   287.28307103
_cell_formula_units_Z   2
loop_
 _symmetry_equiv_pos_site_id
 _symmetry_equiv_pos_as_xyz
  1  'x, y, z'
loop_
 _atom_site_type_symbol
 _atom_site_label
 _atom_site_symmetry_multiplicity
 _atom_site_fract_x
 _atom_site_fract_y
 _atom_site_fract_z
 _atom_site_occupancy
  Sn  Sn0  1  0.33924400  0.50000000  0.75000000  1
  Sn  Sn1  1  0.66075600  0.50000000  0.25000000  1
  W  W2  1  0.16885900  0.27307300  0.49118500  1
  W  W3  1  0.16885900  0.72692700  0.00881500  1
  W  W4  1  0.83114100  0.72692700  0.50881500  1
  W  W5  1  0.83114100  0.27307300  0.99118500  1
  O  O6  1  0.34445500  0.71955900  0.86780300  1
  O  O7  1  0.34445500  0.28044100  0.63219700  1
  O  O8  1  0.65554500  0.28044100  0.13219700  1
  O  O9  1  0.65554500  0.71955900  0.36780300  1
  O  O10  1  0.89293200  0.17923000  0.39473600  1
  O  O11  1  0.89293200  0.82077000  0.10526400  1
  O  O12  1  0.10706800  0.82077000  0.60526400  1
  O  O13  1  0.10706800  0.17923000  0.89473600  1
  O  O14  1  0.60505200  0.25239200  0.87976900  1
  O  O15  1  0.60505200  0.74760800  0.62023100  1
  O  O16  1  0.39494800  0.74760800  0.12023100  1
  O  O17  1  0.39494800  0.25239200  0.37976900  1
  O  O18  1  0.89630000  0.66887800  0.89021400  1
  O  O19  1  0.10370000  0.33112200  0.10978600  1
  O  O20  1  0.89630000  0.33112200  0.60978600  1
  O  O21  1  0.10370000  0.66887800  0.39021400  1
