# generated using pymatgen
data_MgSnP2O7
_symmetry_space_group_name_H-M   'P 1'
_cell_length_a   6.33343900
_cell_length_b   6.75687204
_cell_length_c   6.98948030
_cell_angle_alpha   86.90014498
_cell_angle_beta   85.42612529
_cell_angle_gamma   68.22380661
_symmetry_Int_Tables_number   1
_chemical_formula_structural   MgSnP2O7
_chemical_formula_sum   'Mg2 Sn2 P4 O14'
_cell_volume   276.78351762
_cell_formula_units_Z   2
loop_
 _symmetry_equiv_pos_site_id
 _symmetry_equiv_pos_as_xyz
  1  'x, y, z'
loop_
 _atom_site_type_symbol
 _atom_site_label
 _atom_site_symmetry_multiplicity
 _atom_site_fract_x
 _atom_site_fract_y
 _atom_site_fract_z
 _atom_site_occupancy
  Mg  Mg0  1  0.35534500  0.67777700  0.65999400  1
  Mg  Mg1  1  0.64465500  0.32222300  0.34000600  1
  Sn  Sn2  1  0.25713800  0.12723400  0.14406600  1
  Sn  Sn3  1  0.74286200  0.87276600  0.85593400  1
  P  P4  1  0.19195200  0.66236200  0.13650500  1
  P  P5  1  0.80804800  0.33763800  0.86349500  1
  P  P6  1  0.22495800  0.23013200  0.60154800  1
  P  P7  1  0.77504200  0.76986800  0.39845200  1
  O  O8  1  0.15046800  0.72281700  0.92187800  1
  O  O9  1  0.84953200  0.27718300  0.07812200  1
  O  O10  1  0.22595600  0.83052300  0.25343200  1
  O  O11  1  0.77404400  0.16947700  0.74656800  1
  O  O12  1  0.37423900  0.44294800  0.16825300  1
  O  O13  1  0.62576100  0.55705200  0.83174700  1
  O  O14  1  0.63001100  0.62956500  0.43347800  1
  O  O15  1  0.36998900  0.37043500  0.56652200  1
  O  O16  1  0.08381400  0.23438500  0.42920600  1
  O  O17  1  0.91618600  0.76561500  0.57079400  1
  O  O18  1  0.04803500  0.35241600  0.77671500  1
  O  O19  1  0.64747700  0.00079700  0.32820000  1
  O  O20  1  0.35252300  0.99920300  0.67180000  1
  O  O21  1  0.95196500  0.64758400  0.22328500  1
