# generated using pymatgen
data_Zn3As4W3O16
_symmetry_space_group_name_H-M   'P 1'
_cell_length_a   5.25264700
_cell_length_b   10.13659200
_cell_length_c   15.91168297
_cell_angle_alpha   71.63872006
_cell_angle_beta   90.00000000
_cell_angle_gamma   90.00000000
_symmetry_Int_Tables_number   1
_chemical_formula_structural   Zn3As4W3O16
_chemical_formula_sum   'Zn6 As8 W6 O32'
_cell_volume   804.06894386
_cell_formula_units_Z   2
loop_
 _symmetry_equiv_pos_site_id
 _symmetry_equiv_pos_as_xyz
  1  'x, y, z'
loop_
 _atom_site_type_symbol
 _atom_site_label
 _atom_site_symmetry_multiplicity
 _atom_site_fract_x
 _atom_site_fract_y
 _atom_site_fract_z
 _atom_site_occupancy
  Zn  Zn0  1  0.43429600  0.26024200  0.21681100  1
  Zn  Zn1  1  0.93429600  0.73975800  0.28318900  1
  Zn  Zn2  1  0.56570400  0.73975800  0.78318900  1
  Zn  Zn3  1  0.06570400  0.26024200  0.71681100  1
  Zn  Zn4  1  0.50000000  0.00000000  0.50000000  1
  Zn  Zn5  1  0.00000000  0.00000000  0.00000000  1
  As  As6  1  0.92990500  0.06929400  0.32915600  1
  As  As7  1  0.33347700  0.36163800  0.39364900  1
  As  As8  1  0.83347700  0.63836200  0.10635100  1
  As  As9  1  0.16652300  0.36163800  0.89364900  1
  As  As10  1  0.07009500  0.93070600  0.67084400  1
  As  As11  1  0.66652300  0.63836200  0.60635100  1
  As  As12  1  0.57009500  0.06929400  0.82915600  1
  As  As13  1  0.42990500  0.93070600  0.17084400  1
  W  W14  1  0.51129400  0.21964400  0.60339400  1
  W  W15  1  0.48870600  0.78035600  0.39660600  1
  W  W16  1  0.01129400  0.78035600  0.89660600  1
  W  W17  1  0.98870600  0.21964400  0.10339400  1
  W  W18  1  0.00000000  0.50000000  0.50000000  1
  W  W19  1  0.50000000  0.50000000  0.00000000  1
  O  O20  1  0.29831600  0.78286500  0.28962400  1
  O  O21  1  0.83157100  0.79093400  0.01125600  1
  O  O22  1  0.23295700  0.29512900  0.31069600  1
  O  O23  1  0.25188100  0.09977300  0.18159600  1
  O  O24  1  0.76704300  0.70487100  0.68930400  1
  O  O25  1  0.20168400  0.78286500  0.78962400  1
  O  O26  1  0.73295700  0.70487100  0.18930400  1
  O  O27  1  0.72173600  0.63420300  0.90250600  1
  O  O28  1  0.77157100  0.11119500  0.89956700  1
  O  O29  1  0.70168400  0.21713500  0.71037600  1
  O  O30  1  0.24811900  0.09977300  0.68159600  1
  O  O31  1  0.27826400  0.36579700  0.09749400  1
  O  O32  1  0.29310700  0.63144100  0.46612400  1
  O  O33  1  0.22842900  0.88880500  0.10043300  1
  O  O34  1  0.69046500  0.07519900  0.58838000  1
  O  O35  1  0.19046500  0.92480100  0.91162000  1
  O  O36  1  0.79310700  0.36855900  0.03387600  1
  O  O37  1  0.26704300  0.29512900  0.81069600  1
  O  O38  1  0.27157100  0.88880500  0.60043300  1
  O  O39  1  0.22173600  0.36579700  0.59749400  1
  O  O40  1  0.80953500  0.07519900  0.08838000  1
  O  O41  1  0.30953500  0.92480100  0.41162000  1
  O  O42  1  0.16842900  0.20906600  0.98874400  1
  O  O43  1  0.33157100  0.20906600  0.48874400  1
  O  O44  1  0.70689300  0.36855900  0.53387600  1
  O  O45  1  0.79831600  0.21713500  0.21037600  1
  O  O46  1  0.74811900  0.90022700  0.81840400  1
  O  O47  1  0.72842900  0.11119500  0.39956700  1
  O  O48  1  0.66842900  0.79093400  0.51125600  1
  O  O49  1  0.77826400  0.63420300  0.40250600  1
  O  O50  1  0.20689300  0.63144100  0.96612400  1
  O  O51  1  0.75188100  0.90022700  0.31840400  1
