# generated using pymatgen
data_Mg(MoO2)2
_symmetry_space_group_name_H-M   'P 1'
_cell_length_a   3.11760502
_cell_length_b   10.31986262
_cell_length_c   10.37958965
_cell_angle_alpha   90.01353760
_cell_angle_beta   89.99773110
_cell_angle_gamma   89.98732370
_symmetry_Int_Tables_number   1
_chemical_formula_structural   Mg(MoO2)2
_chemical_formula_sum   'Mg4 Mo8 O16'
_cell_volume   333.94517191
_cell_formula_units_Z   4
loop_
 _symmetry_equiv_pos_site_id
 _symmetry_equiv_pos_as_xyz
  1  'x, y, z'
loop_
 _atom_site_type_symbol
 _atom_site_label
 _atom_site_symmetry_multiplicity
 _atom_site_fract_x
 _atom_site_fract_y
 _atom_site_fract_z
 _atom_site_occupancy
  Mg  Mg0  1  0.26154200  0.74997700  0.14231300  1
  Mg  Mg1  1  0.26143300  0.25018700  0.35750300  1
  Mg  Mg2  1  0.73857000  0.74981700  0.64249000  1
  Mg  Mg3  1  0.73842800  0.25004000  0.85767700  1
  Mo  Mo4  1  0.75270700  0.57362700  0.38208600  1
  Mo  Mo5  1  0.75276100  0.07365000  0.11795500  1
  Mo  Mo6  1  0.24721500  0.07372000  0.61794300  1
  Mo  Mo7  1  0.75280200  0.42641400  0.11790100  1
  Mo  Mo8  1  0.24726200  0.42637400  0.61791200  1
  Mo  Mo9  1  0.75281900  0.92628400  0.38206100  1
  Mo  Mo10  1  0.24727600  0.92634900  0.88204900  1
  Mo  Mo11  1  0.24717700  0.57358200  0.88209800  1
  O  O12  1  0.25307300  0.88431200  0.52102100  1
  O  O13  1  0.74696900  0.11568600  0.47898500  1
  O  O14  1  0.25309600  0.99993000  0.24996000  1
  O  O15  1  0.74709600  0.88426000  0.02100400  1
  O  O16  1  0.74689300  0.61568400  0.02096800  1
  O  O17  1  0.75900800  0.25010900  0.22758600  1
  O  O18  1  0.25294000  0.11573200  0.97900200  1
  O  O19  1  0.24095600  0.25012900  0.72768100  1
  O  O20  1  0.25305600  0.49994300  0.25002300  1
  O  O21  1  0.74693600  0.00007500  0.75004800  1
  O  O22  1  0.25284500  0.61567000  0.52098200  1
  O  O23  1  0.24099100  0.74988800  0.77241200  1
  O  O24  1  0.75902300  0.74987500  0.27231700  1
  O  O25  1  0.74691900  0.50004300  0.74998100  1
  O  O26  1  0.25308400  0.38431300  0.97903000  1
  O  O27  1  0.74712300  0.38433200  0.47901400  1
