# generated using pymatgen
data_V2(OF)3
_symmetry_space_group_name_H-M   'P 1'
_cell_length_a   5.20887786
_cell_length_b   13.22934405
_cell_length_c   5.18425906
_cell_angle_alpha   89.00907217
_cell_angle_beta   119.20061327
_cell_angle_gamma   90.97672613
_symmetry_Int_Tables_number   1
_chemical_formula_structural   V2(OF)3
_chemical_formula_sum   'V6 O9 F9'
_cell_volume   311.78554464
_cell_formula_units_Z   3
loop_
 _symmetry_equiv_pos_site_id
 _symmetry_equiv_pos_as_xyz
  1  'x, y, z'
loop_
 _atom_site_type_symbol
 _atom_site_label
 _atom_site_symmetry_multiplicity
 _atom_site_fract_x
 _atom_site_fract_y
 _atom_site_fract_z
 _atom_site_occupancy
  V  V0  1  0.00219100  0.50644100  0.97913000  1
  V  V1  1  0.02295000  0.00665000  0.98234700  1
  V  V2  1  0.60590300  0.83354900  0.30406900  1
  V  V3  1  0.34626000  0.67618600  0.67145300  1
  V  V4  1  0.70016300  0.34702400  0.36427100  1
  V  V5  1  0.38019900  0.16466700  0.64850000  1
  O  O6  1  0.41900200  0.75495700  0.01374900  1
  O  O7  1  0.34625500  0.91703400  0.25852600  1
  O  O8  1  0.09100800  0.58363600  0.77175000  1
  O  O9  1  0.42023200  0.24680800  0.41863200  1
  O  O10  1  0.57381400  0.74850500  0.58626000  1
  O  O11  1  0.89694500  0.41342600  0.24072900  1
  O  O12  1  0.23167300  0.08332800  0.90303500  1
  O  O13  1  0.75082500  0.41383000  0.66075000  1
  O  O14  1  0.65657600  0.08326900  0.74462900  1
  F  F15  1  0.99409800  0.74811200  0.41929600  1
  F  F16  1  0.32988400  0.40993200  0.08311200  1
  F  F17  1  0.07763500  0.08353400  0.33778300  1
  F  F18  1  0.25720600  0.57755000  0.35289100  1
  F  F19  1  0.56559900  0.24678300  0.98443100  1
  F  F20  1  0.98405500  0.24766400  0.56859200  1
  F  F21  1  0.76285400  0.91453900  0.09945700  1
  F  F22  1  0.91883900  0.90956700  0.66816000  1
  F  F23  1  0.66583700  0.58300800  0.93844800  1
