# generated using pymatgen
data_CaSnP2O7
_symmetry_space_group_name_H-M   'P 1'
_cell_length_a   6.56147200
_cell_length_b   7.03048657
_cell_length_c   7.05787531
_cell_angle_alpha   86.48412765
_cell_angle_beta   88.30216563
_cell_angle_gamma   67.35559154
_symmetry_Int_Tables_number   1
_chemical_formula_structural   CaSnP2O7
_chemical_formula_sum   'Ca2 Sn2 P4 O14'
_cell_volume   299.91178423
_cell_formula_units_Z   2
loop_
 _symmetry_equiv_pos_site_id
 _symmetry_equiv_pos_as_xyz
  1  'x, y, z'
loop_
 _atom_site_type_symbol
 _atom_site_label
 _atom_site_symmetry_multiplicity
 _atom_site_fract_x
 _atom_site_fract_y
 _atom_site_fract_z
 _atom_site_occupancy
  Ca  Ca0  1  0.31210400  0.70460000  0.63335800  1
  Ca  Ca1  1  0.68789600  0.29540000  0.36664200  1
  Sn  Sn2  1  0.26233900  0.11646300  0.14971000  1
  Sn  Sn3  1  0.73766100  0.88353700  0.85029000  1
  P  P4  1  0.18335200  0.66003300  0.14657200  1
  P  P5  1  0.81664800  0.33996700  0.85342800  1
  P  P6  1  0.22239700  0.23292800  0.60350800  1
  P  P7  1  0.77760300  0.76707200  0.39649200  1
  O  O8  1  0.12460500  0.73849600  0.93805200  1
  O  O9  1  0.87539500  0.26150400  0.06194800  1
  O  O10  1  0.22903600  0.81547700  0.26633300  1
  O  O11  1  0.77096400  0.18452300  0.73366700  1
  O  O12  1  0.35758000  0.44173900  0.16686700  1
  O  O13  1  0.64242000  0.55826100  0.83313300  1
  O  O14  1  0.64685300  0.63116000  0.43563400  1
  O  O15  1  0.35314700  0.36884000  0.56436600  1
  O  O16  1  0.09124700  0.21749400  0.42828200  1
  O  O17  1  0.90875300  0.78250600  0.57171800  1
  O  O18  1  0.04428800  0.35267500  0.76267200  1
  O  O19  1  0.64066300  0.98648900  0.31514700  1
  O  O20  1  0.35933700  0.01351100  0.68485300  1
  O  O21  1  0.95571200  0.64732500  0.23732800  1
