# generated using pymatgen
data_YBi(WO4)2
_symmetry_space_group_name_H-M   'P 1'
_cell_length_a   5.74052200
_cell_length_b   5.39335100
_cell_length_c   11.26046295
_cell_angle_alpha   68.23428921
_cell_angle_beta   90.00000000
_cell_angle_gamma   90.00000000
_symmetry_Int_Tables_number   1
_chemical_formula_structural   YBi(WO4)2
_chemical_formula_sum   'Y2 Bi2 W4 O16'
_cell_volume   323.77660198
_cell_formula_units_Z   2
loop_
 _symmetry_equiv_pos_site_id
 _symmetry_equiv_pos_as_xyz
  1  'x, y, z'
loop_
 _atom_site_type_symbol
 _atom_site_label
 _atom_site_symmetry_multiplicity
 _atom_site_fract_x
 _atom_site_fract_y
 _atom_site_fract_z
 _atom_site_occupancy
  Y  Y0  1  0.72921400  0.00000000  0.75000000  1
  Y  Y1  1  0.27078600  0.00000000  0.25000000  1
  Bi  Bi2  1  0.30839200  0.50000000  0.75000000  1
  Bi  Bi3  1  0.69160800  0.50000000  0.25000000  1
  W  W4  1  0.17437300  0.25087400  0.50097400  1
  W  W5  1  0.17437300  0.74912600  0.99902600  1
  W  W6  1  0.82562700  0.74912600  0.49902600  1
  W  W7  1  0.82562700  0.25087400  0.00097400  1
  O  O8  1  0.40019000  0.75411300  0.87276000  1
  O  O9  1  0.40019000  0.24588700  0.62724000  1
  O  O10  1  0.59981000  0.24588700  0.12724000  1
  O  O11  1  0.59981000  0.75411300  0.37276000  1
  O  O12  1  0.92700200  0.12113000  0.38906400  1
  O  O13  1  0.92700200  0.87887000  0.11093600  1
  O  O14  1  0.07299800  0.87887000  0.61093600  1
  O  O15  1  0.07299800  0.12113000  0.88906400  1
  O  O16  1  0.61294600  0.24469000  0.86695400  1
  O  O17  1  0.61294600  0.75531000  0.63304600  1
  O  O18  1  0.38705400  0.75531000  0.13304600  1
  O  O19  1  0.38705400  0.24469000  0.36695400  1
  O  O20  1  0.90748700  0.63307100  0.89663100  1
  O  O21  1  0.09251300  0.36692900  0.10336900  1
  O  O22  1  0.90748700  0.36692900  0.60336900  1
  O  O23  1  0.09251300  0.63307100  0.39663100  1
