# generated using pymatgen
data_Mg(WO2)2
_symmetry_space_group_name_H-M   'P 1'
_cell_length_a   2.86238500
_cell_length_b   9.82663300
_cell_length_c   10.62676700
_cell_angle_alpha   90.00000000
_cell_angle_beta   90.00000000
_cell_angle_gamma   90.00000000
_symmetry_Int_Tables_number   1
_chemical_formula_structural   Mg(WO2)2
_chemical_formula_sum   'Mg4 W8 O16'
_cell_volume   298.90552479
_cell_formula_units_Z   4
loop_
 _symmetry_equiv_pos_site_id
 _symmetry_equiv_pos_as_xyz
  1  'x, y, z'
loop_
 _atom_site_type_symbol
 _atom_site_label
 _atom_site_symmetry_multiplicity
 _atom_site_fract_x
 _atom_site_fract_y
 _atom_site_fract_z
 _atom_site_occupancy
  Mg  Mg0  1  0.74173400  0.33183200  0.75000000  1
  Mg  Mg1  1  0.74173400  0.16816800  0.25000000  1
  Mg  Mg2  1  0.25826600  0.83183200  0.75000000  1
  Mg  Mg3  1  0.25826600  0.66816800  0.25000000  1
  W  W4  1  0.24546600  0.09045800  0.93667000  1
  W  W5  1  0.24546600  0.40954200  0.43667000  1
  W  W6  1  0.75453400  0.90954200  0.43667000  1
  W  W7  1  0.24546600  0.40954200  0.06333000  1
  W  W8  1  0.75453400  0.90954200  0.06333000  1
  W  W9  1  0.24546600  0.09045800  0.56333000  1
  W  W10  1  0.75453400  0.59045800  0.56333000  1
  W  W11  1  0.75453400  0.59045800  0.93667000  1
  O  O12  1  0.74603400  0.94303200  0.63435100  1
  O  O13  1  0.25396600  0.05696800  0.36564900  1
  O  O14  1  0.74790700  0.25000000  0.50000000  1
  O  O15  1  0.25396600  0.44303200  0.63435100  1
  O  O16  1  0.25396600  0.44303200  0.86564900  1
  O  O17  1  0.24064100  0.32013500  0.25000000  1
  O  O18  1  0.74603400  0.55696800  0.36564900  1
  O  O19  1  0.75935900  0.82013500  0.25000000  1
  O  O20  1  0.74790700  0.25000000  0.00000000  1
  O  O21  1  0.25209300  0.75000000  0.50000000  1
  O  O22  1  0.74603400  0.94303200  0.86564900  1
  O  O23  1  0.75935900  0.67986500  0.75000000  1
  O  O24  1  0.24064100  0.17986500  0.75000000  1
  O  O25  1  0.25209300  0.75000000  0.00000000  1
  O  O26  1  0.74603400  0.55696800  0.13435100  1
  O  O27  1  0.25396600  0.05696800  0.13435100  1
