# generated using pymatgen
data_Ca(SbO2)2
_symmetry_space_group_name_H-M   'P 1'
_cell_length_a   5.76868400
_cell_length_b   6.86938200
_cell_length_c   12.13845100
_cell_angle_alpha   90.00000000
_cell_angle_beta   90.00000000
_cell_angle_gamma   90.00000000
_symmetry_Int_Tables_number   1
_chemical_formula_structural   Ca(SbO2)2
_chemical_formula_sum   'Ca4 Sb8 O16'
_cell_volume   481.01396689
_cell_formula_units_Z   4
loop_
 _symmetry_equiv_pos_site_id
 _symmetry_equiv_pos_as_xyz
  1  'x, y, z'
loop_
 _atom_site_type_symbol
 _atom_site_label
 _atom_site_symmetry_multiplicity
 _atom_site_fract_x
 _atom_site_fract_y
 _atom_site_fract_z
 _atom_site_occupancy
  Ca  Ca0  1  0.36898600  0.00000000  0.50000000  1
  Ca  Ca1  1  0.63101400  0.50000000  0.00000000  1
  Ca  Ca2  1  0.04112500  0.00000000  0.00000000  1
  Ca  Ca3  1  0.95887500  0.50000000  0.50000000  1
  Sb  Sb4  1  0.00224700  0.50000000  0.20809200  1
  Sb  Sb5  1  0.00224700  0.50000000  0.79190800  1
  Sb  Sb6  1  0.99775300  0.00000000  0.29190800  1
  Sb  Sb7  1  0.99775300  0.00000000  0.70809200  1
  Sb  Sb8  1  0.50000000  0.25000000  0.25000000  1
  Sb  Sb9  1  0.50000000  0.75000000  0.75000000  1
  Sb  Sb10  1  0.50000000  0.75000000  0.25000000  1
  Sb  Sb11  1  0.50000000  0.25000000  0.75000000  1
  O  O12  1  0.34321200  0.50000000  0.13328000  1
  O  O13  1  0.34321200  0.50000000  0.86672000  1
  O  O14  1  0.65678800  0.00000000  0.36672000  1
  O  O15  1  0.65678800  0.00000000  0.63328000  1
  O  O16  1  0.67764000  0.50000000  0.34526600  1
  O  O17  1  0.67764000  0.50000000  0.65473400  1
  O  O18  1  0.32236000  0.00000000  0.15473400  1
  O  O19  1  0.32236000  0.00000000  0.84526600  1
  O  O20  1  0.16795600  0.21135800  0.37744300  1
  O  O21  1  0.16795600  0.78864200  0.62255700  1
  O  O22  1  0.83204400  0.71135800  0.12255700  1
  O  O23  1  0.83204400  0.28864200  0.87744300  1
  O  O24  1  0.83204400  0.28864200  0.12255700  1
  O  O25  1  0.83204400  0.71135800  0.87744300  1
  O  O26  1  0.16795600  0.78864200  0.37744300  1
  O  O27  1  0.16795600  0.21135800  0.62255700  1
