# generated using pymatgen
data_ZnCr2O4
_symmetry_space_group_name_H-M   'P 1'
_cell_length_a   2.94047100
_cell_length_b   9.66754800
_cell_length_c   9.95358400
_cell_angle_alpha   90.00000000
_cell_angle_beta   90.00000000
_cell_angle_gamma   90.00000000
_symmetry_Int_Tables_number   1
_chemical_formula_structural   ZnCr2O4
_chemical_formula_sum   'Zn4 Cr8 O16'
_cell_volume   282.95197101
_cell_formula_units_Z   4
loop_
 _symmetry_equiv_pos_site_id
 _symmetry_equiv_pos_as_xyz
  1  'x, y, z'
loop_
 _atom_site_type_symbol
 _atom_site_label
 _atom_site_symmetry_multiplicity
 _atom_site_fract_x
 _atom_site_fract_y
 _atom_site_fract_z
 _atom_site_occupancy
  Zn  Zn0  1  0.67032600  0.85444700  0.25000000  1
  Zn  Zn1  1  0.67032600  0.64555300  0.75000000  1
  Zn  Zn2  1  0.32967400  0.35444700  0.25000000  1
  Zn  Zn3  1  0.32967400  0.14555300  0.75000000  1
  Cr  Cr4  1  0.23123600  0.61689100  0.42973700  1
  Cr  Cr5  1  0.23123600  0.88310900  0.92973700  1
  Cr  Cr6  1  0.76876400  0.38310900  0.92973700  1
  Cr  Cr7  1  0.23123600  0.88310900  0.57026300  1
  Cr  Cr8  1  0.76876400  0.38310900  0.57026300  1
  Cr  Cr9  1  0.23123600  0.61689100  0.07026300  1
  Cr  Cr10  1  0.76876400  0.11689100  0.07026300  1
  Cr  Cr11  1  0.76876400  0.11689100  0.42973700  1
  O  O12  1  0.73231400  0.48177400  0.11032700  1
  O  O13  1  0.26768600  0.51822600  0.88967300  1
  O  O14  1  0.72786300  0.75000000  0.00000000  1
  O  O15  1  0.26768600  0.98177400  0.11032700  1
  O  O16  1  0.26768600  0.98177400  0.38967300  1
  O  O17  1  0.18232000  0.78887000  0.75000000  1
  O  O18  1  0.73231400  0.01822600  0.88967300  1
  O  O19  1  0.81768000  0.28887000  0.75000000  1
  O  O20  1  0.72786300  0.75000000  0.50000000  1
  O  O21  1  0.27213700  0.25000000  0.00000000  1
  O  O22  1  0.73231400  0.48177400  0.38967300  1
  O  O23  1  0.81768000  0.21113000  0.25000000  1
  O  O24  1  0.18232000  0.71113000  0.25000000  1
  O  O25  1  0.27213700  0.25000000  0.50000000  1
  O  O26  1  0.73231400  0.01822600  0.61032700  1
  O  O27  1  0.26768600  0.51822600  0.61032700  1
