# generated using pymatgen
data_CaCr2CuO7
_symmetry_space_group_name_H-M   'P 1'
_cell_length_a   8.97088300
_cell_length_b   10.18241713
_cell_length_c   10.35213154
_cell_angle_alpha   92.71179311
_cell_angle_beta   90.00000000
_cell_angle_gamma   90.00000000
_symmetry_Int_Tables_number   1
_chemical_formula_structural   CaCr2CuO7
_chemical_formula_sum   'Ca6 Cr12 Cu6 O42'
_cell_volume   944.55933589
_cell_formula_units_Z   6
loop_
 _symmetry_equiv_pos_site_id
 _symmetry_equiv_pos_as_xyz
  1  'x, y, z'
loop_
 _atom_site_type_symbol
 _atom_site_label
 _atom_site_symmetry_multiplicity
 _atom_site_fract_x
 _atom_site_fract_y
 _atom_site_fract_z
 _atom_site_occupancy
  Ca  Ca0  1  0.44233300  0.17652500  0.56708800  1
  Ca  Ca1  1  0.93162900  0.50000000  0.75000000  1
  Ca  Ca2  1  0.44233300  0.82347500  0.93291200  1
  Ca  Ca3  1  0.06837100  0.50000000  0.25000000  1
  Ca  Ca4  1  0.55766700  0.82347500  0.43291200  1
  Ca  Ca5  1  0.55766700  0.17652500  0.06708800  1
  Cr  Cr6  1  0.20803600  0.16308300  0.28986400  1
  Cr  Cr7  1  0.74676900  0.16450200  0.38143100  1
  Cr  Cr8  1  0.25323100  0.16450200  0.88143100  1
  Cr  Cr9  1  0.79196400  0.16308300  0.78986400  1
  Cr  Cr10  1  0.28918900  0.47588400  0.96026600  1
  Cr  Cr11  1  0.74676900  0.83549800  0.11856900  1
  Cr  Cr12  1  0.71081100  0.47588400  0.46026600  1
  Cr  Cr13  1  0.25323100  0.83549800  0.61856900  1
  Cr  Cr14  1  0.28918900  0.52411600  0.53973400  1
  Cr  Cr15  1  0.71081100  0.52411600  0.03973400  1
  Cr  Cr16  1  0.79196400  0.83691700  0.71013600  1
  Cr  Cr17  1  0.20803600  0.83691700  0.21013600  1
  Cu  Cu18  1  0.94196700  0.80722800  0.40995700  1
  Cu  Cu19  1  0.05803300  0.19277200  0.59004300  1
  Cu  Cu20  1  0.44806100  0.50000000  0.25000000  1
  Cu  Cu21  1  0.94196700  0.19277200  0.09004300  1
  Cu  Cu22  1  0.55193900  0.50000000  0.75000000  1
  Cu  Cu23  1  0.05803300  0.80722800  0.90995700  1
  O  O24  1  0.78833500  0.18952700  0.95511500  1
  O  O25  1  0.76970200  0.82709700  0.28138200  1
  O  O26  1  0.85386500  0.00000000  0.75000000  1
  O  O27  1  0.87790700  0.51073700  0.10385800  1
  O  O28  1  0.38180300  0.94587200  0.56932700  1
  O  O29  1  0.92259100  0.26345100  0.71837800  1
  O  O30  1  0.35601600  0.30951800  0.93615000  1
  O  O31  1  0.12209300  0.51073700  0.60385800  1
  O  O32  1  0.71224300  0.48773100  0.87677900  1
  O  O33  1  0.38180300  0.05412800  0.93067300  1
  O  O34  1  0.71224300  0.51226900  0.62322100  1
  O  O35  1  0.41511000  0.57179800  0.87965200  1
  O  O36  1  0.90946600  0.85474100  0.04060400  1
  O  O37  1  0.07740900  0.26345100  0.21837800  1
  O  O38  1  0.64398400  0.69048200  0.06385000  1
  O  O39  1  0.35601600  0.69048200  0.56385000  1
  O  O40  1  0.92259100  0.73654900  0.78162200  1
  O  O41  1  0.61819700  0.05412800  0.43067300  1
  O  O42  1  0.21166500  0.18952700  0.45511500  1
  O  O43  1  0.58489000  0.42820200  0.12034800  1
  O  O44  1  0.37428900  0.81268700  0.27360200  1
  O  O45  1  0.28775700  0.51226900  0.12322100  1
  O  O46  1  0.09053400  0.85474100  0.54060400  1
  O  O47  1  0.28775700  0.48773100  0.37677900  1
  O  O48  1  0.87790700  0.48926300  0.39614200  1
  O  O49  1  0.58489000  0.57179800  0.37965200  1
  O  O50  1  0.12209300  0.48926300  0.89614200  1
  O  O51  1  0.62571100  0.81268700  0.77360200  1
  O  O52  1  0.62571100  0.18731300  0.72639800  1
  O  O53  1  0.09053400  0.14525900  0.95939600  1
  O  O54  1  0.07740900  0.73654900  0.28162200  1
  O  O55  1  0.78833500  0.81047300  0.54488500  1
  O  O56  1  0.14613500  0.00000000  0.25000000  1
  O  O57  1  0.23029800  0.82709700  0.78138200  1
  O  O58  1  0.61819700  0.94587200  0.06932700  1
  O  O59  1  0.90946600  0.14525900  0.45939600  1
  O  O60  1  0.21166500  0.81047300  0.04488500  1
  O  O61  1  0.76970200  0.17290300  0.21861800  1
  O  O62  1  0.41511000  0.42820200  0.62034800  1
  O  O63  1  0.64398400  0.30951800  0.43615000  1
  O  O64  1  0.23029800  0.17290300  0.71861800  1
  O  O65  1  0.37428900  0.18731300  0.22639800  1
