# generated using pymatgen
data_AlTe(WO4)2
_symmetry_space_group_name_H-M   'P 1'
_cell_length_a   5.66980200
_cell_length_b   5.13070300
_cell_length_c   10.83308921
_cell_angle_alpha   64.13997826
_cell_angle_beta   90.00000000
_cell_angle_gamma   90.00000000
_symmetry_Int_Tables_number   1
_chemical_formula_structural   AlTe(WO4)2
_chemical_formula_sum   'Al2 Te2 W4 O16'
_cell_volume   283.57841067
_cell_formula_units_Z   2
loop_
 _symmetry_equiv_pos_site_id
 _symmetry_equiv_pos_as_xyz
  1  'x, y, z'
loop_
 _atom_site_type_symbol
 _atom_site_label
 _atom_site_symmetry_multiplicity
 _atom_site_fract_x
 _atom_site_fract_y
 _atom_site_fract_z
 _atom_site_occupancy
  Al  Al0  1  0.66584000  0.00000000  0.25000000  1
  Al  Al1  1  0.33416000  0.00000000  0.75000000  1
  Te  Te2  1  0.35986100  0.50000000  0.25000000  1
  Te  Te3  1  0.64013900  0.50000000  0.75000000  1
  W  W4  1  0.15326100  0.26906800  0.99691000  1
  W  W5  1  0.15326100  0.73093200  0.50309000  1
  W  W6  1  0.84673900  0.73093200  0.00309000  1
  W  W7  1  0.84673900  0.26906800  0.49691000  1
  O  O8  1  0.40664400  0.74359100  0.36771000  1
  O  O9  1  0.40664400  0.25640900  0.13229000  1
  O  O10  1  0.59335600  0.25640900  0.63229000  1
  O  O11  1  0.59335600  0.74359100  0.86771000  1
  O  O12  1  0.87591000  0.16475200  0.90459000  1
  O  O13  1  0.87591000  0.83524800  0.59541000  1
  O  O14  1  0.12409000  0.83524800  0.09541000  1
  O  O15  1  0.12409000  0.16475200  0.40459000  1
  O  O16  1  0.63147300  0.22175700  0.35347900  1
  O  O17  1  0.63147300  0.77824300  0.14652100  1
  O  O18  1  0.36852700  0.77824300  0.64652100  1
  O  O19  1  0.36852700  0.22175700  0.85347900  1
  O  O20  1  0.88407500  0.70343800  0.37301500  1
  O  O21  1  0.11592500  0.29656200  0.62698500  1
  O  O22  1  0.88407500  0.29656200  0.12698500  1
  O  O23  1  0.11592500  0.70343800  0.87301500  1
