# generated using pymatgen
data_Zn(SnO2)2
_symmetry_space_group_name_H-M   'P 1'
_cell_length_a   6.99925500
_cell_length_b   6.22312000
_cell_length_c   12.37834946
_cell_angle_alpha   64.80353924
_cell_angle_beta   90.00000000
_cell_angle_gamma   90.00000000
_symmetry_Int_Tables_number   1
_chemical_formula_structural   Zn(SnO2)2
_chemical_formula_sum   'Zn4 Sn8 O16'
_cell_volume   487.86642459
_cell_formula_units_Z   4
loop_
 _symmetry_equiv_pos_site_id
 _symmetry_equiv_pos_as_xyz
  1  'x, y, z'
loop_
 _atom_site_type_symbol
 _atom_site_label
 _atom_site_symmetry_multiplicity
 _atom_site_fract_x
 _atom_site_fract_y
 _atom_site_fract_z
 _atom_site_occupancy
  Zn  Zn0  1  0.05197700  0.50000000  0.75000000  1
  Zn  Zn1  1  0.94802300  0.50000000  0.25000000  1
  Zn  Zn2  1  0.75982600  0.00000000  0.25000000  1
  Zn  Zn3  1  0.24017400  0.00000000  0.75000000  1
  Sn  Sn4  1  0.59717600  0.30271900  0.44745000  1
  Sn  Sn5  1  0.59717600  0.69728100  0.05255000  1
  Sn  Sn6  1  0.40282400  0.69728100  0.55255000  1
  Sn  Sn7  1  0.40282400  0.30271900  0.94745000  1
  Sn  Sn8  1  0.00000000  0.00000000  0.50000000  1
  Sn  Sn9  1  0.00000000  0.00000000  0.00000000  1
  Sn  Sn10  1  0.00000000  0.50000000  0.50000000  1
  Sn  Sn11  1  0.00000000  0.50000000  0.00000000  1
  O  O12  1  0.11424800  0.33695600  0.39772200  1
  O  O13  1  0.11424800  0.66304400  0.10227800  1
  O  O14  1  0.88575200  0.66304400  0.60227800  1
  O  O15  1  0.88575200  0.33695600  0.89772200  1
  O  O16  1  0.83382900  0.18723500  0.57491100  1
  O  O17  1  0.83382900  0.81276500  0.92508900  1
  O  O18  1  0.16617100  0.81276500  0.42508900  1
  O  O19  1  0.16617100  0.18723500  0.07491100  1
  O  O20  1  0.23296800  0.90390900  0.62134400  1
  O  O21  1  0.23296800  0.09609100  0.87865600  1
  O  O22  1  0.78716500  0.61389900  0.36282500  1
  O  O23  1  0.78716500  0.38610100  0.13717500  1
  O  O24  1  0.76703200  0.09609100  0.37865600  1
  O  O25  1  0.76703200  0.90390900  0.12134400  1
  O  O26  1  0.21283500  0.38610100  0.63717500  1
  O  O27  1  0.21283500  0.61389900  0.86282500  1
