# generated using pymatgen
data_Zn(WO2)2
_symmetry_space_group_name_H-M   'P 1'
_cell_length_a   3.20279800
_cell_length_b   10.34732600
_cell_length_c   10.48219800
_cell_angle_alpha   90.00000000
_cell_angle_beta   90.00000000
_cell_angle_gamma   90.00000000
_symmetry_Int_Tables_number   1
_chemical_formula_structural   Zn(WO2)2
_chemical_formula_sum   'Zn4 W8 O16'
_cell_volume   347.38418238
_cell_formula_units_Z   4
loop_
 _symmetry_equiv_pos_site_id
 _symmetry_equiv_pos_as_xyz
  1  'x, y, z'
loop_
 _atom_site_type_symbol
 _atom_site_label
 _atom_site_symmetry_multiplicity
 _atom_site_fract_x
 _atom_site_fract_y
 _atom_site_fract_z
 _atom_site_occupancy
  Zn  Zn0  1  0.03412800  0.35496800  0.75000000  1
  Zn  Zn1  1  0.03412800  0.14503200  0.25000000  1
  Zn  Zn2  1  0.96587200  0.85496800  0.75000000  1
  Zn  Zn3  1  0.96587200  0.64503200  0.25000000  1
  W  W4  1  0.69847600  0.11857900  0.92630100  1
  W  W5  1  0.69847600  0.38142100  0.42630100  1
  W  W6  1  0.30152400  0.88142100  0.42630100  1
  W  W7  1  0.69847600  0.38142100  0.07369900  1
  W  W8  1  0.30152400  0.88142100  0.07369900  1
  W  W9  1  0.69847600  0.11857900  0.57369900  1
  W  W10  1  0.30152400  0.61857900  0.57369900  1
  W  W11  1  0.30152400  0.61857900  0.92630100  1
  O  O12  1  0.19763500  0.98196900  0.61100300  1
  O  O13  1  0.80236500  0.01803100  0.38899700  1
  O  O14  1  0.19302800  0.25000000  0.50000000  1
  O  O15  1  0.80236500  0.48196900  0.61100300  1
  O  O16  1  0.80236500  0.48196900  0.88899700  1
  O  O17  1  0.56259600  0.27253100  0.25000000  1
  O  O18  1  0.19763500  0.51803100  0.38899700  1
  O  O19  1  0.43740400  0.77253100  0.25000000  1
  O  O20  1  0.19302800  0.25000000  0.00000000  1
  O  O21  1  0.80697200  0.75000000  0.50000000  1
  O  O22  1  0.19763500  0.98196900  0.88899700  1
  O  O23  1  0.43740400  0.72746900  0.75000000  1
  O  O24  1  0.56259600  0.22746900  0.75000000  1
  O  O25  1  0.80697200  0.75000000  0.00000000  1
  O  O26  1  0.19763500  0.51803100  0.11100300  1
  O  O27  1  0.80236500  0.01803100  0.11100300  1
