# generated using pymatgen
data_CaV2O4
_symmetry_space_group_name_H-M   'P 1'
_cell_length_a   6.27713194
_cell_length_b   6.27713194
_cell_length_c   6.27713194
_cell_angle_alpha   120.14916524
_cell_angle_beta   119.72607136
_cell_angle_gamma   90.10847208
_symmetry_Int_Tables_number   1
_chemical_formula_structural   CaV2O4
_chemical_formula_sum   'Ca2 V4 O8'
_cell_volume   175.05311747
_cell_formula_units_Z   2
loop_
 _symmetry_equiv_pos_site_id
 _symmetry_equiv_pos_as_xyz
  1  'x, y, z'
loop_
 _atom_site_type_symbol
 _atom_site_label
 _atom_site_symmetry_multiplicity
 _atom_site_fract_x
 _atom_site_fract_y
 _atom_site_fract_z
 _atom_site_occupancy
  Ca  Ca0  1  0.50000000  0.00000000  0.00000000  1
  Ca  Ca1  1  0.50000000  0.50000000  0.50000000  1
  V  V2  1  0.88502500  0.13502500  0.75000000  1
  V  V3  1  0.11497500  0.86497500  0.25000000  1
  V  V4  1  0.50000000  0.50000000  0.00000000  1
  V  V5  1  0.00000000  0.50000000  0.50000000  1
  O  O6  1  0.73744600  0.72759400  0.00985200  1
  O  O7  1  0.24109300  0.72501500  0.98392200  1
  O  O8  1  0.21774300  0.72759400  0.49014800  1
  O  O9  1  0.24109300  0.25717100  0.51607800  1
  O  O10  1  0.75890700  0.74282900  0.48392200  1
  O  O11  1  0.75890700  0.27498500  0.01607800  1
  O  O12  1  0.78225700  0.27240600  0.50985200  1
  O  O13  1  0.26255400  0.27240600  0.99014800  1
