# generated using pymatgen
data_CaMn2O4
_symmetry_space_group_name_H-M   'P 1'
_cell_length_a   6.33554539
_cell_length_b   6.33554539
_cell_length_c   6.33554539
_cell_angle_alpha   121.52301048
_cell_angle_beta   119.85846704
_cell_angle_gamma   88.81388365
_symmetry_Int_Tables_number   1
_chemical_formula_structural   CaMn2O4
_chemical_formula_sum   'Ca2 Mn4 O8'
_cell_volume   177.85269247
_cell_formula_units_Z   2
loop_
 _symmetry_equiv_pos_site_id
 _symmetry_equiv_pos_as_xyz
  1  'x, y, z'
loop_
 _atom_site_type_symbol
 _atom_site_label
 _atom_site_symmetry_multiplicity
 _atom_site_fract_x
 _atom_site_fract_y
 _atom_site_fract_z
 _atom_site_occupancy
  Ca  Ca0  1  0.00000000  0.50000000  0.50000000  1
  Ca  Ca1  1  0.50000000  0.50000000  0.00000000  1
  Mn  Mn2  1  0.14286600  0.89286600  0.25000000  1
  Mn  Mn3  1  0.85713400  0.10713400  0.75000000  1
  Mn  Mn4  1  0.50000000  0.00000000  0.00000000  1
  Mn  Mn5  1  0.50000000  0.50000000  0.50000000  1
  O  O6  1  0.71354500  0.21200200  0.99845700  1
  O  O7  1  0.70699200  0.24370100  0.46329000  1
  O  O8  1  0.71354500  0.71508800  0.50154300  1
  O  O9  1  0.28041100  0.24370100  0.03671000  1
  O  O10  1  0.71958900  0.75629900  0.96329000  1
  O  O11  1  0.29300800  0.75629900  0.53671000  1
  O  O12  1  0.28645500  0.28491200  0.49845700  1
  O  O13  1  0.28645500  0.78799800  0.00154300  1
