# generated using pymatgen
data_MoO2
_symmetry_space_group_name_H-M   'P 1'
_cell_length_a   3.26496330
_cell_length_b   3.26496330
_cell_length_c   10.70153200
_cell_angle_alpha   90.00000000
_cell_angle_beta   90.00000000
_cell_angle_gamma   122.98325942
_symmetry_Int_Tables_number   1
_chemical_formula_structural   MoO2
_chemical_formula_sum   'Mo2 O4'
_cell_volume   95.69215686
_cell_formula_units_Z   2
loop_
 _symmetry_equiv_pos_site_id
 _symmetry_equiv_pos_as_xyz
  1  'x, y, z'
loop_
 _atom_site_type_symbol
 _atom_site_label
 _atom_site_symmetry_multiplicity
 _atom_site_fract_x
 _atom_site_fract_y
 _atom_site_fract_z
 _atom_site_occupancy
  Mo  Mo0  1  0.50000000  0.50000000  0.50000000  1
  Mo  Mo1  1  0.50000000  0.50000000  0.00000000  1
  O  O2  1  0.83489500  0.16510500  0.40982600  1
  O  O3  1  0.83489500  0.16510500  0.09017400  1
  O  O4  1  0.16510500  0.83489500  0.59017400  1
  O  O5  1  0.16510500  0.83489500  0.90982600  1
