# generated using pymatgen
data_V4FeCuO12
_symmetry_space_group_name_H-M   'P 1'
_cell_length_a   6.77262693
_cell_length_b   6.77616408
_cell_length_c   11.83146503
_cell_angle_alpha   75.12027034
_cell_angle_beta   104.88374594
_cell_angle_gamma   96.12839997
_symmetry_Int_Tables_number   1
_chemical_formula_structural   V4FeCuO12
_chemical_formula_sum   'V8 Fe2 Cu2 O24'
_cell_volume   506.67662564
_cell_formula_units_Z   2
loop_
 _symmetry_equiv_pos_site_id
 _symmetry_equiv_pos_as_xyz
  1  'x, y, z'
loop_
 _atom_site_type_symbol
 _atom_site_label
 _atom_site_symmetry_multiplicity
 _atom_site_fract_x
 _atom_site_fract_y
 _atom_site_fract_z
 _atom_site_occupancy
  V  V0  1  0.20172300  0.61575300  0.37372600  1
  V  V1  1  0.20176600  0.61568000  0.87372400  1
  V  V2  1  0.61570300  0.20186200  0.37620000  1
  V  V3  1  0.61577800  0.20193200  0.87616900  1
  V  V4  1  0.38927900  0.78947700  0.12964900  1
  V  V5  1  0.38932100  0.78946100  0.62964600  1
  V  V6  1  0.78968600  0.38934100  0.12033400  1
  V  V7  1  0.78970000  0.38937700  0.62032000  1
  Fe  Fe8  1  0.91593700  0.91584700  0.12505700  1
  Fe  Fe9  1  0.91601500  0.91595400  0.62506400  1
  Cu  Cu10  1  0.09404200  0.09352600  0.87556400  1
  Cu  Cu11  1  0.09379100  0.09407600  0.37507900  1
  O  O12  1  0.03484300  0.81513200  0.30759100  1
  O  O13  1  0.03493000  0.81515400  0.80760100  1
  O  O14  1  0.81515800  0.03492400  0.44243500  1
  O  O15  1  0.81514300  0.03493500  0.94243200  1
  O  O16  1  0.07965100  0.38684600  0.38037300  1
  O  O17  1  0.07983100  0.38680000  0.88035800  1
  O  O18  1  0.38663100  0.08022600  0.36957600  1
  O  O19  1  0.38669000  0.08016100  0.86955900  1
  O  O20  1  0.19818400  0.96038800  0.08284500  1
  O  O21  1  0.19832000  0.96037500  0.58294000  1
  O  O22  1  0.96042700  0.19824600  0.16707200  1
  O  O23  1  0.96045400  0.19835400  0.66697400  1
  O  O24  1  0.37352000  0.64121400  0.27549100  1
  O  O25  1  0.37369800  0.64124600  0.77555700  1
  O  O26  1  0.64139200  0.37367000  0.47443600  1
  O  O27  1  0.64139300  0.37362500  0.97445100  1
  O  O28  1  0.33803300  0.63147200  0.02486600  1
  O  O29  1  0.33796200  0.63144100  0.52489100  1
  O  O30  1  0.63146700  0.33796000  0.22501200  1
  O  O31  1  0.63144100  0.33796200  0.72499700  1
  O  O32  1  0.62735400  0.90638000  0.13826400  1
  O  O33  1  0.62739800  0.90637200  0.63825300  1
  O  O34  1  0.90667300  0.62740300  0.11175100  1
  O  O35  1  0.90666300  0.62742500  0.61174400  1
