# generated using pymatgen
data_Mg(CoO2)2
_symmetry_space_group_name_H-M   'P 1'
_cell_length_a   6.02741809
_cell_length_b   6.02741809
_cell_length_c   6.02741809
_cell_angle_alpha   121.43785649
_cell_angle_beta   121.43785649
_cell_angle_gamma   87.52709400
_symmetry_Int_Tables_number   1
_chemical_formula_structural   Mg(CoO2)2
_chemical_formula_sum   'Mg2 Co4 O8'
_cell_volume   151.32021324
_cell_formula_units_Z   2
loop_
 _symmetry_equiv_pos_site_id
 _symmetry_equiv_pos_as_xyz
  1  'x, y, z'
loop_
 _atom_site_type_symbol
 _atom_site_label
 _atom_site_symmetry_multiplicity
 _atom_site_fract_x
 _atom_site_fract_y
 _atom_site_fract_z
 _atom_site_occupancy
  Mg  Mg0  1  0.25000000  0.75000000  0.50000000  1
  Mg  Mg1  1  0.50000000  0.50000000  0.00000000  1
  Co  Co2  1  0.87500000  0.62500000  0.75000000  1
  Co  Co3  1  0.87500000  0.12500000  0.25000000  1
  Co  Co4  1  0.37500000  0.12500000  0.25000000  1
  Co  Co5  1  0.87500000  0.12500000  0.75000000  1
  O  O6  1  0.62239500  0.36842900  0.71676400  1
  O  O7  1  0.09436900  0.37760500  0.74603500  1
  O  O8  1  0.63157100  0.34833400  0.25396600  1
  O  O9  1  0.09833400  0.34436900  0.21676400  1
  O  O10  1  0.11842900  0.90166600  0.24603500  1
  O  O11  1  0.65563100  0.87239500  0.75396500  1
  O  O12  1  0.65166600  0.90563100  0.28323600  1
  O  O13  1  0.12760500  0.88157100  0.78323600  1
