# generated using pymatgen
data_Ca(FeO2)2
_symmetry_space_group_name_H-M   'P 1'
_cell_length_a   6.26593507
_cell_length_b   6.26593507
_cell_length_c   6.26593507
_cell_angle_alpha   120.01551067
_cell_angle_beta   119.99625237
_cell_angle_gamma   89.98981402
_symmetry_Int_Tables_number   1
_chemical_formula_structural   Ca(FeO2)2
_chemical_formula_sum   'Ca2 Fe4 O8'
_cell_volume   173.94183179
_cell_formula_units_Z   2
loop_
 _symmetry_equiv_pos_site_id
 _symmetry_equiv_pos_as_xyz
  1  'x, y, z'
loop_
 _atom_site_type_symbol
 _atom_site_label
 _atom_site_symmetry_multiplicity
 _atom_site_fract_x
 _atom_site_fract_y
 _atom_site_fract_z
 _atom_site_occupancy
  Ca  Ca0  1  0.00000000  0.00000000  0.50000000  1
  Ca  Ca1  1  0.00000000  0.50000000  0.00000000  1
  Fe  Fe2  1  0.61106400  0.86106400  0.75000000  1
  Fe  Fe3  1  0.38893600  0.13893600  0.25000000  1
  Fe  Fe4  1  0.50000000  0.50000000  0.00000000  1
  Fe  Fe5  1  0.00000000  0.50000000  0.50000000  1
  O  O6  1  0.28108800  0.27161000  0.00947800  1
  O  O7  1  0.25979400  0.27511600  0.51532200  1
  O  O8  1  0.76213100  0.27161000  0.49052200  1
  O  O9  1  0.25979400  0.74447200  0.98467800  1
  O  O10  1  0.74020600  0.25552800  0.01532200  1
  O  O11  1  0.74020600  0.72488400  0.48467800  1
  O  O12  1  0.23786900  0.72839000  0.50947800  1
  O  O13  1  0.71891200  0.72839000  0.99052200  1
