# generated using pymatgen
data_MoO2
_symmetry_space_group_name_H-M   'P 1'
_cell_length_a   6.25272240
_cell_length_b   6.25272240
_cell_length_c   6.25272240
_cell_angle_alpha   121.85450736
_cell_angle_beta   115.07884633
_cell_angle_gamma   92.77252775
_symmetry_Int_Tables_number   1
_chemical_formula_structural   MoO2
_chemical_formula_sum   'Mo4 O8'
_cell_volume   175.91299467
_cell_formula_units_Z   4
loop_
 _symmetry_equiv_pos_site_id
 _symmetry_equiv_pos_as_xyz
  1  'x, y, z'
loop_
 _atom_site_type_symbol
 _atom_site_label
 _atom_site_symmetry_multiplicity
 _atom_site_fract_x
 _atom_site_fract_y
 _atom_site_fract_z
 _atom_site_occupancy
  Mo  Mo0  1  0.63041600  0.88041600  0.75000000  1
  Mo  Mo1  1  0.36958400  0.11958400  0.25000000  1
  Mo  Mo2  1  0.00000000  0.50000000  0.50000000  1
  Mo  Mo3  1  0.50000000  0.50000000  0.00000000  1
  O  O4  1  0.71431700  0.25491300  0.45940400  1
  O  O5  1  0.24945200  0.73058900  0.98113700  1
  O  O6  1  0.29550900  0.25491300  0.04059600  1
  O  O7  1  0.24945200  0.26831500  0.51886300  1
  O  O8  1  0.75054800  0.73168500  0.48113700  1
  O  O9  1  0.75054800  0.26941100  0.01886300  1
  O  O10  1  0.70449100  0.74508700  0.95940400  1
  O  O11  1  0.28568300  0.74508700  0.54059600  1
