# generated using pymatgen
data_Si2MoO6
_symmetry_space_group_name_H-M   'P 1'
_cell_length_a   5.12412600
_cell_length_b   10.89411400
_cell_length_c   19.32762300
_cell_angle_alpha   90.00000000
_cell_angle_beta   90.00000000
_cell_angle_gamma   90.00000000
_symmetry_Int_Tables_number   1
_chemical_formula_structural   Si2MoO6
_chemical_formula_sum   'Si16 Mo8 O48'
_cell_volume   1078.92228049
_cell_formula_units_Z   8
loop_
 _symmetry_equiv_pos_site_id
 _symmetry_equiv_pos_as_xyz
  1  'x, y, z'
loop_
 _atom_site_type_symbol
 _atom_site_label
 _atom_site_symmetry_multiplicity
 _atom_site_fract_x
 _atom_site_fract_y
 _atom_site_fract_z
 _atom_site_occupancy
  Si  Si0  1  0.62270100  0.17099600  0.27668100  1
  Si  Si1  1  0.75953700  0.32800800  0.97264400  1
  Si  Si2  1  0.74046300  0.32800800  0.47264400  1
  Si  Si3  1  0.87729900  0.67099600  0.72331900  1
  Si  Si4  1  0.12270100  0.82900400  0.22331900  1
  Si  Si5  1  0.37729900  0.32900400  0.77668100  1
  Si  Si6  1  0.25953700  0.17199200  0.97264400  1
  Si  Si7  1  0.75953700  0.82800800  0.52735600  1
  Si  Si8  1  0.74046300  0.82800800  0.02735600  1
  Si  Si9  1  0.87729900  0.17099600  0.77668100  1
  Si  Si10  1  0.37729900  0.82900400  0.72331900  1
  Si  Si11  1  0.62270100  0.67099600  0.22331900  1
  Si  Si12  1  0.24046300  0.67199200  0.02735600  1
  Si  Si13  1  0.12270100  0.32900400  0.27668100  1
  Si  Si14  1  0.24046300  0.17199200  0.47264400  1
  Si  Si15  1  0.25953700  0.67199200  0.52735600  1
  Mo  Mo16  1  0.43523800  0.54837800  0.37372700  1
  Mo  Mo17  1  0.56476200  0.45162200  0.62627300  1
  Mo  Mo18  1  0.93523800  0.45162200  0.12627300  1
  Mo  Mo19  1  0.06476200  0.54837800  0.87372700  1
  Mo  Mo20  1  0.43523800  0.04837800  0.12627300  1
  Mo  Mo21  1  0.56476200  0.95162200  0.87372700  1
  Mo  Mo22  1  0.93523800  0.95162200  0.37372700  1
  Mo  Mo23  1  0.06476200  0.04837800  0.62627300  1
  O  O24  1  0.81523300  0.04739100  0.82101200  1
  O  O25  1  0.32089300  0.54875600  0.57178900  1
  O  O26  1  0.18476700  0.95260900  0.17898800  1
  O  O27  1  0.76255700  0.85395500  0.44396700  1
  O  O28  1  0.26255700  0.64604500  0.44396700  1
  O  O29  1  0.96519400  0.71814500  0.54705200  1
  O  O30  1  0.86225100  0.14189300  0.69360300  1
  O  O31  1  0.13774900  0.35810700  0.19360300  1
  O  O32  1  0.76255700  0.35395500  0.05603300  1
  O  O33  1  0.86225100  0.64189300  0.80639700  1
  O  O34  1  0.31523300  0.95260900  0.67898800  1
  O  O35  1  0.73744300  0.85395500  0.94396700  1
  O  O36  1  0.67910700  0.45124400  0.42821100  1
  O  O37  1  0.36225100  0.35810700  0.69360300  1
  O  O38  1  0.68476700  0.54739100  0.17898800  1
  O  O39  1  0.32089300  0.04875700  0.92821100  1
  O  O40  1  0.31523300  0.45260900  0.82101200  1
  O  O41  1  0.16982500  0.21985300  0.79611800  1
  O  O42  1  0.33017500  0.21985300  0.29611800  1
  O  O43  1  0.53480600  0.21814500  0.45294800  1
  O  O44  1  0.73744300  0.35395500  0.55603300  1
  O  O45  1  0.63774900  0.14189300  0.19360300  1
  O  O46  1  0.82089300  0.95124400  0.57178900  1
  O  O47  1  0.16982500  0.71985300  0.70388200  1
  O  O48  1  0.23744300  0.64604500  0.94396700  1
  O  O49  1  0.63774900  0.64189300  0.30639700  1
  O  O50  1  0.67910700  0.95124400  0.07178900  1
  O  O51  1  0.26255700  0.14604500  0.05603300  1
  O  O52  1  0.17910700  0.04875700  0.42821100  1
  O  O53  1  0.66982500  0.28014700  0.79611800  1
  O  O54  1  0.18476700  0.45260900  0.32101200  1
  O  O55  1  0.83017500  0.28014700  0.29611800  1
  O  O56  1  0.83017500  0.78014700  0.20388200  1
  O  O57  1  0.82089300  0.45124400  0.92821100  1
  O  O58  1  0.23744300  0.14604500  0.55603300  1
  O  O59  1  0.17910700  0.54875600  0.07178900  1
  O  O60  1  0.33017500  0.71985300  0.20388200  1
  O  O61  1  0.03480600  0.28185500  0.45294800  1
  O  O62  1  0.46519400  0.28185500  0.95294800  1
  O  O63  1  0.66982500  0.78014700  0.70388200  1
  O  O64  1  0.46519400  0.78185500  0.54705200  1
  O  O65  1  0.53480600  0.71814500  0.04705200  1
  O  O66  1  0.03480600  0.78185500  0.04705200  1
  O  O67  1  0.36225100  0.85810700  0.80639700  1
  O  O68  1  0.68476700  0.04739100  0.32101200  1
  O  O69  1  0.96519400  0.21814500  0.95294800  1
  O  O70  1  0.13774900  0.85810700  0.30639700  1
  O  O71  1  0.81523300  0.54739100  0.67898800  1
