# generated using pymatgen
data_Ca2TiNb2O8
_symmetry_space_group_name_H-M   'P 1'
_cell_length_a   9.80526048
_cell_length_b   9.80526048
_cell_length_c   5.50689544
_cell_angle_alpha   88.42716313
_cell_angle_beta   88.42716313
_cell_angle_gamma   37.75701946
_symmetry_Int_Tables_number   1
_chemical_formula_structural   Ca2TiNb2O8
_chemical_formula_sum   'Ca4 Ti2 Nb4 O16'
_cell_volume   324.05340746
_cell_formula_units_Z   2
loop_
 _symmetry_equiv_pos_site_id
 _symmetry_equiv_pos_as_xyz
  1  'x, y, z'
loop_
 _atom_site_type_symbol
 _atom_site_label
 _atom_site_symmetry_multiplicity
 _atom_site_fract_x
 _atom_site_fract_y
 _atom_site_fract_z
 _atom_site_occupancy
  Ca  Ca0  1  0.88542300  0.52493100  0.76020500  1
  Ca  Ca1  1  0.47506900  0.11457700  0.73979500  1
  Ca  Ca2  1  0.11457700  0.47506900  0.23979500  1
  Ca  Ca3  1  0.52493100  0.88542300  0.26020500  1
  Ti  Ti4  1  0.62321200  0.37678800  0.75000000  1
  Ti  Ti5  1  0.37678800  0.62321200  0.25000000  1
  Nb  Nb6  1  0.03498800  0.74684200  0.75859000  1
  Nb  Nb7  1  0.25315800  0.96501200  0.74141000  1
  Nb  Nb8  1  0.96501200  0.25315800  0.24141000  1
  Nb  Nb9  1  0.74684200  0.03498800  0.25859000  1
  O  O10  1  0.08118100  0.78631500  0.10657700  1
  O  O11  1  0.21368500  0.91881900  0.39342300  1
  O  O12  1  0.91881900  0.21368500  0.89342300  1
  O  O13  1  0.78631500  0.08118100  0.60657700  1
  O  O14  1  0.31769800  0.57441800  0.58126800  1
  O  O15  1  0.42558200  0.68230200  0.91873200  1
  O  O16  1  0.68230200  0.42558200  0.41873200  1
  O  O17  1  0.57441800  0.31769800  0.08126800  1
  O  O18  1  0.88051800  0.76459400  0.48933100  1
  O  O19  1  0.23540600  0.11948200  0.01066900  1
  O  O20  1  0.46982100  0.16002000  0.33643400  1
  O  O21  1  0.83998000  0.53017900  0.16356600  1
  O  O22  1  0.53017900  0.83998000  0.66356600  1
  O  O23  1  0.16002000  0.46982100  0.83643400  1
  O  O24  1  0.76459400  0.88051800  0.98933100  1
  O  O25  1  0.11948200  0.23540600  0.51066900  1
