# generated using pymatgen
data_Si2WO6
_symmetry_space_group_name_H-M   'P 1'
_cell_length_a   5.14227200
_cell_length_b   10.71450900
_cell_length_c   19.86359800
_cell_angle_alpha   90.00000000
_cell_angle_beta   90.00000000
_cell_angle_gamma   90.00000000
_symmetry_Int_Tables_number   1
_chemical_formula_structural   Si2WO6
_chemical_formula_sum   'Si16 W8 O48'
_cell_volume   1094.42306246
_cell_formula_units_Z   8
loop_
 _symmetry_equiv_pos_site_id
 _symmetry_equiv_pos_as_xyz
  1  'x, y, z'
loop_
 _atom_site_type_symbol
 _atom_site_label
 _atom_site_symmetry_multiplicity
 _atom_site_fract_x
 _atom_site_fract_y
 _atom_site_fract_z
 _atom_site_occupancy
  Si  Si0  1  0.61937800  0.17025700  0.77534300  1
  Si  Si1  1  0.75753300  0.32919900  0.47399000  1
  Si  Si2  1  0.74246700  0.32919900  0.97399000  1
  Si  Si3  1  0.88062200  0.67025700  0.22465700  1
  Si  Si4  1  0.11937800  0.82974300  0.72465700  1
  Si  Si5  1  0.38062200  0.32974300  0.27534300  1
  Si  Si6  1  0.25753300  0.17080100  0.47399000  1
  Si  Si7  1  0.75753300  0.82919900  0.02601000  1
  Si  Si8  1  0.74246700  0.82919900  0.52601000  1
  Si  Si9  1  0.88062200  0.17025700  0.27534300  1
  Si  Si10  1  0.38062200  0.82974300  0.22465700  1
  Si  Si11  1  0.61937800  0.67025700  0.72465700  1
  Si  Si12  1  0.24246700  0.67080100  0.52601000  1
  Si  Si13  1  0.11937800  0.32974300  0.77534300  1
  Si  Si14  1  0.24246700  0.17080100  0.97399000  1
  Si  Si15  1  0.25753300  0.67080100  0.02601000  1
  W  W16  1  0.43570100  0.54841900  0.87383400  1
  W  W17  1  0.56429900  0.45158100  0.12616600  1
  W  W18  1  0.93570100  0.45158100  0.62616600  1
  W  W19  1  0.06429900  0.54841900  0.37383400  1
  W  W20  1  0.43570100  0.04841900  0.62616600  1
  W  W21  1  0.56429900  0.95158100  0.37383400  1
  W  W22  1  0.93570100  0.95158100  0.87383400  1
  W  W23  1  0.06429900  0.04841900  0.12616600  1
  O  O24  1  0.81245900  0.04516200  0.31856700  1
  O  O25  1  0.32108900  0.54568000  0.06920300  1
  O  O26  1  0.18754100  0.95483800  0.68143300  1
  O  O27  1  0.76349800  0.85494000  0.94479600  1
  O  O28  1  0.26349800  0.64506000  0.94479600  1
  O  O29  1  0.96469300  0.71829000  0.04532600  1
  O  O30  1  0.86486900  0.14117300  0.19448900  1
  O  O31  1  0.13513100  0.35882700  0.69448900  1
  O  O32  1  0.76349800  0.35494000  0.55520400  1
  O  O33  1  0.86486900  0.64117300  0.30551100  1
  O  O34  1  0.31245900  0.95483800  0.18143300  1
  O  O35  1  0.73650200  0.85494000  0.44479600  1
  O  O36  1  0.67891100  0.45432000  0.93079700  1
  O  O37  1  0.36486900  0.35882700  0.19448900  1
  O  O38  1  0.68754100  0.54516200  0.68143300  1
  O  O39  1  0.32108900  0.04568000  0.43079700  1
  O  O40  1  0.31245900  0.45483800  0.31856700  1
  O  O41  1  0.17378900  0.21818800  0.29401100  1
  O  O42  1  0.32621100  0.21818800  0.79401100  1
  O  O43  1  0.53530700  0.21829000  0.95467400  1
  O  O44  1  0.73650200  0.35494000  0.05520400  1
  O  O45  1  0.63513100  0.14117300  0.69448900  1
  O  O46  1  0.82108900  0.95432000  0.06920300  1
  O  O47  1  0.17378900  0.71818800  0.20598900  1
  O  O48  1  0.23650200  0.64506000  0.44479600  1
  O  O49  1  0.63513100  0.64117300  0.80551100  1
  O  O50  1  0.67891100  0.95432000  0.56920300  1
  O  O51  1  0.26349800  0.14506000  0.55520400  1
  O  O52  1  0.17891100  0.04568000  0.93079700  1
  O  O53  1  0.67378900  0.28181200  0.29401100  1
  O  O54  1  0.18754100  0.45483800  0.81856700  1
  O  O55  1  0.82621100  0.28181200  0.79401100  1
  O  O56  1  0.82621100  0.78181200  0.70598900  1
  O  O57  1  0.82108900  0.45432000  0.43079700  1
  O  O58  1  0.23650200  0.14506000  0.05520400  1
  O  O59  1  0.17891100  0.54568000  0.56920300  1
  O  O60  1  0.32621100  0.71818800  0.70598900  1
  O  O61  1  0.03530700  0.28171000  0.95467400  1
  O  O62  1  0.46469300  0.28171000  0.45467400  1
  O  O63  1  0.67378900  0.78181200  0.20598900  1
  O  O64  1  0.46469300  0.78171000  0.04532600  1
  O  O65  1  0.53530700  0.71829000  0.54532600  1
  O  O66  1  0.03530700  0.78171000  0.54532600  1
  O  O67  1  0.36486900  0.85882700  0.30551100  1
  O  O68  1  0.68754100  0.04516200  0.81856700  1
  O  O69  1  0.96469300  0.21829000  0.45467400  1
  O  O70  1  0.13513100  0.85882700  0.80551100  1
  O  O71  1  0.81245900  0.54516200  0.18143300  1
