# generated using pymatgen
data_V3Si3O10
_symmetry_space_group_name_H-M   'P 1'
_cell_length_a   4.82249600
_cell_length_b   7.98302558
_cell_length_c   10.65072629
_cell_angle_alpha   90.84172485
_cell_angle_beta   90.42657286
_cell_angle_gamma   107.47630306
_symmetry_Int_Tables_number   1
_chemical_formula_structural   V3Si3O10
_chemical_formula_sum   'V6 Si6 O20'
_cell_volume   391.03378874
_cell_formula_units_Z   2
loop_
 _symmetry_equiv_pos_site_id
 _symmetry_equiv_pos_as_xyz
  1  'x, y, z'
loop_
 _atom_site_type_symbol
 _atom_site_label
 _atom_site_symmetry_multiplicity
 _atom_site_fract_x
 _atom_site_fract_y
 _atom_site_fract_z
 _atom_site_occupancy
  V  V0  1  0.60017800  0.69483600  0.72515200  1
  V  V1  1  0.91740800  0.30739500  0.77618800  1
  V  V2  1  0.00000000  0.50000000  0.50000000  1
  V  V3  1  0.08259200  0.69260500  0.22381200  1
  V  V4  1  0.50000000  0.50000000  0.00000000  1
  V  V5  1  0.39982200  0.30516400  0.27484800  1
  Si  Si6  1  0.53509300  0.69579600  0.40859800  1
  Si  Si7  1  0.15275000  0.69795300  0.91174600  1
  Si  Si8  1  0.80854200  0.00005900  0.25202200  1
  Si  Si9  1  0.84725000  0.30204700  0.08825400  1
  Si  Si10  1  0.46490700  0.30420400  0.59140200  1
  Si  Si11  1  0.19145800  0.99994100  0.74797800  1
  O  O12  1  0.50859200  0.86404400  0.32236000  1
  O  O13  1  0.38947500  0.67883400  0.54714500  1
  O  O14  1  0.27498600  0.53444000  0.33392300  1
  O  O15  1  0.06596200  0.13000500  0.83658500  1
  O  O16  1  0.19276200  0.32498500  0.09592000  1
  O  O17  1  0.14119900  0.32526700  0.60287900  1
  O  O18  1  0.04485600  0.12133500  0.34428200  1
  O  O19  1  0.23438100  0.52850100  0.83780300  1
  O  O20  1  0.29044300  0.68177800  0.05067700  1
  O  O21  1  0.34296000  0.87211300  0.83366300  1
  O  O22  1  0.65704000  0.12788700  0.16633700  1
  O  O23  1  0.70955700  0.31822200  0.94932300  1
  O  O24  1  0.76561900  0.47149900  0.16219700  1
  O  O25  1  0.95514400  0.87866500  0.65571800  1
  O  O26  1  0.85880100  0.67473300  0.39712100  1
  O  O27  1  0.80723800  0.67501500  0.90408000  1
  O  O28  1  0.93403800  0.86999500  0.16341500  1
  O  O29  1  0.72501400  0.46556000  0.66607700  1
  O  O30  1  0.61052500  0.32116600  0.45285500  1
  O  O31  1  0.49140800  0.13595600  0.67764000  1
