# generated using pymatgen
data_Zn(WO2)2
_symmetry_space_group_name_H-M   'P 1'
_cell_length_a   5.59268900
_cell_length_b   6.75345686
_cell_length_c   10.55852282
_cell_angle_alpha   106.70314488
_cell_angle_beta   90.29461118
_cell_angle_gamma   89.94724699
_symmetry_Int_Tables_number   1
_chemical_formula_structural   Zn(WO2)2
_chemical_formula_sum   'Zn4 W8 O16'
_cell_volume   381.96364396
_cell_formula_units_Z   4
loop_
 _symmetry_equiv_pos_site_id
 _symmetry_equiv_pos_as_xyz
  1  'x, y, z'
loop_
 _atom_site_type_symbol
 _atom_site_label
 _atom_site_symmetry_multiplicity
 _atom_site_fract_x
 _atom_site_fract_y
 _atom_site_fract_z
 _atom_site_occupancy
  Zn  Zn0  1  0.88066800  0.74629600  0.24991400  1
  Zn  Zn1  1  0.11972200  0.23703900  0.75144000  1
  Zn  Zn2  1  0.58508100  0.74687900  0.74941200  1
  Zn  Zn3  1  0.41731900  0.24457800  0.25064500  1
  W  W4  1  0.51485600  0.25853800  0.51904700  1
  W  W5  1  0.51207000  0.24434100  0.98288800  1
  W  W6  1  0.48751400  0.74240700  0.48108700  1
  W  W7  1  0.48477700  0.75870800  0.01710800  1
  W  W8  1  0.00108300  0.50099400  0.50094100  1
  W  W9  1  0.99891300  0.00238400  0.00141400  1
  W  W10  1  0.00039900  0.00072900  0.49873700  1
  W  W11  1  0.99934500  0.50158000  0.99872200  1
  O  O12  1  0.87500600  0.29988600  0.61444100  1
  O  O13  1  0.87108200  0.20074800  0.88619600  1
  O  O14  1  0.12618400  0.69987100  0.38562400  1
  O  O15  1  0.12741100  0.80108100  0.11418200  1
  O  O16  1  0.19317200  0.21302200  0.40070900  1
  O  O17  1  0.19253500  0.29010000  0.10036900  1
  O  O18  1  0.80875500  0.78924500  0.59926600  1
  O  O19  1  0.80576000  0.71468800  0.90018900  1
  O  O20  1  0.64904500  0.44033400  0.39204600  1
  O  O21  1  0.64652500  0.06010100  0.10896900  1
  O  O22  1  0.33246200  0.04899500  0.60964800  1
  O  O23  1  0.33004300  0.45019800  0.88904200  1
  O  O24  1  0.35524200  0.56117600  0.60852200  1
  O  O25  1  0.34858100  0.94351100  0.89145400  1
  O  O26  1  0.66740000  0.95087800  0.38871500  1
  O  O27  1  0.66905000  0.55169200  0.10927600  1
