# generated using pymatgen
data_Zn(MoO2)2
_symmetry_space_group_name_H-M   'P 1'
_cell_length_a   5.52832400
_cell_length_b   6.43739500
_cell_length_c   10.46362500
_cell_angle_alpha   90.00000000
_cell_angle_beta   90.00000000
_cell_angle_gamma   90.00000000
_symmetry_Int_Tables_number   1
_chemical_formula_structural   Zn(MoO2)2
_chemical_formula_sum   'Zn4 Mo8 O16'
_cell_volume   372.37954171
_cell_formula_units_Z   4
loop_
 _symmetry_equiv_pos_site_id
 _symmetry_equiv_pos_as_xyz
  1  'x, y, z'
loop_
 _atom_site_type_symbol
 _atom_site_label
 _atom_site_symmetry_multiplicity
 _atom_site_fract_x
 _atom_site_fract_y
 _atom_site_fract_z
 _atom_site_occupancy
  Zn  Zn0  1  0.86206600  0.00000000  0.50000000  1
  Zn  Zn1  1  0.13793400  0.50000000  0.00000000  1
  Zn  Zn2  1  0.54942600  0.00000000  0.00000000  1
  Zn  Zn3  1  0.45057400  0.50000000  0.50000000  1
  Mo  Mo4  1  0.51658400  0.50000000  0.22953700  1
  Mo  Mo5  1  0.51658400  0.50000000  0.77046300  1
  Mo  Mo6  1  0.48341600  0.00000000  0.27046300  1
  Mo  Mo7  1  0.48341600  0.00000000  0.72953700  1
  Mo  Mo8  1  0.00000000  0.25000000  0.25000000  1
  Mo  Mo9  1  0.00000000  0.75000000  0.75000000  1
  Mo  Mo10  1  0.00000000  0.75000000  0.25000000  1
  Mo  Mo11  1  0.00000000  0.25000000  0.75000000  1
  O  O12  1  0.87253200  0.50000000  0.13612800  1
  O  O13  1  0.87253200  0.50000000  0.86387200  1
  O  O14  1  0.12746800  0.00000000  0.36387200  1
  O  O15  1  0.12746800  0.00000000  0.63612800  1
  O  O16  1  0.20252400  0.50000000  0.34805300  1
  O  O17  1  0.20252400  0.50000000  0.65194700  1
  O  O18  1  0.79747600  0.00000000  0.15194700  1
  O  O19  1  0.79747600  0.00000000  0.84805300  1
  O  O20  1  0.66472200  0.25699200  0.36200000  1
  O  O21  1  0.66472200  0.74300800  0.63800000  1
  O  O22  1  0.33527800  0.75699200  0.13800000  1
  O  O23  1  0.33527800  0.24300800  0.86200000  1
  O  O24  1  0.33527800  0.24300800  0.13800000  1
  O  O25  1  0.33527800  0.75699200  0.86200000  1
  O  O26  1  0.66472200  0.74300800  0.36200000  1
  O  O27  1  0.66472200  0.25699200  0.63800000  1
