# generated using pymatgen
data_MgCr2O7
_symmetry_space_group_name_H-M   'P 1'
_cell_length_a   6.58803700
_cell_length_b   6.40014700
_cell_length_c   7.71713555
_cell_angle_alpha   70.85700769
_cell_angle_beta   90.00000000
_cell_angle_gamma   90.00000000
_symmetry_Int_Tables_number   1
_chemical_formula_structural   MgCr2O7
_chemical_formula_sum   'Mg2 Cr4 O14'
_cell_volume   307.39546430
_cell_formula_units_Z   2
loop_
 _symmetry_equiv_pos_site_id
 _symmetry_equiv_pos_as_xyz
  1  'x, y, z'
loop_
 _atom_site_type_symbol
 _atom_site_label
 _atom_site_symmetry_multiplicity
 _atom_site_fract_x
 _atom_site_fract_y
 _atom_site_fract_z
 _atom_site_occupancy
  Mg  Mg0  1  0.12140200  0.11012800  0.34858100  1
  Mg  Mg1  1  0.62140200  0.88987200  0.65141900  1
  Cr  Cr2  1  0.13955700  0.89748500  0.79045100  1
  Cr  Cr3  1  0.63955700  0.10251500  0.20954900  1
  Cr  Cr4  1  0.68126400  0.34933700  0.78219300  1
  Cr  Cr5  1  0.18126400  0.65066300  0.21780700  1
  O  O6  1  0.36952600  0.59018700  0.35412200  1
  O  O7  1  0.86952600  0.40981300  0.64587800  1
  O  O8  1  0.76999000  0.05785400  0.40886400  1
  O  O9  1  0.26999000  0.94214600  0.59113600  1
  O  O10  1  0.03098800  0.43154200  0.26565700  1
  O  O11  1  0.53098800  0.56845800  0.73434300  1
  O  O12  1  0.40829800  0.18597000  0.23423000  1
  O  O13  1  0.90829800  0.81403000  0.76577000  1
  O  O14  1  0.06639000  0.87388200  0.23434000  1
  O  O15  1  0.56639000  0.12611800  0.76566000  1
  O  O16  1  0.26294400  0.71309500  0.98288600  1
  O  O17  1  0.76294400  0.28690500  0.01711400  1
  O  O18  1  0.12458400  0.12582600  0.83080100  1
  O  O19  1  0.62458400  0.87417400  0.16919900  1
