# generated using pymatgen
data_Ta(WO4)2
_symmetry_space_group_name_H-M   'P 1'
_cell_length_a   5.12305800
_cell_length_b   5.29318612
_cell_length_c   7.21802772
_cell_angle_alpha   107.76114870
_cell_angle_beta   92.91596581
_cell_angle_gamma   104.84113825
_symmetry_Int_Tables_number   1
_chemical_formula_structural   Ta(WO4)2
_chemical_formula_sum   'Ta1 W2 O8'
_cell_volume   178.40749913
_cell_formula_units_Z   1
loop_
 _symmetry_equiv_pos_site_id
 _symmetry_equiv_pos_as_xyz
  1  'x, y, z'
loop_
 _atom_site_type_symbol
 _atom_site_label
 _atom_site_symmetry_multiplicity
 _atom_site_fract_x
 _atom_site_fract_y
 _atom_site_fract_z
 _atom_site_occupancy
  Ta  Ta0  1  0.97915800  0.10762900  0.23641900  1
  W  W1  1  0.70244700  0.65225800  0.41204400  1
  W  W2  1  0.22763200  0.56594300  0.04397300  1
  O  O3  1  0.63524200  0.82006700  0.64163700  1
  O  O4  1  0.85491800  0.35173000  0.43705800  1
  O  O5  1  0.59705600  0.81279400  0.19357300  1
  O  O6  1  0.89614900  0.30505500  0.05039700  1
  O  O7  1  0.09550800  0.83698300  0.99749900  1
  O  O8  1  0.31903200  0.40380500  0.82129500  1
  O  O9  1  0.34373700  0.37490800  0.25310800  1
  O  O10  1  0.07407500  0.86544100  0.36862800  1
