# generated using pymatgen
data_Mg2Ti3O8
_symmetry_space_group_name_H-M   'P 1'
_cell_length_a   5.95508534
_cell_length_b   5.95508534
_cell_length_c   9.50825500
_cell_angle_alpha   90.00000000
_cell_angle_beta   90.00000000
_cell_angle_gamma   119.99999271
_symmetry_Int_Tables_number   1
_chemical_formula_structural   Mg2Ti3O8
_chemical_formula_sum   'Mg4 Ti6 O16'
_cell_volume   292.01654867
_cell_formula_units_Z   2
loop_
 _symmetry_equiv_pos_site_id
 _symmetry_equiv_pos_as_xyz
  1  'x, y, z'
loop_
 _atom_site_type_symbol
 _atom_site_label
 _atom_site_symmetry_multiplicity
 _atom_site_fract_x
 _atom_site_fract_y
 _atom_site_fract_z
 _atom_site_occupancy
  Mg  Mg0  1  0.66666700  0.33333300  0.02284100  1
  Mg  Mg1  1  0.33333300  0.66666700  0.52284100  1
  Mg  Mg2  1  0.66666700  0.33333300  0.41802500  1
  Mg  Mg3  1  0.33333300  0.66666700  0.91802500  1
  Ti  Ti4  1  0.67388100  0.83694100  0.24418100  1
  Ti  Ti5  1  0.83694100  0.16305900  0.74418100  1
  Ti  Ti6  1  0.16305900  0.32611900  0.24418100  1
  Ti  Ti7  1  0.83694100  0.67388100  0.74418100  1
  Ti  Ti8  1  0.32611900  0.16305900  0.74418100  1
  Ti  Ti9  1  0.16305900  0.83694100  0.24418100  1
  O  O10  1  0.83618300  0.16381700  0.14637600  1
  O  O11  1  0.67236600  0.83618300  0.64637600  1
  O  O12  1  0.16381700  0.32763400  0.64637600  1
  O  O13  1  0.83618300  0.67236600  0.14637600  1
  O  O14  1  0.32763400  0.16381700  0.14637600  1
  O  O15  1  0.16381700  0.83618300  0.64637600  1
  O  O16  1  0.51887200  0.48112800  0.86621200  1
  O  O17  1  0.03774300  0.51887200  0.36621200  1
  O  O18  1  0.48112800  0.96225700  0.36621200  1
  O  O19  1  0.51887200  0.03774300  0.86621200  1
  O  O20  1  0.00000000  0.00000000  0.35098000  1
  O  O21  1  0.00000000  0.00000000  0.85098000  1
  O  O22  1  0.33333300  0.66666700  0.13134900  1
  O  O23  1  0.96225700  0.48112800  0.86621200  1
  O  O24  1  0.48112800  0.51887200  0.36621200  1
  O  O25  1  0.66666700  0.33333300  0.63134900  1
