# generated using pymatgen
data_V(PO3)5
_symmetry_space_group_name_H-M   'P 1'
_cell_length_a   12.47457187
_cell_length_b   9.69966800
_cell_length_c   5.22836234
_cell_angle_alpha   90.00000000
_cell_angle_beta   94.30513656
_cell_angle_gamma   90.00000000
_symmetry_Int_Tables_number   1
_chemical_formula_structural   V(PO3)5
_chemical_formula_sum   'V2 P10 O30'
_cell_volume   630.84267213
_cell_formula_units_Z   2
loop_
 _symmetry_equiv_pos_site_id
 _symmetry_equiv_pos_as_xyz
  1  'x, y, z'
loop_
 _atom_site_type_symbol
 _atom_site_label
 _atom_site_symmetry_multiplicity
 _atom_site_fract_x
 _atom_site_fract_y
 _atom_site_fract_z
 _atom_site_occupancy
  V  V0  1  0.49498600  0.99491400  0.50412300  1
  V  V1  1  0.99498600  0.00508600  0.00412300  1
  P  P2  1  0.08334500  0.18300000  0.50272900  1
  P  P3  1  0.14411000  0.47748200  0.61577100  1
  P  P4  1  0.24485300  0.01653500  0.25714900  1
  P  P5  1  0.36129000  0.47348300  0.88079900  1
  P  P6  1  0.40955900  0.17646800  0.00752200  1
  P  P7  1  0.58334500  0.81700000  0.00272900  1
  P  P8  1  0.64411000  0.52251800  0.11577100  1
  P  P9  1  0.74485300  0.98346500  0.75714900  1
  P  P10  1  0.86129000  0.52651700  0.38079900  1
  P  P11  1  0.90955900  0.82353200  0.50752200  1
  O  O12  1  0.00505900  0.13542300  0.28265300  1
  O  O13  1  0.05175100  0.14928100  0.76797400  1
  O  O14  1  0.06807100  0.51227300  0.81434400  1
  O  O15  1  0.10333500  0.33941600  0.45504000  1
  O  O16  1  0.16403200  0.59245000  0.43459300  1
  O  O17  1  0.14982000  0.94367500  0.12295300  1
  O  O18  1  0.20017700  0.11574300  0.47267200  1
  O  O19  1  0.25206300  0.40823500  0.74764700  1
  O  O20  1  0.29032200  0.12126700  0.05101000  1
  O  O21  1  0.33885100  0.93839200  0.38387300  1
  O  O22  1  0.34375600  0.59011900  0.06013500  1
  O  O23  1  0.39850000  0.33511900  0.04524600  1
  O  O24  1  0.43630700  0.13585700  0.74160800  1
  O  O25  1  0.43853200  0.50380700  0.68257900  1
  O  O26  1  0.48760700  0.12551500  0.22529000  1
  O  O27  1  0.50505900  0.86457700  0.78265300  1
  O  O28  1  0.55175100  0.85071900  0.26797400  1
  O  O29  1  0.56807100  0.48772700  0.31434400  1
  O  O30  1  0.60333500  0.66058400  0.95504000  1
  O  O31  1  0.66403200  0.40755000  0.93459300  1
  O  O32  1  0.64982000  0.05632500  0.62295300  1
  O  O33  1  0.70017700  0.88425700  0.97267200  1
  O  O34  1  0.75206300  0.59176500  0.24764700  1
  O  O35  1  0.79032200  0.87873300  0.55101000  1
  O  O36  1  0.83885100  0.06160800  0.88387300  1
  O  O37  1  0.84375600  0.40988100  0.56013500  1
  O  O38  1  0.89850000  0.66488100  0.54524600  1
  O  O39  1  0.93630700  0.86414300  0.24160800  1
  O  O40  1  0.93853200  0.49619300  0.18257900  1
  O  O41  1  0.98760700  0.87448500  0.72529000  1
