# generated using pymatgen
data_ZnSnBiO5
_symmetry_space_group_name_H-M   'P 1'
_cell_length_a   5.34773700
_cell_length_b   10.45267100
_cell_length_c   15.43610600
_cell_angle_alpha   90.00000000
_cell_angle_beta   90.00000000
_cell_angle_gamma   90.00000000
_symmetry_Int_Tables_number   1
_chemical_formula_structural   ZnSnBiO5
_chemical_formula_sum   'Zn8 Sn8 Bi8 O40'
_cell_volume   862.84954409
_cell_formula_units_Z   8
loop_
 _symmetry_equiv_pos_site_id
 _symmetry_equiv_pos_as_xyz
  1  'x, y, z'
loop_
 _atom_site_type_symbol
 _atom_site_label
 _atom_site_symmetry_multiplicity
 _atom_site_fract_x
 _atom_site_fract_y
 _atom_site_fract_z
 _atom_site_occupancy
  Zn  Zn0  1  0.53123900  0.39547000  0.56663000  1
  Zn  Zn1  1  0.03123900  0.10453000  0.56663000  1
  Zn  Zn2  1  0.03123900  0.60453000  0.93337000  1
  Zn  Zn3  1  0.96876100  0.39547000  0.06663000  1
  Zn  Zn4  1  0.46876100  0.10453000  0.06663000  1
  Zn  Zn5  1  0.96876100  0.89547000  0.43337000  1
  Zn  Zn6  1  0.46876100  0.60453000  0.43337000  1
  Zn  Zn7  1  0.53123900  0.89547000  0.93337000  1
  Sn  Sn8  1  0.04213300  0.37122900  0.43040900  1
  Sn  Sn9  1  0.45786700  0.87122900  0.56959100  1
  Sn  Sn10  1  0.95786700  0.62877100  0.56959100  1
  Sn  Sn11  1  0.54213300  0.12877100  0.43040900  1
  Sn  Sn12  1  0.95786700  0.12877100  0.93040900  1
  Sn  Sn13  1  0.04213300  0.87122900  0.06959100  1
  Sn  Sn14  1  0.45786700  0.37122900  0.93040900  1
  Sn  Sn15  1  0.54213300  0.62877100  0.06959100  1
  Bi  Bi16  1  0.03010700  0.85542900  0.75927000  1
  Bi  Bi17  1  0.96989300  0.14457100  0.24073000  1
  Bi  Bi18  1  0.46989300  0.35542900  0.24073000  1
  Bi  Bi19  1  0.96989300  0.64457100  0.25927000  1
  Bi  Bi20  1  0.53010700  0.14457100  0.74073000  1
  Bi  Bi21  1  0.53010700  0.64457100  0.75927000  1
  Bi  Bi22  1  0.46989300  0.85542900  0.25927000  1
  Bi  Bi23  1  0.03010700  0.35542900  0.74073000  1
  O  O24  1  0.80505200  0.30378600  0.32214800  1
  O  O25  1  0.23610000  0.01148200  0.97878200  1
  O  O26  1  0.26390000  0.51148200  0.02121800  1
  O  O27  1  0.36681200  0.80427600  0.83340400  1
  O  O28  1  0.13318800  0.30427600  0.16659600  1
  O  O29  1  0.80505200  0.80378600  0.17785200  1
  O  O30  1  0.13318800  0.80427600  0.33340400  1
  O  O31  1  0.69494800  0.80378600  0.67785200  1
  O  O32  1  0.23610000  0.51148200  0.52121800  1
  O  O33  1  0.19494800  0.69621400  0.67785200  1
  O  O34  1  0.69494800  0.30378600  0.82214800  1
  O  O35  1  0.85247900  0.22029300  0.48257800  1
  O  O36  1  0.73610000  0.98851800  0.52121800  1
  O  O37  1  0.63318800  0.69572400  0.33340400  1
  O  O38  1  0.22686300  0.99182800  0.15918900  1
  O  O39  1  0.73610000  0.48851800  0.97878200  1
  O  O40  1  0.19494800  0.19621400  0.82214800  1
  O  O41  1  0.86681200  0.19572400  0.66659600  1
  O  O42  1  0.35247900  0.77970700  0.01742200  1
  O  O43  1  0.26390000  0.01148200  0.47878200  1
  O  O44  1  0.14752100  0.77970700  0.51742200  1
  O  O45  1  0.77313700  0.00817200  0.84081100  1
  O  O46  1  0.63318800  0.19572400  0.16659600  1
  O  O47  1  0.72686300  0.00817200  0.34081100  1
  O  O48  1  0.14752100  0.27970700  0.98257800  1
  O  O49  1  0.35247900  0.27970700  0.48257800  1
  O  O50  1  0.76390000  0.48851800  0.47878200  1
  O  O51  1  0.76390000  0.98851800  0.02121800  1
  O  O52  1  0.72686300  0.50817200  0.15918900  1
  O  O53  1  0.64752100  0.72029300  0.51742200  1
  O  O54  1  0.64752100  0.22029300  0.98257800  1
  O  O55  1  0.85247900  0.72029300  0.01742200  1
  O  O56  1  0.77313700  0.50817200  0.65918900  1
  O  O57  1  0.86681200  0.69572400  0.83340400  1
  O  O58  1  0.36681200  0.30427600  0.66659600  1
  O  O59  1  0.22686300  0.49182800  0.34081100  1
  O  O60  1  0.27313700  0.49182800  0.84081100  1
  O  O61  1  0.30505200  0.19621400  0.32214800  1
  O  O62  1  0.27313700  0.99182800  0.65918900  1
  O  O63  1  0.30505200  0.69621400  0.17785200  1
