# generated using pymatgen
data_CoW2O7
_symmetry_space_group_name_H-M   'P 1'
_cell_length_a   16.10827300
_cell_length_b   7.06962500
_cell_length_c   12.01446279
_cell_angle_alpha   77.94352317
_cell_angle_beta   90.00000000
_cell_angle_gamma   90.00000000
_symmetry_Int_Tables_number   1
_chemical_formula_structural   CoW2O7
_chemical_formula_sum   'Co8 W16 O56'
_cell_volume   1338.02089802
_cell_formula_units_Z   8
loop_
 _symmetry_equiv_pos_site_id
 _symmetry_equiv_pos_as_xyz
  1  'x, y, z'
loop_
 _atom_site_type_symbol
 _atom_site_label
 _atom_site_symmetry_multiplicity
 _atom_site_fract_x
 _atom_site_fract_y
 _atom_site_fract_z
 _atom_site_occupancy
  Co  Co0  1  0.66988800  0.35590800  0.08103800  1
  Co  Co1  1  0.16988800  0.64409200  0.41896200  1
  Co  Co2  1  0.33011200  0.64409200  0.91896200  1
  Co  Co3  1  0.83011200  0.35590800  0.58103800  1
  Co  Co4  1  0.75509300  0.00330200  0.25026000  1
  Co  Co5  1  0.25509300  0.99669800  0.24974000  1
  Co  Co6  1  0.24490700  0.99669800  0.74974000  1
  Co  Co7  1  0.74490700  0.00330200  0.75026000  1
  W  W8  1  0.85514800  0.15338300  0.97723800  1
  W  W9  1  0.01087200  0.57942100  0.68046000  1
  W  W10  1  0.48912800  0.57942100  0.18046000  1
  W  W11  1  0.98912800  0.42057900  0.31954000  1
  W  W12  1  0.70497900  0.47634300  0.80730500  1
  W  W13  1  0.20497900  0.52365700  0.69269500  1
  W  W14  1  0.29502100  0.52365700  0.19269500  1
  W  W15  1  0.79502100  0.47634300  0.30730500  1
  W  W16  1  0.51087200  0.42057900  0.81954000  1
  W  W17  1  0.13420800  0.12068000  0.47934200  1
  W  W18  1  0.63420800  0.87932000  0.02065800  1
  W  W19  1  0.86579200  0.87932000  0.52065800  1
  W  W20  1  0.35514800  0.84661700  0.52276200  1
  W  W21  1  0.64485200  0.15338300  0.47723800  1
  W  W22  1  0.14485200  0.84661700  0.02276200  1
  W  W23  1  0.36579200  0.12068000  0.97934200  1
  O  O24  1  0.95696400  0.23848500  0.95605300  1
  O  O25  1  0.45696400  0.76151500  0.54394700  1
  O  O26  1  0.04303600  0.76151500  0.04394700  1
  O  O27  1  0.54303600  0.23848500  0.45605300  1
  O  O28  1  0.82886800  0.00494700  0.87685300  1
  O  O29  1  0.32886800  0.99505300  0.62314700  1
  O  O30  1  0.17113200  0.99505300  0.12314700  1
  O  O31  1  0.67113200  0.00494700  0.37685300  1
  O  O32  1  0.84000400  0.02784300  0.12376700  1
  O  O33  1  0.34000400  0.97215700  0.37623300  1
  O  O34  1  0.15999600  0.97215700  0.87623300  1
  O  O35  1  0.65999600  0.02784300  0.62376700  1
  O  O36  1  0.30400000  0.33436000  0.95098300  1
  O  O37  1  0.80400000  0.66564000  0.54901700  1
  O  O38  1  0.69600000  0.66564000  0.04901700  1
  O  O39  1  0.19600000  0.33436000  0.45098300  1
  O  O40  1  0.35178500  0.00637600  0.12567000  1
  O  O41  1  0.85178500  0.99362400  0.37433000  1
  O  O42  1  0.64821500  0.99362400  0.87433000  1
  O  O43  1  0.14821500  0.00637600  0.62567000  1
  O  O44  1  0.33471100  0.95046000  0.88979400  1
  O  O45  1  0.43785800  0.60413700  0.83552200  1
  O  O46  1  0.83471100  0.04954000  0.61020600  1
  O  O47  1  0.16528900  0.95046000  0.38979400  1
  O  O48  1  0.46891000  0.29309200  0.72426900  1
  O  O49  1  0.96891000  0.70690800  0.77573100  1
  O  O50  1  0.53109000  0.70690800  0.27573100  1
  O  O51  1  0.03109000  0.29309200  0.22426900  1
  O  O52  1  0.47453500  0.21766000  0.95531800  1
  O  O53  1  0.97453500  0.78234000  0.54468200  1
  O  O54  1  0.52546500  0.78234000  0.04468200  1
  O  O55  1  0.02546500  0.21766000  0.45531800  1
  O  O56  1  0.89670800  0.54120000  0.22376500  1
  O  O57  1  0.39670800  0.45880000  0.27623500  1
  O  O58  1  0.10329200  0.45880000  0.77623500  1
  O  O59  1  0.60329200  0.54120000  0.72376500  1
  O  O60  1  0.74920900  0.32250200  0.21810200  1
  O  O61  1  0.24920900  0.67749800  0.28189800  1
  O  O62  1  0.25079100  0.67749800  0.78189800  1
  O  O63  1  0.75079100  0.32250200  0.71810200  1
  O  O64  1  0.72733200  0.35834100  0.44496400  1
  O  O65  1  0.22733200  0.64165900  0.05503600  1
  O  O66  1  0.27266800  0.64165900  0.55503600  1
  O  O67  1  0.77266800  0.35834100  0.94496400  1
  O  O68  1  0.74888800  0.70767000  0.27988700  1
  O  O69  1  0.24888800  0.29233000  0.22011300  1
  O  O70  1  0.25111200  0.29233000  0.72011300  1
  O  O71  1  0.75111200  0.70767000  0.77988700  1
  O  O72  1  0.88345200  0.39912300  0.42396700  1
  O  O73  1  0.38345200  0.60087700  0.07603300  1
  O  O74  1  0.11654800  0.60087700  0.57603300  1
  O  O75  1  0.61654800  0.39912300  0.92396700  1
  O  O76  1  0.06214200  0.60413700  0.33552200  1
  O  O77  1  0.56214200  0.39586300  0.16447800  1
  O  O78  1  0.93785800  0.39586300  0.66447800  1
  O  O79  1  0.66528900  0.04954000  0.11020600  1
