# generated using pymatgen
data_TlInO2
_symmetry_space_group_name_H-M   'P 1'
_cell_length_a   6.81024769
_cell_length_b   6.81024769
_cell_length_c   6.81024732
_cell_angle_alpha   28.76352281
_cell_angle_beta   28.76352281
_cell_angle_gamma   28.76352473
_symmetry_Int_Tables_number   1
_chemical_formula_structural   TlInO2
_chemical_formula_sum   'Tl1 In1 O2'
_cell_volume   64.66635010
_cell_formula_units_Z   1
loop_
 _symmetry_equiv_pos_site_id
 _symmetry_equiv_pos_as_xyz
  1  'x, y, z'
loop_
 _atom_site_type_symbol
 _atom_site_label
 _atom_site_symmetry_multiplicity
 _atom_site_fract_x
 _atom_site_fract_y
 _atom_site_fract_z
 _atom_site_occupancy
  Tl  Tl0  1  0.00000000  0.00000000  0.00000000  1
  In  In1  1  0.50000000  0.50000000  0.50000000  1
  O  O2  1  0.22394000  0.22394000  0.22394000  1
  O  O3  1  0.77606000  0.77606000  0.77606000  1
