# generated using pymatgen
data_MgTiAs2O7
_symmetry_space_group_name_H-M   'P 1'
_cell_length_a   8.56644300
_cell_length_b   8.36142200
_cell_length_c   10.89391816
_cell_angle_alpha   55.25699020
_cell_angle_beta   90.00000000
_cell_angle_gamma   90.00000000
_symmetry_Int_Tables_number   1
_chemical_formula_structural   MgTiAs2O7
_chemical_formula_sum   'Mg4 Ti4 As8 O28'
_cell_volume   641.19004894
_cell_formula_units_Z   4
loop_
 _symmetry_equiv_pos_site_id
 _symmetry_equiv_pos_as_xyz
  1  'x, y, z'
loop_
 _atom_site_type_symbol
 _atom_site_label
 _atom_site_symmetry_multiplicity
 _atom_site_fract_x
 _atom_site_fract_y
 _atom_site_fract_z
 _atom_site_occupancy
  Mg  Mg0  1  0.11726900  0.67031700  0.87755500  1
  Mg  Mg1  1  0.61726900  0.32968300  0.62244500  1
  Mg  Mg2  1  0.88273100  0.32968300  0.12244500  1
  Mg  Mg3  1  0.38273100  0.67031700  0.37755500  1
  Ti  Ti4  1  0.97256300  0.15395400  0.71303600  1
  Ti  Ti5  1  0.47256300  0.84604600  0.78696400  1
  Ti  Ti6  1  0.02743700  0.84604600  0.28696400  1
  Ti  Ti7  1  0.52743700  0.15395400  0.21303600  1
  As  As8  1  0.77359500  0.56171800  0.76497200  1
  As  As9  1  0.27359500  0.43828200  0.73502800  1
  As  As10  1  0.22640500  0.43828200  0.23502800  1
  As  As11  1  0.72640500  0.56171800  0.26497200  1
  As  As12  1  0.69620200  0.99058300  0.96552900  1
  As  As13  1  0.19620200  0.00941700  0.53447100  1
  As  As14  1  0.30379800  0.00941700  0.03447100  1
  As  As15  1  0.80379800  0.99058300  0.46552900  1
  O  O16  1  0.67461400  0.25391600  0.08467200  1
  O  O17  1  0.17461400  0.74608400  0.41532800  1
  O  O18  1  0.32538600  0.74608400  0.91532800  1
  O  O19  1  0.82538600  0.25391600  0.58467200  1
  O  O20  1  0.61244200  0.67423700  0.77784500  1
  O  O21  1  0.11244200  0.32576300  0.72215500  1
  O  O22  1  0.38755800  0.32576300  0.22215500  1
  O  O23  1  0.88755800  0.67423700  0.27784500  1
  O  O24  1  0.91136300  0.52941000  0.89191600  1
  O  O25  1  0.41136300  0.47059000  0.60808400  1
  O  O26  1  0.08863700  0.47059000  0.10808400  1
  O  O27  1  0.58863700  0.52941000  0.39191600  1
  O  O28  1  0.84688500  0.71972100  0.58235300  1
  O  O29  1  0.34688500  0.28027900  0.91764700  1
  O  O30  1  0.15311500  0.28027900  0.41764700  1
  O  O31  1  0.65311500  0.71972100  0.08235300  1
  O  O32  1  0.92059300  0.03215900  0.30799400  1
  O  O33  1  0.42059300  0.96784100  0.19200600  1
  O  O34  1  0.07940700  0.96784100  0.69200600  1
  O  O35  1  0.57940700  0.03215900  0.80799400  1
  O  O36  1  0.76733400  0.35958400  0.27114000  1
  O  O37  1  0.26733400  0.64041600  0.22886000  1
  O  O38  1  0.23266600  0.64041600  0.72886000  1
  O  O39  1  0.73266600  0.35958400  0.77114000  1
  O  O40  1  0.61713100  0.97624500  0.39665700  1
  O  O41  1  0.11713100  0.02375500  0.10334300  1
  O  O42  1  0.38286900  0.02375500  0.60334300  1
  O  O43  1  0.88286900  0.97624500  0.89665700  1
