# generated using pymatgen
data_MgCoMo2O7
_symmetry_space_group_name_H-M   'P 1'
_cell_length_a   15.51196900
_cell_length_b   6.97452300
_cell_length_c   11.50789348
_cell_angle_alpha   75.78024844
_cell_angle_beta   90.00000000
_cell_angle_gamma   90.00000000
_symmetry_Int_Tables_number   1
_chemical_formula_structural   MgCoMo2O7
_chemical_formula_sum   'Mg8 Co8 Mo16 O56'
_cell_volume   1206.87611741
_cell_formula_units_Z   8
loop_
 _symmetry_equiv_pos_site_id
 _symmetry_equiv_pos_as_xyz
  1  'x, y, z'
loop_
 _atom_site_type_symbol
 _atom_site_label
 _atom_site_symmetry_multiplicity
 _atom_site_fract_x
 _atom_site_fract_y
 _atom_site_fract_z
 _atom_site_occupancy
  Mg  Mg0  1  0.53003500  0.97358900  0.74723900  1
  Mg  Mg1  1  0.86141800  0.69240700  0.97500600  1
  Mg  Mg2  1  0.36141800  0.30759300  0.52499400  1
  Mg  Mg3  1  0.13858200  0.30759300  0.02499400  1
  Mg  Mg4  1  0.63858200  0.69240700  0.47500600  1
  Mg  Mg5  1  0.96996500  0.97358900  0.24723900  1
  Mg  Mg6  1  0.46996500  0.02641100  0.25276100  1
  Mg  Mg7  1  0.03003500  0.02641100  0.75276100  1
  Co  Co8  1  0.62462100  0.32978300  0.09138200  1
  Co  Co9  1  0.12462100  0.67021700  0.40861800  1
  Co  Co10  1  0.37537900  0.67021700  0.90861800  1
  Co  Co11  1  0.87537900  0.32978300  0.59138200  1
  Co  Co12  1  0.75012000  0.02447400  0.24351300  1
  Co  Co13  1  0.25012000  0.97552600  0.25648700  1
  Co  Co14  1  0.24988000  0.97552600  0.75648700  1
  Co  Co15  1  0.74988000  0.02447400  0.74351300  1
  Mo  Mo16  1  0.89452500  0.17800100  0.98068900  1
  Mo  Mo17  1  0.03373800  0.54759700  0.70864700  1
  Mo  Mo18  1  0.46626200  0.54759700  0.20864700  1
  Mo  Mo19  1  0.96626200  0.45240300  0.29135300  1
  Mo  Mo20  1  0.73087400  0.50527200  0.78736400  1
  Mo  Mo21  1  0.23087400  0.49472800  0.71263600  1
  Mo  Mo22  1  0.26912600  0.49472800  0.21263600  1
  Mo  Mo23  1  0.76912600  0.50527200  0.28736400  1
  Mo  Mo24  1  0.53373800  0.45240300  0.79135300  1
  Mo  Mo25  1  0.14290700  0.14884000  0.48034800  1
  Mo  Mo26  1  0.64290700  0.85116000  0.01965200  1
  Mo  Mo27  1  0.85709300  0.85116000  0.51965200  1
  Mo  Mo28  1  0.39452500  0.82199900  0.51931100  1
  Mo  Mo29  1  0.60547500  0.17800100  0.48068900  1
  Mo  Mo30  1  0.10547500  0.82199900  0.01931100  1
  Mo  Mo31  1  0.35709300  0.14884000  0.98034800  1
  O  O32  1  0.00780100  0.21969600  0.97816700  1
  O  O33  1  0.50780100  0.78030400  0.52183300  1
  O  O34  1  0.99219900  0.78030400  0.02183300  1
  O  O35  1  0.49219900  0.21969600  0.47816700  1
  O  O36  1  0.86215200  0.01077100  0.89290700  1
  O  O37  1  0.36215200  0.98922900  0.60709300  1
  O  O38  1  0.13784800  0.98922900  0.10709300  1
  O  O39  1  0.63784800  0.01077100  0.39290700  1
  O  O40  1  0.86379500  0.04702200  0.13156300  1
  O  O41  1  0.36379500  0.95297800  0.36843700  1
  O  O42  1  0.13620500  0.95297800  0.86843700  1
  O  O43  1  0.63620500  0.04702200  0.63156300  1
  O  O44  1  0.26205100  0.29173100  0.95840400  1
  O  O45  1  0.76205100  0.70826900  0.54159600  1
  O  O46  1  0.73794900  0.70826900  0.04159600  1
  O  O47  1  0.23794900  0.29173100  0.45840400  1
  O  O48  1  0.36666500  0.02388800  0.13780400  1
  O  O49  1  0.86666500  0.97611200  0.36219600  1
  O  O50  1  0.63333500  0.97611200  0.86219600  1
  O  O51  1  0.13333500  0.02388800  0.63780400  1
  O  O52  1  0.34844900  0.96050600  0.89789700  1
  O  O53  1  0.47591200  0.70596200  0.80077300  1
  O  O54  1  0.84844900  0.03949400  0.60210300  1
  O  O55  1  0.15155100  0.96050600  0.39789700  1
  O  O56  1  0.49217500  0.24832400  0.72426800  1
  O  O57  1  0.99217500  0.75167600  0.77573200  1
  O  O58  1  0.50782500  0.75167600  0.27573200  1
  O  O59  1  0.00782500  0.24832400  0.22426800  1
  O  O60  1  0.44708900  0.31435600  0.94021500  1
  O  O61  1  0.94708900  0.68564400  0.55978500  1
  O  O62  1  0.55291100  0.68564400  0.05978500  1
  O  O63  1  0.05291100  0.31435600  0.44021500  1
  O  O64  1  0.87201900  0.57464400  0.17365500  1
  O  O65  1  0.37201900  0.42535600  0.32634500  1
  O  O66  1  0.12798100  0.42535600  0.82634500  1
  O  O67  1  0.62798100  0.57464400  0.67365500  1
  O  O68  1  0.72066800  0.30978300  0.20579000  1
  O  O69  1  0.22066800  0.69021700  0.29421000  1
  O  O70  1  0.27933200  0.69021700  0.79421000  1
  O  O71  1  0.77933200  0.30978300  0.70579000  1
  O  O72  1  0.66251700  0.41233300  0.43596300  1
  O  O73  1  0.16251700  0.58766700  0.06403700  1
  O  O74  1  0.33748300  0.58766700  0.56403700  1
  O  O75  1  0.83748300  0.41233300  0.93596300  1
  O  O76  1  0.71618800  0.74582200  0.29993500  1
  O  O77  1  0.21618800  0.25417800  0.20006500  1
  O  O78  1  0.28381200  0.25417800  0.70006500  1
  O  O79  1  0.78381200  0.74582200  0.79993500  1
  O  O80  1  0.86528200  0.41792000  0.40837800  1
  O  O81  1  0.36528200  0.58208000  0.09162200  1
  O  O82  1  0.13471800  0.58208000  0.59162200  1
  O  O83  1  0.63471800  0.41792000  0.90837800  1
  O  O84  1  0.02408800  0.70596200  0.30077300  1
  O  O85  1  0.52408800  0.29403800  0.19922700  1
  O  O86  1  0.97591200  0.29403800  0.69922700  1
  O  O87  1  0.65155100  0.03949400  0.10210300  1
