# generated using pymatgen
data_CaCrBiO5
_symmetry_space_group_name_H-M   'P 1'
_cell_length_a   5.53877100
_cell_length_b   11.40503000
_cell_length_c   15.59634800
_cell_angle_alpha   90.00000000
_cell_angle_beta   90.00000000
_cell_angle_gamma   90.00000000
_symmetry_Int_Tables_number   1
_chemical_formula_structural   CaCrBiO5
_chemical_formula_sum   'Ca8 Cr8 Bi8 O40'
_cell_volume   985.21895463
_cell_formula_units_Z   8
loop_
 _symmetry_equiv_pos_site_id
 _symmetry_equiv_pos_as_xyz
  1  'x, y, z'
loop_
 _atom_site_type_symbol
 _atom_site_label
 _atom_site_symmetry_multiplicity
 _atom_site_fract_x
 _atom_site_fract_y
 _atom_site_fract_z
 _atom_site_occupancy
  Ca  Ca0  1  0.50341200  0.35895300  0.44806000  1
  Ca  Ca1  1  0.00341200  0.14104700  0.44806000  1
  Ca  Ca2  1  0.00341200  0.64104700  0.05194000  1
  Ca  Ca3  1  0.99658800  0.35895300  0.94806000  1
  Ca  Ca4  1  0.49658800  0.14104700  0.94806000  1
  Ca  Ca5  1  0.99658800  0.85895300  0.55194000  1
  Ca  Ca6  1  0.49658800  0.64104700  0.55194000  1
  Ca  Ca7  1  0.50341200  0.85895300  0.05194000  1
  Cr  Cr8  1  0.98322200  0.40519300  0.59706400  1
  Cr  Cr9  1  0.51677800  0.90519300  0.40293600  1
  Cr  Cr10  1  0.01677800  0.59480700  0.40293600  1
  Cr  Cr11  1  0.48322200  0.09480700  0.59706400  1
  Cr  Cr12  1  0.01677800  0.09480700  0.09706400  1
  Cr  Cr13  1  0.98322200  0.90519300  0.90293600  1
  Cr  Cr14  1  0.51677800  0.40519300  0.09706400  1
  Cr  Cr15  1  0.48322200  0.59480700  0.90293600  1
  Bi  Bi16  1  0.95064600  0.84489000  0.23294100  1
  Bi  Bi17  1  0.04935400  0.15511000  0.76705900  1
  Bi  Bi18  1  0.54935400  0.34489000  0.76705900  1
  Bi  Bi19  1  0.04935400  0.65511000  0.73294100  1
  Bi  Bi20  1  0.45064600  0.15511000  0.26705900  1
  Bi  Bi21  1  0.45064600  0.65511000  0.23294100  1
  Bi  Bi22  1  0.54935400  0.84489000  0.73294100  1
  Bi  Bi23  1  0.95064600  0.34489000  0.26705900  1
  O  O24  1  0.93968900  0.32855200  0.69476300  1
  O  O25  1  0.29463200  0.04363800  0.06636300  1
  O  O26  1  0.20536800  0.54363800  0.93363700  1
  O  O27  1  0.23880300  0.76653300  0.15163000  1
  O  O28  1  0.26119700  0.26653300  0.84837000  1
  O  O29  1  0.93968900  0.82855200  0.80523700  1
  O  O30  1  0.26119700  0.76653300  0.65163000  1
  O  O31  1  0.56031100  0.82855200  0.30523700  1
  O  O32  1  0.29463200  0.54363800  0.43363700  1
  O  O33  1  0.06031100  0.67144800  0.30523700  1
  O  O34  1  0.56031100  0.32855200  0.19476300  1
  O  O35  1  0.62372400  0.18544800  0.52708300  1
  O  O36  1  0.79463200  0.95636200  0.43363700  1
  O  O37  1  0.76119700  0.73346700  0.65163000  1
  O  O38  1  0.16463700  0.02517800  0.87514700  1
  O  O39  1  0.79463200  0.45636200  0.06636300  1
  O  O40  1  0.06031100  0.17144800  0.19476300  1
  O  O41  1  0.73880300  0.23346700  0.34837000  1
  O  O42  1  0.12372400  0.81455200  0.97291700  1
  O  O43  1  0.20536800  0.04363800  0.56636300  1
  O  O44  1  0.37627600  0.81455200  0.47291700  1
  O  O45  1  0.83536300  0.97482200  0.12485300  1
  O  O46  1  0.76119700  0.23346700  0.84837000  1
  O  O47  1  0.66463700  0.97482200  0.62485300  1
  O  O48  1  0.37627600  0.31455200  0.02708300  1
  O  O49  1  0.12372400  0.31455200  0.52708300  1
  O  O50  1  0.70536800  0.45636200  0.56636300  1
  O  O51  1  0.70536800  0.95636200  0.93363700  1
  O  O52  1  0.66463700  0.47482200  0.87514700  1
  O  O53  1  0.87627600  0.68544800  0.47291700  1
  O  O54  1  0.87627600  0.18544800  0.02708300  1
  O  O55  1  0.62372400  0.68544800  0.97291700  1
  O  O56  1  0.83536300  0.47482200  0.37514700  1
  O  O57  1  0.73880300  0.73346700  0.15163000  1
  O  O58  1  0.23880300  0.26653300  0.34837000  1
  O  O59  1  0.16463700  0.52517800  0.62485300  1
  O  O60  1  0.33536300  0.52517800  0.12485300  1
  O  O61  1  0.43968900  0.17144800  0.69476300  1
  O  O62  1  0.33536300  0.02517800  0.37514700  1
  O  O63  1  0.43968900  0.67144800  0.80523700  1
