# generated using pymatgen
data_ZnCo3O7
_symmetry_space_group_name_H-M   'P 1'
_cell_length_a   13.69279000
_cell_length_b   6.54245000
_cell_length_c   11.57323970
_cell_angle_alpha   76.51739741
_cell_angle_beta   90.00000000
_cell_angle_gamma   90.00000000
_symmetry_Int_Tables_number   1
_chemical_formula_structural   ZnCo3O7
_chemical_formula_sum   'Zn8 Co24 O56'
_cell_volume   1008.20874882
_cell_formula_units_Z   8
loop_
 _symmetry_equiv_pos_site_id
 _symmetry_equiv_pos_as_xyz
  1  'x, y, z'
loop_
 _atom_site_type_symbol
 _atom_site_label
 _atom_site_symmetry_multiplicity
 _atom_site_fract_x
 _atom_site_fract_y
 _atom_site_fract_z
 _atom_site_occupancy
  Zn  Zn0  1  0.51031800  0.92329000  0.76425800  1
  Zn  Zn1  1  0.88471800  0.68673100  0.92512200  1
  Zn  Zn2  1  0.38471800  0.31326900  0.57487800  1
  Zn  Zn3  1  0.11528200  0.31326900  0.07487800  1
  Zn  Zn4  1  0.61528200  0.68673100  0.42512200  1
  Zn  Zn5  1  0.98968200  0.92329000  0.26425800  1
  Zn  Zn6  1  0.48968200  0.07671000  0.23574200  1
  Zn  Zn7  1  0.01031800  0.07671000  0.73574200  1
  Co  Co8  1  0.88797100  0.16894400  0.99163800  1
  Co  Co9  1  0.01321600  0.59269600  0.67859000  1
  Co  Co10  1  0.48678400  0.59269600  0.17859000  1
  Co  Co11  1  0.98678400  0.40730400  0.32141000  1
  Co  Co12  1  0.70687800  0.49988200  0.79620800  1
  Co  Co13  1  0.20687800  0.50011800  0.70379200  1
  Co  Co14  1  0.29312200  0.50011800  0.20379200  1
  Co  Co15  1  0.79312200  0.49988200  0.29620800  1
  Co  Co16  1  0.51321600  0.40730400  0.82141000  1
  Co  Co17  1  0.14525000  0.11984900  0.48263200  1
  Co  Co18  1  0.64525000  0.88015100  0.01736800  1
  Co  Co19  1  0.85475000  0.88015100  0.51736800  1
  Co  Co20  1  0.38797100  0.83105600  0.50836200  1
  Co  Co21  1  0.61202900  0.16894400  0.49163800  1
  Co  Co22  1  0.11202900  0.83105600  0.00836200  1
  Co  Co23  1  0.35475000  0.11984900  0.98263200  1
  Co  Co24  1  0.67870800  0.36883000  0.07676700  1
  Co  Co25  1  0.17870800  0.63117000  0.42323300  1
  Co  Co26  1  0.32129200  0.63117000  0.92323300  1
  Co  Co27  1  0.82129200  0.36883000  0.57676700  1
  Co  Co28  1  0.76373900  0.00629000  0.24468000  1
  Co  Co29  1  0.26373900  0.99371000  0.25532000  1
  Co  Co30  1  0.23626100  0.99371000  0.75532000  1
  Co  Co31  1  0.73626100  0.00629000  0.74468000  1
  O  O32  1  0.00290200  0.27879400  0.97236100  1
  O  O33  1  0.50290200  0.72120600  0.52763900  1
  O  O34  1  0.99709800  0.72120600  0.02763900  1
  O  O35  1  0.49709800  0.27879400  0.47236100  1
  O  O36  1  0.85420100  0.00711900  0.89466900  1
  O  O37  1  0.35420100  0.99288100  0.60533100  1
  O  O38  1  0.14579900  0.99288100  0.10533100  1
  O  O39  1  0.64579900  0.00711900  0.39466900  1
  O  O40  1  0.87718800  0.00965600  0.14118400  1
  O  O41  1  0.37718800  0.99034400  0.35881600  1
  O  O42  1  0.12281200  0.99034400  0.85881600  1
  O  O43  1  0.62281200  0.00965600  0.64118400  1
  O  O44  1  0.28695500  0.34831100  0.94004700  1
  O  O45  1  0.78695500  0.65168900  0.55995300  1
  O  O46  1  0.71304500  0.65168900  0.05995300  1
  O  O47  1  0.21304500  0.34831100  0.44004700  1
  O  O48  1  0.36495300  0.02056000  0.13971500  1
  O  O49  1  0.86495300  0.97944000  0.36028500  1
  O  O50  1  0.63504700  0.97944000  0.86028500  1
  O  O51  1  0.13504700  0.02056000  0.63971500  1
  O  O52  1  0.33050000  0.93182100  0.89008100  1
  O  O53  1  0.44061000  0.64855000  0.83572500  1
  O  O54  1  0.83050000  0.06817900  0.60991900  1
  O  O55  1  0.16950000  0.93182100  0.39008100  1
  O  O56  1  0.47967400  0.24878800  0.72666900  1
  O  O57  1  0.97967400  0.75121200  0.77333100  1
  O  O58  1  0.52032600  0.75121200  0.27333100  1
  O  O59  1  0.02032600  0.24878800  0.22666900  1
  O  O60  1  0.47138400  0.21613900  0.95190100  1
  O  O61  1  0.97138400  0.78386100  0.54809900  1
  O  O62  1  0.52861600  0.78386100  0.04809900  1
  O  O63  1  0.02861600  0.21613900  0.45190100  1
  O  O64  1  0.90706500  0.59175600  0.21898600  1
  O  O65  1  0.40706500  0.40824400  0.28101400  1
  O  O66  1  0.09293500  0.40824400  0.78101400  1
  O  O67  1  0.59293500  0.59175600  0.71898600  1
  O  O68  1  0.75053700  0.30298800  0.21872700  1
  O  O69  1  0.25053700  0.69701200  0.28127300  1
  O  O70  1  0.24946300  0.69701200  0.78127300  1
  O  O71  1  0.74946300  0.30298800  0.71872700  1
  O  O72  1  0.69044800  0.40052000  0.46941300  1
  O  O73  1  0.19044800  0.59948000  0.03058700  1
  O  O74  1  0.30955200  0.59948000  0.53058700  1
  O  O75  1  0.80955200  0.40052000  0.96941300  1
  O  O76  1  0.72215300  0.73598700  0.29308400  1
  O  O77  1  0.22215300  0.26401300  0.20691600  1
  O  O78  1  0.27784700  0.26401300  0.70691600  1
  O  O79  1  0.77784700  0.73598700  0.79308400  1
  O  O80  1  0.87538800  0.41673000  0.42495800  1
  O  O81  1  0.37538800  0.58327000  0.07504200  1
  O  O82  1  0.12461200  0.58327000  0.57504200  1
  O  O83  1  0.62461200  0.41673000  0.92495800  1
  O  O84  1  0.05939000  0.64855000  0.33572500  1
  O  O85  1  0.55939000  0.35145000  0.16427500  1
  O  O86  1  0.94061000  0.35145000  0.66427500  1
  O  O87  1  0.66950000  0.06817900  0.10991900  1
