# generated using pymatgen
data_MgVBiO5
_symmetry_space_group_name_H-M   'P 1'
_cell_length_a   5.27936600
_cell_length_b   10.71072600
_cell_length_c   15.60387000
_cell_angle_alpha   90.00000000
_cell_angle_beta   90.00000000
_cell_angle_gamma   90.00000000
_symmetry_Int_Tables_number   1
_chemical_formula_structural   MgVBiO5
_chemical_formula_sum   'Mg8 V8 Bi8 O40'
_cell_volume   882.33397821
_cell_formula_units_Z   8
loop_
 _symmetry_equiv_pos_site_id
 _symmetry_equiv_pos_as_xyz
  1  'x, y, z'
loop_
 _atom_site_type_symbol
 _atom_site_label
 _atom_site_symmetry_multiplicity
 _atom_site_fract_x
 _atom_site_fract_y
 _atom_site_fract_z
 _atom_site_occupancy
  Mg  Mg0  1  0.49382400  0.36268900  0.54640500  1
  Mg  Mg1  1  0.99382400  0.13731100  0.54640500  1
  Mg  Mg2  1  0.99382400  0.63731100  0.95359500  1
  Mg  Mg3  1  0.00617600  0.36268900  0.04640500  1
  Mg  Mg4  1  0.50617600  0.13731100  0.04640500  1
  Mg  Mg5  1  0.00617600  0.86268900  0.45359500  1
  Mg  Mg6  1  0.50617600  0.63731100  0.45359500  1
  Mg  Mg7  1  0.49382400  0.86268900  0.95359500  1
  V  V8  1  0.98535000  0.39885600  0.40810600  1
  V  V9  1  0.51465000  0.89885600  0.59189400  1
  V  V10  1  0.01465000  0.60114400  0.59189400  1
  V  V11  1  0.48535000  0.10114400  0.40810600  1
  V  V12  1  0.01465000  0.10114400  0.90810600  1
  V  V13  1  0.98535000  0.89885600  0.09189400  1
  V  V14  1  0.51465000  0.39885600  0.90810600  1
  V  V15  1  0.48535000  0.60114400  0.09189400  1
  Bi  Bi16  1  0.97793600  0.85359300  0.77409600  1
  Bi  Bi17  1  0.02206400  0.14640700  0.22590400  1
  Bi  Bi18  1  0.52206400  0.35359300  0.22590400  1
  Bi  Bi19  1  0.02206400  0.64640700  0.27409600  1
  Bi  Bi20  1  0.47793600  0.14640700  0.72590400  1
  Bi  Bi21  1  0.47793600  0.64640700  0.77409600  1
  Bi  Bi22  1  0.52206400  0.85359300  0.27409600  1
  Bi  Bi23  1  0.97793600  0.35359300  0.72590400  1
  O  O24  1  0.92677300  0.32810700  0.30702500  1
  O  O25  1  0.30312600  0.04222500  0.94393700  1
  O  O26  1  0.19687400  0.54222500  0.05606300  1
  O  O27  1  0.29467700  0.78416500  0.85100900  1
  O  O28  1  0.20532300  0.28416500  0.14899100  1
  O  O29  1  0.92677300  0.82810700  0.19297500  1
  O  O30  1  0.20532300  0.78416500  0.35100900  1
  O  O31  1  0.57322700  0.82810700  0.69297500  1
  O  O32  1  0.30312600  0.54222500  0.55606300  1
  O  O33  1  0.07322700  0.67189300  0.69297500  1
  O  O34  1  0.57322700  0.32810700  0.80702500  1
  O  O35  1  0.63791300  0.19781600  0.47976000  1
  O  O36  1  0.80312600  0.95777500  0.55606300  1
  O  O37  1  0.70532300  0.71583500  0.35100900  1
  O  O38  1  0.18824000  0.02497700  0.11755800  1
  O  O39  1  0.80312600  0.45777500  0.94393700  1
  O  O40  1  0.07322700  0.17189300  0.80702500  1
  O  O41  1  0.79467700  0.21583500  0.64899100  1
  O  O42  1  0.13791300  0.80218400  0.02024000  1
  O  O43  1  0.19687400  0.04222500  0.44393700  1
  O  O44  1  0.36208700  0.80218400  0.52024000  1
  O  O45  1  0.81176000  0.97502300  0.88244200  1
  O  O46  1  0.70532300  0.21583500  0.14899100  1
  O  O47  1  0.68824000  0.97502300  0.38244200  1
  O  O48  1  0.36208700  0.30218400  0.97976000  1
  O  O49  1  0.13791300  0.30218400  0.47976000  1
  O  O50  1  0.69687400  0.45777500  0.44393700  1
  O  O51  1  0.69687400  0.95777500  0.05606300  1
  O  O52  1  0.68824000  0.47502300  0.11755800  1
  O  O53  1  0.86208700  0.69781600  0.52024000  1
  O  O54  1  0.86208700  0.19781600  0.97976000  1
  O  O55  1  0.63791300  0.69781600  0.02024000  1
  O  O56  1  0.81176000  0.47502300  0.61755800  1
  O  O57  1  0.79467700  0.71583500  0.85100900  1
  O  O58  1  0.29467700  0.28416500  0.64899100  1
  O  O59  1  0.18824000  0.52497700  0.38244200  1
  O  O60  1  0.31176000  0.52497700  0.88244200  1
  O  O61  1  0.42677300  0.17189300  0.30702500  1
  O  O62  1  0.31176000  0.02497700  0.61755800  1
  O  O63  1  0.42677300  0.67189300  0.19297500  1
