# generated using pymatgen
data_Mg3Cr6(FeO6)4
_symmetry_space_group_name_H-M   'P 1'
_cell_length_a   6.69328991
_cell_length_b   8.15055763
_cell_length_c   9.82946339
_cell_angle_alpha   104.80703253
_cell_angle_beta   105.89604363
_cell_angle_gamma   102.07778496
_symmetry_Int_Tables_number   1
_chemical_formula_structural   Mg3Cr6(FeO6)4
_chemical_formula_sum   'Mg3 Cr6 Fe4 O24'
_cell_volume   475.58992520
_cell_formula_units_Z   1
loop_
 _symmetry_equiv_pos_site_id
 _symmetry_equiv_pos_as_xyz
  1  'x, y, z'
loop_
 _atom_site_type_symbol
 _atom_site_label
 _atom_site_symmetry_multiplicity
 _atom_site_fract_x
 _atom_site_fract_y
 _atom_site_fract_z
 _atom_site_occupancy
  Mg  Mg0  1  0.00000000  0.50000000  0.50000000  1
  Mg  Mg1  1  0.27829100  0.29056500  0.79101700  1
  Mg  Mg2  1  0.72170900  0.70943500  0.20898300  1
  Cr  Cr3  1  0.77767100  0.34386500  0.72811300  1
  Cr  Cr4  1  0.22232900  0.65613500  0.27188700  1
  Cr  Cr5  1  0.89814500  0.90257000  0.66822700  1
  Cr  Cr6  1  0.39798800  0.72615600  0.86949900  1
  Cr  Cr7  1  0.10185500  0.09743000  0.33177300  1
  Cr  Cr8  1  0.60201200  0.27384400  0.13050100  1
  Fe  Fe9  1  0.37940500  0.95499900  0.60799200  1
  Fe  Fe10  1  0.62059500  0.04500100  0.39200800  1
  Fe  Fe11  1  0.04507500  0.21158300  0.01616100  1
  Fe  Fe12  1  0.95492500  0.78841700  0.98383900  1
  O  O13  1  0.87497700  0.69311800  0.58280200  1
  O  O14  1  0.12502300  0.30688200  0.41719800  1
  O  O15  1  0.26625500  0.51603700  0.74160400  1
  O  O16  1  0.73374500  0.48396300  0.25839600  1
  O  O17  1  0.78374900  0.30126200  0.54537300  1
  O  O18  1  0.21625100  0.69873800  0.45462700  1
  O  O19  1  0.66878400  0.96007900  0.57608200  1
  O  O20  1  0.33121600  0.03992100  0.42391800  1
  O  O21  1  0.64505100  0.73783900  0.99931300  1
  O  O22  1  0.35494900  0.26216100  0.00068700  1
  O  O23  1  0.47341700  0.77123800  0.27275400  1
  O  O24  1  0.52658300  0.22876200  0.72724600  1
  O  O25  1  0.13150700  0.03117900  0.65405100  1
  O  O26  1  0.07144100  0.05038300  0.14293300  1
  O  O27  1  0.92855900  0.94961700  0.85706700  1
  O  O28  1  0.55723500  0.13349800  0.22621300  1
  O  O29  1  0.44276500  0.86650200  0.77378700  1
  O  O30  1  0.17888300  0.44177000  0.18398400  1
  O  O31  1  0.82111700  0.55823000  0.81601600  1
  O  O32  1  0.98860700  0.28295400  0.83304100  1
  O  O33  1  0.01139300  0.71704600  0.16695900  1
  O  O34  1  0.23619500  0.78213900  0.96656000  1
  O  O35  1  0.76380500  0.21786100  0.03344000  1
  O  O36  1  0.86849300  0.96882100  0.34594900  1
