# generated using pymatgen
data_YTi(WO4)2
_symmetry_space_group_name_H-M   'P 1'
_cell_length_a   5.34938400
_cell_length_b   5.82098366
_cell_length_c   9.72529767
_cell_angle_alpha   88.92068508
_cell_angle_beta   87.31734729
_cell_angle_gamma   89.45362803
_symmetry_Int_Tables_number   1
_chemical_formula_structural   YTi(WO4)2
_chemical_formula_sum   'Y2 Ti2 W4 O16'
_cell_volume   302.43599898
_cell_formula_units_Z   2
loop_
 _symmetry_equiv_pos_site_id
 _symmetry_equiv_pos_as_xyz
  1  'x, y, z'
loop_
 _atom_site_type_symbol
 _atom_site_label
 _atom_site_symmetry_multiplicity
 _atom_site_fract_x
 _atom_site_fract_y
 _atom_site_fract_z
 _atom_site_occupancy
  Y  Y0  1  0.25598100  0.34115800  0.74311700  1
  Y  Y1  1  0.74401900  0.65884200  0.25688300  1
  Ti  Ti2  1  0.77034700  0.67523900  0.76951000  1
  Ti  Ti3  1  0.22965300  0.32476100  0.23049000  1
  W  W4  1  0.25337700  0.84687400  0.50249300  1
  W  W5  1  0.25972400  0.84157400  0.99661500  1
  W  W6  1  0.74662300  0.15312600  0.49750700  1
  W  W7  1  0.74027600  0.15842600  0.00338500  1
  O  O8  1  0.43851200  0.64046800  0.85434500  1
  O  O9  1  0.06042000  0.65022600  0.64382600  1
  O  O10  1  0.56148800  0.35953200  0.14565500  1
  O  O11  1  0.93958000  0.34977400  0.35617400  1
  O  O12  1  0.43508500  0.10908000  0.38527200  1
  O  O13  1  0.08378600  0.10367100  0.11878700  1
  O  O14  1  0.56491500  0.89092000  0.61472800  1
  O  O15  1  0.91621400  0.89632900  0.88121300  1
  O  O16  1  0.88457000  0.40923400  0.86717400  1
  O  O17  1  0.62758200  0.37865500  0.61897100  1
  O  O18  1  0.11543000  0.59076600  0.13282600  1
  O  O19  1  0.37241800  0.62134500  0.38102900  1
  O  O20  1  0.41353300  0.11911600  0.89811100  1
  O  O21  1  0.58646700  0.88088400  0.10188900  1
  O  O22  1  0.07782800  0.11474200  0.59764200  1
  O  O23  1  0.92217200  0.88525800  0.40235800  1
