# generated using pymatgen
data_MgMnBiO5
_symmetry_space_group_name_H-M   'P 1'
_cell_length_a   5.26784100
_cell_length_b   10.72638200
_cell_length_c   15.28296200
_cell_angle_alpha   90.00000000
_cell_angle_beta   90.00000000
_cell_angle_gamma   90.00000000
_symmetry_Int_Tables_number   1
_chemical_formula_structural   MgMnBiO5
_chemical_formula_sum   'Mg8 Mn8 Bi8 O40'
_cell_volume   863.56185563
_cell_formula_units_Z   8
loop_
 _symmetry_equiv_pos_site_id
 _symmetry_equiv_pos_as_xyz
  1  'x, y, z'
loop_
 _atom_site_type_symbol
 _atom_site_label
 _atom_site_symmetry_multiplicity
 _atom_site_fract_x
 _atom_site_fract_y
 _atom_site_fract_z
 _atom_site_occupancy
  Mg  Mg0  1  0.49370900  0.35725800  0.54779000  1
  Mg  Mg1  1  0.99370900  0.14274200  0.54779000  1
  Mg  Mg2  1  0.99370900  0.64274200  0.95221000  1
  Mg  Mg3  1  0.00629100  0.35725800  0.04779000  1
  Mg  Mg4  1  0.50629100  0.14274200  0.04779000  1
  Mg  Mg5  1  0.00629100  0.85725800  0.45221000  1
  Mg  Mg6  1  0.50629100  0.64274200  0.45221000  1
  Mg  Mg7  1  0.49370900  0.85725800  0.95221000  1
  Mn  Mn8  1  0.97836300  0.39954500  0.40757600  1
  Mn  Mn9  1  0.52163700  0.89954500  0.59242400  1
  Mn  Mn10  1  0.02163700  0.60045500  0.59242400  1
  Mn  Mn11  1  0.47836300  0.10045500  0.40757600  1
  Mn  Mn12  1  0.02163700  0.10045500  0.90757600  1
  Mn  Mn13  1  0.97836300  0.89954500  0.09242400  1
  Mn  Mn14  1  0.52163700  0.39954500  0.90757600  1
  Mn  Mn15  1  0.47836300  0.60045500  0.09242400  1
  Bi  Bi16  1  0.97151800  0.85557700  0.77225200  1
  Bi  Bi17  1  0.02848200  0.14442300  0.22774800  1
  Bi  Bi18  1  0.52848200  0.35557700  0.22774800  1
  Bi  Bi19  1  0.02848200  0.64442300  0.27225200  1
  Bi  Bi20  1  0.47151800  0.14442300  0.72774800  1
  Bi  Bi21  1  0.47151800  0.64442300  0.77225200  1
  Bi  Bi22  1  0.52848200  0.85557700  0.27225200  1
  Bi  Bi23  1  0.97151800  0.35557700  0.72774800  1
  O  O24  1  0.93907500  0.33533000  0.30315000  1
  O  O25  1  0.30943500  0.04322800  0.94118000  1
  O  O26  1  0.19056500  0.54322800  0.05882000  1
  O  O27  1  0.26737500  0.77271000  0.85492000  1
  O  O28  1  0.23262500  0.27271000  0.14508000  1
  O  O29  1  0.93907500  0.83533000  0.19685000  1
  O  O30  1  0.23262500  0.77271000  0.35492000  1
  O  O31  1  0.56092500  0.83533000  0.69685000  1
  O  O32  1  0.30943500  0.54322800  0.55882000  1
  O  O33  1  0.06092500  0.66467000  0.69685000  1
  O  O34  1  0.56092500  0.33533000  0.80315000  1
  O  O35  1  0.63976800  0.19312400  0.47885400  1
  O  O36  1  0.80943500  0.95677200  0.55882000  1
  O  O37  1  0.73262500  0.72729000  0.35492000  1
  O  O38  1  0.18392100  0.02335200  0.11826800  1
  O  O39  1  0.80943500  0.45677200  0.94118000  1
  O  O40  1  0.06092500  0.16467000  0.80315000  1
  O  O41  1  0.76737500  0.22729000  0.64508000  1
  O  O42  1  0.13976800  0.80687600  0.02114600  1
  O  O43  1  0.19056500  0.04322800  0.44118000  1
  O  O44  1  0.36023200  0.80687600  0.52114600  1
  O  O45  1  0.81607900  0.97664800  0.88173200  1
  O  O46  1  0.73262500  0.22729000  0.14508000  1
  O  O47  1  0.68392100  0.97664800  0.38173200  1
  O  O48  1  0.36023200  0.30687600  0.97885400  1
  O  O49  1  0.13976800  0.30687600  0.47885400  1
  O  O50  1  0.69056500  0.45677200  0.44118000  1
  O  O51  1  0.69056500  0.95677200  0.05882000  1
  O  O52  1  0.68392100  0.47664800  0.11826800  1
  O  O53  1  0.86023200  0.69312400  0.52114600  1
  O  O54  1  0.86023200  0.19312400  0.97885400  1
  O  O55  1  0.63976800  0.69312400  0.02114600  1
  O  O56  1  0.81607900  0.47664800  0.61826800  1
  O  O57  1  0.76737500  0.72729000  0.85492000  1
  O  O58  1  0.26737500  0.27271000  0.64508000  1
  O  O59  1  0.18392100  0.52335200  0.38173200  1
  O  O60  1  0.31607900  0.52335200  0.88173200  1
  O  O61  1  0.43907500  0.16467000  0.30315000  1
  O  O62  1  0.31607900  0.02335200  0.61826800  1
  O  O63  1  0.43907500  0.66467000  0.19685000  1
