# generated using pymatgen
data_Zn3Fe4(SbO4)6
_symmetry_space_group_name_H-M   'P 1'
_cell_length_a   6.94576900
_cell_length_b   8.30349307
_cell_length_c   10.30242890
_cell_angle_alpha   104.55279431
_cell_angle_beta   105.44611263
_cell_angle_gamma   102.22580435
_symmetry_Int_Tables_number   1
_chemical_formula_structural   Zn3Fe4(SbO4)6
_chemical_formula_sum   'Zn3 Fe4 Sb6 O24'
_cell_volume   529.03779349
_cell_formula_units_Z   1
loop_
 _symmetry_equiv_pos_site_id
 _symmetry_equiv_pos_as_xyz
  1  'x, y, z'
loop_
 _atom_site_type_symbol
 _atom_site_label
 _atom_site_symmetry_multiplicity
 _atom_site_fract_x
 _atom_site_fract_y
 _atom_site_fract_z
 _atom_site_occupancy
  Zn  Zn0  1  0.00000000  0.50000000  0.50000000  1
  Zn  Zn1  1  0.28395300  0.28751500  0.79132600  1
  Zn  Zn2  1  0.71604700  0.71248500  0.20867400  1
  Fe  Fe3  1  0.37838000  0.95582400  0.61010600  1
  Fe  Fe4  1  0.62162000  0.04417600  0.38989400  1
  Fe  Fe5  1  0.04245200  0.20954600  0.01321900  1
  Fe  Fe6  1  0.95754800  0.79045400  0.98678100  1
  Sb  Sb7  1  0.78138300  0.34691700  0.72719000  1
  Sb  Sb8  1  0.21861700  0.65308300  0.27281000  1
  Sb  Sb9  1  0.89302600  0.89327900  0.66600500  1
  Sb  Sb10  1  0.39908600  0.72546200  0.87551300  1
  Sb  Sb11  1  0.10697400  0.10672100  0.33399500  1
  Sb  Sb12  1  0.60091400  0.27453800  0.12448700  1
  O  O13  1  0.85291800  0.65544900  0.57874800  1
  O  O14  1  0.14708200  0.34455100  0.42125200  1
  O  O15  1  0.24983700  0.49819000  0.74108700  1
  O  O16  1  0.75016300  0.50181000  0.25891300  1
  O  O17  1  0.78673900  0.29469300  0.53448800  1
  O  O18  1  0.21326100  0.70530700  0.46551200  1
  O  O19  1  0.66150400  0.96855000  0.57666300  1
  O  O20  1  0.33849600  0.03145000  0.42333700  1
  O  O21  1  0.66038600  0.75760700  0.01755200  1
  O  O22  1  0.33961400  0.24239300  0.98244800  1
  O  O23  1  0.48823900  0.78006500  0.27959300  1
  O  O24  1  0.51176100  0.21993500  0.72040700  1
  O  O25  1  0.13523200  0.03207200  0.64620500  1
  O  O26  1  0.06842000  0.05311800  0.13514700  1
  O  O27  1  0.93158000  0.94688200  0.86485300  1
  O  O28  1  0.55268700  0.12730000  0.23320000  1
  O  O29  1  0.44731300  0.87270000  0.76680000  1
  O  O30  1  0.20006600  0.42442600  0.17208300  1
  O  O31  1  0.79993400  0.57557400  0.82791700  1
  O  O32  1  0.99431700  0.26694900  0.82964000  1
  O  O33  1  0.00568300  0.73305100  0.17036000  1
  O  O34  1  0.23362600  0.78810200  0.98611800  1
  O  O35  1  0.76637400  0.21189800  0.01388200  1
  O  O36  1  0.86476800  0.96792800  0.35379500  1
