# generated using pymatgen
data_Mg2Ni3O8
_symmetry_space_group_name_H-M   'P 1'
_cell_length_a   5.72953041
_cell_length_b   5.72953041
_cell_length_c   9.16958800
_cell_angle_alpha   90.00000000
_cell_angle_beta   90.00000000
_cell_angle_gamma   120.00000468
_symmetry_Int_Tables_number   1
_chemical_formula_structural   Mg2Ni3O8
_chemical_formula_sum   'Mg4 Ni6 O16'
_cell_volume   260.68646981
_cell_formula_units_Z   2
loop_
 _symmetry_equiv_pos_site_id
 _symmetry_equiv_pos_as_xyz
  1  'x, y, z'
loop_
 _atom_site_type_symbol
 _atom_site_label
 _atom_site_symmetry_multiplicity
 _atom_site_fract_x
 _atom_site_fract_y
 _atom_site_fract_z
 _atom_site_occupancy
  Mg  Mg0  1  0.66666700  0.33333300  0.02713400  1
  Mg  Mg1  1  0.33333300  0.66666700  0.52713400  1
  Mg  Mg2  1  0.66666700  0.33333300  0.41854600  1
  Mg  Mg3  1  0.33333300  0.66666700  0.91854600  1
  Ni  Ni4  1  0.67032700  0.83516300  0.24685800  1
  Ni  Ni5  1  0.83516300  0.16483700  0.74685800  1
  Ni  Ni6  1  0.16483700  0.32967300  0.24685800  1
  Ni  Ni7  1  0.83516300  0.67032700  0.74685800  1
  Ni  Ni8  1  0.32967300  0.16483700  0.74685800  1
  Ni  Ni9  1  0.16483700  0.83516300  0.24685800  1
  O  O10  1  0.84373600  0.15626400  0.14255000  1
  O  O11  1  0.68747200  0.84373600  0.64255000  1
  O  O12  1  0.15626400  0.31252800  0.64255000  1
  O  O13  1  0.84373600  0.68747200  0.14255000  1
  O  O14  1  0.31252800  0.15626400  0.14255000  1
  O  O15  1  0.15626400  0.84373600  0.64255000  1
  O  O16  1  0.51922800  0.48077200  0.86317200  1
  O  O17  1  0.03845500  0.51922800  0.36317200  1
  O  O18  1  0.48077200  0.96154500  0.36317200  1
  O  O19  1  0.51922800  0.03845500  0.86317200  1
  O  O20  1  0.00000000  0.00000000  0.34985100  1
  O  O21  1  0.00000000  0.00000000  0.84985100  1
  O  O22  1  0.33333300  0.66666700  0.14023200  1
  O  O23  1  0.96154500  0.48077200  0.86317200  1
  O  O24  1  0.48077200  0.51922800  0.36317200  1
  O  O25  1  0.66666700  0.33333300  0.64023200  1
