# generated using pymatgen
data_CaCrAs2O7
_symmetry_space_group_name_H-M   'P 1'
_cell_length_a   9.19194600
_cell_length_b   7.50593700
_cell_length_c   9.57975409
_cell_angle_alpha   69.42649783
_cell_angle_beta   90.00000000
_cell_angle_gamma   90.00000000
_symmetry_Int_Tables_number   1
_chemical_formula_structural   CaCrAs2O7
_chemical_formula_sum   'Ca4 Cr4 As8 O28'
_cell_volume   618.79337235
_cell_formula_units_Z   4
loop_
 _symmetry_equiv_pos_site_id
 _symmetry_equiv_pos_as_xyz
  1  'x, y, z'
loop_
 _atom_site_type_symbol
 _atom_site_label
 _atom_site_symmetry_multiplicity
 _atom_site_fract_x
 _atom_site_fract_y
 _atom_site_fract_z
 _atom_site_occupancy
  Ca  Ca0  1  0.06538100  0.74869500  0.93319100  1
  Ca  Ca1  1  0.56538100  0.25130500  0.56680900  1
  Ca  Ca2  1  0.93461900  0.25130500  0.06680900  1
  Ca  Ca3  1  0.43461900  0.74869500  0.43319100  1
  Cr  Cr4  1  0.95025800  0.21616000  0.67643300  1
  Cr  Cr5  1  0.45025800  0.78384000  0.82356700  1
  Cr  Cr6  1  0.04974200  0.78384000  0.32356700  1
  Cr  Cr7  1  0.54974200  0.21616000  0.17643300  1
  As  As8  1  0.76427500  0.57899800  0.73514000  1
  As  As9  1  0.26427500  0.42100200  0.76486000  1
  As  As10  1  0.23572500  0.42100200  0.26486000  1
  As  As11  1  0.73572500  0.57899800  0.23514000  1
  As  As12  1  0.70604400  0.97682800  0.95730000  1
  As  As13  1  0.20604400  0.02317200  0.54270000  1
  As  As14  1  0.29395600  0.02317200  0.04270000  1
  As  As15  1  0.79395600  0.97682800  0.45730000  1
  O  O16  1  0.69133100  0.14530900  0.03849800  1
  O  O17  1  0.19133100  0.85469100  0.46150200  1
  O  O18  1  0.30866900  0.85469100  0.96150200  1
  O  O19  1  0.80866900  0.14530900  0.53849800  1
  O  O20  1  0.58745200  0.65160000  0.72072800  1
  O  O21  1  0.08745200  0.34840000  0.77927200  1
  O  O22  1  0.41254800  0.34840000  0.27927200  1
  O  O23  1  0.91254800  0.65160000  0.22072800  1
  O  O24  1  0.86308500  0.56594400  0.88882900  1
  O  O25  1  0.36308500  0.43405600  0.61117100  1
  O  O26  1  0.13691500  0.43405600  0.11117100  1
  O  O27  1  0.63691500  0.56594400  0.38882900  1
  O  O28  1  0.85960600  0.75188600  0.58158000  1
  O  O29  1  0.35960600  0.24811400  0.91842000  1
  O  O30  1  0.14039400  0.24811400  0.41842000  1
  O  O31  1  0.64039400  0.75188600  0.08158000  1
  O  O32  1  0.90900800  0.00291100  0.31098700  1
  O  O33  1  0.40900800  0.99708900  0.18901300  1
  O  O34  1  0.09099200  0.99708900  0.68901300  1
  O  O35  1  0.59099200  0.00291100  0.81098700  1
  O  O36  1  0.72939100  0.37322700  0.19690800  1
  O  O37  1  0.22939100  0.62677300  0.30309200  1
  O  O38  1  0.27060900  0.62677300  0.80309200  1
  O  O39  1  0.77060900  0.37322700  0.69690800  1
  O  O40  1  0.61584500  0.98218000  0.41172000  1
  O  O41  1  0.11584500  0.01782000  0.08828000  1
  O  O42  1  0.38415500  0.01782000  0.58828000  1
  O  O43  1  0.88415500  0.98218000  0.91172000  1
