# generated using pymatgen
data_MgCrAs2O7
_symmetry_space_group_name_H-M   'P 1'
_cell_length_a   8.66307500
_cell_length_b   7.36513000
_cell_length_c   9.78069750
_cell_angle_alpha   66.34060960
_cell_angle_beta   90.00000000
_cell_angle_gamma   90.00000000
_symmetry_Int_Tables_number   1
_chemical_formula_structural   MgCrAs2O7
_chemical_formula_sum   'Mg4 Cr4 As8 O28'
_cell_volume   571.60074010
_cell_formula_units_Z   4
loop_
 _symmetry_equiv_pos_site_id
 _symmetry_equiv_pos_as_xyz
  1  'x, y, z'
loop_
 _atom_site_type_symbol
 _atom_site_label
 _atom_site_symmetry_multiplicity
 _atom_site_fract_x
 _atom_site_fract_y
 _atom_site_fract_z
 _atom_site_occupancy
  Mg  Mg0  1  0.07159000  0.73107100  0.89516500  1
  Mg  Mg1  1  0.57159000  0.26892900  0.60483500  1
  Mg  Mg2  1  0.92841000  0.26892900  0.10483500  1
  Mg  Mg3  1  0.42841000  0.73107100  0.39516500  1
  Cr  Cr4  1  0.94346900  0.20095500  0.66486300  1
  Cr  Cr5  1  0.44346900  0.79904500  0.83513700  1
  Cr  Cr6  1  0.05653100  0.79904500  0.33513700  1
  Cr  Cr7  1  0.55653100  0.20095500  0.16486300  1
  As  As8  1  0.77525600  0.56103000  0.75125000  1
  As  As9  1  0.27525600  0.43897000  0.74875000  1
  As  As10  1  0.22474400  0.43897000  0.24875000  1
  As  As11  1  0.72474400  0.56103000  0.25125000  1
  As  As12  1  0.72650600  0.96817100  0.96276300  1
  As  As13  1  0.22650600  0.03182900  0.53723700  1
  As  As14  1  0.27349400  0.03182900  0.03723700  1
  As  As15  1  0.77349400  0.96817100  0.46276300  1
  O  O16  1  0.73644200  0.13215000  0.04725500  1
  O  O17  1  0.23644200  0.86785000  0.45274500  1
  O  O18  1  0.26355800  0.86785000  0.95274500  1
  O  O19  1  0.76355800  0.13215000  0.54725500  1
  O  O20  1  0.59909400  0.64389000  0.76854000  1
  O  O21  1  0.09909400  0.35611000  0.73146000  1
  O  O22  1  0.40090600  0.35611000  0.23146000  1
  O  O23  1  0.90090600  0.64389000  0.26854000  1
  O  O24  1  0.90211300  0.52623000  0.89299700  1
  O  O25  1  0.40211300  0.47377000  0.60700300  1
  O  O26  1  0.09788700  0.47377000  0.10700300  1
  O  O27  1  0.59788700  0.52623000  0.39299700  1
  O  O28  1  0.86328900  0.74410400  0.58803500  1
  O  O29  1  0.36328900  0.25589600  0.91196500  1
  O  O30  1  0.13671100  0.25589600  0.41196500  1
  O  O31  1  0.63671100  0.74410400  0.08803500  1
  O  O32  1  0.91365900  0.02598100  0.32841700  1
  O  O33  1  0.41365900  0.97401900  0.17158300  1
  O  O34  1  0.08634100  0.97401900  0.67158300  1
  O  O35  1  0.58634100  0.02598100  0.82841700  1
  O  O36  1  0.73828400  0.36339900  0.20055100  1
  O  O37  1  0.23828400  0.63660100  0.29944900  1
  O  O38  1  0.26171600  0.63660100  0.79944900  1
  O  O39  1  0.76171600  0.36339900  0.70055100  1
  O  O40  1  0.59891600  0.93081700  0.40141100  1
  O  O41  1  0.09891600  0.06918300  0.09858900  1
  O  O42  1  0.40108400  0.06918300  0.59858900  1
  O  O43  1  0.90108400  0.93081700  0.90141100  1
