# generated using pymatgen
data_Zn3Cr6(FeO6)4
_symmetry_space_group_name_H-M   'P 1'
_cell_length_a   6.79428300
_cell_length_b   8.24055968
_cell_length_c   9.96271725
_cell_angle_alpha   105.25665622
_cell_angle_beta   105.98168132
_cell_angle_gamma   100.76211305
_symmetry_Int_Tables_number   1
_chemical_formula_structural   Zn3Cr6(FeO6)4
_chemical_formula_sum   'Zn3 Cr6 Fe4 O24'
_cell_volume   496.73054087
_cell_formula_units_Z   1
loop_
 _symmetry_equiv_pos_site_id
 _symmetry_equiv_pos_as_xyz
  1  'x, y, z'
loop_
 _atom_site_type_symbol
 _atom_site_label
 _atom_site_symmetry_multiplicity
 _atom_site_fract_x
 _atom_site_fract_y
 _atom_site_fract_z
 _atom_site_occupancy
  Zn  Zn0  1  0.00000000  0.50000000  0.50000000  1
  Zn  Zn1  1  0.27338500  0.27765400  0.78788500  1
  Zn  Zn2  1  0.72661500  0.72234600  0.21211500  1
  Cr  Cr3  1  0.77659500  0.34300600  0.73251400  1
  Cr  Cr4  1  0.22340500  0.65699400  0.26748600  1
  Cr  Cr5  1  0.90134800  0.89406700  0.66178800  1
  Cr  Cr6  1  0.40635800  0.72257200  0.87268000  1
  Cr  Cr7  1  0.09865200  0.10593300  0.33821200  1
  Cr  Cr8  1  0.59364200  0.27742800  0.12732000  1
  Fe  Fe9  1  0.38261300  0.95579000  0.60286500  1
  Fe  Fe10  1  0.61738700  0.04421000  0.39713500  1
  Fe  Fe11  1  0.04447000  0.19893100  0.01664800  1
  Fe  Fe12  1  0.95553000  0.80106900  0.98335200  1
  O  O13  1  0.89048700  0.67779500  0.57799100  1
  O  O14  1  0.10951300  0.32220500  0.42200900  1
  O  O15  1  0.29777800  0.51106700  0.76483400  1
  O  O16  1  0.70222200  0.48893300  0.23516600  1
  O  O17  1  0.77514300  0.30060100  0.55610400  1
  O  O18  1  0.22485700  0.69939900  0.44389600  1
  O  O19  1  0.66161400  0.95551200  0.57015000  1
  O  O20  1  0.33838600  0.04448800  0.42985000  1
  O  O21  1  0.64159400  0.74446000  0.00397000  1
  O  O22  1  0.35840600  0.25554000  0.99603000  1
  O  O23  1  0.45781100  0.76903700  0.26530200  1
  O  O24  1  0.54218900  0.23096300  0.73469800  1
  O  O25  1  0.14982400  0.03191400  0.65513900  1
  O  O26  1  0.06566500  0.05278900  0.14710000  1
  O  O27  1  0.93433500  0.94721100  0.85290000  1
  O  O28  1  0.56289100  0.15489800  0.23365700  1
  O  O29  1  0.43710900  0.84510200  0.76634300  1
  O  O30  1  0.18643600  0.44958100  0.18800800  1
  O  O31  1  0.81356400  0.55041900  0.81199200  1
  O  O32  1  0.98058800  0.28556300  0.83121300  1
  O  O33  1  0.01941200  0.71443700  0.16878700  1
  O  O34  1  0.24924600  0.77948000  0.96317700  1
  O  O35  1  0.75075400  0.22052000  0.03682300  1
  O  O36  1  0.85017600  0.96808600  0.34486100  1
