# generated using pymatgen
data_Fe2(MoO4)3
_symmetry_space_group_name_H-M   'P 1'
_cell_length_a   6.93380700
_cell_length_b   8.66317706
_cell_length_c   10.37720695
_cell_angle_alpha   108.49529252
_cell_angle_beta   103.48002009
_cell_angle_gamma   103.76135762
_symmetry_Int_Tables_number   1
_chemical_formula_structural   Fe2(MoO4)3
_chemical_formula_sum   'Fe4 Mo6 O24'
_cell_volume   541.00626206
_cell_formula_units_Z   2
loop_
 _symmetry_equiv_pos_site_id
 _symmetry_equiv_pos_as_xyz
  1  'x, y, z'
loop_
 _atom_site_type_symbol
 _atom_site_label
 _atom_site_symmetry_multiplicity
 _atom_site_fract_x
 _atom_site_fract_y
 _atom_site_fract_z
 _atom_site_occupancy
  Fe  Fe0  1  0.37597400  0.95769100  0.60900400  1
  Fe  Fe1  1  0.62402600  0.04230900  0.39099600  1
  Fe  Fe2  1  0.04568000  0.20276900  0.01291600  1
  Fe  Fe3  1  0.95432000  0.79723100  0.98708400  1
  Mo  Mo4  1  0.87941100  0.89700900  0.66254700  1
  Mo  Mo5  1  0.12058900  0.10299100  0.33745300  1
  Mo  Mo6  1  0.21182200  0.66699700  0.25962500  1
  Mo  Mo7  1  0.78817800  0.33300300  0.74037500  1
  Mo  Mo8  1  0.59514100  0.25644500  0.13221300  1
  Mo  Mo9  1  0.40485900  0.74355500  0.86778700  1
  O  O10  1  0.07187100  0.05849600  0.14291600  1
  O  O11  1  0.92812900  0.94150400  0.85708400  1
  O  O12  1  0.56932100  0.13490500  0.24694500  1
  O  O13  1  0.43067900  0.86509500  0.75305500  1
  O  O14  1  0.16094200  0.43990300  0.16888500  1
  O  O15  1  0.83905800  0.56009700  0.83111500  1
  O  O16  1  0.97647600  0.26285600  0.84031300  1
  O  O17  1  0.02352400  0.73714400  0.15968700  1
  O  O18  1  0.23828500  0.80889300  0.97091700  1
  O  O19  1  0.76171500  0.19110700  0.02908300  1
  O  O20  1  0.88235300  0.00372900  0.36348000  1
  O  O21  1  0.11764700  0.99627100  0.63652000  1
  O  O22  1  0.53434300  0.21442900  0.73417000  1
  O  O23  1  0.46565700  0.78557100  0.26583000  1
  O  O24  1  0.33414600  0.21830200  0.01428500  1
  O  O25  1  0.66585400  0.78169800  0.98571500  1
  O  O26  1  0.34195300  0.04302500  0.42904000  1
  O  O27  1  0.65804700  0.95697500  0.57096000  1
  O  O28  1  0.22131100  0.72496600  0.44412300  1
  O  O29  1  0.77868900  0.27503400  0.55587700  1
  O  O30  1  0.71432500  0.47385500  0.24072100  1
  O  O31  1  0.28567500  0.52614500  0.75927900  1
  O  O32  1  0.17925900  0.32112200  0.41896500  1
  O  O33  1  0.82074100  0.67887800  0.58103500  1
