# generated using pymatgen
data_Zn2Fe3O8
_symmetry_space_group_name_H-M   'P 1'
_cell_length_a   5.94454700
_cell_length_b   5.94454700
_cell_length_c   9.44058400
_cell_angle_alpha   90.00000000
_cell_angle_beta   90.00000000
_cell_angle_gamma   120.00001108
_symmetry_Int_Tables_number   1
_chemical_formula_structural   Zn2Fe3O8
_chemical_formula_sum   'Zn4 Fe6 O16'
_cell_volume   288.91292666
_cell_formula_units_Z   2
loop_
 _symmetry_equiv_pos_site_id
 _symmetry_equiv_pos_as_xyz
  1  'x, y, z'
loop_
 _atom_site_type_symbol
 _atom_site_label
 _atom_site_symmetry_multiplicity
 _atom_site_fract_x
 _atom_site_fract_y
 _atom_site_fract_z
 _atom_site_occupancy
  Zn  Zn0  1  0.66666700  0.33333300  0.02843100  1
  Zn  Zn1  1  0.33333300  0.66666700  0.52843100  1
  Zn  Zn2  1  0.66666700  0.33333300  0.42037100  1
  Zn  Zn3  1  0.33333300  0.66666700  0.92037100  1
  Fe  Fe4  1  0.67189700  0.83594800  0.24315100  1
  Fe  Fe5  1  0.83594800  0.16405200  0.74315100  1
  Fe  Fe6  1  0.16405200  0.32810300  0.24315100  1
  Fe  Fe7  1  0.83594800  0.67189700  0.74315100  1
  Fe  Fe8  1  0.32810300  0.16405200  0.74315100  1
  Fe  Fe9  1  0.16405200  0.83594800  0.24315100  1
  O  O10  1  0.83521800  0.16478200  0.14215600  1
  O  O11  1  0.67043600  0.83521800  0.64215600  1
  O  O12  1  0.16478200  0.32956400  0.64215600  1
  O  O13  1  0.83521800  0.67043600  0.14215600  1
  O  O14  1  0.32956400  0.16478200  0.14215600  1
  O  O15  1  0.16478200  0.83521800  0.64215600  1
  O  O16  1  0.51887500  0.48112500  0.86809900  1
  O  O17  1  0.03775000  0.51887500  0.36809900  1
  O  O18  1  0.48112500  0.96225000  0.36809900  1
  O  O19  1  0.51887500  0.03775000  0.86809900  1
  O  O20  1  0.00000000  0.00000000  0.35187500  1
  O  O21  1  0.00000000  0.00000000  0.85187500  1
  O  O22  1  0.33333300  0.66666700  0.13260600  1
  O  O23  1  0.96225000  0.48112500  0.86809900  1
  O  O24  1  0.48112500  0.51887500  0.36809900  1
  O  O25  1  0.66666700  0.33333300  0.63260600  1
