# generated using pymatgen
data_Ti(GeO3)2
_symmetry_space_group_name_H-M   'P 1'
_cell_length_a   6.76553306
_cell_length_b   6.76553306
_cell_length_c   5.59248181
_cell_angle_alpha   76.43664250
_cell_angle_beta   76.43664250
_cell_angle_gamma   83.96619896
_symmetry_Int_Tables_number   1
_chemical_formula_structural   Ti(GeO3)2
_chemical_formula_sum   'Ti2 Ge4 O12'
_cell_volume   241.56217638
_cell_formula_units_Z   2
loop_
 _symmetry_equiv_pos_site_id
 _symmetry_equiv_pos_as_xyz
  1  'x, y, z'
loop_
 _atom_site_type_symbol
 _atom_site_label
 _atom_site_symmetry_multiplicity
 _atom_site_fract_x
 _atom_site_fract_y
 _atom_site_fract_z
 _atom_site_occupancy
  Ti  Ti0  1  0.10701700  0.89298300  0.75000000  1
  Ti  Ti1  1  0.89298300  0.10701700  0.25000000  1
  Ge  Ge2  1  0.20877300  0.38023100  0.77282600  1
  Ge  Ge3  1  0.61976900  0.79122700  0.72717400  1
  Ge  Ge4  1  0.79122700  0.61976900  0.22717400  1
  Ge  Ge5  1  0.38023100  0.20877300  0.27282600  1
  O  O6  1  0.38515600  0.34628800  0.50025300  1
  O  O7  1  0.65371200  0.61484400  0.99974700  1
  O  O8  1  0.61484400  0.65371200  0.49974700  1
  O  O9  1  0.34628800  0.38515600  0.00025300  1
  O  O10  1  0.63058000  0.09699300  0.21432100  1
  O  O11  1  0.90300700  0.36942000  0.28567900  1
  O  O12  1  0.36942000  0.90300700  0.78567900  1
  O  O13  1  0.09699300  0.63058000  0.71432100  1
  O  O14  1  0.04006400  0.17610600  0.88370200  1
  O  O15  1  0.82389400  0.95993600  0.61629800  1
  O  O16  1  0.95993600  0.82389400  0.11629800  1
  O  O17  1  0.17610600  0.04006400  0.38370200  1
