# generated using pymatgen
data_Ca2Co3O8
_symmetry_space_group_name_H-M   'P 1'
_cell_length_a   5.99563233
_cell_length_b   5.99563233
_cell_length_c   10.51276800
_cell_angle_alpha   90.00000000
_cell_angle_beta   90.00000000
_cell_angle_gamma   120.00000360
_symmetry_Int_Tables_number   1
_chemical_formula_structural   Ca2Co3O8
_chemical_formula_sum   'Ca4 Co6 O16'
_cell_volume   327.27865464
_cell_formula_units_Z   2
loop_
 _symmetry_equiv_pos_site_id
 _symmetry_equiv_pos_as_xyz
  1  'x, y, z'
loop_
 _atom_site_type_symbol
 _atom_site_label
 _atom_site_symmetry_multiplicity
 _atom_site_fract_x
 _atom_site_fract_y
 _atom_site_fract_z
 _atom_site_occupancy
  Ca  Ca0  1  0.66666700  0.33333300  0.02456800  1
  Ca  Ca1  1  0.33333300  0.66666700  0.52456800  1
  Ca  Ca2  1  0.66666700  0.33333300  0.42598100  1
  Ca  Ca3  1  0.33333300  0.66666700  0.92598100  1
  Co  Co4  1  0.67213200  0.83606600  0.24640000  1
  Co  Co5  1  0.83606600  0.16393400  0.74640100  1
  Co  Co6  1  0.16393400  0.32786800  0.24640000  1
  Co  Co7  1  0.83606600  0.67213200  0.74640100  1
  Co  Co8  1  0.32786800  0.16393400  0.74640100  1
  Co  Co9  1  0.16393400  0.83606600  0.24640000  1
  O  O10  1  0.84856800  0.15143200  0.16135000  1
  O  O11  1  0.69713600  0.84856800  0.66135000  1
  O  O12  1  0.15143200  0.30286400  0.66135000  1
  O  O13  1  0.84856800  0.69713600  0.16135000  1
  O  O14  1  0.30286400  0.15143200  0.16135000  1
  O  O15  1  0.15143200  0.84856800  0.66135000  1
  O  O16  1  0.52445100  0.47554900  0.84231000  1
  O  O17  1  0.04890300  0.52445100  0.34231000  1
  O  O18  1  0.47554900  0.95109700  0.34231000  1
  O  O19  1  0.52445100  0.04890300  0.84231000  1
  O  O20  1  0.00000000  0.00000000  0.35860500  1
  O  O21  1  0.00000000  0.00000000  0.85860500  1
  O  O22  1  0.33333300  0.66666700  0.13416700  1
  O  O23  1  0.95109700  0.47554900  0.84231000  1
  O  O24  1  0.47554900  0.52445100  0.34231000  1
  O  O25  1  0.66666700  0.33333300  0.63416700  1
