# generated using pymatgen
data_Ca2Mo3O8
_symmetry_space_group_name_H-M   'P 1'
_cell_length_a   6.45273214
_cell_length_b   6.45273214
_cell_length_c   10.36704300
_cell_angle_alpha   90.00000000
_cell_angle_beta   90.00000000
_cell_angle_gamma   120.00000146
_symmetry_Int_Tables_number   1
_chemical_formula_structural   Ca2Mo3O8
_chemical_formula_sum   'Ca4 Mo6 O16'
_cell_volume   373.82883765
_cell_formula_units_Z   2
loop_
 _symmetry_equiv_pos_site_id
 _symmetry_equiv_pos_as_xyz
  1  'x, y, z'
loop_
 _atom_site_type_symbol
 _atom_site_label
 _atom_site_symmetry_multiplicity
 _atom_site_fract_x
 _atom_site_fract_y
 _atom_site_fract_z
 _atom_site_occupancy
  Ca  Ca0  1  0.66666700  0.33333300  0.02730800  1
  Ca  Ca1  1  0.33333300  0.66666700  0.52730800  1
  Ca  Ca2  1  0.66666700  0.33333300  0.41369900  1
  Ca  Ca3  1  0.33333300  0.66666700  0.91369900  1
  Mo  Mo4  1  0.67191200  0.83595600  0.24448700  1
  Mo  Mo5  1  0.83595600  0.16404400  0.74448700  1
  Mo  Mo6  1  0.16404400  0.32808800  0.24448700  1
  Mo  Mo7  1  0.83595600  0.67191200  0.74448700  1
  Mo  Mo8  1  0.32808800  0.16404400  0.74448700  1
  Mo  Mo9  1  0.16404400  0.83595600  0.24448700  1
  O  O10  1  0.83839400  0.16160600  0.15750400  1
  O  O11  1  0.67678700  0.83839400  0.65750400  1
  O  O12  1  0.16160600  0.32321300  0.65750400  1
  O  O13  1  0.83839400  0.67678700  0.15750400  1
  O  O14  1  0.32321300  0.16160600  0.15750400  1
  O  O15  1  0.16160600  0.83839400  0.65750400  1
  O  O16  1  0.52584400  0.47415600  0.85451300  1
  O  O17  1  0.05168800  0.52584400  0.35451300  1
  O  O18  1  0.47415600  0.94831200  0.35451300  1
  O  O19  1  0.52584400  0.05168800  0.85451300  1
  O  O20  1  0.00000000  0.00000000  0.34746600  1
  O  O21  1  0.00000000  0.00000000  0.84746600  1
  O  O22  1  0.33333300  0.66666700  0.13551800  1
  O  O23  1  0.94831200  0.47415600  0.85451300  1
  O  O24  1  0.47415600  0.52584400  0.35451300  1
  O  O25  1  0.66666700  0.33333300  0.63551800  1
