# generated using pymatgen
data_CaVAs2O7
_symmetry_space_group_name_H-M   'P 1'
_cell_length_a   8.57865900
_cell_length_b   8.13614300
_cell_length_c   10.65287533
_cell_angle_alpha   60.72981674
_cell_angle_beta   90.00000000
_cell_angle_gamma   90.00000000
_symmetry_Int_Tables_number   1
_chemical_formula_structural   CaVAs2O7
_chemical_formula_sum   'Ca4 V4 As8 O28'
_cell_volume   648.60838517
_cell_formula_units_Z   4
loop_
 _symmetry_equiv_pos_site_id
 _symmetry_equiv_pos_as_xyz
  1  'x, y, z'
loop_
 _atom_site_type_symbol
 _atom_site_label
 _atom_site_symmetry_multiplicity
 _atom_site_fract_x
 _atom_site_fract_y
 _atom_site_fract_z
 _atom_site_occupancy
  Ca  Ca0  1  0.06785200  0.74067800  0.90502100  1
  Ca  Ca1  1  0.56785200  0.25932200  0.59497900  1
  Ca  Ca2  1  0.93214800  0.25932200  0.09497900  1
  Ca  Ca3  1  0.43214800  0.74067800  0.40502100  1
  V  V4  1  0.93657300  0.20108500  0.71587000  1
  V  V5  1  0.43657300  0.79891500  0.78413000  1
  V  V6  1  0.06342700  0.79891500  0.28413000  1
  V  V7  1  0.56342700  0.20108500  0.21587000  1
  As  As8  1  0.76182800  0.55179900  0.75036500  1
  As  As9  1  0.26182800  0.44820100  0.74963500  1
  As  As10  1  0.23817200  0.44820100  0.24963500  1
  As  As11  1  0.73817200  0.55179900  0.25036500  1
  As  As12  1  0.68427300  0.95152800  0.95580300  1
  As  As13  1  0.18427300  0.04847200  0.54419700  1
  As  As14  1  0.31572700  0.04847200  0.04419700  1
  As  As15  1  0.81572700  0.95152800  0.45580300  1
  O  O16  1  0.66543400  0.23883700  0.07076800  1
  O  O17  1  0.16543400  0.76116300  0.42923200  1
  O  O18  1  0.33456600  0.76116300  0.92923200  1
  O  O19  1  0.83456600  0.23883700  0.57076800  1
  O  O20  1  0.57894700  0.63327000  0.75712000  1
  O  O21  1  0.07894700  0.36673000  0.74288000  1
  O  O22  1  0.42105300  0.36673000  0.24288000  1
  O  O23  1  0.92105300  0.63327000  0.25712000  1
  O  O24  1  0.88848700  0.55551400  0.87208300  1
  O  O25  1  0.38848700  0.44448600  0.62791700  1
  O  O26  1  0.11151300  0.44448600  0.12791700  1
  O  O27  1  0.61151300  0.55551400  0.37208300  1
  O  O28  1  0.81920100  0.68703800  0.56905200  1
  O  O29  1  0.31920100  0.31296200  0.93094800  1
  O  O30  1  0.18079900  0.31296200  0.43094800  1
  O  O31  1  0.68079900  0.68703800  0.06905200  1
  O  O32  1  0.90065200  0.96185300  0.29949200  1
  O  O33  1  0.40065200  0.03814700  0.20050800  1
  O  O34  1  0.09934800  0.03814700  0.70050800  1
  O  O35  1  0.59934800  0.96185300  0.79949200  1
  O  O36  1  0.74960800  0.33029100  0.26780200  1
  O  O37  1  0.24960800  0.66970900  0.23219800  1
  O  O38  1  0.25039200  0.66970900  0.73219800  1
  O  O39  1  0.75039200  0.33029100  0.76780200  1
  O  O40  1  0.61539400  0.97268900  0.39267500  1
  O  O41  1  0.11539400  0.02731100  0.10732500  1
  O  O42  1  0.38460600  0.02731100  0.60732500  1
  O  O43  1  0.88460600  0.97268900  0.89267500  1
