# generated using pymatgen
data_TiZn(GeO3)2
_symmetry_space_group_name_H-M   'P 1'
_cell_length_a   6.94537194
_cell_length_b   6.94537194
_cell_length_c   5.05527600
_cell_angle_alpha   79.96098557
_cell_angle_beta   79.96098557
_cell_angle_gamma   79.32597214
_symmetry_Int_Tables_number   1
_chemical_formula_structural   TiZn(GeO3)2
_chemical_formula_sum   'Ti2 Zn2 Ge4 O12'
_cell_volume   233.41312703
_cell_formula_units_Z   2
loop_
 _symmetry_equiv_pos_site_id
 _symmetry_equiv_pos_as_xyz
  1  'x, y, z'
loop_
 _atom_site_type_symbol
 _atom_site_label
 _atom_site_symmetry_multiplicity
 _atom_site_fract_x
 _atom_site_fract_y
 _atom_site_fract_z
 _atom_site_occupancy
  Ti  Ti0  1  0.10154200  0.89845800  0.25000000  1
  Ti  Ti1  1  0.89845800  0.10154200  0.75000000  1
  Zn  Zn2  1  0.65943300  0.34056700  0.25000000  1
  Zn  Zn3  1  0.34056700  0.65943300  0.75000000  1
  Ge  Ge4  1  0.58713700  0.83821500  0.12924400  1
  Ge  Ge5  1  0.16178500  0.41286300  0.37075600  1
  Ge  Ge6  1  0.41286300  0.16178500  0.87075600  1
  Ge  Ge7  1  0.83821500  0.58713700  0.62924400  1
  O  O8  1  0.69164600  0.60254200  0.34495400  1
  O  O9  1  0.39745800  0.30835400  0.15504600  1
  O  O10  1  0.30835400  0.39745800  0.65504600  1
  O  O11  1  0.60254200  0.69164600  0.84495400  1
  O  O12  1  0.84371600  0.34625500  0.88708300  1
  O  O13  1  0.65374500  0.15628400  0.61291700  1
  O  O14  1  0.15628400  0.65374500  0.11291700  1
  O  O15  1  0.34625500  0.84371600  0.38708300  1
  O  O16  1  0.81782600  0.95621900  0.10137600  1
  O  O17  1  0.04378100  0.18217400  0.39862400  1
  O  O18  1  0.18217400  0.04378100  0.89862400  1
  O  O19  1  0.95621900  0.81782600  0.60137600  1
