# generated using pymatgen
data_CaAs2WO7
_symmetry_space_group_name_H-M   'P 1'
_cell_length_a   8.29612800
_cell_length_b   9.61859600
_cell_length_c   11.48318326
_cell_angle_alpha   54.18055276
_cell_angle_beta   90.00000000
_cell_angle_gamma   90.00000000
_symmetry_Int_Tables_number   1
_chemical_formula_structural   CaAs2WO7
_chemical_formula_sum   'Ca4 As8 W4 O28'
_cell_volume   743.01588788
_cell_formula_units_Z   4
loop_
 _symmetry_equiv_pos_site_id
 _symmetry_equiv_pos_as_xyz
  1  'x, y, z'
loop_
 _atom_site_type_symbol
 _atom_site_label
 _atom_site_symmetry_multiplicity
 _atom_site_fract_x
 _atom_site_fract_y
 _atom_site_fract_z
 _atom_site_occupancy
  Ca  Ca0  1  0.07256300  0.71881000  0.87997300  1
  Ca  Ca1  1  0.57256300  0.28119000  0.62002700  1
  Ca  Ca2  1  0.92743700  0.28119000  0.12002700  1
  Ca  Ca3  1  0.42743700  0.71881000  0.37997300  1
  As  As4  1  0.73400600  0.54251100  0.78649000  1
  As  As5  1  0.23400600  0.45748900  0.71351000  1
  As  As6  1  0.26599400  0.45748900  0.21351000  1
  As  As7  1  0.76599400  0.54251100  0.28649000  1
  As  As8  1  0.72477400  0.93017200  0.97753400  1
  As  As9  1  0.22477400  0.06982800  0.52246600  1
  As  As10  1  0.27522600  0.06982800  0.02246600  1
  As  As11  1  0.77522600  0.93017200  0.47753400  1
  W  W12  1  0.94976200  0.17051800  0.70391300  1
  W  W13  1  0.44976200  0.82948200  0.79608700  1
  W  W14  1  0.05023800  0.82948200  0.29608700  1
  W  W15  1  0.55023800  0.17051800  0.20391300  1
  O  O16  1  0.66876100  0.24213900  0.04737400  1
  O  O17  1  0.16876100  0.75786100  0.45262600  1
  O  O18  1  0.33123900  0.75786100  0.95262600  1
  O  O19  1  0.83123900  0.24213900  0.54737400  1
  O  O20  1  0.63162900  0.70436200  0.81421600  1
  O  O21  1  0.13162900  0.29563800  0.68578400  1
  O  O22  1  0.36837100  0.29563800  0.18578400  1
  O  O23  1  0.86837100  0.70436200  0.31421600  1
  O  O24  1  0.90985600  0.52681800  0.87682100  1
  O  O25  1  0.40985600  0.47318200  0.62317900  1
  O  O26  1  0.09014400  0.47318200  0.12317900  1
  O  O27  1  0.59014400  0.52681800  0.37682100  1
  O  O28  1  0.79557000  0.70008200  0.59462900  1
  O  O29  1  0.29557000  0.29991800  0.90537100  1
  O  O30  1  0.20443000  0.29991800  0.40537100  1
  O  O31  1  0.70443000  0.70008200  0.09462900  1
  O  O32  1  0.91032700  0.98000100  0.33473100  1
  O  O33  1  0.41032700  0.01999900  0.16526900  1
  O  O34  1  0.08967300  0.01999900  0.66526900  1
  O  O35  1  0.58967300  0.98000100  0.83473100  1
  O  O36  1  0.69462300  0.25022700  0.27148500  1
  O  O37  1  0.19462300  0.74977300  0.22851500  1
  O  O38  1  0.30537700  0.74977300  0.72851500  1
  O  O39  1  0.80537700  0.25022700  0.77148500  1
  O  O40  1  0.58746500  0.93602700  0.37804900  1
  O  O41  1  0.08746500  0.06397300  0.12195100  1
  O  O42  1  0.41253500  0.06397300  0.62195100  1
  O  O43  1  0.91253500  0.93602700  0.87804900  1
