# generated using pymatgen
data_MgMnNiP2O9
_symmetry_space_group_name_H-M   'P 1'
_cell_length_a   6.21643900
_cell_length_b   7.22547800
_cell_length_c   14.21638900
_cell_angle_alpha   90.00000000
_cell_angle_beta   90.00000000
_cell_angle_gamma   90.00000000
_symmetry_Int_Tables_number   1
_chemical_formula_structural   MgMnNiP2O9
_chemical_formula_sum   'Mg4 Mn4 Ni4 P8 O36'
_cell_volume   638.55389441
_cell_formula_units_Z   4
loop_
 _symmetry_equiv_pos_site_id
 _symmetry_equiv_pos_as_xyz
  1  'x, y, z'
loop_
 _atom_site_type_symbol
 _atom_site_label
 _atom_site_symmetry_multiplicity
 _atom_site_fract_x
 _atom_site_fract_y
 _atom_site_fract_z
 _atom_site_occupancy
  Mg  Mg0  1  0.75000000  0.38157000  0.77895200  1
  Mg  Mg1  1  0.75000000  0.11843000  0.27895200  1
  Mg  Mg2  1  0.25000000  0.61843000  0.22104800  1
  Mg  Mg3  1  0.25000000  0.88157000  0.72104800  1
  Mn  Mn4  1  0.75000000  0.85198700  0.87988400  1
  Mn  Mn5  1  0.25000000  0.14801300  0.12011600  1
  Mn  Mn6  1  0.25000000  0.35198700  0.62011600  1
  Mn  Mn7  1  0.75000000  0.64801300  0.37988400  1
  Ni  Ni8  1  0.50000000  0.50000000  0.00000000  1
  Ni  Ni9  1  0.50000000  0.00000000  0.50000000  1
  Ni  Ni10  1  0.00000000  0.00000000  0.50000000  1
  Ni  Ni11  1  0.00000000  0.50000000  0.00000000  1
  P  P12  1  0.25000000  0.86060500  0.93355900  1
  P  P13  1  0.75000000  0.13939500  0.06644100  1
  P  P14  1  0.75000000  0.36060500  0.56644100  1
  P  P15  1  0.25000000  0.63939500  0.43355900  1
  P  P16  1  0.75000000  0.89284800  0.69750000  1
  P  P17  1  0.25000000  0.10715200  0.30250000  1
  P  P18  1  0.25000000  0.39284800  0.80250000  1
  P  P19  1  0.75000000  0.60715200  0.19750000  1
  O  O20  1  0.03739900  0.10992700  0.35851700  1
  O  O21  1  0.53739900  0.89007300  0.64148300  1
  O  O22  1  0.96260100  0.60992700  0.14148300  1
  O  O23  1  0.46260100  0.39007300  0.85851700  1
  O  O24  1  0.96260100  0.89007300  0.64148300  1
  O  O25  1  0.46260100  0.10992700  0.35851700  1
  O  O26  1  0.03739900  0.39007300  0.85851700  1
  O  O27  1  0.53739900  0.60992700  0.14148300  1
  O  O28  1  0.25000000  0.83015000  0.48043100  1
  O  O29  1  0.75000000  0.16985000  0.51956900  1
  O  O30  1  0.75000000  0.33015000  0.01956900  1
  O  O31  1  0.25000000  0.66985000  0.98043100  1
  O  O32  1  0.75000000  0.64276000  0.94574800  1
  O  O33  1  0.25000000  0.35724000  0.05425200  1
  O  O34  1  0.25000000  0.14276000  0.55425200  1
  O  O35  1  0.75000000  0.85724000  0.44574800  1
  O  O36  1  0.75000000  0.71393500  0.76361500  1
  O  O37  1  0.25000000  0.28606500  0.23638500  1
  O  O38  1  0.25000000  0.21393500  0.73638500  1
  O  O39  1  0.75000000  0.78606500  0.26361500  1
  O  O40  1  0.43881500  0.62536700  0.36116900  1
  O  O41  1  0.93881500  0.37463300  0.63883100  1
  O  O42  1  0.56118500  0.12536700  0.13883100  1
  O  O43  1  0.06118500  0.87463300  0.86116900  1
  O  O44  1  0.56118500  0.37463300  0.63883100  1
  O  O45  1  0.06118500  0.62536700  0.36116900  1
  O  O46  1  0.43881500  0.87463300  0.86116900  1
  O  O47  1  0.93881500  0.12536700  0.13883100  1
  O  O48  1  0.75000000  0.44712600  0.27200600  1
  O  O49  1  0.25000000  0.55287400  0.72799400  1
  O  O50  1  0.25000000  0.94712600  0.22799400  1
  O  O51  1  0.75000000  0.05287400  0.77200600  1
  O  O52  1  0.75000000  0.51249100  0.49372300  1
  O  O53  1  0.25000000  0.48750900  0.50627700  1
  O  O54  1  0.25000000  0.01249100  0.00627700  1
  O  O55  1  0.75000000  0.98750900  0.99372300  1
