# generated using pymatgen
data_VZnNiP2O9
_symmetry_space_group_name_H-M   'P 1'
_cell_length_a   6.25504800
_cell_length_b   7.36822185
_cell_length_c   14.16939655
_cell_angle_alpha   89.94567653
_cell_angle_beta   89.99954995
_cell_angle_gamma   90.00222297
_symmetry_Int_Tables_number   1
_chemical_formula_structural   VZnNiP2O9
_chemical_formula_sum   'V4 Zn4 Ni4 P8 O36'
_cell_volume   653.04709176
_cell_formula_units_Z   4
loop_
 _symmetry_equiv_pos_site_id
 _symmetry_equiv_pos_as_xyz
  1  'x, y, z'
loop_
 _atom_site_type_symbol
 _atom_site_label
 _atom_site_symmetry_multiplicity
 _atom_site_fract_x
 _atom_site_fract_y
 _atom_site_fract_z
 _atom_site_occupancy
  V  V0  1  0.75000500  0.34598100  0.88275500  1
  V  V1  1  0.24998900  0.65411400  0.11723000  1
  V  V2  1  0.25001200  0.84569500  0.61738700  1
  V  V3  1  0.74998100  0.15421700  0.38262500  1
  Zn  Zn4  1  0.74999200  0.88572400  0.77882500  1
  Zn  Zn5  1  0.74999600  0.61497000  0.27894400  1
  Zn  Zn6  1  0.25000100  0.11439300  0.22116400  1
  Zn  Zn7  1  0.24999900  0.38496100  0.72104900  1
  Ni  Ni8  1  0.50025200  0.99998400  0.00017100  1
  Ni  Ni9  1  0.50033800  0.49958800  0.49992700  1
  Ni  Ni10  1  0.99965700  0.49962100  0.49992900  1
  Ni  Ni11  1  0.99991700  0.99975300  0.00022200  1
  P  P12  1  0.25000600  0.35476900  0.93302000  1
  P  P13  1  0.74999200  0.64529100  0.06696200  1
  P  P14  1  0.75001400  0.85453300  0.56691500  1
  P  P15  1  0.24998400  0.14541600  0.43305600  1
  P  P16  1  0.75000200  0.38408500  0.69645000  1
  P  P17  1  0.24999300  0.61590200  0.30355200  1
  P  P18  1  0.24999400  0.88445100  0.80356200  1
  P  P19  1  0.75000000  0.11580600  0.19641700  1
  O  O20  1  0.03815000  0.61006000  0.36158500  1
  O  O21  1  0.53815500  0.38992600  0.63841500  1
  O  O22  1  0.96185500  0.10996400  0.13826200  1
  O  O23  1  0.46184600  0.88997800  0.86172800  1
  O  O24  1  0.96184200  0.38993500  0.63841100  1
  O  O25  1  0.46184300  0.61007200  0.36158100  1
  O  O26  1  0.03813100  0.88998200  0.86172200  1
  O  O27  1  0.53814800  0.10995400  0.13826200  1
  O  O28  1  0.24999400  0.33317300  0.47920400  1
  O  O29  1  0.75000500  0.66674900  0.52086100  1
  O  O30  1  0.74999800  0.83332900  0.02070700  1
  O  O31  1  0.25001100  0.16669200  0.97924200  1
  O  O32  1  0.74999000  0.14572800  0.94442700  1
  O  O33  1  0.24995300  0.85427400  0.05552200  1
  O  O34  1  0.25002000  0.64572200  0.55564400  1
  O  O35  1  0.74997000  0.35443200  0.44433800  1
  O  O36  1  0.75000100  0.20715000  0.75767500  1
  O  O37  1  0.24999400  0.79286700  0.24232400  1
  O  O38  1  0.24999400  0.70750900  0.74253100  1
  O  O39  1  0.75000000  0.29264400  0.25735900  1
  O  O40  1  0.43835700  0.12726800  0.36248100  1
  O  O41  1  0.93851200  0.87266100  0.63747900  1
  O  O42  1  0.56164500  0.62722000  0.13747400  1
  O  O43  1  0.06165400  0.37286900  0.86249300  1
  O  O44  1  0.56153200  0.87267500  0.63748800  1
  O  O45  1  0.06159600  0.12728500  0.36249100  1
  O  O46  1  0.43836000  0.37288000  0.86249200  1
  O  O47  1  0.93833100  0.62721800  0.13747900  1
  O  O48  1  0.74999100  0.96093500  0.27153300  1
  O  O49  1  0.25000900  0.03932300  0.72852100  1
  O  O50  1  0.24998500  0.46114100  0.22845200  1
  O  O51  1  0.75001000  0.53892000  0.77151500  1
  O  O52  1  0.75000000  0.99597400  0.48993100  1
  O  O53  1  0.24999500  0.00416400  0.51020800  1
  O  O54  1  0.24999900  0.49584400  0.01009500  1
  O  O55  1  0.74999800  0.50422900  0.98990500  1
