# generated using pymatgen
data_CaCoSn2O7
_symmetry_space_group_name_H-M   'P 1'
_cell_length_a   15.19226800
_cell_length_b   7.58155000
_cell_length_c   10.91183588
_cell_angle_alpha   72.19564326
_cell_angle_beta   90.00000000
_cell_angle_gamma   90.00000000
_symmetry_Int_Tables_number   1
_chemical_formula_structural   CaCoSn2O7
_chemical_formula_sum   'Ca8 Co8 Sn16 O56'
_cell_volume   1196.64081089
_cell_formula_units_Z   8
loop_
 _symmetry_equiv_pos_site_id
 _symmetry_equiv_pos_as_xyz
  1  'x, y, z'
loop_
 _atom_site_type_symbol
 _atom_site_label
 _atom_site_symmetry_multiplicity
 _atom_site_fract_x
 _atom_site_fract_y
 _atom_site_fract_z
 _atom_site_occupancy
  Ca  Ca0  1  0.52840700  0.92297600  0.77001800  1
  Ca  Ca1  1  0.88390400  0.69878400  0.95325300  1
  Ca  Ca2  1  0.38390400  0.30121600  0.54674700  1
  Ca  Ca3  1  0.11609600  0.30121600  0.04674700  1
  Ca  Ca4  1  0.61609600  0.69878400  0.45325300  1
  Ca  Ca5  1  0.97159300  0.92297600  0.27001800  1
  Ca  Ca6  1  0.47159300  0.07702400  0.22998200  1
  Ca  Ca7  1  0.02840700  0.07702400  0.72998200  1
  Co  Co8  1  0.65717400  0.36234000  0.09884200  1
  Co  Co9  1  0.15717400  0.63766000  0.40115800  1
  Co  Co10  1  0.34282600  0.63766000  0.90115800  1
  Co  Co11  1  0.84282600  0.36234000  0.59884200  1
  Co  Co12  1  0.75133000  0.02505100  0.25095800  1
  Co  Co13  1  0.25133000  0.97494900  0.24904200  1
  Co  Co14  1  0.24867000  0.97494900  0.74904200  1
  Co  Co15  1  0.74867000  0.02505100  0.75095800  1
  Sn  Sn16  1  0.87270700  0.17948400  0.96092500  1
  Sn  Sn17  1  0.02146200  0.59920500  0.68503300  1
  Sn  Sn18  1  0.47853800  0.59920500  0.18503300  1
  Sn  Sn19  1  0.97853800  0.40079500  0.31496700  1
  Sn  Sn20  1  0.72411100  0.52100900  0.77143800  1
  Sn  Sn21  1  0.22411100  0.47899100  0.72856200  1
  Sn  Sn22  1  0.27588900  0.47899100  0.22856200  1
  Sn  Sn23  1  0.77588900  0.52100900  0.27143800  1
  Sn  Sn24  1  0.52146200  0.40079500  0.81496700  1
  Sn  Sn25  1  0.15480400  0.14409600  0.43654700  1
  Sn  Sn26  1  0.65480400  0.85590400  0.06345300  1
  Sn  Sn27  1  0.84519600  0.85590400  0.56345300  1
  Sn  Sn28  1  0.37270700  0.82051600  0.53907500  1
  Sn  Sn29  1  0.62729300  0.17948400  0.46092500  1
  Sn  Sn30  1  0.12729300  0.82051600  0.03907500  1
  Sn  Sn31  1  0.34519600  0.14409600  0.93654700  1
  O  O32  1  0.00263100  0.15292700  0.94367600  1
  O  O33  1  0.50263100  0.84707300  0.55632400  1
  O  O34  1  0.99736900  0.84707300  0.05632400  1
  O  O35  1  0.49736900  0.15292700  0.44367600  1
  O  O36  1  0.83392500  0.99482900  0.87770600  1
  O  O37  1  0.33392500  0.00517100  0.62229400  1
  O  O38  1  0.16607500  0.00517100  0.12229400  1
  O  O39  1  0.66607500  0.99482900  0.37770600  1
  O  O40  1  0.84344900  0.02282700  0.13811600  1
  O  O41  1  0.34344900  0.97717300  0.36188400  1
  O  O42  1  0.15655100  0.97717300  0.86188400  1
  O  O43  1  0.65655100  0.02282700  0.63811600  1
  O  O44  1  0.28422600  0.39636800  0.91548200  1
  O  O45  1  0.78422600  0.60363200  0.58451800  1
  O  O46  1  0.71577400  0.60363200  0.08451800  1
  O  O47  1  0.21577400  0.39636800  0.41548200  1
  O  O48  1  0.33991200  0.03299900  0.12832800  1
  O  O49  1  0.83991200  0.96700100  0.37167200  1
  O  O50  1  0.66008800  0.96700100  0.87167200  1
  O  O51  1  0.16008800  0.03299900  0.62832800  1
  O  O52  1  0.33483300  0.90510100  0.88437500  1
  O  O53  1  0.44259400  0.62528700  0.81277000  1
  O  O54  1  0.83483300  0.09489900  0.61562500  1
  O  O55  1  0.16516700  0.90510100  0.38437500  1
  O  O56  1  0.48346600  0.23758300  0.71248900  1
  O  O57  1  0.98346600  0.76241700  0.78751100  1
  O  O58  1  0.51653400  0.76241700  0.28751100  1
  O  O59  1  0.01653400  0.23758300  0.21248900  1
  O  O60  1  0.46669500  0.21662700  0.97443800  1
  O  O61  1  0.96669500  0.78337300  0.52556200  1
  O  O62  1  0.53330500  0.78337300  0.02556200  1
  O  O63  1  0.03330500  0.21662700  0.47443800  1
  O  O64  1  0.89428200  0.56155100  0.17703200  1
  O  O65  1  0.39428200  0.43844900  0.32296800  1
  O  O66  1  0.10571800  0.43844900  0.82296800  1
  O  O67  1  0.60571800  0.56155100  0.67703200  1
  O  O68  1  0.74987500  0.27923000  0.22154200  1
  O  O69  1  0.24987500  0.72077000  0.27845800  1
  O  O70  1  0.25012500  0.72077000  0.77845800  1
  O  O71  1  0.75012500  0.27923000  0.72154200  1
  O  O72  1  0.67678100  0.43387600  0.41189800  1
  O  O73  1  0.17678100  0.56612400  0.08810200  1
  O  O74  1  0.32321900  0.56612400  0.58810200  1
  O  O75  1  0.82321900  0.43387600  0.91189800  1
  O  O76  1  0.71944600  0.77981400  0.25383500  1
  O  O77  1  0.21944600  0.22018600  0.24616500  1
  O  O78  1  0.28055400  0.22018600  0.74616500  1
  O  O79  1  0.78055400  0.77981400  0.75383500  1
  O  O80  1  0.86740800  0.43228300  0.41888300  1
  O  O81  1  0.36740800  0.56771700  0.08111700  1
  O  O82  1  0.13259200  0.56771700  0.58111700  1
  O  O83  1  0.63259200  0.43228300  0.91888300  1
  O  O84  1  0.05740600  0.62528700  0.31277000  1
  O  O85  1  0.55740600  0.37471300  0.18723000  1
  O  O86  1  0.94259400  0.37471300  0.68723000  1
  O  O87  1  0.66516700  0.09489900  0.11562500  1
