# generated using pymatgen
data_ZnSn2O5
_symmetry_space_group_name_H-M   'P 1'
_cell_length_a   5.61429556
_cell_length_b   5.61429556
_cell_length_c   10.44133800
_cell_angle_alpha   90.00000000
_cell_angle_beta   90.00000000
_cell_angle_gamma   138.33207747
_symmetry_Int_Tables_number   1
_chemical_formula_structural   ZnSn2O5
_chemical_formula_sum   'Zn2 Sn4 O10'
_cell_volume   218.79918760
_cell_formula_units_Z   2
loop_
 _symmetry_equiv_pos_site_id
 _symmetry_equiv_pos_as_xyz
  1  'x, y, z'
loop_
 _atom_site_type_symbol
 _atom_site_label
 _atom_site_symmetry_multiplicity
 _atom_site_fract_x
 _atom_site_fract_y
 _atom_site_fract_z
 _atom_site_occupancy
  Zn  Zn0  1  0.18196500  0.81803500  0.75000000  1
  Zn  Zn1  1  0.81803500  0.18196500  0.25000000  1
  Sn  Sn2  1  0.86360200  0.13639800  0.56679100  1
  Sn  Sn3  1  0.13639800  0.86360200  0.43320900  1
  Sn  Sn4  1  0.13639800  0.86360200  0.06679100  1
  Sn  Sn5  1  0.86360200  0.13639800  0.93320900  1
  O  O6  1  0.22378700  0.77621300  0.25000000  1
  O  O7  1  0.77621300  0.22378700  0.75000000  1
  O  O8  1  0.69373000  0.30627000  0.06051400  1
  O  O9  1  0.30627000  0.69373000  0.93948600  1
  O  O10  1  0.30627000  0.69373000  0.56051400  1
  O  O11  1  0.69373000  0.30627000  0.43948600  1
  O  O12  1  0.05143000  0.94857000  0.61291000  1
  O  O13  1  0.94857000  0.05143000  0.38709000  1
  O  O14  1  0.05143000  0.94857000  0.88709000  1
  O  O15  1  0.94857000  0.05143000  0.11291000  1
