# generated using pymatgen
data_MgCo2O5
_symmetry_space_group_name_H-M   'P 1'
_cell_length_a   5.44299285
_cell_length_b   5.44299285
_cell_length_c   11.13142900
_cell_angle_alpha   90.00000000
_cell_angle_beta   90.00000000
_cell_angle_gamma   140.21982480
_symmetry_Int_Tables_number   1
_chemical_formula_structural   MgCo2O5
_chemical_formula_sum   'Mg2 Co4 O10'
_cell_volume   211.00873522
_cell_formula_units_Z   2
loop_
 _symmetry_equiv_pos_site_id
 _symmetry_equiv_pos_as_xyz
  1  'x, y, z'
loop_
 _atom_site_type_symbol
 _atom_site_label
 _atom_site_symmetry_multiplicity
 _atom_site_fract_x
 _atom_site_fract_y
 _atom_site_fract_z
 _atom_site_occupancy
  Mg  Mg0  1  0.11094100  0.88905900  0.75000000  1
  Mg  Mg1  1  0.88905900  0.11094100  0.25000000  1
  Co  Co2  1  0.79529100  0.20470900  0.59702100  1
  Co  Co3  1  0.20470900  0.79529100  0.40297900  1
  Co  Co4  1  0.20470900  0.79529100  0.09702100  1
  Co  Co5  1  0.79529100  0.20470900  0.90297900  1
  O  O6  1  0.30288600  0.69711400  0.25000000  1
  O  O7  1  0.69711400  0.30288600  0.75000000  1
  O  O8  1  0.76731800  0.23268200  0.08002800  1
  O  O9  1  0.23268200  0.76731800  0.91997200  1
  O  O10  1  0.23268200  0.76731800  0.58002800  1
  O  O11  1  0.76731800  0.23268200  0.41997200  1
  O  O12  1  0.95710400  0.04289600  0.63015500  1
  O  O13  1  0.04289600  0.95710400  0.36984500  1
  O  O14  1  0.95710400  0.04289600  0.86984500  1
  O  O15  1  0.04289600  0.95710400  0.13015500  1
