# generated using pymatgen
data_MgCu3(MoO3)4
_symmetry_space_group_name_H-M   'P 1'
_cell_length_a   6.65824727
_cell_length_b   6.62478986
_cell_length_c   6.63229533
_cell_angle_alpha   109.34690214
_cell_angle_beta   109.59737312
_cell_angle_gamma   109.61993118
_symmetry_Int_Tables_number   1
_chemical_formula_structural   MgCu3(MoO3)4
_chemical_formula_sum   'Mg1 Cu3 Mo4 O12'
_cell_volume   224.78234650
_cell_formula_units_Z   1
loop_
 _symmetry_equiv_pos_site_id
 _symmetry_equiv_pos_as_xyz
  1  'x, y, z'
loop_
 _atom_site_type_symbol
 _atom_site_label
 _atom_site_symmetry_multiplicity
 _atom_site_fract_x
 _atom_site_fract_y
 _atom_site_fract_z
 _atom_site_occupancy
  Mg  Mg0  1  0.00000000  0.00000000  0.00000000  1
  Cu  Cu1  1  0.49999900  0.50000100  0.00000100  1
  Cu  Cu2  1  0.99999900  0.49999900  0.49999900  1
  Cu  Cu3  1  0.50000100  0.00000100  0.50000000  1
  Mo  Mo4  1  0.00000000  0.00000000  0.50000000  1
  Mo  Mo5  1  0.00000000  0.50000000  0.00000000  1
  Mo  Mo6  1  0.50000000  0.50000000  0.50000000  1
  Mo  Mo7  1  0.50000000  0.00000000  0.00000000  1
  O  O8  1  0.82967200  0.30160200  0.13330200  1
  O  O9  1  0.17032800  0.69839800  0.86669900  1
  O  O10  1  0.83499200  0.70119100  0.52634800  1
  O  O11  1  0.30546200  0.47024300  0.17251700  1
  O  O12  1  0.47240400  0.17036500  0.30448000  1
  O  O13  1  0.13319500  0.82470000  0.29902100  1
  O  O14  1  0.69587200  0.86618200  0.16964600  1
  O  O15  1  0.52759600  0.82963500  0.69552000  1
  O  O16  1  0.16500800  0.29880800  0.47365100  1
  O  O17  1  0.69453800  0.52975700  0.82748300  1
  O  O18  1  0.86680400  0.17530100  0.70097900  1
  O  O19  1  0.30412800  0.13381800  0.83035500  1
