# generated using pymatgen
data_CaCr(GeO3)2
_symmetry_space_group_name_H-M   'P 1'
_cell_length_a   9.42715400
_cell_length_b   5.31311200
_cell_length_c   10.40006729
_cell_angle_alpha   75.27703241
_cell_angle_beta   90.00000000
_cell_angle_gamma   90.00000000
_symmetry_Int_Tables_number   1
_chemical_formula_structural   CaCr(GeO3)2
_chemical_formula_sum   'Ca4 Cr4 Ge8 O24'
_cell_volume   503.80992861
_cell_formula_units_Z   4
loop_
 _symmetry_equiv_pos_site_id
 _symmetry_equiv_pos_as_xyz
  1  'x, y, z'
loop_
 _atom_site_type_symbol
 _atom_site_label
 _atom_site_symmetry_multiplicity
 _atom_site_fract_x
 _atom_site_fract_y
 _atom_site_fract_z
 _atom_site_occupancy
  Ca  Ca0  1  0.55101200  0.19458000  0.28303300  1
  Ca  Ca1  1  0.05101200  0.30542000  0.71696700  1
  Ca  Ca2  1  0.44898800  0.80542000  0.71696700  1
  Ca  Ca3  1  0.94898800  0.69458000  0.28303300  1
  Cr  Cr4  1  0.34165500  0.74794800  0.22880300  1
  Cr  Cr5  1  0.84165500  0.75205200  0.77119700  1
  Cr  Cr6  1  0.65834500  0.25205200  0.77119700  1
  Cr  Cr7  1  0.15834500  0.24794800  0.22880300  1
  Ge  Ge8  1  0.65200200  0.78796300  0.05042500  1
  Ge  Ge9  1  0.15200200  0.71203700  0.94957500  1
  Ge  Ge10  1  0.34799800  0.21203700  0.94957500  1
  Ge  Ge11  1  0.84799800  0.28796300  0.05042500  1
  Ge  Ge12  1  0.64831400  0.60193600  0.49142500  1
  Ge  Ge13  1  0.14831400  0.89806400  0.50857500  1
  Ge  Ge14  1  0.35168600  0.39806400  0.50857500  1
  Ge  Ge15  1  0.85168600  0.10193600  0.49142500  1
  O  O16  1  0.75034900  0.91201700  0.40151000  1
  O  O17  1  0.25034900  0.58798300  0.59849000  1
  O  O18  1  0.24965100  0.08798300  0.59849000  1
  O  O19  1  0.74965100  0.41201700  0.40151000  1
  O  O20  1  0.69218500  0.08342100  0.10278500  1
  O  O21  1  0.19218500  0.41657900  0.89721500  1
  O  O22  1  0.30781500  0.91657900  0.89721500  1
  O  O23  1  0.80781500  0.58342100  0.10278500  1
  O  O24  1  0.02121300  0.23734300  0.43233300  1
  O  O25  1  0.52121300  0.26265700  0.56766700  1
  O  O26  1  0.97878700  0.76265700  0.56766700  1
  O  O27  1  0.47878700  0.73734300  0.43233300  1
  O  O28  1  0.98088800  0.12006100  0.15078000  1
  O  O29  1  0.48088800  0.37993900  0.84922000  1
  O  O30  1  0.01911200  0.87993900  0.84922000  1
  O  O31  1  0.51911200  0.62006100  0.15078000  1
  O  O32  1  0.63442600  0.87158800  0.87755200  1
  O  O33  1  0.13442600  0.62841200  0.12244800  1
  O  O34  1  0.36557400  0.12841200  0.12244800  1
  O  O35  1  0.86557400  0.37158800  0.87755200  1
  O  O36  1  0.67548600  0.63010300  0.65727000  1
  O  O37  1  0.17548600  0.86989700  0.34273000  1
  O  O38  1  0.32451400  0.36989700  0.34273000  1
  O  O39  1  0.82451400  0.13010300  0.65727000  1
