# generated using pymatgen
data_Ge2MoO6
_symmetry_space_group_name_H-M   'P 1'
_cell_length_a   6.81748041
_cell_length_b   6.81748041
_cell_length_c   5.67306698
_cell_angle_alpha   77.44223186
_cell_angle_beta   77.44223186
_cell_angle_gamma   83.82361531
_symmetry_Int_Tables_number   1
_chemical_formula_structural   Ge2MoO6
_chemical_formula_sum   'Ge4 Mo2 O12'
_cell_volume   250.70444469
_cell_formula_units_Z   2
loop_
 _symmetry_equiv_pos_site_id
 _symmetry_equiv_pos_as_xyz
  1  'x, y, z'
loop_
 _atom_site_type_symbol
 _atom_site_label
 _atom_site_symmetry_multiplicity
 _atom_site_fract_x
 _atom_site_fract_y
 _atom_site_fract_z
 _atom_site_occupancy
  Ge  Ge0  1  0.20974800  0.38467000  0.76119800  1
  Ge  Ge1  1  0.61533000  0.79025200  0.73880200  1
  Ge  Ge2  1  0.79025200  0.61533000  0.23880200  1
  Ge  Ge3  1  0.38467000  0.20974800  0.26119800  1
  Mo  Mo4  1  0.09640200  0.90359800  0.75000000  1
  Mo  Mo5  1  0.90359900  0.09640100  0.25000000  1
  O  O6  1  0.38557600  0.33514500  0.50145900  1
  O  O7  1  0.66485500  0.61442400  0.99854100  1
  O  O8  1  0.61442400  0.66485500  0.49854100  1
  O  O9  1  0.33514500  0.38557600  0.00145900  1
  O  O10  1  0.62795600  0.09937400  0.19042600  1
  O  O11  1  0.90062600  0.37204400  0.30957400  1
  O  O12  1  0.37204400  0.90062600  0.80957400  1
  O  O13  1  0.09937400  0.62795600  0.69042600  1
  O  O14  1  0.03906300  0.18456400  0.86457900  1
  O  O15  1  0.81543600  0.96093700  0.63542100  1
  O  O16  1  0.96093700  0.81543600  0.13542100  1
  O  O17  1  0.18456400  0.03906300  0.36457900  1
