# generated using pymatgen
data_MgMo2O5
_symmetry_space_group_name_H-M   'P 1'
_cell_length_a   5.57621572
_cell_length_b   5.57621572
_cell_length_c   11.79985500
_cell_angle_alpha   90.00000000
_cell_angle_beta   90.00000000
_cell_angle_gamma   138.83564932
_symmetry_Int_Tables_number   1
_chemical_formula_structural   MgMo2O5
_chemical_formula_sum   'Mg2 Mo4 O10'
_cell_volume   241.50585074
_cell_formula_units_Z   2
loop_
 _symmetry_equiv_pos_site_id
 _symmetry_equiv_pos_as_xyz
  1  'x, y, z'
loop_
 _atom_site_type_symbol
 _atom_site_label
 _atom_site_symmetry_multiplicity
 _atom_site_fract_x
 _atom_site_fract_y
 _atom_site_fract_z
 _atom_site_occupancy
  Mg  Mg0  1  0.10894200  0.89105800  0.75000000  1
  Mg  Mg1  1  0.89105800  0.10894200  0.25000000  1
  Mo  Mo2  1  0.80118700  0.19881300  0.59779500  1
  Mo  Mo3  1  0.19881300  0.80118700  0.40220500  1
  Mo  Mo4  1  0.19881300  0.80118700  0.09779500  1
  Mo  Mo5  1  0.80118700  0.19881300  0.90220500  1
  O  O6  1  0.29963000  0.70037000  0.25000000  1
  O  O7  1  0.70037000  0.29963000  0.75000000  1
  O  O8  1  0.76519100  0.23480900  0.07961700  1
  O  O9  1  0.23480900  0.76519100  0.92038300  1
  O  O10  1  0.23480900  0.76519100  0.57961700  1
  O  O11  1  0.76519100  0.23480900  0.42038300  1
  O  O12  1  0.97068300  0.02931700  0.63401100  1
  O  O13  1  0.02931700  0.97068300  0.36598900  1
  O  O14  1  0.97068300  0.02931700  0.86598900  1
  O  O15  1  0.02931700  0.97068300  0.13401100  1
