# generated using pymatgen
data_Ge2WO6
_symmetry_space_group_name_H-M   'P 1'
_cell_length_a   6.83448129
_cell_length_b   6.83448129
_cell_length_c   5.69807530
_cell_angle_alpha   77.00425399
_cell_angle_beta   77.00425399
_cell_angle_gamma   84.17143597
_symmetry_Int_Tables_number   1
_chemical_formula_structural   Ge2WO6
_chemical_formula_sum   'Ge4 W2 O12'
_cell_volume   252.33356696
_cell_formula_units_Z   2
loop_
 _symmetry_equiv_pos_site_id
 _symmetry_equiv_pos_as_xyz
  1  'x, y, z'
loop_
 _atom_site_type_symbol
 _atom_site_label
 _atom_site_symmetry_multiplicity
 _atom_site_fract_x
 _atom_site_fract_y
 _atom_site_fract_z
 _atom_site_occupancy
  Ge  Ge0  1  0.21285600  0.38724800  0.75476800  1
  Ge  Ge1  1  0.61275200  0.78714400  0.74523200  1
  Ge  Ge2  1  0.78714400  0.61275200  0.24523200  1
  Ge  Ge3  1  0.38724800  0.21285600  0.25476800  1
  W  W4  1  0.09594000  0.90406000  0.75000000  1
  W  W5  1  0.90406000  0.09594000  0.25000000  1
  O  O6  1  0.38722500  0.33660800  0.49485000  1
  O  O7  1  0.66339200  0.61277500  0.00515000  1
  O  O8  1  0.61277500  0.66339200  0.50515000  1
  O  O9  1  0.33660800  0.38722500  0.99485000  1
  O  O10  1  0.62676500  0.09930400  0.18761100  1
  O  O11  1  0.90069600  0.37323500  0.31238900  1
  O  O12  1  0.37323500  0.90069600  0.81238900  1
  O  O13  1  0.09930400  0.62676500  0.68761100  1
  O  O14  1  0.04230900  0.18412600  0.86318000  1
  O  O15  1  0.81587400  0.95769100  0.63682000  1
  O  O16  1  0.95769100  0.81587400  0.13682000  1
  O  O17  1  0.18412600  0.04230900  0.36318000  1
