# generated using pymatgen
data_ZnCo(GeO3)2
_symmetry_space_group_name_H-M   'P 1'
_cell_length_a   9.21989200
_cell_length_b   5.48633400
_cell_length_c   9.77907122
_cell_angle_alpha   77.98794342
_cell_angle_beta   90.00000000
_cell_angle_gamma   90.00000000
_symmetry_Int_Tables_number   1
_chemical_formula_structural   ZnCo(GeO3)2
_chemical_formula_sum   'Zn4 Co4 Ge8 O24'
_cell_volume   483.82760661
_cell_formula_units_Z   4
loop_
 _symmetry_equiv_pos_site_id
 _symmetry_equiv_pos_as_xyz
  1  'x, y, z'
loop_
 _atom_site_type_symbol
 _atom_site_label
 _atom_site_symmetry_multiplicity
 _atom_site_fract_x
 _atom_site_fract_y
 _atom_site_fract_z
 _atom_site_occupancy
  Zn  Zn0  1  0.50068100  0.54496800  0.24685100  1
  Zn  Zn1  1  0.00068100  0.95503200  0.75314900  1
  Zn  Zn2  1  0.49931900  0.45503200  0.75314900  1
  Zn  Zn3  1  0.99931900  0.04496800  0.24685100  1
  Co  Co4  1  0.65299300  0.03986100  0.24570900  1
  Co  Co5  1  0.15299300  0.46013900  0.75429100  1
  Co  Co6  1  0.34700700  0.96013900  0.75429100  1
  Co  Co7  1  0.84700700  0.53986100  0.24570900  1
  Ge  Ge8  1  0.33699600  0.18984900  0.05544600  1
  Ge  Ge9  1  0.83699600  0.31015100  0.94455400  1
  Ge  Ge10  1  0.66300400  0.81015100  0.94455400  1
  Ge  Ge11  1  0.16300400  0.68984900  0.05544600  1
  Ge  Ge12  1  0.34137600  0.75788000  0.45376500  1
  Ge  Ge13  1  0.84137600  0.74212000  0.54623500  1
  Ge  Ge14  1  0.65862400  0.24212000  0.54623500  1
  Ge  Ge15  1  0.15862400  0.25788000  0.45376500  1
  O  O16  1  0.28343400  0.49832700  0.38264300  1
  O  O17  1  0.78343400  0.00167300  0.61735700  1
  O  O18  1  0.71656600  0.50167300  0.61735700  1
  O  O19  1  0.21656600  0.99832700  0.38264300  1
  O  O20  1  0.31441400  0.85668000  0.10860600  1
  O  O21  1  0.81441400  0.64332000  0.89139400  1
  O  O22  1  0.68558600  0.14332000  0.89139400  1
  O  O23  1  0.18558600  0.35668000  0.10860600  1
  O  O24  1  0.98990700  0.29705300  0.37242600  1
  O  O25  1  0.48990700  0.20294700  0.62757400  1
  O  O26  1  0.01009300  0.70294700  0.62757400  1
  O  O27  1  0.51009300  0.79705300  0.37242600  1
  O  O28  1  0.01011100  0.77402200  0.13918900  1
  O  O29  1  0.51011100  0.72597800  0.86081100  1
  O  O30  1  0.98988900  0.22597800  0.86081100  1
  O  O31  1  0.48988900  0.27402200  0.13918900  1
  O  O32  1  0.33462600  0.24742100  0.86940200  1
  O  O33  1  0.83462600  0.25257900  0.13059800  1
  O  O34  1  0.66537400  0.75257900  0.13059800  1
  O  O35  1  0.16537400  0.74742100  0.86940200  1
  O  O36  1  0.33557100  0.68516000  0.63818700  1
  O  O37  1  0.83557100  0.81484000  0.36181300  1
  O  O38  1  0.66442900  0.31484000  0.36181300  1
  O  O39  1  0.16442900  0.18516000  0.63818700  1
