# generated using pymatgen
data_Ge2MoO6
_symmetry_space_group_name_H-M   'P 1'
_cell_length_a   9.29059600
_cell_length_b   5.57993000
_cell_length_c   10.39569818
_cell_angle_alpha   74.87139944
_cell_angle_beta   90.00000000
_cell_angle_gamma   90.00000000
_symmetry_Int_Tables_number   1
_chemical_formula_structural   Ge2MoO6
_chemical_formula_sum   'Ge8 Mo4 O24'
_cell_volume   520.24438694
_cell_formula_units_Z   4
loop_
 _symmetry_equiv_pos_site_id
 _symmetry_equiv_pos_as_xyz
  1  'x, y, z'
loop_
 _atom_site_type_symbol
 _atom_site_label
 _atom_site_symmetry_multiplicity
 _atom_site_fract_x
 _atom_site_fract_y
 _atom_site_fract_z
 _atom_site_occupancy
  Ge  Ge0  1  0.66950700  0.79735500  0.05118200  1
  Ge  Ge1  1  0.16950700  0.70264500  0.94881800  1
  Ge  Ge2  1  0.33049300  0.20264500  0.94881800  1
  Ge  Ge3  1  0.83049300  0.29735500  0.05118200  1
  Ge  Ge4  1  0.65840400  0.64830100  0.47051300  1
  Ge  Ge5  1  0.15840400  0.85169900  0.52948700  1
  Ge  Ge6  1  0.34159600  0.35169900  0.52948700  1
  Ge  Ge7  1  0.84159600  0.14830100  0.47051300  1
  Mo  Mo8  1  0.35497700  0.73980800  0.24089000  1
  Mo  Mo9  1  0.85497700  0.76019200  0.75911000  1
  Mo  Mo10  1  0.64502300  0.26019200  0.75911000  1
  Mo  Mo11  1  0.14502300  0.23980800  0.24089000  1
  O  O12  1  0.73745400  0.94639000  0.40533700  1
  O  O13  1  0.23745400  0.55361000  0.59466300  1
  O  O14  1  0.26254600  0.05361000  0.59466300  1
  O  O15  1  0.76254600  0.44639000  0.40533700  1
  O  O16  1  0.70372100  0.05991000  0.11099700  1
  O  O17  1  0.20372100  0.44009000  0.88900300  1
  O  O18  1  0.29627900  0.94009000  0.88900300  1
  O  O19  1  0.79627900  0.55991000  0.11099700  1
  O  O20  1  0.01902800  0.20476200  0.40676700  1
  O  O21  1  0.51902800  0.29523800  0.59323300  1
  O  O22  1  0.98097200  0.79523800  0.59323300  1
  O  O23  1  0.48097200  0.70476200  0.40676700  1
  O  O24  1  0.00238900  0.19374000  0.11021700  1
  O  O25  1  0.50238900  0.30626000  0.88978300  1
  O  O26  1  0.99761100  0.80626000  0.88978300  1
  O  O27  1  0.49761100  0.69374000  0.11021700  1
  O  O28  1  0.68238000  0.88690300  0.87167400  1
  O  O29  1  0.18238000  0.61309700  0.12832600  1
  O  O30  1  0.31762000  0.11309700  0.12832600  1
  O  O31  1  0.81762000  0.38690300  0.87167400  1
  O  O32  1  0.69495700  0.60498300  0.65125200  1
  O  O33  1  0.19495700  0.89501700  0.34874800  1
  O  O34  1  0.30504300  0.39501700  0.34874800  1
  O  O35  1  0.80504300  0.10498300  0.65125200  1
