# generated using pymatgen
data_Mg(Ni2O3)2
_symmetry_space_group_name_H-M   'P 1'
_cell_length_a   5.08250772
_cell_length_b   5.08250772
_cell_length_c   14.77806000
_cell_angle_alpha   90.00000000
_cell_angle_beta   90.00000000
_cell_angle_gamma   146.54988340
_symmetry_Int_Tables_number   1
_chemical_formula_structural   Mg(Ni2O3)2
_chemical_formula_sum   'Mg2 Ni8 O12'
_cell_volume   210.42203373
_cell_formula_units_Z   2
loop_
 _symmetry_equiv_pos_site_id
 _symmetry_equiv_pos_as_xyz
  1  'x, y, z'
loop_
 _atom_site_type_symbol
 _atom_site_label
 _atom_site_symmetry_multiplicity
 _atom_site_fract_x
 _atom_site_fract_y
 _atom_site_fract_z
 _atom_site_occupancy
  Mg  Mg0  1  0.34340000  0.65660000  0.75000000  1
  Mg  Mg1  1  0.65660000  0.34340000  0.25000000  1
  Ni  Ni2  1  0.13666200  0.86333800  0.04436500  1
  Ni  Ni3  1  0.59419500  0.40580500  0.63570500  1
  Ni  Ni4  1  0.86333800  0.13666200  0.95563500  1
  Ni  Ni5  1  0.40580500  0.59419500  0.36429500  1
  Ni  Ni6  1  0.13666200  0.86333800  0.45563500  1
  Ni  Ni7  1  0.86333800  0.13666200  0.54436500  1
  Ni  Ni8  1  0.40580500  0.59419500  0.13570500  1
  Ni  Ni9  1  0.59419500  0.40580500  0.86429500  1
  O  O10  1  0.50000000  0.50000000  0.50000000  1
  O  O11  1  0.50000000  0.50000000  0.00000000  1
  O  O12  1  0.95247400  0.04752600  0.83857600  1
  O  O13  1  0.04752600  0.95247400  0.16142400  1
  O  O14  1  0.04752600  0.95247400  0.33857600  1
  O  O15  1  0.95247400  0.04752600  0.66142400  1
  O  O16  1  0.22291800  0.77708200  0.92254000  1
  O  O17  1  0.77708200  0.22291800  0.07746000  1
  O  O18  1  0.77708200  0.22291800  0.42254000  1
  O  O19  1  0.22291800  0.77708200  0.57746000  1
  O  O20  1  0.69530800  0.30469200  0.75000000  1
  O  O21  1  0.30469200  0.69530800  0.25000000  1
