# generated using pymatgen
data_CaGe2WO6
_symmetry_space_group_name_H-M   'P 1'
_cell_length_a   8.85345400
_cell_length_b   5.64981200
_cell_length_c   12.58667075
_cell_angle_alpha   78.40402702
_cell_angle_beta   90.00000000
_cell_angle_gamma   90.00000000
_symmetry_Int_Tables_number   1
_chemical_formula_structural   CaGe2WO6
_chemical_formula_sum   'Ca4 Ge8 W4 O24'
_cell_volume   616.73936882
_cell_formula_units_Z   4
loop_
 _symmetry_equiv_pos_site_id
 _symmetry_equiv_pos_as_xyz
  1  'x, y, z'
loop_
 _atom_site_type_symbol
 _atom_site_label
 _atom_site_symmetry_multiplicity
 _atom_site_fract_x
 _atom_site_fract_y
 _atom_site_fract_z
 _atom_site_occupancy
  Ca  Ca0  1  0.58291100  0.22222300  0.24596400  1
  Ca  Ca1  1  0.08291100  0.27777700  0.75403600  1
  Ca  Ca2  1  0.41708900  0.77777700  0.75403600  1
  Ca  Ca3  1  0.91708900  0.72222300  0.24596400  1
  Ge  Ge4  1  0.62855600  0.74964900  0.07700200  1
  Ge  Ge5  1  0.12855600  0.75035100  0.92299800  1
  Ge  Ge6  1  0.37144400  0.25035100  0.92299800  1
  Ge  Ge7  1  0.87144400  0.24964900  0.07700200  1
  Ge  Ge8  1  0.65470700  0.72051600  0.46676700  1
  Ge  Ge9  1  0.15470700  0.77948400  0.53323300  1
  Ge  Ge10  1  0.34529300  0.27948400  0.53323300  1
  Ge  Ge11  1  0.84529300  0.22051600  0.46676700  1
  W  W12  1  0.33848700  0.70265900  0.29256800  1
  W  W13  1  0.83848700  0.79734100  0.70743200  1
  W  W14  1  0.66151300  0.29734100  0.70743200  1
  W  W15  1  0.16151300  0.20265900  0.29256800  1
  O  O16  1  0.74902400  0.00133700  0.40367300  1
  O  O17  1  0.24902400  0.49866300  0.59632700  1
  O  O18  1  0.25097600  0.99866300  0.59632700  1
  O  O19  1  0.75097600  0.50133700  0.40367300  1
  O  O20  1  0.72483100  0.98642600  0.14600300  1
  O  O21  1  0.22483100  0.51357400  0.85399700  1
  O  O22  1  0.27516900  0.01357400  0.85399700  1
  O  O23  1  0.77516900  0.48642600  0.14600300  1
  O  O24  1  0.02785700  0.27502300  0.41867900  1
  O  O25  1  0.52785700  0.22497700  0.58132100  1
  O  O26  1  0.97214300  0.72497700  0.58132100  1
  O  O27  1  0.47214300  0.77502300  0.41867900  1
  O  O28  1  0.99562100  0.11967500  0.20135100  1
  O  O29  1  0.49562100  0.38032500  0.79864900  1
  O  O30  1  0.00437900  0.88032500  0.79864900  1
  O  O31  1  0.50437900  0.61967500  0.20135100  1
  O  O32  1  0.65884300  0.92861000  0.77282200  1
  O  O33  1  0.15884300  0.57139000  0.22717800  1
  O  O34  1  0.34115700  0.07139000  0.22717800  1
  O  O35  1  0.84115700  0.42861000  0.77282200  1
  O  O36  1  0.66216100  0.67022000  0.60942500  1
  O  O37  1  0.16216100  0.82978000  0.39057500  1
  O  O38  1  0.33783900  0.32978000  0.39057500  1
  O  O39  1  0.83783900  0.17022000  0.60942500  1
