# generated using pymatgen
data_TaNiP2O9
_symmetry_space_group_name_H-M   'P 1'
_cell_length_a   6.45644900
_cell_length_b   7.97633700
_cell_length_c   14.29875800
_cell_angle_alpha   90.00000000
_cell_angle_beta   90.00000000
_cell_angle_gamma   90.00000000
_symmetry_Int_Tables_number   1
_chemical_formula_structural   TaNiP2O9
_chemical_formula_sum   'Ta4 Ni4 P8 O36'
_cell_volume   736.36906505
_cell_formula_units_Z   4
loop_
 _symmetry_equiv_pos_site_id
 _symmetry_equiv_pos_as_xyz
  1  'x, y, z'
loop_
 _atom_site_type_symbol
 _atom_site_label
 _atom_site_symmetry_multiplicity
 _atom_site_fract_x
 _atom_site_fract_y
 _atom_site_fract_z
 _atom_site_occupancy
  Ta  Ta0  1  0.75000000  0.84475600  0.38019300  1
  Ta  Ta1  1  0.25000000  0.15524400  0.61980700  1
  Ta  Ta2  1  0.25000000  0.34475600  0.11980700  1
  Ta  Ta3  1  0.75000000  0.65524400  0.88019300  1
  Ni  Ni4  1  0.50000000  0.50000000  0.50000000  1
  Ni  Ni5  1  0.50000000  0.00000000  0.00000000  1
  Ni  Ni6  1  0.00000000  0.00000000  0.00000000  1
  Ni  Ni7  1  0.00000000  0.50000000  0.50000000  1
  P  P8  1  0.25000000  0.84376200  0.44319900  1
  P  P9  1  0.75000000  0.15623800  0.55680100  1
  P  P10  1  0.75000000  0.34376200  0.05680100  1
  P  P11  1  0.25000000  0.65623800  0.94319900  1
  P  P12  1  0.75000000  0.89319600  0.18653800  1
  P  P13  1  0.25000000  0.10680400  0.81346200  1
  P  P14  1  0.25000000  0.39319600  0.31346200  1
  P  P15  1  0.75000000  0.60680400  0.68653800  1
  O  O16  1  0.05523100  0.10429200  0.87448000  1
  O  O17  1  0.55523100  0.89570800  0.12552000  1
  O  O18  1  0.94476900  0.60429200  0.62552000  1
  O  O19  1  0.44476900  0.39570800  0.37448000  1
  O  O20  1  0.94476900  0.89570800  0.12552000  1
  O  O21  1  0.44476900  0.10429200  0.87448000  1
  O  O22  1  0.05523100  0.39570800  0.37448000  1
  O  O23  1  0.55523100  0.60429200  0.62552000  1
  O  O24  1  0.25000000  0.83536300  0.98239200  1
  O  O25  1  0.75000000  0.16463700  0.01760800  1
  O  O26  1  0.75000000  0.33536300  0.51760800  1
  O  O27  1  0.25000000  0.66463700  0.48239200  1
  O  O28  1  0.75000000  0.65012800  0.44754100  1
  O  O29  1  0.25000000  0.34987200  0.55245900  1
  O  O30  1  0.25000000  0.15012800  0.05245900  1
  O  O31  1  0.75000000  0.84987200  0.94754100  1
  O  O32  1  0.75000000  0.73507200  0.25295800  1
  O  O33  1  0.25000000  0.26492800  0.74704200  1
  O  O34  1  0.25000000  0.23507200  0.24704200  1
  O  O35  1  0.75000000  0.76492800  0.75295800  1
  O  O36  1  0.44318400  0.62994000  0.88105200  1
  O  O37  1  0.94318400  0.37006000  0.11894800  1
  O  O38  1  0.55681600  0.12994000  0.61894800  1
  O  O39  1  0.05681600  0.87006000  0.38105200  1
  O  O40  1  0.55681600  0.37006000  0.11894800  1
  O  O41  1  0.05681600  0.62994000  0.88105200  1
  O  O42  1  0.44318400  0.87006000  0.38105200  1
  O  O43  1  0.94318400  0.12994000  0.61894800  1
  O  O44  1  0.75000000  0.46355200  0.76044600  1
  O  O45  1  0.25000000  0.53644800  0.23955400  1
  O  O46  1  0.25000000  0.96355200  0.73955400  1
  O  O47  1  0.75000000  0.03644800  0.26044600  1
  O  O48  1  0.75000000  0.47570200  0.97809300  1
  O  O49  1  0.25000000  0.52429800  0.02190700  1
  O  O50  1  0.25000000  0.97570200  0.52190700  1
  O  O51  1  0.75000000  0.02429800  0.47809300  1
