# generated using pymatgen
data_Si4BiO10
_symmetry_space_group_name_H-M   'P 1'
_cell_length_a   7.53115000
_cell_length_b   7.53115000
_cell_length_c   16.45589700
_cell_angle_alpha   90.00000000
_cell_angle_beta   90.00000000
_cell_angle_gamma   90.00000000
_symmetry_Int_Tables_number   1
_chemical_formula_structural   Si4BiO10
_chemical_formula_sum   'Si16 Bi4 O40'
_cell_volume   933.34919165
_cell_formula_units_Z   4
loop_
 _symmetry_equiv_pos_site_id
 _symmetry_equiv_pos_as_xyz
  1  'x, y, z'
loop_
 _atom_site_type_symbol
 _atom_site_label
 _atom_site_symmetry_multiplicity
 _atom_site_fract_x
 _atom_site_fract_y
 _atom_site_fract_z
 _atom_site_occupancy
  Si  Si0  1  0.16935500  0.25502900  0.65553800  1
  Si  Si1  1  0.83064500  0.74497100  0.65553800  1
  Si  Si2  1  0.25502900  0.16935500  0.84446200  1
  Si  Si3  1  0.75502900  0.33064500  0.65553800  1
  Si  Si4  1  0.24497100  0.66935500  0.65553800  1
  Si  Si5  1  0.33064500  0.75502900  0.84446200  1
  Si  Si6  1  0.66935500  0.24497100  0.84446200  1
  Si  Si7  1  0.74497100  0.83064500  0.84446200  1
  Si  Si8  1  0.33064500  0.24497100  0.34446200  1
  Si  Si9  1  0.66935500  0.75502900  0.34446200  1
  Si  Si10  1  0.24497100  0.33064500  0.15553800  1
  Si  Si11  1  0.74497100  0.16935500  0.34446200  1
  Si  Si12  1  0.25502900  0.83064500  0.34446200  1
  Si  Si13  1  0.16935500  0.74497100  0.15553800  1
  Si  Si14  1  0.83064500  0.25502900  0.15553800  1
  Si  Si15  1  0.75502900  0.66935500  0.15553800  1
  Bi  Bi16  1  0.50000000  0.00000000  0.54036100  1
  Bi  Bi17  1  0.00000000  0.50000000  0.95963900  1
  Bi  Bi18  1  0.00000000  0.50000000  0.45963900  1
  Bi  Bi19  1  0.50000000  0.00000000  0.04036100  1
  O  O20  1  0.26091000  0.11437500  0.59396500  1
  O  O21  1  0.73909000  0.88562500  0.59396500  1
  O  O22  1  0.11437500  0.26091000  0.90603500  1
  O  O23  1  0.61437500  0.23909000  0.59396500  1
  O  O24  1  0.38562500  0.76091000  0.59396500  1
  O  O25  1  0.23909000  0.61437500  0.90603500  1
  O  O26  1  0.76091000  0.38562500  0.90603500  1
  O  O27  1  0.88562500  0.73909000  0.90603500  1
  O  O28  1  0.23909000  0.38562500  0.40603500  1
  O  O29  1  0.76091000  0.61437500  0.40603500  1
  O  O30  1  0.38562500  0.23909000  0.09396500  1
  O  O31  1  0.88562500  0.26091000  0.40603500  1
  O  O32  1  0.11437500  0.73909000  0.40603500  1
  O  O33  1  0.26091000  0.88562500  0.09396500  1
  O  O34  1  0.73909000  0.11437500  0.09396500  1
  O  O35  1  0.25743500  0.04446200  0.36275600  1
  O  O36  1  0.61437500  0.76091000  0.09396500  1
  O  O37  1  0.75743500  0.54446200  0.63724400  1
  O  O38  1  0.45553800  0.24256500  0.86275600  1
  O  O39  1  0.95553800  0.25743500  0.63724400  1
  O  O40  1  0.04446200  0.74256500  0.63724400  1
  O  O41  1  0.25743500  0.95553800  0.86275600  1
  O  O42  1  0.74256500  0.04446200  0.86275600  1
  O  O43  1  0.54446200  0.75743500  0.86275600  1
  O  O44  1  0.70053700  0.70053700  0.25000000  1
  O  O45  1  0.79946300  0.20053700  0.25000000  1
  O  O46  1  0.20053700  0.79946300  0.25000000  1
  O  O47  1  0.29946300  0.29946300  0.25000000  1
  O  O48  1  0.79946300  0.79946300  0.75000000  1
  O  O49  1  0.70053700  0.29946300  0.75000000  1
  O  O50  1  0.29946300  0.70053700  0.75000000  1
  O  O51  1  0.20053700  0.20053700  0.75000000  1
  O  O52  1  0.95553800  0.74256500  0.13724400  1
  O  O53  1  0.75743500  0.45553800  0.13724400  1
  O  O54  1  0.24256500  0.54446200  0.13724400  1
  O  O55  1  0.45553800  0.75743500  0.36275600  1
  O  O56  1  0.54446200  0.24256500  0.36275600  1
  O  O57  1  0.04446200  0.25743500  0.13724400  1
  O  O58  1  0.74256500  0.95553800  0.36275600  1
  O  O59  1  0.24256500  0.45553800  0.63724400  1
