# generated using pymatgen
data_TaPO5
_symmetry_space_group_name_H-M   'P 1'
_cell_length_a   10.39536412
_cell_length_b   9.10883856
_cell_length_c   7.12370371
_cell_angle_alpha   78.59862333
_cell_angle_beta   59.19879150
_cell_angle_gamma   42.20258517
_symmetry_Int_Tables_number   1
_chemical_formula_structural   TaPO5
_chemical_formula_sum   'Ta4 P4 O20'
_cell_volume   369.42364978
_cell_formula_units_Z   4
loop_
 _symmetry_equiv_pos_site_id
 _symmetry_equiv_pos_as_xyz
  1  'x, y, z'
loop_
 _atom_site_type_symbol
 _atom_site_label
 _atom_site_symmetry_multiplicity
 _atom_site_fract_x
 _atom_site_fract_y
 _atom_site_fract_z
 _atom_site_occupancy
  Ta  Ta0  1  0.87500200  0.37963800  0.38296600  1
  Ta  Ta1  1  0.36239300  0.38296600  0.37963800  1
  Ta  Ta2  1  0.87036200  0.37499800  0.88760700  1
  Ta  Ta3  1  0.86703400  0.88760700  0.37499800  1
  P  P4  1  0.02910400  0.54161300  0.96936400  1
  P  P5  1  0.70838700  0.22089600  0.79008000  1
  P  P6  1  0.45992000  0.96936400  0.54161300  1
  P  P7  1  0.28063600  0.79008000  0.22089600  1
  O  O8  1  0.60148900  0.72198500  0.44194900  1
  O  O9  1  0.65950200  0.17736500  0.33205300  1
  O  O10  1  0.30865300  0.64841200  0.39175200  1
  O  O11  1  0.80805100  0.01542200  0.64851100  1
  O  O12  1  0.21612100  0.10353600  0.75012200  1
  O  O13  1  0.42363600  0.11288700  0.37132000  1
  O  O14  1  0.07263500  0.59049800  0.41892000  1
  O  O15  1  0.83108000  0.33205300  0.17736500  1
  O  O16  1  0.91794700  0.41892000  0.59049800  1
  O  O17  1  0.14646400  0.03387900  0.31977900  1
  O  O18  1  0.23457800  0.44194900  0.72198500  1
  O  O19  1  0.49987800  0.31977900  0.03387900  1
  O  O20  1  0.93022100  0.75012200  0.10353600  1
  O  O21  1  0.13711300  0.82636400  0.15784200  1
  O  O22  1  0.09215800  0.37132000  0.11288700  1
  O  O23  1  0.87868000  0.15784200  0.82636400  1
  O  O24  1  0.85824800  0.59881700  0.94134700  1
  O  O25  1  0.65118300  0.39175200  0.64841200  1
  O  O26  1  0.52801500  0.64851100  0.01542200  1
  O  O27  1  0.60158800  0.94134700  0.59881700  1
