# generated using pymatgen
data_MgCo3(P2O7)2
_symmetry_space_group_name_H-M   'P 1'
_cell_length_a   7.54476000
_cell_length_b   7.31508900
_cell_length_c   9.58000780
_cell_angle_alpha   68.03322302
_cell_angle_beta   90.00000000
_cell_angle_gamma   90.00000000
_symmetry_Int_Tables_number   1
_chemical_formula_structural   MgCo3(P2O7)2
_chemical_formula_sum   'Mg2 Co6 P8 O28'
_cell_volume   490.34124623
_cell_formula_units_Z   2
loop_
 _symmetry_equiv_pos_site_id
 _symmetry_equiv_pos_as_xyz
  1  'x, y, z'
loop_
 _atom_site_type_symbol
 _atom_site_label
 _atom_site_symmetry_multiplicity
 _atom_site_fract_x
 _atom_site_fract_y
 _atom_site_fract_z
 _atom_site_occupancy
  Mg  Mg0  1  0.00000000  0.50000000  0.00000000  1
  Mg  Mg1  1  0.50000000  0.50000000  0.50000000  1
  Co  Co2  1  0.12886000  0.81285000  0.52190800  1
  Co  Co3  1  0.62886000  0.18715000  0.97809200  1
  Co  Co4  1  0.87114000  0.18715000  0.47809200  1
  Co  Co5  1  0.37114000  0.81285000  0.02190800  1
  Co  Co6  1  0.00000000  0.00000000  0.00000000  1
  Co  Co7  1  0.50000000  0.00000000  0.50000000  1
  P  P8  1  0.92639300  0.41228100  0.70514200  1
  P  P9  1  0.42639300  0.58771900  0.79485800  1
  P  P10  1  0.07360700  0.58771900  0.29485800  1
  P  P11  1  0.57360700  0.41228100  0.20514200  1
  P  P12  1  0.20732900  0.13120800  0.68769800  1
  P  P13  1  0.70732900  0.86879200  0.81230200  1
  P  P14  1  0.79267100  0.86879200  0.31230200  1
  P  P15  1  0.29267100  0.13120800  0.18769800  1
  O  O16  1  0.38310200  0.19403000  0.60212300  1
  O  O17  1  0.88310200  0.80597000  0.89787700  1
  O  O18  1  0.61689800  0.80597000  0.39787700  1
  O  O19  1  0.11689800  0.19403000  0.10212300  1
  O  O20  1  0.38438200  0.71124700  0.62542000  1
  O  O21  1  0.88438200  0.28875300  0.87458000  1
  O  O22  1  0.61561800  0.28875300  0.37458000  1
  O  O23  1  0.11561800  0.71124700  0.12542000  1
  O  O24  1  0.79074200  0.38454100  0.59662200  1
  O  O25  1  0.29074200  0.61545900  0.90337800  1
  O  O26  1  0.20925800  0.61545900  0.40337800  1
  O  O27  1  0.70925800  0.38454100  0.09662200  1
  O  O28  1  0.11477800  0.33437900  0.67147300  1
  O  O29  1  0.61477800  0.66562100  0.82852700  1
  O  O30  1  0.88522200  0.66562100  0.32852700  1
  O  O31  1  0.38522200  0.33437900  0.17147300  1
  O  O32  1  0.52728800  0.62109800  0.19009900  1
  O  O33  1  0.02728800  0.37890200  0.30990100  1
  O  O34  1  0.47271200  0.37890200  0.80990100  1
  O  O35  1  0.97271200  0.62109800  0.69009900  1
  O  O36  1  0.78503900  0.98347400  0.14131500  1
  O  O37  1  0.28503900  0.01652600  0.35868500  1
  O  O38  1  0.21496100  0.01652600  0.85868500  1
  O  O39  1  0.71496100  0.98347400  0.64131500  1
  O  O40  1  0.41427500  0.03212000  0.10916300  1
  O  O41  1  0.91427500  0.96788000  0.39083700  1
  O  O42  1  0.58572500  0.96788000  0.89083700  1
  O  O43  1  0.08572500  0.03212000  0.60916300  1
