# generated using pymatgen
data_Mg(W2O3)2
_symmetry_space_group_name_H-M   'P 1'
_cell_length_a   5.63674832
_cell_length_b   5.63674832
_cell_length_c   16.72175600
_cell_angle_alpha   90.00000000
_cell_angle_beta   90.00000000
_cell_angle_gamma   146.68391123
_symmetry_Int_Tables_number   1
_chemical_formula_structural   Mg(W2O3)2
_chemical_formula_sum   'Mg2 W8 O12'
_cell_volume   291.82007234
_cell_formula_units_Z   2
loop_
 _symmetry_equiv_pos_site_id
 _symmetry_equiv_pos_as_xyz
  1  'x, y, z'
loop_
 _atom_site_type_symbol
 _atom_site_label
 _atom_site_symmetry_multiplicity
 _atom_site_fract_x
 _atom_site_fract_y
 _atom_site_fract_z
 _atom_site_occupancy
  Mg  Mg0  1  0.32825400  0.67174600  0.75000000  1
  Mg  Mg1  1  0.67174600  0.32825400  0.25000000  1
  W  W2  1  0.12843600  0.87156400  0.05321300  1
  W  W3  1  0.62566900  0.37433100  0.63772700  1
  W  W4  1  0.87156400  0.12843600  0.94678700  1
  W  W5  1  0.37433100  0.62566900  0.36227300  1
  W  W6  1  0.12843600  0.87156400  0.44678700  1
  W  W7  1  0.87156400  0.12843600  0.55321300  1
  W  W8  1  0.37433100  0.62566900  0.13772700  1
  W  W9  1  0.62566900  0.37433100  0.86227300  1
  O  O10  1  0.50000000  0.50000000  0.50000000  1
  O  O11  1  0.50000000  0.50000000  0.00000000  1
  O  O12  1  0.99892900  0.00107100  0.84703600  1
  O  O13  1  0.00107100  0.99892900  0.15296400  1
  O  O14  1  0.00107100  0.99892900  0.34703600  1
  O  O15  1  0.99892900  0.00107100  0.65296400  1
  O  O16  1  0.27982700  0.72017300  0.87358300  1
  O  O17  1  0.72017300  0.27982700  0.12641700  1
  O  O18  1  0.72017300  0.27982700  0.37358300  1
  O  O19  1  0.27982700  0.72017300  0.62641700  1
  O  O20  1  0.71543000  0.28457000  0.75000000  1
  O  O21  1  0.28457000  0.71543000  0.25000000  1
