# generated using pymatgen
data_Ca(BiO2)4
_symmetry_space_group_name_H-M   'P 1'
_cell_length_a   6.93933966
_cell_length_b   6.93933966
_cell_length_c   6.93933918
_cell_angle_alpha   61.85209980
_cell_angle_beta   61.85209980
_cell_angle_gamma   61.85209942
_symmetry_Int_Tables_number   1
_chemical_formula_structural   Ca(BiO2)4
_chemical_formula_sum   'Ca1 Bi4 O8'
_cell_volume   246.08586521
_cell_formula_units_Z   1
loop_
 _symmetry_equiv_pos_site_id
 _symmetry_equiv_pos_as_xyz
  1  'x, y, z'
loop_
 _atom_site_type_symbol
 _atom_site_label
 _atom_site_symmetry_multiplicity
 _atom_site_fract_x
 _atom_site_fract_y
 _atom_site_fract_z
 _atom_site_occupancy
  Ca  Ca0  1  0.50000000  0.50000000  0.50000000  1
  Bi  Bi1  1  0.00000000  0.50000000  0.50000000  1
  Bi  Bi2  1  0.50000000  0.00000000  0.50000000  1
  Bi  Bi3  1  0.50000000  0.50000000  0.00000000  1
  Bi  Bi4  1  0.00000000  0.00000000  0.00000000  1
  O  O5  1  0.28279100  0.75105000  0.75105000  1
  O  O6  1  0.24895000  0.24895000  0.71720900  1
  O  O7  1  0.71720900  0.24895000  0.24895000  1
  O  O8  1  0.24895000  0.71720900  0.24895000  1
  O  O9  1  0.27107500  0.27107500  0.27107500  1
  O  O10  1  0.72892500  0.72892500  0.72892500  1
  O  O11  1  0.75105000  0.28279100  0.75105000  1
  O  O12  1  0.75105000  0.75105000  0.28279100  1
