# generated using pymatgen
data_TaZnBiO5
_symmetry_space_group_name_H-M   'P 1'
_cell_length_a   5.41083125
_cell_length_b   8.06905454
_cell_length_c   12.12849000
_cell_angle_alpha   90.00000000
_cell_angle_beta   90.00000000
_cell_angle_gamma   106.31152042
_symmetry_Int_Tables_number   1
_chemical_formula_structural   TaZnBiO5
_chemical_formula_sum   'Ta4 Zn4 Bi4 O20'
_cell_volume   508.21908550
_cell_formula_units_Z   4
loop_
 _symmetry_equiv_pos_site_id
 _symmetry_equiv_pos_as_xyz
  1  'x, y, z'
loop_
 _atom_site_type_symbol
 _atom_site_label
 _atom_site_symmetry_multiplicity
 _atom_site_fract_x
 _atom_site_fract_y
 _atom_site_fract_z
 _atom_site_occupancy
  Ta  Ta0  1  0.78692600  0.96599800  0.64476300  1
  Ta  Ta1  1  0.21307400  0.03400200  0.35523700  1
  Ta  Ta2  1  0.71307400  0.53400200  0.14476300  1
  Ta  Ta3  1  0.28692600  0.46599800  0.85523700  1
  Zn  Zn4  1  0.62081500  0.16652000  0.91888400  1
  Zn  Zn5  1  0.37918500  0.83348000  0.08111600  1
  Zn  Zn6  1  0.87918500  0.33348000  0.41888400  1
  Zn  Zn7  1  0.12081500  0.66652000  0.58111600  1
  Bi  Bi8  1  0.11438800  0.16763000  0.09250600  1
  Bi  Bi9  1  0.88561200  0.83237000  0.90749400  1
  Bi  Bi10  1  0.61438800  0.66763000  0.40749400  1
  Bi  Bi11  1  0.38561200  0.33237000  0.59250600  1
  O  O12  1  0.54855100  0.32904200  0.06956700  1
  O  O13  1  0.02017300  0.31890600  0.94013000  1
  O  O14  1  0.47636200  0.65231300  0.17454700  1
  O  O15  1  0.75751800  0.51509200  0.52501400  1
  O  O16  1  0.80276700  0.48675100  0.28865300  1
  O  O17  1  0.30276700  0.98675100  0.21134700  1
  O  O18  1  0.52017300  0.81890600  0.55987000  1
  O  O19  1  0.47982700  0.18109400  0.44013000  1
  O  O20  1  0.24248200  0.48490800  0.47498600  1
  O  O21  1  0.95144900  0.17095800  0.56956700  1
  O  O22  1  0.19723300  0.51324900  0.71134700  1
  O  O23  1  0.45144900  0.67095800  0.93043300  1
  O  O24  1  0.04855100  0.82904200  0.43043300  1
  O  O25  1  0.69723300  0.01324900  0.78865300  1
  O  O26  1  0.74248200  0.98490800  0.02501300  1
  O  O27  1  0.25751800  0.01509200  0.97498600  1
  O  O28  1  0.52363800  0.34768700  0.82545300  1
  O  O29  1  0.97982700  0.68109400  0.05987000  1
  O  O30  1  0.02363800  0.84768700  0.67454700  1
  O  O31  1  0.97636200  0.15231300  0.32545300  1
