# generated using pymatgen
data_BiSbO5
_symmetry_space_group_name_H-M   'P 1'
_cell_length_a   10.53049700
_cell_length_b   5.86225600
_cell_length_c   8.96842467
_cell_angle_alpha   66.89567204
_cell_angle_beta   90.00000000
_cell_angle_gamma   90.00000000
_symmetry_Int_Tables_number   1
_chemical_formula_structural   BiSbO5
_chemical_formula_sum   'Bi4 Sb4 O20'
_cell_volume   509.23632413
_cell_formula_units_Z   4
loop_
 _symmetry_equiv_pos_site_id
 _symmetry_equiv_pos_as_xyz
  1  'x, y, z'
loop_
 _atom_site_type_symbol
 _atom_site_label
 _atom_site_symmetry_multiplicity
 _atom_site_fract_x
 _atom_site_fract_y
 _atom_site_fract_z
 _atom_site_occupancy
  Bi  Bi0  1  0.89627300  0.01246800  0.86788200  1
  Bi  Bi1  1  0.10372700  0.98753200  0.13211800  1
  Bi  Bi2  1  0.60372700  0.01246800  0.36788200  1
  Bi  Bi3  1  0.39627300  0.98753200  0.63211800  1
  Sb  Sb4  1  0.39245100  0.10445100  0.07841300  1
  Sb  Sb5  1  0.60754900  0.89554900  0.92158700  1
  Sb  Sb6  1  0.89245100  0.89554900  0.42158700  1
  Sb  Sb7  1  0.10754900  0.10445100  0.57841300  1
  O  O8  1  0.94645600  0.87568800  0.63933300  1
  O  O9  1  0.01006800  0.28783200  0.67980800  1
  O  O10  1  0.78397600  0.18539300  0.30244300  1
  O  O11  1  0.43496700  0.81847400  0.46521600  1
  O  O12  1  0.73369500  0.70454000  0.48119200  1
  O  O13  1  0.76630500  0.70454000  0.98119200  1
  O  O14  1  0.48993200  0.28783200  0.17980800  1
  O  O15  1  0.51006800  0.71216800  0.82019200  1
  O  O16  1  0.56503300  0.18152600  0.53478400  1
  O  O17  1  0.44645600  0.12431200  0.86066700  1
  O  O18  1  0.26630500  0.29546000  0.51880800  1
  O  O19  1  0.05354400  0.12431200  0.36066700  1
  O  O20  1  0.55354400  0.87568800  0.13933300  1
  O  O21  1  0.23369500  0.29546000  0.01880800  1
  O  O22  1  0.93496700  0.18152600  0.03478400  1
  O  O23  1  0.06503300  0.81847400  0.96521600  1
  O  O24  1  0.21602400  0.81460700  0.69755700  1
  O  O25  1  0.98993200  0.71216800  0.32019200  1
  O  O26  1  0.28397600  0.81460700  0.19755700  1
  O  O27  1  0.71602400  0.18539300  0.80244300  1
