# generated using pymatgen
data_Ca(Co2O3)2
_symmetry_space_group_name_H-M   'P 1'
_cell_length_a   5.21289296
_cell_length_b   5.21289296
_cell_length_c   15.28212700
_cell_angle_alpha   90.00000000
_cell_angle_beta   90.00000000
_cell_angle_gamma   145.28178509
_symmetry_Int_Tables_number   1
_chemical_formula_structural   Ca(Co2O3)2
_chemical_formula_sum   'Ca2 Co8 O12'
_cell_volume   236.51914881
_cell_formula_units_Z   2
loop_
 _symmetry_equiv_pos_site_id
 _symmetry_equiv_pos_as_xyz
  1  'x, y, z'
loop_
 _atom_site_type_symbol
 _atom_site_label
 _atom_site_symmetry_multiplicity
 _atom_site_fract_x
 _atom_site_fract_y
 _atom_site_fract_z
 _atom_site_occupancy
  Ca  Ca0  1  0.33766900  0.66233100  0.75000000  1
  Ca  Ca1  1  0.66233100  0.33766900  0.25000000  1
  Co  Co2  1  0.13778300  0.86221700  0.04413300  1
  Co  Co3  1  0.59075400  0.40924600  0.63464600  1
  Co  Co4  1  0.86221700  0.13778300  0.95586700  1
  Co  Co5  1  0.40924600  0.59075400  0.36535400  1
  Co  Co6  1  0.13778300  0.86221700  0.45586700  1
  Co  Co7  1  0.86221700  0.13778300  0.54413300  1
  Co  Co8  1  0.40924600  0.59075400  0.13464600  1
  Co  Co9  1  0.59075400  0.40924600  0.86535400  1
  O  O10  1  0.50000000  0.50000000  0.50000000  1
  O  O11  1  0.50000000  0.50000000  0.00000000  1
  O  O12  1  0.94796800  0.05203200  0.84894700  1
  O  O13  1  0.05203200  0.94796800  0.15105300  1
  O  O14  1  0.05203200  0.94796800  0.34894700  1
  O  O15  1  0.94796800  0.05203200  0.65105300  1
  O  O16  1  0.22563100  0.77436900  0.92726200  1
  O  O17  1  0.77436900  0.22563100  0.07273800  1
  O  O18  1  0.77436900  0.22563100  0.42726200  1
  O  O19  1  0.22563100  0.77436900  0.57273800  1
  O  O20  1  0.67272100  0.32727900  0.75000000  1
  O  O21  1  0.32727900  0.67272100  0.25000000  1
