# generated using pymatgen
data_ZnBi2O5
_symmetry_space_group_name_H-M   'P 1'
_cell_length_a   11.80711600
_cell_length_b   5.49137000
_cell_length_c   8.91857934
_cell_angle_alpha   68.18394328
_cell_angle_beta   90.00000000
_cell_angle_gamma   90.00000000
_symmetry_Int_Tables_number   1
_chemical_formula_structural   ZnBi2O5
_chemical_formula_sum   'Zn4 Bi8 O20'
_cell_volume   536.84238370
_cell_formula_units_Z   4
loop_
 _symmetry_equiv_pos_site_id
 _symmetry_equiv_pos_as_xyz
  1  'x, y, z'
loop_
 _atom_site_type_symbol
 _atom_site_label
 _atom_site_symmetry_multiplicity
 _atom_site_fract_x
 _atom_site_fract_y
 _atom_site_fract_z
 _atom_site_occupancy
  Zn  Zn0  1  0.08942700  0.53792700  0.85130300  1
  Zn  Zn1  1  0.91057300  0.46207300  0.14869700  1
  Zn  Zn2  1  0.58942700  0.46207300  0.64869700  1
  Zn  Zn3  1  0.41057300  0.53792700  0.35130300  1
  Bi  Bi4  1  0.38504700  0.15211900  0.05531400  1
  Bi  Bi5  1  0.61495300  0.84788100  0.94468600  1
  Bi  Bi6  1  0.88504700  0.84788100  0.44468600  1
  Bi  Bi7  1  0.11495300  0.15211900  0.55531400  1
  Bi  Bi8  1  0.89458300  0.06301900  0.85072000  1
  Bi  Bi9  1  0.10541700  0.93698100  0.14928000  1
  Bi  Bi10  1  0.60541700  0.06301900  0.35072000  1
  Bi  Bi11  1  0.39458300  0.93698100  0.64928000  1
  O  O12  1  0.95359200  0.88495900  0.65418200  1
  O  O13  1  0.03826400  0.35497600  0.68358100  1
  O  O14  1  0.80737000  0.18827700  0.29325300  1
  O  O15  1  0.48063200  0.74768800  0.48990500  1
  O  O16  1  0.71792000  0.71926200  0.51962300  1
  O  O17  1  0.78208000  0.71926200  0.01962300  1
  O  O18  1  0.46173600  0.35497600  0.18358100  1
  O  O19  1  0.53826400  0.64502400  0.81641900  1
  O  O20  1  0.51936800  0.25231200  0.51009500  1
  O  O21  1  0.45359200  0.11504100  0.84581800  1
  O  O22  1  0.28208000  0.28073800  0.48037700  1
  O  O23  1  0.04640800  0.11504100  0.34581800  1
  O  O24  1  0.54640800  0.88495900  0.15418200  1
  O  O25  1  0.21792000  0.28073800  0.98037700  1
  O  O26  1  0.98063200  0.25231200  0.01009500  1
  O  O27  1  0.01936800  0.74768800  0.98990500  1
  O  O28  1  0.19263000  0.81172300  0.70674700  1
  O  O29  1  0.96173600  0.64502400  0.31641900  1
  O  O30  1  0.30737000  0.81172300  0.20674700  1
  O  O31  1  0.69263000  0.18827700  0.79325300  1
