# generated using pymatgen
data_Si4MoO10
_symmetry_space_group_name_H-M   'P 1'
_cell_length_a   7.55614900
_cell_length_b   7.55614900
_cell_length_c   15.77303200
_cell_angle_alpha   90.00000000
_cell_angle_beta   90.00000000
_cell_angle_gamma   90.00000000
_symmetry_Int_Tables_number   1
_chemical_formula_structural   Si4MoO10
_chemical_formula_sum   'Si16 Mo4 O40'
_cell_volume   900.56737741
_cell_formula_units_Z   4
loop_
 _symmetry_equiv_pos_site_id
 _symmetry_equiv_pos_as_xyz
  1  'x, y, z'
loop_
 _atom_site_type_symbol
 _atom_site_label
 _atom_site_symmetry_multiplicity
 _atom_site_fract_x
 _atom_site_fract_y
 _atom_site_fract_z
 _atom_site_occupancy
  Si  Si0  1  0.16916400  0.25915300  0.65154700  1
  Si  Si1  1  0.83083600  0.74084700  0.65154700  1
  Si  Si2  1  0.25915300  0.16916400  0.84845300  1
  Si  Si3  1  0.75915300  0.33083600  0.65154700  1
  Si  Si4  1  0.24084700  0.66916400  0.65154700  1
  Si  Si5  1  0.33083600  0.75915300  0.84845300  1
  Si  Si6  1  0.66916400  0.24084700  0.84845300  1
  Si  Si7  1  0.74084700  0.83083600  0.84845300  1
  Si  Si8  1  0.33083600  0.24084700  0.34845300  1
  Si  Si9  1  0.66916400  0.75915300  0.34845300  1
  Si  Si10  1  0.24084700  0.33083600  0.15154700  1
  Si  Si11  1  0.74084700  0.16916400  0.34845300  1
  Si  Si12  1  0.25915300  0.83083600  0.34845300  1
  Si  Si13  1  0.16916400  0.74084700  0.15154700  1
  Si  Si14  1  0.83083600  0.25915300  0.15154700  1
  Si  Si15  1  0.75915300  0.66916400  0.15154700  1
  Mo  Mo16  1  0.50000000  0.00000000  0.57844600  1
  Mo  Mo17  1  0.00000000  0.50000000  0.92155400  1
  Mo  Mo18  1  0.00000000  0.50000000  0.42155400  1
  Mo  Mo19  1  0.50000000  0.00000000  0.07844600  1
  O  O20  1  0.27137100  0.11912000  0.59032400  1
  O  O21  1  0.72862900  0.88088000  0.59032400  1
  O  O22  1  0.11912000  0.27137100  0.90967600  1
  O  O23  1  0.61912000  0.22862900  0.59032400  1
  O  O24  1  0.38088000  0.77137100  0.59032400  1
  O  O25  1  0.22862900  0.61912000  0.90967600  1
  O  O26  1  0.77137100  0.38088000  0.90967600  1
  O  O27  1  0.88088000  0.72862900  0.90967600  1
  O  O28  1  0.22862900  0.38088000  0.40967600  1
  O  O29  1  0.77137100  0.61912000  0.40967600  1
  O  O30  1  0.38088000  0.22862900  0.09032400  1
  O  O31  1  0.88088000  0.27137100  0.40967600  1
  O  O32  1  0.11912000  0.72862900  0.40967600  1
  O  O33  1  0.27137100  0.88088000  0.09032400  1
  O  O34  1  0.72862900  0.11912000  0.09032400  1
  O  O35  1  0.25628600  0.04219600  0.36733100  1
  O  O36  1  0.61912000  0.77137100  0.09032400  1
  O  O37  1  0.75628600  0.54219600  0.63266900  1
  O  O38  1  0.45780400  0.24371400  0.86733100  1
  O  O39  1  0.95780400  0.25628600  0.63266900  1
  O  O40  1  0.04219600  0.74371400  0.63266900  1
  O  O41  1  0.25628600  0.95780400  0.86733100  1
  O  O42  1  0.74371400  0.04219600  0.86733100  1
  O  O43  1  0.54219600  0.75628600  0.86733100  1
  O  O44  1  0.70498700  0.70498700  0.25000000  1
  O  O45  1  0.79501300  0.20498700  0.25000000  1
  O  O46  1  0.20498700  0.79501300  0.25000000  1
  O  O47  1  0.29501300  0.29501300  0.25000000  1
  O  O48  1  0.79501300  0.79501300  0.75000000  1
  O  O49  1  0.70498700  0.29501300  0.75000000  1
  O  O50  1  0.29501300  0.70498700  0.75000000  1
  O  O51  1  0.20498700  0.20498700  0.75000000  1
  O  O52  1  0.95780400  0.74371400  0.13266900  1
  O  O53  1  0.75628600  0.45780400  0.13266900  1
  O  O54  1  0.24371400  0.54219600  0.13266900  1
  O  O55  1  0.45780400  0.75628600  0.36733100  1
  O  O56  1  0.54219600  0.24371400  0.36733100  1
  O  O57  1  0.04219600  0.25628600  0.13266900  1
  O  O58  1  0.74371400  0.95780400  0.36733100  1
  O  O59  1  0.24371400  0.45780400  0.63266900  1
