# generated using pymatgen
data_LaTiZnFeO6
_symmetry_space_group_name_H-M   'P 1'
_cell_length_a   5.71697900
_cell_length_b   5.40173600
_cell_length_c   9.41414666
_cell_angle_alpha   55.14483997
_cell_angle_beta   90.00000000
_cell_angle_gamma   90.00000000
_symmetry_Int_Tables_number   1
_chemical_formula_structural   LaTiZnFeO6
_chemical_formula_sum   'La2 Ti2 Zn2 Fe2 O12'
_cell_volume   238.56795134
_cell_formula_units_Z   2
loop_
 _symmetry_equiv_pos_site_id
 _symmetry_equiv_pos_as_xyz
  1  'x, y, z'
loop_
 _atom_site_type_symbol
 _atom_site_label
 _atom_site_symmetry_multiplicity
 _atom_site_fract_x
 _atom_site_fract_y
 _atom_site_fract_z
 _atom_site_occupancy
  La  La0  1  0.30383300  0.23507100  0.74940300  1
  La  La1  1  0.69616700  0.23507100  0.24940300  1
  Ti  Ti2  1  0.78367300  0.49549900  0.50003600  1
  Ti  Ti3  1  0.21632700  0.49549900  0.00003600  1
  Zn  Zn4  1  0.66319800  0.73564800  0.74907100  1
  Zn  Zn5  1  0.33680200  0.73564800  0.24907100  1
  Fe  Fe6  1  0.76685600  0.99741700  0.99578800  1
  Fe  Fe7  1  0.23314400  0.99741700  0.49578800  1
  O  O8  1  0.27574800  0.37760800  0.24723900  1
  O  O9  1  0.44396700  0.14965300  0.05309900  1
  O  O10  1  0.44130800  0.75132500  0.44734700  1
  O  O11  1  0.55869200  0.75132500  0.94734700  1
  O  O12  1  0.55603300  0.14965300  0.55309900  1
  O  O13  1  0.72425200  0.37760800  0.74723900  1
  O  O14  1  0.74696400  0.67095100  0.25547500  1
  O  O15  1  0.95011000  0.83466000  0.45748000  1
  O  O16  1  0.96361000  0.25216800  0.04506200  1
  O  O17  1  0.03639000  0.25216800  0.54506200  1
  O  O18  1  0.04989000  0.83466000  0.95748000  1
  O  O19  1  0.25303600  0.67095100  0.75547500  1
