# generated using pymatgen
data_MgSn3O7
_symmetry_space_group_name_H-M   'P 1'
_cell_length_a   5.23510300
_cell_length_b   10.23531900
_cell_length_c   10.31861700
_cell_angle_alpha   90.00000000
_cell_angle_beta   90.00000000
_cell_angle_gamma   90.00000000
_symmetry_Int_Tables_number   1
_chemical_formula_structural   MgSn3O7
_chemical_formula_sum   'Mg4 Sn12 O28'
_cell_volume   552.90193055
_cell_formula_units_Z   4
loop_
 _symmetry_equiv_pos_site_id
 _symmetry_equiv_pos_as_xyz
  1  'x, y, z'
loop_
 _atom_site_type_symbol
 _atom_site_label
 _atom_site_symmetry_multiplicity
 _atom_site_fract_x
 _atom_site_fract_y
 _atom_site_fract_z
 _atom_site_occupancy
  Mg  Mg0  1  0.33139900  0.13665700  0.25000000  1
  Mg  Mg1  1  0.83139900  0.36334300  0.75000000  1
  Mg  Mg2  1  0.66860100  0.86334300  0.75000000  1
  Mg  Mg3  1  0.16860100  0.63665700  0.25000000  1
  Sn  Sn4  1  0.64659400  0.63880100  0.01604300  1
  Sn  Sn5  1  0.14659400  0.86119900  0.98395700  1
  Sn  Sn6  1  0.35340600  0.36119900  0.51604300  1
  Sn  Sn7  1  0.85340600  0.13880100  0.48395700  1
  Sn  Sn8  1  0.68636800  0.85517700  0.25000000  1
  Sn  Sn9  1  0.18636800  0.64482300  0.75000000  1
  Sn  Sn10  1  0.31363200  0.14482300  0.75000000  1
  Sn  Sn11  1  0.81363200  0.35517700  0.25000000  1
  Sn  Sn12  1  0.14659400  0.86119900  0.51604300  1
  Sn  Sn13  1  0.64659400  0.63880100  0.48395700  1
  Sn  Sn14  1  0.85340600  0.13880100  0.01604300  1
  Sn  Sn15  1  0.35340600  0.36119900  0.98395700  1
  O  O16  1  0.07487200  0.24387000  0.87849500  1
  O  O17  1  0.57487200  0.25613000  0.12150500  1
  O  O18  1  0.92512800  0.75613000  0.37849500  1
  O  O19  1  0.42512800  0.74387000  0.62150500  1
  O  O20  1  0.92512800  0.75613000  0.12150500  1
  O  O21  1  0.42512800  0.74387000  0.87849500  1
  O  O22  1  0.07487200  0.24387000  0.62150500  1
  O  O23  1  0.57487200  0.25613000  0.37849500  1
  O  O24  1  0.57324700  0.21938200  0.87806300  1
  O  O25  1  0.07324700  0.28061800  0.12193700  1
  O  O26  1  0.42675300  0.78061800  0.37806300  1
  O  O27  1  0.92675300  0.71938200  0.62193700  1
  O  O28  1  0.42675300  0.78061800  0.12193700  1
  O  O29  1  0.92675300  0.71938200  0.87806300  1
  O  O30  1  0.57324700  0.21938200  0.62193700  1
  O  O31  1  0.07324700  0.28061800  0.37806300  1
  O  O32  1  0.80034500  0.54478300  0.25000000  1
  O  O33  1  0.30034500  0.95521700  0.75000000  1
  O  O34  1  0.19965500  0.45521700  0.75000000  1
  O  O35  1  0.69965500  0.04478300  0.25000000  1
  O  O36  1  0.81714600  0.96784800  0.58402500  1
  O  O37  1  0.31714600  0.53215200  0.41597500  1
  O  O38  1  0.18285400  0.03215200  0.08402500  1
  O  O39  1  0.68285400  0.46784800  0.91597500  1
  O  O40  1  0.18285400  0.03215200  0.41597500  1
  O  O41  1  0.68285400  0.46784800  0.58402500  1
  O  O42  1  0.81714600  0.96784800  0.91597500  1
  O  O43  1  0.31714600  0.53215200  0.08402500  1
