# generated using pymatgen
data_V2Zn(PO5)2
_symmetry_space_group_name_H-M   'P 1'
_cell_length_a   9.89250510
_cell_length_b   8.89628922
_cell_length_c   6.68798720
_cell_angle_alpha   77.37375756
_cell_angle_beta   61.34797917
_cell_angle_gamma   41.27826327
_symmetry_Int_Tables_number   1
_chemical_formula_structural   V2Zn(PO5)2
_chemical_formula_sum   'V4 Zn2 P4 O20'
_cell_volume   330.38008921
_cell_formula_units_Z   2
loop_
 _symmetry_equiv_pos_site_id
 _symmetry_equiv_pos_as_xyz
  1  'x, y, z'
loop_
 _atom_site_type_symbol
 _atom_site_label
 _atom_site_symmetry_multiplicity
 _atom_site_fract_x
 _atom_site_fract_y
 _atom_site_fract_z
 _atom_site_occupancy
  V  V0  1  0.87879300  0.38234400  0.38884700  1
  V  V1  1  0.35001700  0.38884700  0.38234400  1
  V  V2  1  0.86765600  0.37120700  0.89998300  1
  V  V3  1  0.86115300  0.89998300  0.37120700  1
  Zn  Zn4  1  0.50631300  0.99368700  0.99368700  1
  Zn  Zn5  1  0.25631300  0.74368700  0.74368700  1
  P  P6  1  0.03601500  0.54776600  0.96294400  1
  P  P7  1  0.70223400  0.21398500  0.79672600  1
  P  P8  1  0.45327400  0.96294400  0.54776600  1
  P  P9  1  0.28705600  0.79672600  0.21398500  1
  O  O10  1  0.58652700  0.72135200  0.44374800  1
  O  O11  1  0.65670700  0.17854100  0.33750800  1
  O  O12  1  0.30687000  0.66183600  0.41530800  1
  O  O13  1  0.80625200  0.00162700  0.66347300  1
  O  O14  1  0.21588100  0.08260200  0.75711300  1
  O  O15  1  0.42703300  0.10155700  0.34904800  1
  O  O16  1  0.07145900  0.59329300  0.42275600  1
  O  O17  1  0.82724400  0.33750800  0.17854100  1
  O  O18  1  0.91249200  0.42275600  0.59329300  1
  O  O19  1  0.16739800  0.03411900  0.30559600  1
  O  O20  1  0.24837300  0.44374800  0.72135200  1
  O  O21  1  0.49288700  0.30559600  0.03411900  1
  O  O22  1  0.94440400  0.75711300  0.08260200  1
  O  O23  1  0.14844300  0.82296700  0.12763800  1
  O  O24  1  0.12236200  0.34904800  0.10155700  1
  O  O25  1  0.90095200  0.12763800  0.82296700  1
  O  O26  1  0.83469200  0.63401400  0.94313000  1
  O  O27  1  0.61598600  0.41530800  0.66183600  1
  O  O28  1  0.52864800  0.66347300  0.00162700  1
  O  O29  1  0.58816400  0.94313000  0.63401400  1
