# generated using pymatgen
data_TiV3Sb2(PO4)6
_symmetry_space_group_name_H-M   'P 1'
_cell_length_a   8.90745875
_cell_length_b   8.90745875
_cell_length_c   8.90745834
_cell_angle_alpha   58.60483532
_cell_angle_beta   58.60483532
_cell_angle_gamma   58.60483864
_symmetry_Int_Tables_number   1
_chemical_formula_structural   TiV3Sb2(PO4)6
_chemical_formula_sum   'Ti1 V3 Sb2 P6 O24'
_cell_volume   483.80253110
_cell_formula_units_Z   1
loop_
 _symmetry_equiv_pos_site_id
 _symmetry_equiv_pos_as_xyz
  1  'x, y, z'
loop_
 _atom_site_type_symbol
 _atom_site_label
 _atom_site_symmetry_multiplicity
 _atom_site_fract_x
 _atom_site_fract_y
 _atom_site_fract_z
 _atom_site_occupancy
  Ti  Ti0  1  0.14865700  0.14865700  0.14865700  1
  V  V1  1  0.64524400  0.64524400  0.64524400  1
  V  V2  1  0.85284600  0.85284600  0.85284600  1
  V  V3  1  0.35346100  0.35346100  0.35346100  1
  Sb  Sb4  1  0.99647200  0.99647200  0.99647200  1
  Sb  Sb5  1  0.49420700  0.49420700  0.49420700  1
  P  P6  1  0.54062600  0.95968300  0.25173200  1
  P  P7  1  0.25173200  0.54062600  0.95968300  1
  P  P8  1  0.95968300  0.25173200  0.54062600  1
  P  P9  1  0.03953900  0.75326000  0.45867500  1
  P  P10  1  0.75326000  0.45867500  0.03953900  1
  P  P11  1  0.45867500  0.03953900  0.75326000  1
  O  O12  1  0.30158600  0.50815700  0.11450400  1
  O  O13  1  0.11450400  0.30158600  0.50815700  1
  O  O14  1  0.50815700  0.11450400  0.30158600  1
  O  O15  1  0.73227600  0.93774700  0.08405800  1
  O  O16  1  0.37912600  0.00323700  0.19502000  1
  O  O17  1  0.55670700  0.76855700  0.41374700  1
  O  O18  1  0.08405800  0.73227600  0.93774700  1
  O  O19  1  0.41374700  0.55670700  0.76855700  1
  O  O20  1  0.00923300  0.80476000  0.61279400  1
  O  O21  1  0.76855700  0.41374700  0.55670700  1
  O  O22  1  0.06517900  0.92047000  0.26491800  1
  O  O23  1  0.80476000  0.61279400  0.00923300  1
  O  O24  1  0.19502000  0.37912600  0.00323700  1
  O  O25  1  0.93774700  0.08405800  0.73227600  1
  O  O26  1  0.23467600  0.58762800  0.43499500  1
  O  O27  1  0.00323700  0.19502000  0.37912600  1
  O  O28  1  0.58762800  0.43499500  0.23467600  1
  O  O29  1  0.92047000  0.26491800  0.06517900  1
  O  O30  1  0.43499500  0.23467600  0.58762800  1
  O  O31  1  0.61279400  0.00923300  0.80476000  1
  O  O32  1  0.26491800  0.06517900  0.92047000  1
  O  O33  1  0.48792100  0.88643800  0.70186200  1
  O  O34  1  0.88643800  0.70186200  0.48792100  1
  O  O35  1  0.70186200  0.48792100  0.88643800  1
