# generated using pymatgen
data_CaLaFeMoO6
_symmetry_space_group_name_H-M   'P 1'
_cell_length_a   5.69632800
_cell_length_b   5.60513300
_cell_length_c   9.63310608
_cell_angle_alpha   55.18780390
_cell_angle_beta   90.00000000
_cell_angle_gamma   90.00000000
_symmetry_Int_Tables_number   1
_chemical_formula_structural   CaLaFeMoO6
_chemical_formula_sum   'Ca2 La2 Fe2 Mo2 O12'
_cell_volume   252.52539954
_cell_formula_units_Z   2
loop_
 _symmetry_equiv_pos_site_id
 _symmetry_equiv_pos_as_xyz
  1  'x, y, z'
loop_
 _atom_site_type_symbol
 _atom_site_label
 _atom_site_symmetry_multiplicity
 _atom_site_fract_x
 _atom_site_fract_y
 _atom_site_fract_z
 _atom_site_occupancy
  Ca  Ca0  1  0.79661300  0.76519700  0.74929600  1
  Ca  Ca1  1  0.20338700  0.76519700  0.24929600  1
  La  La2  1  0.28974300  0.23557100  0.75215900  1
  La  La3  1  0.71025700  0.23557100  0.25215900  1
  Fe  Fe4  1  0.75026900  0.99973900  0.99951700  1
  Fe  Fe5  1  0.24973100  0.99973900  0.49951700  1
  Mo  Mo6  1  0.75076100  0.49912900  0.50096700  1
  Mo  Mo7  1  0.24923900  0.49912900  0.00096700  1
  O  O8  1  0.27276000  0.34353400  0.25006400  1
  O  O9  1  0.46309900  0.14609800  0.05225100  1
  O  O10  1  0.45956200  0.75150800  0.45277100  1
  O  O11  1  0.54043800  0.75150800  0.95277100  1
  O  O12  1  0.53690100  0.14609800  0.55225100  1
  O  O13  1  0.72724000  0.34353400  0.75006400  1
  O  O14  1  0.77757300  0.66501100  0.24940900  1
  O  O15  1  0.96729900  0.84778600  0.44903400  1
  O  O16  1  0.96223500  0.24642700  0.04453300  1
  O  O17  1  0.03776500  0.24642700  0.54453300  1
  O  O18  1  0.03270100  0.84778600  0.94903400  1
  O  O19  1  0.22242700  0.66501100  0.74940900  1
