# generated using pymatgen
data_MgCuBiO5
_symmetry_space_group_name_H-M   'P 1'
_cell_length_a   10.30540900
_cell_length_b   5.39152400
_cell_length_c   8.51683592
_cell_angle_alpha   71.54323706
_cell_angle_beta   90.00000000
_cell_angle_gamma   90.00000000
_symmetry_Int_Tables_number   1
_chemical_formula_structural   MgCuBiO5
_chemical_formula_sum   'Mg4 Cu4 Bi4 O20'
_cell_volume   448.87059835
_cell_formula_units_Z   4
loop_
 _symmetry_equiv_pos_site_id
 _symmetry_equiv_pos_as_xyz
  1  'x, y, z'
loop_
 _atom_site_type_symbol
 _atom_site_label
 _atom_site_symmetry_multiplicity
 _atom_site_fract_x
 _atom_site_fract_y
 _atom_site_fract_z
 _atom_site_occupancy
  Mg  Mg0  1  0.10003600  0.51125900  0.84373400  1
  Mg  Mg1  1  0.89996400  0.48874100  0.15626600  1
  Mg  Mg2  1  0.60003600  0.48874100  0.65626600  1
  Mg  Mg3  1  0.39996400  0.51125900  0.34373400  1
  Cu  Cu4  1  0.38024600  0.05998600  0.07037800  1
  Cu  Cu5  1  0.61975400  0.94001400  0.92962200  1
  Cu  Cu6  1  0.88024600  0.94001400  0.42962200  1
  Cu  Cu7  1  0.11975400  0.05998600  0.57037800  1
  Bi  Bi8  1  0.90611500  0.04561100  0.83314700  1
  Bi  Bi9  1  0.09388500  0.95438900  0.16685300  1
  Bi  Bi10  1  0.59388500  0.04561100  0.33314700  1
  Bi  Bi11  1  0.40611500  0.95438900  0.66685300  1
  O  O12  1  0.97165300  0.84930300  0.64915300  1
  O  O13  1  0.03639300  0.31162300  0.68899400  1
  O  O14  1  0.78010700  0.20412200  0.27552600  1
  O  O15  1  0.46340700  0.74775200  0.49039100  1
  O  O16  1  0.72545000  0.76700300  0.49424800  1
  O  O17  1  0.77455000  0.76700300  0.99424800  1
  O  O18  1  0.46360700  0.31162300  0.18899400  1
  O  O19  1  0.53639300  0.68837700  0.81100600  1
  O  O20  1  0.53659300  0.25224800  0.50960900  1
  O  O21  1  0.47165300  0.15069700  0.85084700  1
  O  O22  1  0.27455000  0.23299700  0.50575200  1
  O  O23  1  0.02834700  0.15069700  0.35084700  1
  O  O24  1  0.52834700  0.84930300  0.14915300  1
  O  O25  1  0.22545000  0.23299700  0.00575200  1
  O  O26  1  0.96340700  0.25224800  0.00960900  1
  O  O27  1  0.03659300  0.74775200  0.99039100  1
  O  O28  1  0.21989300  0.79587800  0.72447400  1
  O  O29  1  0.96360700  0.68837700  0.31100600  1
  O  O30  1  0.28010700  0.79587800  0.22447400  1
  O  O31  1  0.71989300  0.20412200  0.77552600  1
