# generated using pymatgen
data_LaZnFeCoO6
_symmetry_space_group_name_H-M   'P 1'
_cell_length_a   5.53659800
_cell_length_b   5.31773700
_cell_length_c   9.23394996
_cell_angle_alpha   55.60454981
_cell_angle_beta   90.00000000
_cell_angle_gamma   90.00000000
_symmetry_Int_Tables_number   1
_chemical_formula_structural   LaZnFeCoO6
_chemical_formula_sum   'La2 Zn2 Fe2 Co2 O12'
_cell_volume   224.33377603
_cell_formula_units_Z   2
loop_
 _symmetry_equiv_pos_site_id
 _symmetry_equiv_pos_as_xyz
  1  'x, y, z'
loop_
 _atom_site_type_symbol
 _atom_site_label
 _atom_site_symmetry_multiplicity
 _atom_site_fract_x
 _atom_site_fract_y
 _atom_site_fract_z
 _atom_site_occupancy
  La  La0  1  0.22235200  0.73954700  0.25029200  1
  La  La1  1  0.77764800  0.73954700  0.75029200  1
  Zn  Zn2  1  0.71543700  0.27702300  0.25105500  1
  Zn  Zn3  1  0.28456300  0.27702300  0.75105500  1
  Fe  Fe4  1  0.74697300  0.99784300  0.00218700  1
  Fe  Fe5  1  0.25302700  0.99784300  0.50218700  1
  Co  Co6  1  0.74816700  0.49999100  0.49860300  1
  Co  Co7  1  0.25183300  0.49999100  0.99860300  1
  O  O8  1  0.23638600  0.88673800  0.75356400  1
  O  O9  1  0.04539300  0.25974500  0.94327100  1
  O  O10  1  0.04562600  0.64204500  0.55686200  1
  O  O11  1  0.95437400  0.64204500  0.05686200  1
  O  O12  1  0.95460700  0.25974500  0.44327100  1
  O  O13  1  0.76361400  0.88673800  0.25356400  1
  O  O14  1  0.72183300  0.17719000  0.74661800  1
  O  O15  1  0.50839700  0.70187700  0.55567300  1
  O  O16  1  0.50511600  0.31800100  0.94187500  1
  O  O17  1  0.49488400  0.31800100  0.44187500  1
  O  O18  1  0.49160300  0.70187700  0.05567300  1
  O  O19  1  0.27816700  0.17719000  0.24661800  1
