# generated using pymatgen
data_ZnSnBiO5
_symmetry_space_group_name_H-M   'P 1'
_cell_length_a   11.15786400
_cell_length_b   5.33282100
_cell_length_c   8.81112013
_cell_angle_alpha   73.00569278
_cell_angle_beta   90.00000000
_cell_angle_gamma   90.00000000
_symmetry_Int_Tables_number   1
_chemical_formula_structural   ZnSnBiO5
_chemical_formula_sum   'Zn4 Sn4 Bi4 O20'
_cell_volume   501.39349847
_cell_formula_units_Z   4
loop_
 _symmetry_equiv_pos_site_id
 _symmetry_equiv_pos_as_xyz
  1  'x, y, z'
loop_
 _atom_site_type_symbol
 _atom_site_label
 _atom_site_symmetry_multiplicity
 _atom_site_fract_x
 _atom_site_fract_y
 _atom_site_fract_z
 _atom_site_occupancy
  Zn  Zn0  1  0.10617800  0.52446700  0.85584200  1
  Zn  Zn1  1  0.89382200  0.47553300  0.14415800  1
  Zn  Zn2  1  0.60617800  0.47553300  0.64415800  1
  Zn  Zn3  1  0.39382200  0.52446700  0.35584200  1
  Sn  Sn4  1  0.38781900  0.13321700  0.07024300  1
  Sn  Sn5  1  0.61218100  0.86678300  0.92975700  1
  Sn  Sn6  1  0.88781900  0.86678300  0.42975700  1
  Sn  Sn7  1  0.11218100  0.13321700  0.57024300  1
  Bi  Bi8  1  0.89252400  0.05699000  0.84695600  1
  Bi  Bi9  1  0.10747600  0.94301000  0.15304400  1
  Bi  Bi10  1  0.60747600  0.05699000  0.34695600  1
  Bi  Bi11  1  0.39252400  0.94301000  0.65304400  1
  O  O12  1  0.94674000  0.90811600  0.63973700  1
  O  O13  1  0.03523400  0.34836400  0.69849900  1
  O  O14  1  0.79774900  0.19000100  0.29519600  1
  O  O15  1  0.46713700  0.76903400  0.47191700  1
  O  O16  1  0.72088300  0.72162000  0.49454600  1
  O  O17  1  0.77911700  0.72162000  0.99454600  1
  O  O18  1  0.46476600  0.34836400  0.19849900  1
  O  O19  1  0.53523400  0.65163600  0.80150100  1
  O  O20  1  0.53286300  0.23096600  0.52808300  1
  O  O21  1  0.44674000  0.09188400  0.86026300  1
  O  O22  1  0.27911700  0.27838000  0.50545400  1
  O  O23  1  0.05326000  0.09188400  0.36026300  1
  O  O24  1  0.55326000  0.90811600  0.13973700  1
  O  O25  1  0.22088300  0.27838000  0.00545400  1
  O  O26  1  0.96713700  0.23096600  0.02808300  1
  O  O27  1  0.03286300  0.76903400  0.97191700  1
  O  O28  1  0.20225100  0.80999900  0.70480400  1
  O  O29  1  0.96476600  0.65163600  0.30150100  1
  O  O30  1  0.29774900  0.80999900  0.20480400  1
  O  O31  1  0.70225100  0.19000100  0.79519600  1
