# generated using pymatgen
data_ZnP2(WO5)2
_symmetry_space_group_name_H-M   'P 1'
_cell_length_a   10.55349675
_cell_length_b   9.25671245
_cell_length_c   7.26784064
_cell_angle_alpha   78.36679639
_cell_angle_beta   59.21628708
_cell_angle_gamma   42.41691652
_symmetry_Int_Tables_number   1
_chemical_formula_structural   ZnP2(WO5)2
_chemical_formula_sum   'Zn2 P4 W4 O20'
_cell_volume   391.95482649
_cell_formula_units_Z   2
loop_
 _symmetry_equiv_pos_site_id
 _symmetry_equiv_pos_as_xyz
  1  'x, y, z'
loop_
 _atom_site_type_symbol
 _atom_site_label
 _atom_site_symmetry_multiplicity
 _atom_site_fract_x
 _atom_site_fract_y
 _atom_site_fract_z
 _atom_site_occupancy
  Zn  Zn0  1  0.75216700  0.74783300  0.74783300  1
  Zn  Zn1  1  0.50216700  0.49783300  0.49783300  1
  P  P2  1  0.01575000  0.56329900  0.97948300  1
  P  P3  1  0.68670100  0.23425000  0.80853300  1
  P  P4  1  0.44146700  0.97948300  0.56329900  1
  P  P5  1  0.27051700  0.80853300  0.23425000  1
  W  W6  1  0.88609800  0.38762700  0.39328600  1
  W  W7  1  0.33298900  0.39328600  0.38762700  1
  W  W8  1  0.86237300  0.36390200  0.91701100  1
  W  W9  1  0.85671400  0.91701100  0.36390200  1
  O  O10  1  0.58853500  0.73640800  0.46425600  1
  O  O11  1  0.61438300  0.22525700  0.36624300  1
  O  O12  1  0.28139400  0.67394600  0.41442400  1
  O  O13  1  0.78574400  0.03920000  0.66146500  1
  O  O14  1  0.21337700  0.09637500  0.77327000  1
  O  O15  1  0.41047500  0.11357000  0.38892300  1
  O  O16  1  0.02474300  0.63561700  0.45588300  1
  O  O17  1  0.79411700  0.36624300  0.22525700  1
  O  O18  1  0.88375700  0.45588300  0.63561700  1
  O  O19  1  0.15362500  0.03662300  0.33302200  1
  O  O20  1  0.21080000  0.46425600  0.73640800  1
  O  O21  1  0.47673000  0.33302200  0.03662300  1
  O  O22  1  0.91697800  0.77327000  0.09637500  1
  O  O23  1  0.13643000  0.83952500  0.16296800  1
  O  O24  1  0.08703200  0.38892300  0.11357000  1
  O  O25  1  0.86107700  0.16296800  0.83952500  1
  O  O26  1  0.83557600  0.61976300  0.96860600  1
  O  O27  1  0.63023700  0.41442400  0.67394600  1
  O  O28  1  0.51359200  0.66146500  0.03920000  1
  O  O29  1  0.57605400  0.96860600  0.61976300  1
