# generated using pymatgen
data_ZnAgBiO5
_symmetry_space_group_name_H-M   'P 1'
_cell_length_a   10.66219200
_cell_length_b   5.47424400
_cell_length_c   9.11909764
_cell_angle_alpha   64.13596631
_cell_angle_beta   90.00000000
_cell_angle_gamma   90.00000000
_symmetry_Int_Tables_number   1
_chemical_formula_structural   ZnAgBiO5
_chemical_formula_sum   'Zn4 Ag4 Bi4 O20'
_cell_volume   478.94302229
_cell_formula_units_Z   4
loop_
 _symmetry_equiv_pos_site_id
 _symmetry_equiv_pos_as_xyz
  1  'x, y, z'
loop_
 _atom_site_type_symbol
 _atom_site_label
 _atom_site_symmetry_multiplicity
 _atom_site_fract_x
 _atom_site_fract_y
 _atom_site_fract_z
 _atom_site_occupancy
  Zn  Zn0  1  0.08136000  0.59520100  0.83422400  1
  Zn  Zn1  1  0.91864000  0.40479900  0.16577600  1
  Zn  Zn2  1  0.58136000  0.40479900  0.66577600  1
  Zn  Zn3  1  0.41864000  0.59520100  0.33422400  1
  Ag  Ag4  1  0.38173400  0.28559200  0.02149200  1
  Ag  Ag5  1  0.61826600  0.71440800  0.97850800  1
  Ag  Ag6  1  0.88173400  0.71440800  0.47850800  1
  Ag  Ag7  1  0.11826600  0.28559200  0.52149200  1
  Bi  Bi8  1  0.88745000  0.01603000  0.85809800  1
  Bi  Bi9  1  0.11255000  0.98397000  0.14190200  1
  Bi  Bi10  1  0.61255000  0.01603000  0.35809800  1
  Bi  Bi11  1  0.38745000  0.98397000  0.64190200  1
  O  O12  1  0.93578600  0.80750300  0.72362100  1
  O  O13  1  0.96888100  0.36647700  0.64716200  1
  O  O14  1  0.80902900  0.08130900  0.30955000  1
  O  O15  1  0.45421500  0.75448300  0.51318500  1
  O  O16  1  0.70394500  0.69329900  0.57235900  1
  O  O17  1  0.79605500  0.69329900  0.07235900  1
  O  O18  1  0.53111900  0.36647700  0.14716200  1
  O  O19  1  0.46888100  0.63352300  0.85283800  1
  O  O20  1  0.54578500  0.24551700  0.48681500  1
  O  O21  1  0.43578600  0.19249700  0.77637900  1
  O  O22  1  0.29605500  0.30670100  0.42764100  1
  O  O23  1  0.06421400  0.19249700  0.27637900  1
  O  O24  1  0.56421400  0.80750300  0.22362100  1
  O  O25  1  0.20394500  0.30670100  0.92764100  1
  O  O26  1  0.95421500  0.24551700  0.98681500  1
  O  O27  1  0.04578500  0.75448300  0.01318500  1
  O  O28  1  0.19097100  0.91869100  0.69045000  1
  O  O29  1  0.03111900  0.63352300  0.35283800  1
  O  O30  1  0.30902900  0.91869100  0.19045000  1
  O  O31  1  0.69097100  0.08130900  0.80955000  1
