# generated using pymatgen
data_LaMgFeSnO6
_symmetry_space_group_name_H-M   'P 1'
_cell_length_a   5.64087700
_cell_length_b   5.44089200
_cell_length_c   9.57010693
_cell_angle_alpha   55.98430522
_cell_angle_beta   90.00000000
_cell_angle_gamma   90.00000000
_symmetry_Int_Tables_number   1
_chemical_formula_structural   LaMgFeSnO6
_chemical_formula_sum   'La2 Mg2 Fe2 Sn2 O12'
_cell_volume   243.45991896
_cell_formula_units_Z   2
loop_
 _symmetry_equiv_pos_site_id
 _symmetry_equiv_pos_as_xyz
  1  'x, y, z'
loop_
 _atom_site_type_symbol
 _atom_site_label
 _atom_site_symmetry_multiplicity
 _atom_site_fract_x
 _atom_site_fract_y
 _atom_site_fract_z
 _atom_site_occupancy
  La  La0  1  0.29158800  0.23680200  0.75123800  1
  La  La1  1  0.70841200  0.23680200  0.25123800  1
  Mg  Mg2  1  0.80790000  0.77698300  0.75148800  1
  Mg  Mg3  1  0.19210000  0.77698300  0.25148800  1
  Fe  Fe4  1  0.75174000  0.99998100  0.99990700  1
  Fe  Fe5  1  0.24826000  0.99998100  0.49990700  1
  Sn  Sn6  1  0.75157300  0.49891000  0.50292800  1
  Sn  Sn7  1  0.24842700  0.49891000  0.00292800  1
  O  O8  1  0.28199300  0.39168500  0.25107900  1
  O  O9  1  0.44336500  0.11978900  0.06380500  1
  O  O10  1  0.44134000  0.75306100  0.43618300  1
  O  O11  1  0.55866000  0.75306100  0.93618300  1
  O  O12  1  0.55663500  0.11978900  0.56380500  1
  O  O13  1  0.71800700  0.39168500  0.75107900  1
  O  O14  1  0.80844400  0.65852400  0.24763400  1
  O  O15  1  0.97818700  0.84891900  0.43367400  1
  O  O16  1  0.96788300  0.21534800  0.06206400  1
  O  O17  1  0.03211700  0.21534800  0.56206400  1
  O  O18  1  0.02181300  0.84891900  0.93367400  1
  O  O19  1  0.19155600  0.65852400  0.74763400  1
