# generated using pymatgen
data_Si2Sb15O28
_symmetry_space_group_name_H-M   'P 1'
_cell_length_a   7.02747900
_cell_length_b   9.40330093
_cell_length_c   14.27891280
_cell_angle_alpha   90.37360500
_cell_angle_beta   102.11832741
_cell_angle_gamma   97.00305652
_symmetry_Int_Tables_number   1
_chemical_formula_structural   Si2Sb15O28
_chemical_formula_sum   'Si2 Sb15 O28'
_cell_volume   915.16144524
_cell_formula_units_Z   1
loop_
 _symmetry_equiv_pos_site_id
 _symmetry_equiv_pos_as_xyz
  1  'x, y, z'
loop_
 _atom_site_type_symbol
 _atom_site_label
 _atom_site_symmetry_multiplicity
 _atom_site_fract_x
 _atom_site_fract_y
 _atom_site_fract_z
 _atom_site_occupancy
  Si  Si0  1  0.14725100  0.61636700  0.99617600  1
  Si  Si1  1  0.76377000  0.29613600  0.99199400  1
  Sb  Sb2  1  0.89681200  0.35797300  0.24995100  1
  Sb  Sb3  1  0.66400100  0.65137400  0.89370000  1
  Sb  Sb4  1  0.40838900  0.67975600  0.43362600  1
  Sb  Sb5  1  0.96493300  0.67696800  0.56019200  1
  Sb  Sb6  1  0.37744300  0.41086200  0.19015600  1
  Sb  Sb7  1  0.39373400  0.10636700  0.57736500  1
  Sb  Sb8  1  0.14057100  0.32841900  0.87300600  1
  Sb  Sb9  1  0.03574000  0.93808200  0.99967700  1
  Sb  Sb10  1  0.45283600  0.00490500  0.86860000  1
  Sb  Sb11  1  0.80016600  0.65299000  0.13136900  1
  Sb  Sb12  1  0.64218100  0.35079500  0.75852100  1
  Sb  Sb13  1  0.53458100  0.07274400  0.12496800  1
  Sb  Sb14  1  0.83755800  0.10496100  0.41937400  1
  Sb  Sb15  1  0.90404600  0.03223100  0.66627700  1
  Sb  Sb16  1  0.26733600  0.03074300  0.33037300  1
  O  O17  1  0.66206900  0.56324400  0.76456700  1
  O  O18  1  0.22307000  0.73574400  0.51527300  1
  O  O19  1  0.90753700  0.59990700  0.00308500  1
  O  O20  1  0.22675500  0.78820400  0.00374800  1
  O  O21  1  0.95892400  0.30407300  0.38749400  1
  O  O22  1  0.14523100  0.30860400  0.22628500  1
  O  O23  1  0.03769100  0.98817900  0.38776500  1
  O  O24  1  0.97929000  0.13942300  0.55644900  1
  O  O25  1  0.63525800  0.12951300  0.99356500  1
  O  O26  1  0.21500800  0.05808500  0.89639900  1
  O  O27  1  0.14603800  0.54460500  0.89159700  1
  O  O28  1  0.91095200  0.32293900  0.76225200  1
  O  O29  1  0.42221800  0.15048100  0.44380100  1
  O  O30  1  0.83446900  0.83643200  0.88802000  1
  O  O31  1  0.63811400  0.38260400  0.90219800  1
  O  O32  1  0.97165100  0.26744000  0.96556000  1
  O  O33  1  0.38346600  0.23678900  0.11136300  1
  O  O34  1  0.92892000  0.84569700  0.11623300  1
  O  O35  1  0.62378900  0.99574800  0.60224900  1
  O  O36  1  0.00749200  0.85008500  0.64386100  1
  O  O37  1  0.76688100  0.14638200  0.21912300  1
  O  O38  1  0.26547200  0.52514800  0.07996100  1
  O  O39  1  0.39024500  0.85158300  0.35559500  1
  O  O40  1  0.70681400  0.72745400  0.48076800  1
  O  O41  1  0.77301200  0.37497500  0.09357300  1
  O  O42  1  0.51141800  0.15493700  0.77769100  1
  O  O43  1  0.99142200  0.57813300  0.23451200  1
  O  O44  1  0.52647400  0.31799100  0.62417700  1
