# generated using pymatgen
data_MnZn(GeO3)2
_symmetry_space_group_name_H-M   'P 1'
_cell_length_a   9.48918800
_cell_length_b   5.52608800
_cell_length_c   9.87793038
_cell_angle_alpha   77.69362588
_cell_angle_beta   90.00000000
_cell_angle_gamma   90.00000000
_symmetry_Int_Tables_number   1
_chemical_formula_structural   MnZn(GeO3)2
_chemical_formula_sum   'Mn4 Zn4 Ge8 O24'
_cell_volume   506.07757452
_cell_formula_units_Z   4
loop_
 _symmetry_equiv_pos_site_id
 _symmetry_equiv_pos_as_xyz
  1  'x, y, z'
loop_
 _atom_site_type_symbol
 _atom_site_label
 _atom_site_symmetry_multiplicity
 _atom_site_fract_x
 _atom_site_fract_y
 _atom_site_fract_z
 _atom_site_occupancy
  Mn  Mn0  1  0.65033900  0.03683700  0.24442700  1
  Mn  Mn1  1  0.15033900  0.46316300  0.75557300  1
  Mn  Mn2  1  0.34966100  0.96316300  0.75557300  1
  Mn  Mn3  1  0.84966100  0.53683700  0.24442700  1
  Zn  Zn4  1  0.49836600  0.54481300  0.24566900  1
  Zn  Zn5  1  0.99836600  0.95518700  0.75433100  1
  Zn  Zn6  1  0.50163400  0.45518700  0.75433100  1
  Zn  Zn7  1  0.00163400  0.04481300  0.24566900  1
  Ge  Ge8  1  0.33508600  0.18978400  0.05748300  1
  Ge  Ge9  1  0.83508600  0.31021600  0.94251700  1
  Ge  Ge10  1  0.66491400  0.81021600  0.94251700  1
  Ge  Ge11  1  0.16491400  0.68978400  0.05748300  1
  Ge  Ge12  1  0.34035000  0.75025800  0.45523100  1
  Ge  Ge13  1  0.84035000  0.74974200  0.54476900  1
  Ge  Ge14  1  0.65965000  0.24974200  0.54476900  1
  Ge  Ge15  1  0.15965000  0.25025800  0.45523100  1
  O  O16  1  0.27635700  0.49781200  0.38575800  1
  O  O17  1  0.77635700  0.00218800  0.61424200  1
  O  O18  1  0.72364300  0.50218800  0.61424200  1
  O  O19  1  0.22364300  0.99781200  0.38575800  1
  O  O20  1  0.31524500  0.85554800  0.10610300  1
  O  O21  1  0.81524500  0.64445200  0.89389700  1
  O  O22  1  0.68475500  0.14445200  0.89389700  1
  O  O23  1  0.18475500  0.35554800  0.10610300  1
  O  O24  1  0.99620000  0.28579100  0.37128200  1
  O  O25  1  0.49620000  0.21420900  0.62871800  1
  O  O26  1  0.00380000  0.71420900  0.62871800  1
  O  O27  1  0.50380000  0.78579100  0.37128200  1
  O  O28  1  0.01955400  0.77606900  0.14370100  1
  O  O29  1  0.51955400  0.72393100  0.85629900  1
  O  O30  1  0.98044600  0.22393100  0.85629900  1
  O  O31  1  0.48044600  0.27606900  0.14370100  1
  O  O32  1  0.34021000  0.25341500  0.87413900  1
  O  O33  1  0.84021000  0.24658500  0.12586100  1
  O  O34  1  0.65979000  0.74658500  0.12586100  1
  O  O35  1  0.15979000  0.75341500  0.87413900  1
  O  O36  1  0.33863500  0.68134100  0.63741500  1
  O  O37  1  0.83863500  0.81865900  0.36258500  1
  O  O38  1  0.66136500  0.31865900  0.36258500  1
  O  O39  1  0.16136500  0.18134100  0.63741500  1
