# generated using pymatgen
data_Mo2O3
_symmetry_space_group_name_H-M   'P 1'
_cell_length_a   5.66696239
_cell_length_b   5.66696239
_cell_length_c   16.22485300
_cell_angle_alpha   90.00000000
_cell_angle_beta   90.00000000
_cell_angle_gamma   146.27899781
_symmetry_Int_Tables_number   1
_chemical_formula_structural   Mo2O3
_chemical_formula_sum   'Mo8 O12'
_cell_volume   289.26192125
_cell_formula_units_Z   4
loop_
 _symmetry_equiv_pos_site_id
 _symmetry_equiv_pos_as_xyz
  1  'x, y, z'
loop_
 _atom_site_type_symbol
 _atom_site_label
 _atom_site_symmetry_multiplicity
 _atom_site_fract_x
 _atom_site_fract_y
 _atom_site_fract_z
 _atom_site_occupancy
  Mo  Mo0  1  0.63284400  0.36715600  0.04533800  1
  Mo  Mo1  1  0.36715600  0.63284400  0.95466200  1
  Mo  Mo2  1  0.63284400  0.36715600  0.45466200  1
  Mo  Mo3  1  0.36715600  0.63284400  0.54533800  1
  Mo  Mo4  1  0.09993200  0.90006800  0.64356200  1
  Mo  Mo5  1  0.90006800  0.09993200  0.35643800  1
  Mo  Mo6  1  0.90006800  0.09993200  0.14356200  1
  Mo  Mo7  1  0.09993200  0.90006800  0.85643800  1
  O  O8  1  0.00000000  0.00000000  0.50000000  1
  O  O9  1  0.00000000  0.00000000  0.00000000  1
  O  O10  1  0.48253400  0.51746600  0.85242100  1
  O  O11  1  0.51746600  0.48253400  0.14757900  1
  O  O12  1  0.51746600  0.48253400  0.35242100  1
  O  O13  1  0.48253400  0.51746600  0.64757900  1
  O  O14  1  0.74107000  0.25893000  0.92671000  1
  O  O15  1  0.25893000  0.74107000  0.07329000  1
  O  O16  1  0.25893000  0.74107000  0.42671000  1
  O  O17  1  0.74107000  0.25893000  0.57329000  1
  O  O18  1  0.18629500  0.81370500  0.75000000  1
  O  O19  1  0.81370500  0.18629500  0.25000000  1
