# generated using pymatgen
data_MgP2(WO5)2
_symmetry_space_group_name_H-M   'P 1'
_cell_length_a   9.94117668
_cell_length_b   8.70356294
_cell_length_c   7.19769682
_cell_angle_alpha   76.74292540
_cell_angle_beta   58.44901760
_cell_angle_gamma   44.80805700
_symmetry_Int_Tables_number   1
_chemical_formula_structural   MgP2(WO5)2
_chemical_formula_sum   'Mg2 P4 W4 O20'
_cell_volume   363.41679078
_cell_formula_units_Z   2
loop_
 _symmetry_equiv_pos_site_id
 _symmetry_equiv_pos_as_xyz
  1  'x, y, z'
loop_
 _atom_site_type_symbol
 _atom_site_label
 _atom_site_symmetry_multiplicity
 _atom_site_fract_x
 _atom_site_fract_y
 _atom_site_fract_z
 _atom_site_occupancy
  Mg  Mg0  1  0.50043700  0.99956300  0.99956300  1
  Mg  Mg1  1  0.25043700  0.74956300  0.74956300  1
  P  P2  1  0.04359700  0.55573700  0.95530400  1
  P  P3  1  0.69426300  0.20640300  0.80463800  1
  P  P4  1  0.44536200  0.95530400  0.55573700  1
  P  P5  1  0.29469600  0.80463800  0.20640300  1
  W  W6  1  0.87172500  0.37965700  0.38038800  1
  W  W7  1  0.36823000  0.38038800  0.37965700  1
  W  W8  1  0.87034300  0.37827500  0.88177000  1
  W  W9  1  0.86961200  0.88177000  0.37827500  1
  O  O10  1  0.55924000  0.72000400  0.47407400  1
  O  O11  1  0.66206000  0.17586200  0.33544300  1
  O  O12  1  0.30703000  0.67601300  0.39855100  1
  O  O13  1  0.77592600  0.00331900  0.69076000  1
  O  O14  1  0.21139000  0.06364800  0.75803900  1
  O  O15  1  0.43011400  0.08605400  0.36586500  1
  O  O16  1  0.07413800  0.58794000  0.42336400  1
  O  O17  1  0.82663600  0.33544300  0.17586200  1
  O  O18  1  0.91455700  0.42336400  0.58794000  1
  O  O19  1  0.18635200  0.03861000  0.28307600  1
  O  O20  1  0.24668100  0.47407400  0.72000400  1
  O  O21  1  0.49196100  0.28307600  0.03861000  1
  O  O22  1  0.96692400  0.75803900  0.06364800  1
  O  O23  1  0.16394600  0.81988600  0.13203200  1
  O  O24  1  0.11796800  0.36586500  0.08605400  1
  O  O25  1  0.88413500  0.13203200  0.81988600  1
  O  O26  1  0.85144900  0.63159400  0.94297000  1
  O  O27  1  0.61840600  0.39855100  0.67601300  1
  O  O28  1  0.52999600  0.69076000  0.00331900  1
  O  O29  1  0.57398700  0.94297000  0.63159400  1
