# generated using pymatgen
data_V9O22
_symmetry_space_group_name_H-M   'P 1'
_cell_length_a   9.76014400
_cell_length_b   5.55045500
_cell_length_c   14.16998461
_cell_angle_alpha   88.12997166
_cell_angle_beta   90.00000000
_cell_angle_gamma   90.00000000
_symmetry_Int_Tables_number   1
_chemical_formula_structural   V9O22
_chemical_formula_sum   'V18 O44'
_cell_volume   767.22515369
_cell_formula_units_Z   2
loop_
 _symmetry_equiv_pos_site_id
 _symmetry_equiv_pos_as_xyz
  1  'x, y, z'
loop_
 _atom_site_type_symbol
 _atom_site_label
 _atom_site_symmetry_multiplicity
 _atom_site_fract_x
 _atom_site_fract_y
 _atom_site_fract_z
 _atom_site_occupancy
  V  V0  1  0.98347700  0.23068500  0.38721300  1
  V  V1  1  0.67431500  0.24914300  0.03465200  1
  V  V2  1  0.98902600  0.21668000  0.89252800  1
  V  V3  1  0.22495000  0.01820200  0.74511200  1
  V  V4  1  0.72495000  0.98179800  0.25488800  1
  V  V5  1  0.48347700  0.76931500  0.61278700  1
  V  V6  1  0.48902600  0.78332000  0.10747200  1
  V  V7  1  0.82514400  0.75210200  0.53103500  1
  V  V8  1  0.00791500  0.75061000  0.24007800  1
  V  V9  1  0.50256700  0.71583800  0.39685100  1
  V  V10  1  0.17431500  0.75085700  0.96534800  1
  V  V11  1  0.51885600  0.73137600  0.89388600  1
  V  V12  1  0.27469200  0.49816400  0.25233100  1
  V  V13  1  0.77469200  0.50183600  0.74766900  1
  V  V14  1  0.00256700  0.28416200  0.60314900  1
  V  V15  1  0.32514400  0.24789800  0.46896500  1
  V  V16  1  0.01885600  0.26862400  0.10611400  1
  V  V17  1  0.50791500  0.24939000  0.75992200  1
  O  O18  1  0.14842600  0.24704300  0.49555300  1
  O  O19  1  0.33063700  0.23423300  0.69217000  1
  O  O20  1  0.83522500  0.23347700  0.32607800  1
  O  O21  1  0.68125100  0.23647100  0.15462700  1
  O  O22  1  0.15185100  0.22267300  0.83083500  1
  O  O23  1  0.09165600  0.00899600  0.66667000  1
  O  O24  1  0.56127000  0.00422900  0.66521500  1
  O  O25  1  0.91474700  0.01797100  0.49656600  1
  O  O26  1  0.08390600  0.01529100  0.99925400  1
  O  O27  1  0.93114000  0.00269200  0.16764400  1
  O  O28  1  0.06127000  0.99577100  0.33478500  1
  O  O29  1  0.41474700  0.98202900  0.50343400  1
  O  O30  1  0.59165600  0.99100400  0.33333000  1
  O  O31  1  0.41237400  0.00151400  0.15539700  1
  O  O32  1  0.91237400  0.99848600  0.84460300  1
  O  O33  1  0.43114000  0.99730800  0.83235600  1
  O  O34  1  0.58390600  0.98470900  0.00074600  1
  O  O35  1  0.33522500  0.76652300  0.67392200  1
  O  O36  1  0.65185100  0.77732700  0.16916500  1
  O  O37  1  0.83063700  0.76576700  0.30783000  1
  O  O38  1  0.64842600  0.75295700  0.50444700  1
  O  O39  1  0.82344600  0.74402000  0.65186600  1
  O  O40  1  0.18125100  0.76352900  0.84537300  1
  O  O41  1  0.16601400  0.75200100  0.18680000  1
  O  O42  1  0.34502700  0.72881300  0.33517200  1
  O  O43  1  0.34864000  0.74770400  0.99914500  1
  O  O44  1  0.66536300  0.73032700  0.83231800  1
  O  O45  1  0.41458100  0.51095700  0.50357300  1
  O  O46  1  0.57457800  0.50323500  0.67607700  1
  O  O47  1  0.08337200  0.49581600  0.65267500  1
  O  O48  1  0.58337200  0.50418400  0.34732500  1
  O  O49  1  0.40804100  0.51376700  0.16975200  1
  O  O50  1  0.07457800  0.49676500  0.32392300  1
  O  O51  1  0.58279600  0.51525500  0.00154000  1
  O  O52  1  0.93555100  0.50447000  0.16128000  1
  O  O53  1  0.91458100  0.48904300  0.49642700  1
  O  O54  1  0.43555100  0.49553000  0.83872000  1
  O  O55  1  0.08279600  0.48474500  0.99846000  1
  O  O56  1  0.90804100  0.48623300  0.83024800  1
  O  O57  1  0.84502700  0.27118700  0.66482800  1
  O  O58  1  0.32344600  0.25598000  0.34813400  1
  O  O59  1  0.16536300  0.26967300  0.16768200  1
  O  O60  1  0.84864000  0.25229600  0.00085500  1
  O  O61  1  0.66601400  0.24799900  0.81320000  1
