# generated using pymatgen
data_Y4Ti13Si2(SbO14)2
_symmetry_space_group_name_H-M   'P 1'
_cell_length_a   12.33348020
_cell_length_b   12.33348020
_cell_length_c   9.26509894
_cell_angle_alpha   85.77846404
_cell_angle_beta   85.77846404
_cell_angle_gamma   152.38121598
_symmetry_Int_Tables_number   1
_chemical_formula_structural   Y4Ti13Si2(SbO14)2
_chemical_formula_sum   'Y4 Ti13 Si2 Sb2 O28'
_cell_volume   621.51236708
_cell_formula_units_Z   1
loop_
 _symmetry_equiv_pos_site_id
 _symmetry_equiv_pos_as_xyz
  1  'x, y, z'
loop_
 _atom_site_type_symbol
 _atom_site_label
 _atom_site_symmetry_multiplicity
 _atom_site_fract_x
 _atom_site_fract_y
 _atom_site_fract_z
 _atom_site_occupancy
  Y  Y0  1  0.05211100  0.45461300  0.16173300  1
  Y  Y1  1  0.54538700  0.94788900  0.83826700  1
  Y  Y2  1  0.94788900  0.54538700  0.83826700  1
  Y  Y3  1  0.45461300  0.05211100  0.16173300  1
  Ti  Ti4  1  0.88081200  0.61153500  0.13908200  1
  Ti  Ti5  1  0.62508100  0.74728400  0.85752700  1
  Ti  Ti6  1  0.38846500  0.11918800  0.86091800  1
  Ti  Ti7  1  0.11918800  0.38846500  0.86091800  1
  Ti  Ti8  1  0.37491900  0.25271600  0.14247300  1
  Ti  Ti9  1  0.29213800  0.70786200  0.50000000  1
  Ti  Ti10  1  0.25271600  0.37491900  0.14247300  1
  Ti  Ti11  1  0.00000000  0.00000000  0.50000000  1
  Ti  Ti12  1  0.42615500  0.57384500  0.50000000  1
  Ti  Ti13  1  0.74728400  0.62508100  0.85752700  1
  Ti  Ti14  1  0.61153500  0.88081200  0.13908200  1
  Ti  Ti15  1  0.57384500  0.42615500  0.50000000  1
  Ti  Ti16  1  0.70786200  0.29213800  0.50000000  1
  Si  Si17  1  0.22034300  0.22034300  0.80563100  1
  Si  Si18  1  0.77965700  0.77965700  0.19436900  1
  Sb  Sb19  1  0.85195800  0.14804200  0.50000000  1
  Sb  Sb20  1  0.14804200  0.85195800  0.50000000  1
  O  O21  1  0.78944100  0.03787500  0.88373400  1
  O  O22  1  0.12818200  0.54736700  0.89561600  1
  O  O23  1  0.93043900  0.93043900  0.85725100  1
  O  O24  1  0.30018300  0.30018300  0.61858600  1
  O  O25  1  0.87181800  0.45263300  0.10438400  1
  O  O26  1  0.21055900  0.96212500  0.11626600  1
  O  O27  1  0.99046900  0.54080000  0.60672000  1
  O  O28  1  0.00953100  0.45920000  0.39328000  1
  O  O29  1  0.69981700  0.69981700  0.38141400  1
  O  O30  1  0.18643800  0.30348200  0.37490100  1
  O  O31  1  0.27404900  0.38250500  0.87250000  1
  O  O32  1  0.96212500  0.21055900  0.11626600  1
  O  O33  1  0.45920000  0.00953100  0.39328000  1
  O  O34  1  0.69651800  0.81356200  0.62509900  1
  O  O35  1  0.61749500  0.72595100  0.12750000  1
  O  O36  1  0.06956100  0.06956100  0.14274900  1
  O  O37  1  0.30348200  0.18643800  0.37490100  1
  O  O38  1  0.81356200  0.69651800  0.62509900  1
  O  O39  1  0.54080000  0.99046900  0.60672000  1
  O  O40  1  0.27281700  0.55104100  0.65193900  1
  O  O41  1  0.72718300  0.44895900  0.34806100  1
  O  O42  1  0.38250500  0.27404900  0.87250000  1
  O  O43  1  0.55104100  0.27281700  0.65193900  1
  O  O44  1  0.54736700  0.12818200  0.89561600  1
  O  O45  1  0.72595100  0.61749500  0.12750000  1
  O  O46  1  0.44895900  0.72718300  0.34806100  1
  O  O47  1  0.03787500  0.78944100  0.88373400  1
  O  O48  1  0.45263300  0.87181800  0.10438400  1
