# generated using pymatgen
data_CaBiWO5
_symmetry_space_group_name_H-M   'P 1'
_cell_length_a   12.10962400
_cell_length_b   5.82186600
_cell_length_c   8.85196431
_cell_angle_alpha   69.30569245
_cell_angle_beta   90.00000000
_cell_angle_gamma   90.00000000
_symmetry_Int_Tables_number   1
_chemical_formula_structural   CaBiWO5
_chemical_formula_sum   'Ca4 Bi4 W4 O20'
_cell_volume   583.80341072
_cell_formula_units_Z   4
loop_
 _symmetry_equiv_pos_site_id
 _symmetry_equiv_pos_as_xyz
  1  'x, y, z'
loop_
 _atom_site_type_symbol
 _atom_site_label
 _atom_site_symmetry_multiplicity
 _atom_site_fract_x
 _atom_site_fract_y
 _atom_site_fract_z
 _atom_site_occupancy
  Ca  Ca0  1  0.08511900  0.56441700  0.81558200  1
  Ca  Ca1  1  0.91488100  0.43558300  0.18441800  1
  Ca  Ca2  1  0.58511900  0.43558300  0.68441800  1
  Ca  Ca3  1  0.41488100  0.56441700  0.31558200  1
  Bi  Bi4  1  0.89816200  0.03453400  0.85706600  1
  Bi  Bi5  1  0.10183800  0.96546600  0.14293400  1
  Bi  Bi6  1  0.60183800  0.03453400  0.35706600  1
  Bi  Bi7  1  0.39816200  0.96546600  0.64293400  1
  W  W8  1  0.36073200  0.19040400  0.02211800  1
  W  W9  1  0.63926800  0.80959600  0.97788200  1
  W  W10  1  0.86073200  0.80959600  0.47788200  1
  W  W11  1  0.13926800  0.19040400  0.52211800  1
  O  O12  1  0.92837200  0.78425200  0.67172300  1
  O  O13  1  0.06728100  0.30646900  0.66271200  1
  O  O14  1  0.80509800  0.13247500  0.36454100  1
  O  O15  1  0.47049800  0.77260500  0.48774000  1
  O  O16  1  0.70686400  0.71173700  0.51084600  1
  O  O17  1  0.79313600  0.71173700  0.01084600  1
  O  O18  1  0.43271900  0.30646900  0.16271200  1
  O  O19  1  0.56728100  0.69353100  0.83728800  1
  O  O20  1  0.52950200  0.22739500  0.51226000  1
  O  O21  1  0.42837200  0.21574800  0.82827700  1
  O  O22  1  0.29313600  0.28826300  0.48915400  1
  O  O23  1  0.07162800  0.21574800  0.32827700  1
  O  O24  1  0.57162800  0.78425200  0.17172300  1
  O  O25  1  0.20686400  0.28826300  0.98915400  1
  O  O26  1  0.97049800  0.22739500  0.01226000  1
  O  O27  1  0.02950200  0.77260500  0.98774000  1
  O  O28  1  0.19490200  0.86752500  0.63545900  1
  O  O29  1  0.93271900  0.69353100  0.33728800  1
  O  O30  1  0.30509800  0.86752500  0.13545900  1
  O  O31  1  0.69490200  0.13247500  0.86454100  1
