# generated using pymatgen
data_SrLaI5
_symmetry_space_group_name_H-M   'P 1'
_cell_length_a   11.48082963
_cell_length_b   11.48082963
_cell_length_c   8.01422999
_cell_angle_alpha   88.51384109
_cell_angle_beta   88.51384109
_cell_angle_gamma   147.45687555
_symmetry_Int_Tables_number   1
_chemical_formula_structural   SrLaI5
_chemical_formula_sum   'Sr2 La2 I10'
_cell_volume   565.80788580
_cell_formula_units_Z   2
loop_
 _symmetry_equiv_pos_site_id
 _symmetry_equiv_pos_as_xyz
  1  'x, y, z'
loop_
 _atom_site_type_symbol
 _atom_site_label
 _atom_site_symmetry_multiplicity
 _atom_site_fract_x
 _atom_site_fract_y
 _atom_site_fract_z
 _atom_site_occupancy
  Sr  Sr0  1  0.67671200  0.32328800  0.75000000  1
  Sr  Sr1  1  0.32328800  0.67671200  0.25000000  1
  La  La2  1  0.92079000  0.07921000  0.75000000  1
  La  La3  1  0.07921000  0.92079000  0.25000000  1
  I  I4  1  0.78908200  0.71332600  0.60669700  1
  I  I5  1  0.80590700  0.19863900  0.49280200  1
  I  I6  1  0.63082000  0.36918000  0.25000000  1
  I  I7  1  0.80136100  0.19409300  0.00719800  1
  I  I8  1  0.71332600  0.78908200  0.10669700  1
  I  I9  1  0.28667400  0.21091800  0.89330300  1
  I  I10  1  0.19863900  0.80590700  0.99280200  1
  I  I11  1  0.36918000  0.63082000  0.75000000  1
  I  I12  1  0.19409300  0.80136100  0.50719800  1
  I  I13  1  0.21091800  0.28667400  0.39330300  1
