# generated using pymatgen
data_Pr(SnO3)2
_symmetry_space_group_name_H-M   'P 1'
_cell_length_a   5.63309800
_cell_length_b   5.90428200
_cell_length_c   8.01789300
_cell_angle_alpha   90.00000000
_cell_angle_beta   90.00000000
_cell_angle_gamma   90.00000000
_symmetry_Int_Tables_number   1
_chemical_formula_structural   Pr(SnO3)2
_chemical_formula_sum   'Pr2 Sn4 O12'
_cell_volume   266.67030343
_cell_formula_units_Z   2
loop_
 _symmetry_equiv_pos_site_id
 _symmetry_equiv_pos_as_xyz
  1  'x, y, z'
loop_
 _atom_site_type_symbol
 _atom_site_label
 _atom_site_symmetry_multiplicity
 _atom_site_fract_x
 _atom_site_fract_y
 _atom_site_fract_z
 _atom_site_occupancy
  Pr  Pr0  1  0.01585800  0.68118600  0.00000000  1
  Pr  Pr1  1  0.51585800  0.31881400  0.50000000  1
  Sn  Sn2  1  0.00519600  0.22570400  0.74812600  1
  Sn  Sn3  1  0.00519600  0.22570400  0.25187400  1
  Sn  Sn4  1  0.50519600  0.77429600  0.24812600  1
  Sn  Sn5  1  0.50519600  0.77429600  0.75187400  1
  O  O6  1  0.10602200  0.23360100  0.50000000  1
  O  O7  1  0.19494100  0.94240000  0.80449200  1
  O  O8  1  0.19494100  0.94240000  0.19550800  1
  O  O9  1  0.27204700  0.48202200  0.22064900  1
  O  O10  1  0.27204700  0.48202200  0.77935100  1
  O  O11  1  0.44391100  0.72221200  0.50000000  1
  O  O12  1  0.60602200  0.76639900  0.00000000  1
  O  O13  1  0.69494100  0.05760000  0.69550800  1
  O  O14  1  0.69494100  0.05760000  0.30449200  1
  O  O15  1  0.77204700  0.51797800  0.72064900  1
  O  O16  1  0.77204700  0.51797800  0.27935100  1
  O  O17  1  0.94391100  0.27778800  0.00000000  1
