# generated using pymatgen
data_Ca(W2O3)2
_symmetry_space_group_name_H-M   'P 1'
_cell_length_a   5.61787444
_cell_length_b   5.61787444
_cell_length_c   16.37596000
_cell_angle_alpha   90.00000000
_cell_angle_beta   90.00000000
_cell_angle_gamma   146.38357923
_symmetry_Int_Tables_number   1
_chemical_formula_structural   Ca(W2O3)2
_chemical_formula_sum   'Ca2 W8 O12'
_cell_volume   286.13476585
_cell_formula_units_Z   2
loop_
 _symmetry_equiv_pos_site_id
 _symmetry_equiv_pos_as_xyz
  1  'x, y, z'
loop_
 _atom_site_type_symbol
 _atom_site_label
 _atom_site_symmetry_multiplicity
 _atom_site_fract_x
 _atom_site_fract_y
 _atom_site_fract_z
 _atom_site_occupancy
  Ca  Ca0  1  0.32572100  0.67427900  0.75000000  1
  Ca  Ca1  1  0.67427900  0.32572100  0.25000000  1
  W  W2  1  0.14816200  0.85183800  0.04028600  1
  W  W3  1  0.58521900  0.41478100  0.63537700  1
  W  W4  1  0.85183800  0.14816200  0.95971400  1
  W  W5  1  0.41478100  0.58521900  0.36462300  1
  W  W6  1  0.14816200  0.85183800  0.45971400  1
  W  W7  1  0.85183800  0.14816200  0.54028600  1
  W  W8  1  0.41478100  0.58521900  0.13537700  1
  W  W9  1  0.58521900  0.41478100  0.86462300  1
  O  O10  1  0.50000000  0.50000000  0.50000000  1
  O  O11  1  0.50000000  0.50000000  0.00000000  1
  O  O12  1  0.95045400  0.04954600  0.84313300  1
  O  O13  1  0.04954600  0.95045400  0.15686700  1
  O  O14  1  0.04954600  0.95045400  0.34313300  1
  O  O15  1  0.95045400  0.04954600  0.65686700  1
  O  O16  1  0.21974900  0.78025100  0.89605600  1
  O  O17  1  0.78025100  0.21974900  0.10394400  1
  O  O18  1  0.78025100  0.21974900  0.39605600  1
  O  O19  1  0.21974900  0.78025100  0.60394400  1
  O  O20  1  0.67482600  0.32517400  0.75000000  1
  O  O21  1  0.32517400  0.67482600  0.25000000  1
