# generated using pymatgen
data_Pr(MoO3)2
_symmetry_space_group_name_H-M   'P 1'
_cell_length_a   5.54787000
_cell_length_b   5.66534906
_cell_length_c   7.96755827
_cell_angle_alpha   90.23367160
_cell_angle_beta   90.13105853
_cell_angle_gamma   90.12766119
_symmetry_Int_Tables_number   1
_chemical_formula_structural   Pr(MoO3)2
_chemical_formula_sum   'Pr2 Mo4 O12'
_cell_volume   250.42193259
_cell_formula_units_Z   2
loop_
 _symmetry_equiv_pos_site_id
 _symmetry_equiv_pos_as_xyz
  1  'x, y, z'
loop_
 _atom_site_type_symbol
 _atom_site_label
 _atom_site_symmetry_multiplicity
 _atom_site_fract_x
 _atom_site_fract_y
 _atom_site_fract_z
 _atom_site_occupancy
  Pr  Pr0  1  0.98236600  0.95654500  0.24954400  1
  Pr  Pr1  1  0.49290800  0.55310100  0.75305700  1
  Mo  Mo2  1  0.00027300  0.49253200  0.00277300  1
  Mo  Mo3  1  0.99784000  0.49195600  0.50116100  1
  Mo  Mo4  1  0.49410600  0.00588600  0.49899200  1
  Mo  Mo5  1  0.49513900  0.00865700  0.99955100  1
  O  O6  1  0.92406500  0.48590000  0.75563300  1
  O  O7  1  0.79250700  0.21050200  0.04223300  1
  O  O8  1  0.79414200  0.20932300  0.45690200  1
  O  O9  1  0.71724100  0.73720700  0.46389600  1
  O  O10  1  0.72743300  0.72669400  0.03203000  1
  O  O11  1  0.56200900  0.97050500  0.74453900  1
  O  O12  1  0.40103100  0.01267200  0.25526600  1
  O  O13  1  0.28948200  0.29430800  0.95713000  1
  O  O14  1  0.30608000  0.28334900  0.54503900  1
  O  O15  1  0.22619200  0.77161000  0.96660700  1
  O  O16  1  0.22388500  0.77037800  0.53177500  1
  O  O17  1  0.05243200  0.51887400  0.24387200  1
