# generated using pymatgen
data_SnO2
_symmetry_space_group_name_H-M   'P 1'
_cell_length_a   5.82511209
_cell_length_b   5.82511209
_cell_length_c   5.82511277
_cell_angle_alpha   67.86023846
_cell_angle_beta   67.86023846
_cell_angle_gamma   67.86023972
_symmetry_Int_Tables_number   1
_chemical_formula_structural   SnO2
_chemical_formula_sum   'Sn4 O8'
_cell_volume   163.10807298
_cell_formula_units_Z   4
loop_
 _symmetry_equiv_pos_site_id
 _symmetry_equiv_pos_as_xyz
  1  'x, y, z'
loop_
 _atom_site_type_symbol
 _atom_site_label
 _atom_site_symmetry_multiplicity
 _atom_site_fract_x
 _atom_site_fract_y
 _atom_site_fract_z
 _atom_site_occupancy
  Sn  Sn0  1  0.86118100  0.86118100  0.86118100  1
  Sn  Sn1  1  0.86607900  0.36595600  0.36595600  1
  Sn  Sn2  1  0.36595600  0.36595600  0.86607900  1
  Sn  Sn3  1  0.36595600  0.86607900  0.36595600  1
  O  O4  1  0.62103100  0.12599400  0.62103100  1
  O  O5  1  0.62103100  0.62103100  0.12599400  1
  O  O6  1  0.12599400  0.62103100  0.62103100  1
  O  O7  1  0.60805100  0.60805100  0.60805100  1
  O  O8  1  0.12486300  0.12486300  0.12486300  1
  O  O9  1  0.60907400  0.10411500  0.10411500  1
  O  O10  1  0.10411500  0.10411500  0.60907400  1
  O  O11  1  0.10411500  0.60907400  0.10411500  1
