# generated using pymatgen
data_Ca(SbO2)2
_symmetry_space_group_name_H-M   'P 1'
_cell_length_a   6.86388048
_cell_length_b   6.86388048
_cell_length_c   17.36098500
_cell_angle_alpha   90.00000000
_cell_angle_beta   90.00000000
_cell_angle_gamma   120.00000460
_symmetry_Int_Tables_number   1
_chemical_formula_structural   Ca(SbO2)2
_chemical_formula_sum   'Ca6 Sb12 O24'
_cell_volume   708.34429144
_cell_formula_units_Z   6
loop_
 _symmetry_equiv_pos_site_id
 _symmetry_equiv_pos_as_xyz
  1  'x, y, z'
loop_
 _atom_site_type_symbol
 _atom_site_label
 _atom_site_symmetry_multiplicity
 _atom_site_fract_x
 _atom_site_fract_y
 _atom_site_fract_z
 _atom_site_occupancy
  Ca  Ca0  1  0.66666700  0.33333300  0.96036800  1
  Ca  Ca1  1  0.33333300  0.66666700  0.62957200  1
  Ca  Ca2  1  0.00000000  0.00000000  0.67202500  1
  Ca  Ca3  1  0.00000000  0.00000000  0.28780900  1
  Ca  Ca4  1  0.33333300  0.66666700  0.00426800  1
  Ca  Ca5  1  0.33333300  0.66666700  0.37376600  1
  Sb  Sb6  1  0.16964900  0.33929900  0.83861600  1
  Sb  Sb7  1  0.66070100  0.83035100  0.83861600  1
  Sb  Sb8  1  0.83759400  0.67518700  0.50612000  1
  Sb  Sb9  1  0.16964900  0.83035100  0.83861600  1
  Sb  Sb10  1  0.32481300  0.16240600  0.50612000  1
  Sb  Sb11  1  0.66666700  0.33333300  0.34482000  1
  Sb  Sb12  1  0.66666700  0.33333300  0.71015100  1
  Sb  Sb13  1  0.50155600  0.00311200  0.16956500  1
  Sb  Sb14  1  0.83759400  0.16240600  0.50612000  1
  Sb  Sb15  1  0.99688800  0.49844400  0.16956500  1
  Sb  Sb16  1  0.50155600  0.49844400  0.16956500  1
  Sb  Sb17  1  0.00000000  0.00000000  0.04727600  1
  O  O18  1  0.48147000  0.96294000  0.90549500  1
  O  O19  1  0.33333300  0.66666700  0.76899400  1
  O  O20  1  0.03706000  0.51853000  0.90549500  1
  O  O21  1  0.48147000  0.51853000  0.90549500  1
  O  O22  1  0.15248400  0.30496900  0.57414900  1
  O  O23  1  0.83632300  0.16367700  0.74838000  1
  O  O24  1  0.00000000  0.00000000  0.43498100  1
  O  O25  1  0.32735500  0.16367700  0.74838000  1
  O  O26  1  0.00000000  0.00000000  0.92376400  1
  O  O27  1  0.69503100  0.84751600  0.57414900  1
  O  O28  1  0.15248400  0.84751600  0.57414900  1
  O  O29  1  0.83632300  0.67264500  0.74838000  1
  O  O30  1  0.82505400  0.65010900  0.23527400  1
  O  O31  1  0.51668200  0.48331800  0.41232100  1
  O  O32  1  0.96663600  0.48331800  0.41232100  1
  O  O33  1  0.66666700  0.33333300  0.09612600  1
  O  O34  1  0.66666700  0.33333300  0.58536000  1
  O  O35  1  0.34989100  0.17494600  0.23527400  1
  O  O36  1  0.82505400  0.17494600  0.23527400  1
  O  O37  1  0.51668200  0.03336400  0.41232100  1
  O  O38  1  0.17281800  0.82718200  0.08171700  1
  O  O39  1  0.65436400  0.82718200  0.08171700  1
  O  O40  1  0.33333300  0.66666700  0.24704300  1
  O  O41  1  0.17281800  0.34563600  0.08171700  1
