# generated using pymatgen
data_CaTi2P2O9
_symmetry_space_group_name_H-M   'P 1'
_cell_length_a   6.54618000
_cell_length_b   7.55637400
_cell_length_c   14.46136700
_cell_angle_alpha   90.00000000
_cell_angle_beta   90.00000000
_cell_angle_gamma   90.00000000
_symmetry_Int_Tables_number   1
_chemical_formula_structural   CaTi2P2O9
_chemical_formula_sum   'Ca4 Ti8 P8 O36'
_cell_volume   715.33707690
_cell_formula_units_Z   4
loop_
 _symmetry_equiv_pos_site_id
 _symmetry_equiv_pos_as_xyz
  1  'x, y, z'
loop_
 _atom_site_type_symbol
 _atom_site_label
 _atom_site_symmetry_multiplicity
 _atom_site_fract_x
 _atom_site_fract_y
 _atom_site_fract_z
 _atom_site_occupancy
  Ca  Ca0  1  0.75000000  0.89273400  0.77859200  1
  Ca  Ca1  1  0.75000000  0.60726600  0.27859200  1
  Ca  Ca2  1  0.25000000  0.39273400  0.72140800  1
  Ca  Ca3  1  0.25000000  0.10726600  0.22140800  1
  Ti  Ti4  1  0.75000000  0.34493200  0.88291500  1
  Ti  Ti5  1  0.25000000  0.65506800  0.11708500  1
  Ti  Ti6  1  0.25000000  0.84493200  0.61708500  1
  Ti  Ti7  1  0.75000000  0.15506800  0.38291500  1
  Ti  Ti8  1  0.50000000  0.00000000  0.00000000  1
  Ti  Ti9  1  0.50000000  0.50000000  0.50000000  1
  Ti  Ti10  1  0.00000000  0.50000000  0.50000000  1
  Ti  Ti11  1  0.00000000  0.00000000  0.00000000  1
  P  P12  1  0.25000000  0.35981600  0.93355700  1
  P  P13  1  0.75000000  0.64018400  0.06644300  1
  P  P14  1  0.75000000  0.85981600  0.56644300  1
  P  P15  1  0.25000000  0.14018400  0.43355700  1
  P  P16  1  0.75000000  0.38845500  0.69265600  1
  P  P17  1  0.75000000  0.11154500  0.19265600  1
  P  P18  1  0.25000000  0.88845500  0.80734400  1
  P  P19  1  0.25000000  0.61154500  0.30734400  1
  O  O20  1  0.05468000  0.60363400  0.36859900  1
  O  O21  1  0.55468000  0.39636600  0.63140100  1
  O  O22  1  0.94532000  0.10363400  0.13140100  1
  O  O23  1  0.44532000  0.89636600  0.86859900  1
  O  O24  1  0.94532000  0.39636600  0.63140100  1
  O  O25  1  0.44532000  0.60363400  0.36859900  1
  O  O26  1  0.05468000  0.89636600  0.86859900  1
  O  O27  1  0.55468000  0.10363400  0.13140100  1
  O  O28  1  0.25000000  0.32523300  0.48253800  1
  O  O29  1  0.75000000  0.67476700  0.51746200  1
  O  O30  1  0.75000000  0.82523300  0.01746200  1
  O  O31  1  0.25000000  0.17476700  0.98253800  1
  O  O32  1  0.75000000  0.12867600  0.94127100  1
  O  O33  1  0.25000000  0.87132400  0.05872900  1
  O  O34  1  0.25000000  0.62867600  0.55872900  1
  O  O35  1  0.75000000  0.37132400  0.44127100  1
  O  O36  1  0.75000000  0.21520800  0.75114100  1
  O  O37  1  0.25000000  0.78479200  0.24885900  1
  O  O38  1  0.25000000  0.71520800  0.74885900  1
  O  O39  1  0.75000000  0.28479200  0.25114100  1
  O  O40  1  0.43685600  0.12932800  0.36795300  1
  O  O41  1  0.93685600  0.87067200  0.63204700  1
  O  O42  1  0.56314400  0.62932800  0.13204700  1
  O  O43  1  0.06314400  0.37067200  0.86795300  1
  O  O44  1  0.56314400  0.87067200  0.63204700  1
  O  O45  1  0.06314400  0.12932800  0.36795300  1
  O  O46  1  0.43685600  0.37067200  0.86795300  1
  O  O47  1  0.93685600  0.62932800  0.13204700  1
  O  O48  1  0.75000000  0.49914500  0.99193200  1
  O  O49  1  0.25000000  0.03932100  0.73404100  1
  O  O50  1  0.25000000  0.46067900  0.23404100  1
  O  O51  1  0.75000000  0.53932100  0.76595900  1
  O  O52  1  0.75000000  0.00085500  0.49193200  1
  O  O53  1  0.25000000  0.99914500  0.50806800  1
  O  O54  1  0.25000000  0.50085500  0.00806800  1
  O  O55  1  0.75000000  0.96067900  0.26595900  1
