# generated using pymatgen
data_Ca(SnO2)2
_symmetry_space_group_name_H-M   'P 1'
_cell_length_a   6.90739232
_cell_length_b   6.90739232
_cell_length_c   16.91513194
_cell_angle_alpha   89.50690369
_cell_angle_beta   89.50690369
_cell_angle_gamma   56.98103381
_symmetry_Int_Tables_number   1
_chemical_formula_structural   Ca(SnO2)2
_chemical_formula_sum   'Ca6 Sn12 O24'
_cell_volume   676.67607784
_cell_formula_units_Z   6
loop_
 _symmetry_equiv_pos_site_id
 _symmetry_equiv_pos_as_xyz
  1  'x, y, z'
loop_
 _atom_site_type_symbol
 _atom_site_label
 _atom_site_symmetry_multiplicity
 _atom_site_fract_x
 _atom_site_fract_y
 _atom_site_fract_z
 _atom_site_occupancy
  Ca  Ca0  1  0.16919000  0.16919000  0.95596900  1
  Ca  Ca1  1  0.48605700  0.48605700  0.61614900  1
  Ca  Ca2  1  0.48597200  0.48597200  0.00359800  1
  Ca  Ca3  1  0.83406800  0.83406800  0.30055900  1
  Ca  Ca4  1  0.17647600  0.17647600  0.70960100  1
  Ca  Ca5  1  0.50417100  0.50417100  0.37077800  1
  Sn  Sn6  1  0.17215300  0.66686200  0.83222700  1
  Sn  Sn7  1  0.65907800  0.65907800  0.83972600  1
  Sn  Sn8  1  0.49314700  0.99592900  0.49764800  1
  Sn  Sn9  1  0.66686200  0.17215300  0.83222700  1
  Sn  Sn10  1  0.82983300  0.82983300  0.67574400  1
  Sn  Sn11  1  0.98306900  0.98306900  0.49673400  1
  Sn  Sn12  1  0.83035300  0.31295500  0.16863600  1
  Sn  Sn13  1  0.99592900  0.49314700  0.49764800  1
  Sn  Sn14  1  0.31295500  0.83035300  0.16863600  1
  Sn  Sn15  1  0.17397600  0.17397600  0.33456300  1
  Sn  Sn16  1  0.32685800  0.32685800  0.17106700  1
  Sn  Sn17  1  0.81598400  0.81598400  0.05027700  1
  O  O18  1  0.35051800  0.35051800  0.89999100  1
  O  O19  1  0.48830100  0.48830100  0.76142300  1
  O  O20  1  0.31682600  0.79712600  0.90679000  1
  O  O21  1  0.79712600  0.31682600  0.90679000  1
  O  O22  1  0.53030800  0.03662800  0.75698200  1
  O  O23  1  0.66287500  0.66287500  0.55678900  1
  O  O24  1  0.03662800  0.53030800  0.75698200  1
  O  O25  1  0.85157800  0.85157800  0.88983600  1
  O  O26  1  0.64370600  0.14604300  0.55631500  1
  O  O27  1  0.82445300  0.82445300  0.43640300  1
  O  O28  1  0.98654300  0.98654300  0.75506700  1
  O  O29  1  0.14604300  0.64370600  0.55631500  1
  O  O30  1  0.87803400  0.38010000  0.40856300  1
  O  O31  1  0.01493000  0.01493000  0.29817600  1
  O  O32  1  0.38010000  0.87803400  0.40856300  1
  O  O33  1  0.19393400  0.19393400  0.57165800  1
  O  O34  1  0.21135900  0.21135900  0.08254900  1
  O  O35  1  0.05471100  0.46321800  0.25657000  1
  O  O36  1  0.31023100  0.31023100  0.42157800  1
  O  O37  1  0.46321800  0.05471100  0.25657000  1
  O  O38  1  0.17636100  0.64320000  0.10299100  1
  O  O39  1  0.48269500  0.48269500  0.23579000  1
  O  O40  1  0.64320000  0.17636100  0.10299100  1
  O  O41  1  0.63960900  0.63960900  0.09251900  1
