# generated using pymatgen
data_VPO4
_symmetry_space_group_name_H-M   'P 1'
_cell_length_a   9.14789876
_cell_length_b   9.14789876
_cell_length_c   15.86180191
_cell_angle_alpha   61.95062839
_cell_angle_beta   61.95062839
_cell_angle_gamma   32.58391299
_symmetry_Int_Tables_number   1
_chemical_formula_structural   VPO4
_chemical_formula_sum   'V8 P8 O32'
_cell_volume   623.17998556
_cell_formula_units_Z   8
loop_
 _symmetry_equiv_pos_site_id
 _symmetry_equiv_pos_as_xyz
  1  'x, y, z'
loop_
 _atom_site_type_symbol
 _atom_site_label
 _atom_site_symmetry_multiplicity
 _atom_site_fract_x
 _atom_site_fract_y
 _atom_site_fract_z
 _atom_site_occupancy
  V  V0  1  0.40422400  0.81742000  0.01709000  1
  V  V1  1  0.18258000  0.59577600  0.48291000  1
  V  V2  1  0.59577600  0.18258000  0.98291000  1
  V  V3  1  0.00000000  0.50000000  0.00000000  1
  V  V4  1  0.81742000  0.40422400  0.51709000  1
  V  V5  1  0.66394900  0.33605100  0.75000000  1
  V  V6  1  0.33605100  0.66394900  0.25000000  1
  V  V7  1  0.50000000  0.00000000  0.50000000  1
  P  P8  1  0.48908800  0.94117000  0.14328300  1
  P  P9  1  0.79541700  0.21925600  0.38361700  1
  P  P10  1  0.51091200  0.05883000  0.85671700  1
  P  P11  1  0.21925600  0.79541700  0.88361700  1
  P  P12  1  0.94117000  0.48908800  0.64328300  1
  P  P13  1  0.05883000  0.51091200  0.35671700  1
  P  P14  1  0.20458300  0.78074400  0.61638300  1
  P  P15  1  0.78074400  0.20458300  0.11638300  1
  O  O16  1  0.22057700  0.22546900  0.92287800  1
  O  O17  1  0.70661200  0.16974100  0.06534000  1
  O  O18  1  0.22546900  0.22057700  0.42287800  1
  O  O19  1  0.59437800  0.23053400  0.45012000  1
  O  O20  1  0.68536000  0.77364900  0.93220800  1
  O  O21  1  0.66943300  0.42989200  0.29166800  1
  O  O22  1  0.76946600  0.40562200  0.04988000  1
  O  O23  1  0.91623100  0.07897100  0.86232900  1
  O  O24  1  0.40562200  0.76946600  0.54988000  1
  O  O25  1  0.83025900  0.29338800  0.43466000  1
  O  O26  1  0.57806400  0.16300200  0.86586700  1
  O  O27  1  0.96419600  0.43437900  0.74167200  1
  O  O28  1  0.29338800  0.83025900  0.93466000  1
  O  O29  1  0.07897100  0.91623100  0.36232900  1
  O  O30  1  0.77942300  0.77453100  0.07712200  1
  O  O31  1  0.42193600  0.83699800  0.13413300  1
  O  O32  1  0.43437900  0.96419600  0.24167200  1
  O  O33  1  0.23053400  0.59437800  0.95012000  1
  O  O34  1  0.16300200  0.57806400  0.36586700  1
  O  O35  1  0.03580400  0.56562100  0.25832800  1
  O  O36  1  0.92102900  0.08376900  0.63767100  1
  O  O37  1  0.77364900  0.68536000  0.43220800  1
  O  O38  1  0.08376900  0.92102900  0.13767100  1
  O  O39  1  0.42989200  0.66943300  0.79166800  1
  O  O40  1  0.16974100  0.70661200  0.56534000  1
  O  O41  1  0.77453100  0.77942300  0.57712200  1
  O  O42  1  0.56562100  0.03580400  0.75832800  1
  O  O43  1  0.22635100  0.31464000  0.56779200  1
  O  O44  1  0.31464000  0.22635100  0.06779200  1
  O  O45  1  0.57010800  0.33056700  0.20833200  1
  O  O46  1  0.33056700  0.57010800  0.70833200  1
  O  O47  1  0.83699800  0.42193600  0.63413300  1
