# generated using pymatgen
data_Sr3GeO5
_symmetry_space_group_name_H-M   'P 1'
_cell_length_a   6.96256200
_cell_length_b   6.96256200
_cell_length_c   11.34176200
_cell_angle_alpha   90.00000000
_cell_angle_beta   90.00000000
_cell_angle_gamma   90.00000000
_symmetry_Int_Tables_number   1
_chemical_formula_structural   Sr3GeO5
_chemical_formula_sum   'Sr12 Ge4 O20'
_cell_volume   549.81765426
_cell_formula_units_Z   4
loop_
 _symmetry_equiv_pos_site_id
 _symmetry_equiv_pos_as_xyz
  1  'x, y, z'
loop_
 _atom_site_type_symbol
 _atom_site_label
 _atom_site_symmetry_multiplicity
 _atom_site_fract_x
 _atom_site_fract_y
 _atom_site_fract_z
 _atom_site_occupancy
  Sr  Sr0  1  0.00000000  0.50000000  0.99257500  1
  Sr  Sr1  1  0.00000000  0.50000000  0.49257500  1
  Sr  Sr2  1  0.18163700  0.18163700  0.25000000  1
  Sr  Sr3  1  0.18163700  0.81836300  0.75000000  1
  Sr  Sr4  1  0.31836300  0.31836300  0.75000000  1
  Sr  Sr5  1  0.31836300  0.68163700  0.25000000  1
  Sr  Sr6  1  0.50000000  0.00000000  0.50742500  1
  Sr  Sr7  1  0.50000000  0.00000000  0.00742500  1
  Sr  Sr8  1  0.68163700  0.31836300  0.25000000  1
  Sr  Sr9  1  0.68163700  0.68163700  0.75000000  1
  Sr  Sr10  1  0.81836300  0.81836300  0.25000000  1
  Sr  Sr11  1  0.81836300  0.18163700  0.75000000  1
  Ge  Ge12  1  0.00000000  0.00000000  0.00000000  1
  Ge  Ge13  1  0.00000000  0.00000000  0.50000000  1
  Ge  Ge14  1  0.50000000  0.50000000  0.00000000  1
  Ge  Ge15  1  0.50000000  0.50000000  0.50000000  1
  O  O16  1  0.00000000  0.50000000  0.25574700  1
  O  O17  1  0.00000000  0.50000000  0.75574700  1
  O  O18  1  0.13971300  0.14116800  0.90258800  1
  O  O19  1  0.13971300  0.85883200  0.40258800  1
  O  O20  1  0.14116800  0.13971300  0.59741200  1
  O  O21  1  0.14116800  0.86028700  0.09741200  1
  O  O22  1  0.35883200  0.36028700  0.40258800  1
  O  O23  1  0.35883200  0.63971300  0.90258800  1
  O  O24  1  0.36028700  0.35883200  0.09741200  1
  O  O25  1  0.36028700  0.64116800  0.59741200  1
  O  O26  1  0.50000000  0.00000000  0.24425300  1
  O  O27  1  0.50000000  0.00000000  0.74425300  1
  O  O28  1  0.63971300  0.35883200  0.59741200  1
  O  O29  1  0.63971300  0.64116800  0.09741200  1
  O  O30  1  0.64116800  0.63971300  0.40258800  1
  O  O31  1  0.64116800  0.36028700  0.90258800  1
  O  O32  1  0.85883200  0.13971300  0.09741200  1
  O  O33  1  0.85883200  0.86028700  0.59741200  1
  O  O34  1  0.86028700  0.14116800  0.40258800  1
  O  O35  1  0.86028700  0.85883200  0.90258800  1
