# generated using pymatgen
data_LaVZnCrO6
_symmetry_space_group_name_H-M   'P 1'
_cell_length_a   5.44874600
_cell_length_b   5.35564200
_cell_length_c   9.44730929
_cell_angle_alpha   55.34264690
_cell_angle_beta   90.00000000
_cell_angle_gamma   90.00000000
_symmetry_Int_Tables_number   1
_chemical_formula_structural   LaVZnCrO6
_chemical_formula_sum   'La2 V2 Zn2 Cr2 O12'
_cell_volume   226.77115144
_cell_formula_units_Z   2
loop_
 _symmetry_equiv_pos_site_id
 _symmetry_equiv_pos_as_xyz
  1  'x, y, z'
loop_
 _atom_site_type_symbol
 _atom_site_label
 _atom_site_symmetry_multiplicity
 _atom_site_fract_x
 _atom_site_fract_y
 _atom_site_fract_z
 _atom_site_occupancy
  La  La0  1  0.21287700  0.74472800  0.24888700  1
  La  La1  1  0.78712300  0.74472800  0.74888700  1
  V  V2  1  0.26456000  0.50253700  0.99976000  1
  V  V3  1  0.73544000  0.50253700  0.49976000  1
  Zn  Zn4  1  0.73396400  0.25615500  0.25182000  1
  Zn  Zn5  1  0.26603600  0.25615500  0.75182000  1
  Cr  Cr6  1  0.25202900  0.00137900  0.49848500  1
  Cr  Cr7  1  0.74797100  0.00137900  0.99848500  1
  O  O8  1  0.70690100  0.17488900  0.74887100  1
  O  O9  1  0.46832300  0.72913800  0.05273300  1
  O  O10  1  0.47588300  0.33572800  0.45426400  1
  O  O11  1  0.95412600  0.62938800  0.05356700  1
  O  O12  1  0.94341500  0.25151500  0.43939400  1
  O  O13  1  0.22946700  0.87454300  0.75221900  1
  O  O14  1  0.29309900  0.17488900  0.24887100  1
  O  O15  1  0.53167700  0.72913800  0.55273300  1
  O  O16  1  0.52411700  0.33572800  0.95426400  1
  O  O17  1  0.04587400  0.62938800  0.55356700  1
  O  O18  1  0.05658500  0.25151500  0.93939400  1
  O  O19  1  0.77053300  0.87454300  0.25221900  1
