# generated using pymatgen
data_SrLaCl5
_symmetry_space_group_name_H-M   'P 1'
_cell_length_a   10.10841294
_cell_length_b   10.10841294
_cell_length_c   7.04512078
_cell_angle_alpha   88.74843014
_cell_angle_beta   88.74843014
_cell_angle_gamma   148.25552471
_symmetry_Int_Tables_number   1
_chemical_formula_structural   SrLaCl5
_chemical_formula_sum   'Sr2 La2 Cl10'
_cell_volume   377.53706007
_cell_formula_units_Z   2
loop_
 _symmetry_equiv_pos_site_id
 _symmetry_equiv_pos_as_xyz
  1  'x, y, z'
loop_
 _atom_site_type_symbol
 _atom_site_label
 _atom_site_symmetry_multiplicity
 _atom_site_fract_x
 _atom_site_fract_y
 _atom_site_fract_z
 _atom_site_occupancy
  Sr  Sr0  1  0.67777300  0.32222700  0.75000000  1
  Sr  Sr1  1  0.32222700  0.67777300  0.25000000  1
  La  La2  1  0.92123700  0.07876300  0.75000000  1
  La  La3  1  0.07876300  0.92123700  0.25000000  1
  Cl  Cl4  1  0.79165600  0.71287000  0.60849700  1
  Cl  Cl5  1  0.80402900  0.19505600  0.49238300  1
  Cl  Cl6  1  0.62986100  0.37013900  0.25000000  1
  Cl  Cl7  1  0.80494400  0.19597100  0.00761700  1
  Cl  Cl8  1  0.71287000  0.79165600  0.10849700  1
  Cl  Cl9  1  0.28713000  0.20834400  0.89150300  1
  Cl  Cl10  1  0.19505600  0.80402900  0.99238300  1
  Cl  Cl11  1  0.37013900  0.62986100  0.75000000  1
  Cl  Cl12  1  0.19597100  0.80494400  0.50761700  1
  Cl  Cl13  1  0.20834400  0.28713000  0.39150300  1
