# generated using pymatgen
data_HoMg(SbO3)2
_symmetry_space_group_name_H-M   'P 1'
_cell_length_a   5.59560000
_cell_length_b   5.86017400
_cell_length_c   8.29065700
_cell_angle_alpha   90.00000000
_cell_angle_beta   90.00000000
_cell_angle_gamma   90.00000000
_symmetry_Int_Tables_number   1
_chemical_formula_structural   HoMg(SbO3)2
_chemical_formula_sum   'Ho2 Mg2 Sb4 O12'
_cell_volume   271.86050588
_cell_formula_units_Z   2
loop_
 _symmetry_equiv_pos_site_id
 _symmetry_equiv_pos_as_xyz
  1  'x, y, z'
loop_
 _atom_site_type_symbol
 _atom_site_label
 _atom_site_symmetry_multiplicity
 _atom_site_fract_x
 _atom_site_fract_y
 _atom_site_fract_z
 _atom_site_occupancy
  Ho  Ho0  1  0.02337700  0.68038600  0.00000000  1
  Ho  Ho1  1  0.52337700  0.31961400  0.50000000  1
  Mg  Mg2  1  0.50559800  0.23431600  0.00000000  1
  Mg  Mg3  1  0.00559800  0.76568400  0.50000000  1
  Sb  Sb4  1  0.00917000  0.23520300  0.75156300  1
  Sb  Sb5  1  0.00917000  0.23520300  0.24843700  1
  Sb  Sb6  1  0.50917000  0.76479700  0.25156300  1
  Sb  Sb7  1  0.50917000  0.76479700  0.74843700  1
  O  O8  1  0.15013300  0.15579100  0.50000000  1
  O  O9  1  0.16542100  0.92652000  0.82093500  1
  O  O10  1  0.16542100  0.92652000  0.17906500  1
  O  O11  1  0.31349800  0.42797300  0.83251300  1
  O  O12  1  0.31349800  0.42797300  0.16748700  1
  O  O13  1  0.35186100  0.67383600  0.50000000  1
  O  O14  1  0.65013300  0.84420900  0.00000000  1
  O  O15  1  0.66542100  0.07348000  0.32093500  1
  O  O16  1  0.66542100  0.07348000  0.67906500  1
  O  O17  1  0.81349800  0.57202700  0.66748700  1
  O  O18  1  0.81349800  0.57202700  0.33251300  1
  O  O19  1  0.85186100  0.32616400  0.00000000  1
