# generated using pymatgen
data_HoZn(SbO3)2
_symmetry_space_group_name_H-M   'P 1'
_cell_length_a   5.55875900
_cell_length_b   6.33557590
_cell_length_c   8.59521714
_cell_angle_alpha   96.50496127
_cell_angle_beta   89.68499624
_cell_angle_gamma   94.18918977
_symmetry_Int_Tables_number   1
_chemical_formula_structural   HoZn(SbO3)2
_chemical_formula_sum   'Ho2 Zn2 Sb4 O12'
_cell_volume   299.95231453
_cell_formula_units_Z   2
loop_
 _symmetry_equiv_pos_site_id
 _symmetry_equiv_pos_as_xyz
  1  'x, y, z'
loop_
 _atom_site_type_symbol
 _atom_site_label
 _atom_site_symmetry_multiplicity
 _atom_site_fract_x
 _atom_site_fract_y
 _atom_site_fract_z
 _atom_site_occupancy
  Ho  Ho0  1  0.96361200  0.92793200  0.25137400  1
  Ho  Ho1  1  0.44630300  0.58827400  0.74213600  1
  Zn  Zn2  1  0.46981900  0.65583400  0.25758900  1
  Zn  Zn3  1  0.97712800  0.82969200  0.78284400  1
  Sb  Sb4  1  0.01990200  0.41827600  0.00812300  1
  Sb  Sb5  1  0.98002000  0.50002200  0.47728000  1
  Sb  Sb6  1  0.48504000  0.09161200  0.51809300  1
  Sb  Sb7  1  0.51639500  0.01380600  0.00457300  1
  O  O8  1  0.81711600  0.49241400  0.68213700  1
  O  O9  1  0.94241500  0.13060100  0.06770400  1
  O  O10  1  0.80773400  0.21035500  0.40211700  1
  O  O11  1  0.66895800  0.76151800  0.09083400  1
  O  O12  1  0.74393600  0.69715600  0.40738200  1
  O  O13  1  0.65700400  0.91591100  0.79272700  1
  O  O14  1  0.35124100  0.97264900  0.31275600  1
  O  O15  1  0.28496000  0.35463300  0.53321200  1
  O  O16  1  0.31994800  0.35097400  0.89937100  1
  O  O17  1  0.23115900  0.79045800  0.92930500  1
  O  O18  1  0.18200000  0.75707800  0.58768500  1
  O  O19  1  0.13531300  0.54080500  0.25275700  1
