# generated using pymatgen
data_ZnCr2O4
_symmetry_space_group_name_H-M   'P 1'
_cell_length_a   5.99667621
_cell_length_b   5.99667621
_cell_length_c   14.73908500
_cell_angle_alpha   90.00000000
_cell_angle_beta   90.00000000
_cell_angle_gamma   120.00000235
_symmetry_Int_Tables_number   1
_chemical_formula_structural   ZnCr2O4
_chemical_formula_sum   'Zn6 Cr12 O24'
_cell_volume   459.01020887
_cell_formula_units_Z   6
loop_
 _symmetry_equiv_pos_site_id
 _symmetry_equiv_pos_as_xyz
  1  'x, y, z'
loop_
 _atom_site_type_symbol
 _atom_site_label
 _atom_site_symmetry_multiplicity
 _atom_site_fract_x
 _atom_site_fract_y
 _atom_site_fract_z
 _atom_site_occupancy
  Zn  Zn0  1  0.33333300  0.66666700  0.95322200  1
  Zn  Zn1  1  0.00000000  0.00000000  0.62473200  1
  Zn  Zn2  1  0.00000000  0.00000000  0.99686000  1
  Zn  Zn3  1  0.66666700  0.33333300  0.29250600  1
  Zn  Zn4  1  0.33333300  0.66666700  0.71002000  1
  Zn  Zn5  1  0.00000000  0.00000000  0.37535700  1
  Cr  Cr6  1  0.83420100  0.66840100  0.83269200  1
  Cr  Cr7  1  0.33159900  0.16579900  0.83269200  1
  Cr  Cr8  1  0.50004000  0.00007900  0.50044300  1
  Cr  Cr9  1  0.83420100  0.16579900  0.83269200  1
  Cr  Cr10  1  0.66666700  0.33333300  0.66700100  1
  Cr  Cr11  1  0.99992100  0.49996000  0.50044300  1
  Cr  Cr12  1  0.16770200  0.33540400  0.16756000  1
  Cr  Cr13  1  0.50004000  0.49996000  0.50044300  1
  Cr  Cr14  1  0.16770200  0.83229800  0.16756000  1
  Cr  Cr15  1  0.33333300  0.66666700  0.33411100  1
  Cr  Cr16  1  0.66459600  0.83229800  0.16756000  1
  Cr  Cr17  1  0.66666700  0.33333300  0.04401500  1
  O  O18  1  0.68991900  0.84495900  0.90854100  1
  O  O19  1  0.00000000  0.00000000  0.76073800  1
  O  O20  1  0.15504100  0.84495900  0.90854100  1
  O  O21  1  0.15504100  0.31008100  0.90854100  1
  O  O22  1  0.51599600  0.03199300  0.75328400  1
  O  O23  1  0.36416500  0.18208200  0.57918000  1
  O  O24  1  0.51599600  0.48400400  0.75328400  1
  O  O25  1  0.66666700  0.33333300  0.90707300  1
  O  O26  1  0.81791800  0.18208200  0.57918000  1
  O  O27  1  0.66666700  0.33333300  0.42819700  1
  O  O28  1  0.96800700  0.48400400  0.75328400  1
  O  O29  1  0.81791800  0.63583500  0.57918000  1
  O  O30  1  0.18211400  0.36422800  0.42042400  1
  O  O31  1  0.03140000  0.51570000  0.24653500  1
  O  O32  1  0.18211400  0.81788600  0.42042400  1
  O  O33  1  0.33333300  0.66666700  0.57189600  1
  O  O34  1  0.33333300  0.66666700  0.09485600  1
  O  O35  1  0.48430000  0.51570000  0.24653500  1
  O  O36  1  0.63577200  0.81788600  0.42042400  1
  O  O37  1  0.48430000  0.96860000  0.24653500  1
  O  O38  1  0.83992800  0.67985500  0.09185100  1
  O  O39  1  0.00000000  0.00000000  0.23784800  1
  O  O40  1  0.83992800  0.16007200  0.09185100  1
  O  O41  1  0.32014500  0.16007200  0.09185100  1
