# generated using pymatgen
data_CaHo(BiO3)2
_symmetry_space_group_name_H-M   'P 1'
_cell_length_a   5.81583000
_cell_length_b   6.11010600
_cell_length_c   8.55695700
_cell_angle_alpha   90.00000000
_cell_angle_beta   90.00000000
_cell_angle_gamma   90.00000000
_symmetry_Int_Tables_number   1
_chemical_formula_structural   CaHo(BiO3)2
_chemical_formula_sum   'Ca2 Ho2 Bi4 O12'
_cell_volume   304.07435735
_cell_formula_units_Z   2
loop_
 _symmetry_equiv_pos_site_id
 _symmetry_equiv_pos_as_xyz
  1  'x, y, z'
loop_
 _atom_site_type_symbol
 _atom_site_label
 _atom_site_symmetry_multiplicity
 _atom_site_fract_x
 _atom_site_fract_y
 _atom_site_fract_z
 _atom_site_occupancy
  Ca  Ca0  1  0.49787200  0.20948500  0.00000000  1
  Ca  Ca1  1  0.99787200  0.79051500  0.50000000  1
  Ho  Ho2  1  0.02929600  0.68325400  0.00000000  1
  Ho  Ho3  1  0.52929600  0.31674600  0.50000000  1
  Bi  Bi4  1  0.00391200  0.24569900  0.74964000  1
  Bi  Bi5  1  0.00391200  0.24569900  0.25036000  1
  Bi  Bi6  1  0.50391200  0.75430100  0.24964000  1
  Bi  Bi7  1  0.50391200  0.75430100  0.75036000  1
  O  O8  1  0.16634500  0.17883300  0.50000000  1
  O  O9  1  0.16464600  0.91919900  0.82280400  1
  O  O10  1  0.16464600  0.91919900  0.17719600  1
  O  O11  1  0.29995800  0.45558400  0.83404000  1
  O  O12  1  0.29995800  0.45558400  0.16596000  1
  O  O13  1  0.36492400  0.66193400  0.50000000  1
  O  O14  1  0.66634500  0.82116700  0.00000000  1
  O  O15  1  0.66464600  0.08080100  0.32280400  1
  O  O16  1  0.66464600  0.08080100  0.67719600  1
  O  O17  1  0.79995800  0.54441600  0.66596000  1
  O  O18  1  0.79995800  0.54441600  0.33404000  1
  O  O19  1  0.86492400  0.33806600  0.00000000  1
