# generated using pymatgen
data_Ca(FeO2)2
_symmetry_space_group_name_H-M   'P 1'
_cell_length_a   6.37838636
_cell_length_b   6.37838636
_cell_length_c   6.37838687
_cell_angle_alpha   58.38037602
_cell_angle_beta   58.38037602
_cell_angle_gamma   58.38037910
_symmetry_Int_Tables_number   1
_chemical_formula_structural   Ca(FeO2)2
_chemical_formula_sum   'Ca2 Fe4 O8'
_cell_volume   176.68917926
_cell_formula_units_Z   2
loop_
 _symmetry_equiv_pos_site_id
 _symmetry_equiv_pos_as_xyz
  1  'x, y, z'
loop_
 _atom_site_type_symbol
 _atom_site_label
 _atom_site_symmetry_multiplicity
 _atom_site_fract_x
 _atom_site_fract_y
 _atom_site_fract_z
 _atom_site_occupancy
  Ca  Ca0  1  0.00345400  0.00345400  0.00345400  1
  Ca  Ca1  1  0.62438900  0.62438900  0.62438900  1
  Fe  Fe2  1  0.24175600  0.24175600  0.24175600  1
  Fe  Fe3  1  0.62879600  0.62879600  0.11379600  1
  Fe  Fe4  1  0.11379600  0.62879600  0.62879600  1
  Fe  Fe5  1  0.62879600  0.11379600  0.62879600  1
  O  O6  1  0.36703100  0.86078300  0.36703100  1
  O  O7  1  0.86078300  0.36703100  0.36703100  1
  O  O8  1  0.36703100  0.36703100  0.86078300  1
  O  O9  1  0.37770000  0.37770000  0.37770000  1
  O  O10  1  0.86136700  0.86136700  0.86136700  1
  O  O11  1  0.87447500  0.87447500  0.42614500  1
  O  O12  1  0.42614500  0.87447500  0.87447500  1
  O  O13  1  0.87447500  0.42614500  0.87447500  1
