# generated using pymatgen
data_CaCr2O4
_symmetry_space_group_name_H-M   'P 1'
_cell_length_a   6.23193746
_cell_length_b   6.23193746
_cell_length_c   15.36601200
_cell_angle_alpha   90.00000000
_cell_angle_beta   90.00000000
_cell_angle_gamma   119.99999427
_symmetry_Int_Tables_number   1
_chemical_formula_structural   CaCr2O4
_chemical_formula_sum   'Ca6 Cr12 O24'
_cell_volume   516.81843615
_cell_formula_units_Z   6
loop_
 _symmetry_equiv_pos_site_id
 _symmetry_equiv_pos_as_xyz
  1  'x, y, z'
loop_
 _atom_site_type_symbol
 _atom_site_label
 _atom_site_symmetry_multiplicity
 _atom_site_fract_x
 _atom_site_fract_y
 _atom_site_fract_z
 _atom_site_occupancy
  Ca  Ca0  1  0.66666700  0.33333300  0.95545900  1
  Ca  Ca1  1  0.33333300  0.66666700  0.62334600  1
  Ca  Ca2  1  0.33333300  0.66666700  0.99727800  1
  Ca  Ca3  1  0.00000000  0.00000000  0.28970700  1
  Ca  Ca4  1  0.66666700  0.33333300  0.71252200  1
  Ca  Ca5  1  0.33333300  0.66666700  0.37442600  1
  Cr  Cr6  1  0.16704300  0.83295700  0.83025600  1
  Cr  Cr7  1  0.16704300  0.33408600  0.83025600  1
  Cr  Cr8  1  0.83374600  0.16625400  0.50070400  1
  Cr  Cr9  1  0.66591400  0.83295700  0.83025600  1
  Cr  Cr10  1  0.00000000  0.00000000  0.66623500  1
  Cr  Cr11  1  0.83374600  0.66749100  0.50070400  1
  Cr  Cr12  1  0.50403200  0.49596800  0.16983300  1
  Cr  Cr13  1  0.33250900  0.16625400  0.50070400  1
  Cr  Cr14  1  0.99193500  0.49596800  0.16983300  1
  Cr  Cr15  1  0.66666700  0.33333300  0.33685100  1
  Cr  Cr16  1  0.50403200  0.00806500  0.16983300  1
  Cr  Cr17  1  0.00000000  0.00000000  0.04735800  1
  O  O18  1  0.48505100  0.97010200  0.89711500  1
  O  O19  1  0.33333300  0.66666700  0.76486700  1
  O  O20  1  0.02989800  0.51494900  0.89711500  1
  O  O21  1  0.48505100  0.51494900  0.89711500  1
  O  O22  1  0.86042000  0.13958000  0.75437000  1
  O  O23  1  0.14188400  0.28376800  0.57611300  1
  O  O24  1  0.27916100  0.13958000  0.75437000  1
  O  O25  1  0.00000000  0.00000000  0.91191700  1
  O  O26  1  0.71623200  0.85811600  0.57611300  1
  O  O27  1  0.00000000  0.00000000  0.43404900  1
  O  O28  1  0.86042000  0.72083900  0.75437000  1
  O  O29  1  0.14188400  0.85811600  0.57611300  1
  O  O30  1  0.52429700  0.47570300  0.42314700  1
  O  O31  1  0.80683400  0.61366900  0.24630700  1
  O  O32  1  0.95140700  0.47570300  0.42314700  1
  O  O33  1  0.66666700  0.33333300  0.56594200  1
  O  O34  1  0.66666700  0.33333300  0.10423300  1
  O  O35  1  0.38633100  0.19316600  0.24630700  1
  O  O36  1  0.52429700  0.04859300  0.42314700  1
  O  O37  1  0.80683400  0.19316600  0.24630700  1
  O  O38  1  0.16600800  0.83399200  0.09790800  1
  O  O39  1  0.33333300  0.66666700  0.22867700  1
  O  O40  1  0.66798500  0.83399200  0.09790800  1
  O  O41  1  0.16600800  0.33201500  0.09790800  1
