# generated using pymatgen
data_Zn(MoO2)2
_symmetry_space_group_name_H-M   'P 1'
_cell_length_a   6.32938723
_cell_length_b   6.32938723
_cell_length_c   6.32938720
_cell_angle_alpha   60.89214154
_cell_angle_beta   60.89214154
_cell_angle_gamma   60.89213597
_symmetry_Int_Tables_number   1
_chemical_formula_structural   Zn(MoO2)2
_chemical_formula_sum   'Zn2 Mo4 O8'
_cell_volume   182.90138106
_cell_formula_units_Z   2
loop_
 _symmetry_equiv_pos_site_id
 _symmetry_equiv_pos_as_xyz
  1  'x, y, z'
loop_
 _atom_site_type_symbol
 _atom_site_label
 _atom_site_symmetry_multiplicity
 _atom_site_fract_x
 _atom_site_fract_y
 _atom_site_fract_z
 _atom_site_occupancy
  Zn  Zn0  1  0.99594200  0.99594200  0.99594200  1
  Zn  Zn1  1  0.37064400  0.37064400  0.37064400  1
  Mo  Mo2  1  0.76184500  0.76184500  0.76184500  1
  Mo  Mo3  1  0.87747600  0.37490600  0.37490600  1
  Mo  Mo4  1  0.37490600  0.37490600  0.87747600  1
  Mo  Mo5  1  0.37490600  0.87747600  0.37490600  1
  O  O6  1  0.61583900  0.15281400  0.61583900  1
  O  O7  1  0.61583900  0.61583900  0.15281400  1
  O  O8  1  0.15281400  0.61583900  0.61583900  1
  O  O9  1  0.61250300  0.61250300  0.61250300  1
  O  O10  1  0.13198300  0.13198300  0.13198300  1
  O  O11  1  0.60181000  0.13174800  0.13174800  1
  O  O12  1  0.13174800  0.13174800  0.60181000  1
  O  O13  1  0.13174800  0.60181000  0.13174800  1
