# generated using pymatgen
data_V9(P2O7)8
_symmetry_space_group_name_H-M   'P 1'
_cell_length_a   10.82904230
_cell_length_b   9.82320788
_cell_length_c   12.93460720
_cell_angle_alpha   83.04192040
_cell_angle_beta   65.91705177
_cell_angle_gamma   109.48196845
_symmetry_Int_Tables_number   1
_chemical_formula_structural   V9(P2O7)8
_chemical_formula_sum   'V9 P16 O56'
_cell_volume   1130.11613222
_cell_formula_units_Z   1
loop_
 _symmetry_equiv_pos_site_id
 _symmetry_equiv_pos_as_xyz
  1  'x, y, z'
loop_
 _atom_site_type_symbol
 _atom_site_label
 _atom_site_symmetry_multiplicity
 _atom_site_fract_x
 _atom_site_fract_y
 _atom_site_fract_z
 _atom_site_occupancy
  V  V0  1  0.06021500  0.05470100  0.18673300  1
  V  V1  1  0.20588300  0.80964500  0.57292800  1
  V  V2  1  0.43753300  0.44620900  0.29871400  1
  V  V3  1  0.29293200  0.69990800  0.93232400  1
  V  V4  1  0.50000000  0.50000000  0.50000000  1
  V  V5  1  0.70706800  0.30009200  0.06767600  1
  V  V6  1  0.56246700  0.55379100  0.70128600  1
  V  V7  1  0.79411700  0.19035500  0.42707200  1
  V  V8  1  0.93978500  0.94529900  0.81326700  1
  P  P9  1  0.05237500  0.73148600  0.17103400  1
  P  P10  1  0.08986000  0.27317000  0.37090300  1
  P  P11  1  0.26562600  0.95875700  0.77017900  1
  P  P12  1  0.19207300  0.14093000  0.52420400  1
  P  P13  1  0.45145100  0.76480900  0.34144800  1
  P  P14  1  0.23109200  0.53823600  0.72910200  1
  P  P15  1  0.40652500  0.21832100  0.13261900  1
  P  P16  1  0.68532400  0.62763400  0.01475200  1
  P  P17  1  0.31467600  0.37236600  0.98524800  1
  P  P18  1  0.59347500  0.78167900  0.86738100  1
  P  P19  1  0.76890800  0.46176400  0.27089800  1
  P  P20  1  0.54854900  0.23519100  0.65855200  1
  P  P21  1  0.80792700  0.85907000  0.47579600  1
  P  P22  1  0.73437400  0.04124300  0.22982100  1
  P  P23  1  0.91014000  0.72683100  0.62909700  1
  P  P24  1  0.94762500  0.26851400  0.82896600  1
  O  O25  1  0.07690600  0.89463200  0.12045400  1
  O  O26  1  0.12703900  0.67957900  0.05659700  1
  O  O27  1  0.09173100  0.69436000  0.26292300  1
  O  O28  1  0.04782000  0.70504800  0.54249600  1
  O  O29  1  0.03079700  0.20310500  0.28990500  1
  O  O30  1  0.17748200  0.22163900  0.03792800  1
  O  O31  1  0.27894200  0.50650900  0.00915000  1
  O  O32  1  0.10859500  0.94463800  0.83758500  1
  O  O33  1  0.23871700  0.41024100  0.30984900  1
  O  O34  1  0.10535100  0.14691900  0.44815600  1
  O  O35  1  0.40528100  0.76212300  0.24976600  1
  O  O36  1  0.18122400  0.60775400  0.65156400  1
  O  O37  1  0.40598900  0.35779100  0.05471400  1
  O  O38  1  0.08570500  0.10789500  0.65371800  1
  O  O39  1  0.25142700  0.09139800  0.19464400  1
  O  O40  1  0.37759300  0.82791100  0.44239600  1
  O  O41  1  0.28363400  0.88686400  0.66695400  1
  O  O42  1  0.12443800  0.36345300  0.78949500  1
  O  O43  1  0.23260300  0.61031900  0.82611600  1
  O  O44  1  0.43997600  0.60424400  0.39972300  1
  O  O45  1  0.58570600  0.59858500  0.14707900  1
  O  O46  1  0.32573700  0.30104100  0.47294600  1
  O  O47  1  0.24234800  0.01589200  0.49481000  1
  O  O48  1  0.32336100  0.89588900  0.84494000  1
  O  O49  1  0.53584000  0.18385200  0.05089200  1
  O  O50  1  0.46391800  0.28430700  0.21608300  1
  O  O51  1  0.62914800  0.86550000  0.29276300  1
  O  O52  1  0.38825300  0.53983000  0.65380600  1
  O  O53  1  0.61174700  0.46017000  0.34619400  1
  O  O54  1  0.37085200  0.13450000  0.70723700  1
  O  O55  1  0.53608200  0.71569300  0.78391700  1
  O  O56  1  0.46416000  0.81614800  0.94910800  1
  O  O57  1  0.67663900  0.10411100  0.15506000  1
  O  O58  1  0.75765200  0.98410800  0.50519000  1
  O  O59  1  0.67426300  0.69895900  0.52705400  1
  O  O60  1  0.41429400  0.40141500  0.85292100  1
  O  O61  1  0.56002400  0.39575600  0.60027700  1
  O  O62  1  0.76739700  0.38968100  0.17388400  1
  O  O63  1  0.87556200  0.63654700  0.21050500  1
  O  O64  1  0.71636600  0.11313600  0.33304600  1
  O  O65  1  0.62240700  0.17208900  0.55760400  1
  O  O66  1  0.74857300  0.90860200  0.80535600  1
  O  O67  1  0.91429500  0.89210500  0.34628200  1
  O  O68  1  0.59401100  0.64220900  0.94528600  1
  O  O69  1  0.81877600  0.39224600  0.34843600  1
  O  O70  1  0.59471900  0.23787700  0.75023400  1
  O  O71  1  0.89464900  0.85308100  0.55184400  1
  O  O72  1  0.76128300  0.58975900  0.69015100  1
  O  O73  1  0.89140500  0.05536200  0.16241500  1
  O  O74  1  0.72105800  0.49349100  0.99085000  1
  O  O75  1  0.82251800  0.77836100  0.96207200  1
  O  O76  1  0.96920300  0.79689500  0.71009500  1
  O  O77  1  0.95218000  0.29495200  0.45750400  1
  O  O78  1  0.90826900  0.30564000  0.73707700  1
  O  O79  1  0.87296100  0.32042100  0.94340300  1
  O  O80  1  0.92309400  0.10536800  0.87954600  1
