# generated using pymatgen
data_TbTa3O9
_symmetry_space_group_name_H-M   'P 1'
_cell_length_a   8.80366648
_cell_length_b   8.80366648
_cell_length_c   9.67631679
_cell_angle_alpha   56.94742010
_cell_angle_beta   56.94742010
_cell_angle_gamma   36.89801493
_symmetry_Int_Tables_number   1
_chemical_formula_structural   TbTa3O9
_chemical_formula_sum   'Tb2 Ta6 O18'
_cell_volume   368.40279397
_cell_formula_units_Z   2
loop_
 _symmetry_equiv_pos_site_id
 _symmetry_equiv_pos_as_xyz
  1  'x, y, z'
loop_
 _atom_site_type_symbol
 _atom_site_label
 _atom_site_symmetry_multiplicity
 _atom_site_fract_x
 _atom_site_fract_y
 _atom_site_fract_z
 _atom_site_occupancy
  Tb  Tb0  1  0.32641000  0.32641000  0.00139300  1
  Tb  Tb1  1  0.67359000  0.67359000  0.99860700  1
  Ta  Ta2  1  0.07695800  0.07695800  0.25663300  1
  Ta  Ta3  1  0.58310600  0.58310600  0.75123700  1
  Ta  Ta4  1  0.74956500  0.74956500  0.26179400  1
  Ta  Ta5  1  0.25043500  0.25043500  0.73820600  1
  Ta  Ta6  1  0.92304200  0.92304200  0.74336700  1
  Ta  Ta7  1  0.41689400  0.41689400  0.24876300  1
  O  O8  1  0.50000000  0.50000000  0.00000000  1
  O  O9  1  0.57340500  0.09816400  0.22736100  1
  O  O10  1  0.09816400  0.57340500  0.22736100  1
  O  O11  1  0.92745600  0.42756600  0.21785100  1
  O  O12  1  0.17587600  0.17587600  0.99967300  1
  O  O13  1  0.82412400  0.82412400  0.00032700  1
  O  O14  1  0.00000000  0.00000000  0.50000000  1
  O  O15  1  0.66491500  0.66491500  0.50278900  1
  O  O16  1  0.72500200  0.24993900  0.77330200  1
  O  O17  1  0.57243400  0.07254400  0.78214900  1
  O  O18  1  0.42756600  0.92745600  0.21785100  1
  O  O19  1  0.24993900  0.72500200  0.77330200  1
  O  O20  1  0.75006100  0.27499800  0.22669800  1
  O  O21  1  0.27499800  0.75006100  0.22669800  1
  O  O22  1  0.33508500  0.33508500  0.49721100  1
  O  O23  1  0.07254400  0.57243400  0.78214900  1
  O  O24  1  0.90183600  0.42659500  0.77263900  1
  O  O25  1  0.42659500  0.90183600  0.77263900  1
