# generated using pymatgen
data_ScBiO3
_symmetry_space_group_name_H-M   'P 1'
_cell_length_a   6.01484032
_cell_length_b   6.01484032
_cell_length_c   6.01484077
_cell_angle_alpha   56.62642017
_cell_angle_beta   56.62642017
_cell_angle_gamma   56.62642390
_symmetry_Int_Tables_number   1
_chemical_formula_structural   ScBiO3
_chemical_formula_sum   'Sc2 Bi2 O6'
_cell_volume   141.88024261
_cell_formula_units_Z   2
loop_
 _symmetry_equiv_pos_site_id
 _symmetry_equiv_pos_as_xyz
  1  'x, y, z'
loop_
 _atom_site_type_symbol
 _atom_site_label
 _atom_site_symmetry_multiplicity
 _atom_site_fract_x
 _atom_site_fract_y
 _atom_site_fract_z
 _atom_site_occupancy
  Sc  Sc0  1  0.85136300  0.85136300  0.85136300  1
  Sc  Sc1  1  0.14863700  0.14863700  0.14863700  1
  Bi  Bi2  1  0.63694900  0.63694900  0.63694900  1
  Bi  Bi3  1  0.36305100  0.36305100  0.36305100  1
  O  O4  1  0.55337700  0.97710700  0.20625500  1
  O  O5  1  0.79374500  0.44662300  0.02289300  1
  O  O6  1  0.02289300  0.79374500  0.44662300  1
  O  O7  1  0.97710700  0.20625500  0.55337700  1
  O  O8  1  0.20625500  0.55337700  0.97710700  1
  O  O9  1  0.44662300  0.02289300  0.79374500  1
