# generated using pymatgen
data_KMn4O8
_symmetry_space_group_name_H-M   'P 1'
_cell_length_a   7.20424589
_cell_length_b   7.20424589
_cell_length_c   7.20424589
_cell_angle_alpha   92.48308983
_cell_angle_beta   92.48308983
_cell_angle_gamma   155.97261409
_symmetry_Int_Tables_number   1
_chemical_formula_structural   KMn4O8
_chemical_formula_sum   'K1 Mn4 O8'
_cell_volume   148.91112287
_cell_formula_units_Z   1
loop_
 _symmetry_equiv_pos_site_id
 _symmetry_equiv_pos_as_xyz
  1  'x, y, z'
loop_
 _atom_site_type_symbol
 _atom_site_label
 _atom_site_symmetry_multiplicity
 _atom_site_fract_x
 _atom_site_fract_y
 _atom_site_fract_z
 _atom_site_occupancy
  K  K0  1  0.50000000  0.50000000  0.00000000  1
  Mn  Mn1  1  0.34955200  0.83375100  0.18330300  1
  Mn  Mn2  1  0.83375100  0.65044800  0.48419900  1
  Mn  Mn3  1  0.16624900  0.34955200  0.51580100  1
  Mn  Mn4  1  0.65044800  0.16624900  0.81669700  1
  O  O5  1  0.16675900  0.54328600  0.71004600  1
  O  O6  1  0.54328600  0.83324100  0.37652700  1
  O  O7  1  0.45671400  0.16675900  0.62347300  1
  O  O8  1  0.83324100  0.45671400  0.28995400  1
  O  O9  1  0.84659800  0.20177200  0.04837000  1
  O  O10  1  0.20177200  0.15340200  0.35517400  1
  O  O11  1  0.15340200  0.79822800  0.95163000  1
  O  O12  1  0.79822800  0.84659800  0.64482600  1
