# generated using pymatgen
data_Mn2HO4
_symmetry_space_group_name_H-M   'P 1'
_cell_length_a   5.47234401
_cell_length_b   5.47234401
_cell_length_c   14.56496679
_cell_angle_alpha   88.96583071
_cell_angle_beta   88.96583071
_cell_angle_gamma   66.71446497
_symmetry_Int_Tables_number   1
_chemical_formula_structural   Mn2HO4
_chemical_formula_sum   'Mn12 H6 O24'
_cell_volume   400.54920529
_cell_formula_units_Z   6
loop_
 _symmetry_equiv_pos_site_id
 _symmetry_equiv_pos_as_xyz
  1  'x, y, z'
loop_
 _atom_site_type_symbol
 _atom_site_label
 _atom_site_symmetry_multiplicity
 _atom_site_fract_x
 _atom_site_fract_y
 _atom_site_fract_z
 _atom_site_occupancy
  Mn  Mn0  1  0.25412600  0.50492500  0.49904600  1
  Mn  Mn1  1  0.74726500  0.00185600  0.49795800  1
  Mn  Mn2  1  0.49139400  0.74490500  0.15047100  1
  Mn  Mn3  1  0.99635500  0.23654700  0.14982000  1
  Mn  Mn4  1  0.51124100  0.76413200  0.84966100  1
  Mn  Mn5  1  0.00089400  0.24912000  0.84354300  1
  Mn  Mn6  1  0.50492500  0.25412600  0.99904600  1
  Mn  Mn7  1  0.00185600  0.74726500  0.99795800  1
  Mn  Mn8  1  0.23654700  0.99635500  0.64982000  1
  Mn  Mn9  1  0.74490500  0.49139400  0.65047100  1
  Mn  Mn10  1  0.24912000  0.00089400  0.34354300  1
  Mn  Mn11  1  0.76413200  0.51124100  0.34966100  1
  H  H12  1  0.31011200  0.51026200  0.30433100  1
  H  H13  1  0.76403200  0.05610700  0.31141900  1
  H  H14  1  0.96163500  0.71087200  0.18649300  1
  H  H15  1  0.51026200  0.31011200  0.80433100  1
  H  H16  1  0.05610700  0.76403200  0.81141900  1
  H  H17  1  0.71087200  0.96163500  0.68649300  1
  O  O18  1  0.36262000  0.61189800  0.94810500  1
  O  O19  1  0.86832100  0.11395800  0.94789900  1
  O  O20  1  0.63675000  0.89087800  0.05153000  1
  O  O21  1  0.14714800  0.38949900  0.04906600  1
  O  O22  1  0.61189800  0.36262000  0.44810500  1
  O  O23  1  0.11395800  0.86832100  0.44789900  1
  O  O24  1  0.38949900  0.14714800  0.54906600  1
  O  O25  1  0.89087800  0.63675000  0.55153000  1
  O  O26  1  0.87877800  0.62853700  0.88543300  1
  O  O27  1  0.38606600  0.13053000  0.88592300  1
  O  O28  1  0.63351600  0.38414500  0.10658300  1
  O  O29  1  0.12124200  0.86170500  0.11247600  1
  O  O30  1  0.62853700  0.87877800  0.38543300  1
  O  O31  1  0.13053000  0.38606600  0.38592300  1
  O  O32  1  0.38414500  0.63351600  0.60658300  1
  O  O33  1  0.86170500  0.12124200  0.61247600  1
  O  O34  1  0.62283700  0.40839800  0.78400100  1
  O  O35  1  0.15336300  0.87607500  0.78926600  1
  O  O36  1  0.85623600  0.60952100  0.21139600  1
  O  O37  1  0.33708300  0.08731700  0.21690700  1
  O  O38  1  0.40839800  0.62283700  0.28400100  1
  O  O39  1  0.87607500  0.15336300  0.28926600  1
  O  O40  1  0.60952100  0.85623600  0.71139600  1
  O  O41  1  0.08731700  0.33708300  0.71690700  1
