# generated using pymatgen
data_CaMn4O8
_symmetry_space_group_name_H-M   'P 1'
_cell_length_a   5.83488800
_cell_length_b   5.87678160
_cell_length_c   5.97294481
_cell_angle_alpha   89.40058940
_cell_angle_beta   117.56778452
_cell_angle_gamma   106.00198243
_symmetry_Int_Tables_number   1
_chemical_formula_structural   CaMn4O8
_chemical_formula_sum   'Ca1 Mn4 O8'
_cell_volume   172.86920464
_cell_formula_units_Z   1
loop_
 _symmetry_equiv_pos_site_id
 _symmetry_equiv_pos_as_xyz
  1  'x, y, z'
loop_
 _atom_site_type_symbol
 _atom_site_label
 _atom_site_symmetry_multiplicity
 _atom_site_fract_x
 _atom_site_fract_y
 _atom_site_fract_z
 _atom_site_occupancy
  Ca  Ca0  1  0.50000000  0.00000000  0.50000000  1
  Mn  Mn1  1  0.00948100  0.52519800  0.75452800  1
  Mn  Mn2  1  0.49896200  0.49862400  0.24642300  1
  Mn  Mn3  1  0.99051900  0.47480200  0.24547200  1
  Mn  Mn4  1  0.50103800  0.50137600  0.75357700  1
  O  O5  1  0.25443200  0.69052700  0.63410700  1
  O  O6  1  0.24643200  0.68161200  0.15200100  1
  O  O7  1  0.72098100  0.66671800  0.10035900  1
  O  O8  1  0.71326400  0.68707200  0.59413300  1
  O  O9  1  0.27901900  0.33328200  0.89964100  1
  O  O10  1  0.28673600  0.31292800  0.40586700  1
  O  O11  1  0.74556800  0.30947300  0.36589300  1
  O  O12  1  0.75356800  0.31838800  0.84799900  1
