# generated using pymatgen
data_MgMn2O4
_symmetry_space_group_name_H-M   'P 1'
_cell_length_a   5.77337309
_cell_length_b   5.77337309
_cell_length_c   10.90179554
_cell_angle_alpha   89.68738736
_cell_angle_beta   89.68738736
_cell_angle_gamma   59.15303398
_symmetry_Int_Tables_number   1
_chemical_formula_structural   MgMn2O4
_chemical_formula_sum   'Mg4 Mn8 O16'
_cell_volume   311.96739582
_cell_formula_units_Z   4
loop_
 _symmetry_equiv_pos_site_id
 _symmetry_equiv_pos_as_xyz
  1  'x, y, z'
loop_
 _atom_site_type_symbol
 _atom_site_label
 _atom_site_symmetry_multiplicity
 _atom_site_fract_x
 _atom_site_fract_y
 _atom_site_fract_z
 _atom_site_occupancy
  Mg  Mg0  1  0.00000000  0.50000000  0.00000000  1
  Mg  Mg1  1  0.50000000  0.00000000  0.50000000  1
  Mg  Mg2  1  0.98756100  0.01243900  0.25000000  1
  Mg  Mg3  1  0.01243900  0.98756100  0.75000000  1
  Mn  Mn4  1  0.27975300  0.77622500  0.01765200  1
  Mn  Mn5  1  0.22377500  0.72024700  0.48234800  1
  Mn  Mn6  1  0.72024700  0.22377500  0.98234800  1
  Mn  Mn7  1  0.77622500  0.27975300  0.51765200  1
  Mn  Mn8  1  0.71446600  0.73131100  0.76448700  1
  Mn  Mn9  1  0.73131100  0.71446600  0.26448700  1
  Mn  Mn10  1  0.26868900  0.28553400  0.73551300  1
  Mn  Mn11  1  0.28553400  0.26868900  0.23551300  1
  O  O12  1  0.91428200  0.88632900  0.07913400  1
  O  O13  1  0.88632900  0.91428200  0.57913400  1
  O  O14  1  0.37437100  0.40305100  0.06598100  1
  O  O15  1  0.40305100  0.37437100  0.56598100  1
  O  O16  1  0.37822600  0.90387600  0.18304000  1
  O  O17  1  0.37818500  0.92068500  0.67213900  1
  O  O18  1  0.92068500  0.37818500  0.17213900  1
  O  O19  1  0.90387600  0.37822600  0.68304000  1
  O  O20  1  0.62562900  0.59694900  0.93401900  1
  O  O21  1  0.59694900  0.62562900  0.43401900  1
  O  O22  1  0.08571800  0.11367100  0.92086600  1
  O  O23  1  0.11367100  0.08571800  0.42086600  1
  O  O24  1  0.07931500  0.62181500  0.82786100  1
  O  O25  1  0.09612400  0.62177400  0.31696000  1
  O  O26  1  0.62177400  0.09612400  0.81696000  1
  O  O27  1  0.62181500  0.07931500  0.32786100  1
