# generated using pymatgen
data_SnGeO3
_symmetry_space_group_name_H-M   'P 1'
_cell_length_a   7.07687408
_cell_length_b   7.07687408
_cell_length_c   7.07687402
_cell_angle_alpha   44.31413977
_cell_angle_beta   44.31413977
_cell_angle_gamma   44.31414868
_symmetry_Int_Tables_number   1
_chemical_formula_structural   SnGeO3
_chemical_formula_sum   'Sn2 Ge2 O6'
_cell_volume   157.20695865
_cell_formula_units_Z   2
loop_
 _symmetry_equiv_pos_site_id
 _symmetry_equiv_pos_as_xyz
  1  'x, y, z'
loop_
 _atom_site_type_symbol
 _atom_site_label
 _atom_site_symmetry_multiplicity
 _atom_site_fract_x
 _atom_site_fract_y
 _atom_site_fract_z
 _atom_site_occupancy
  Sn  Sn0  1  0.16672000  0.16672000  0.16672000  1
  Sn  Sn1  1  0.83328000  0.83328000  0.83328000  1
  Ge  Ge2  1  0.39192200  0.39192200  0.39192200  1
  Ge  Ge3  1  0.60807800  0.60807800  0.60807800  1
  O  O4  1  0.10480600  0.44002800  0.77669800  1
  O  O5  1  0.44002800  0.77669800  0.10480600  1
  O  O6  1  0.22330200  0.89519400  0.55997200  1
  O  O7  1  0.77669800  0.10480600  0.44002800  1
  O  O8  1  0.55997200  0.22330200  0.89519400  1
  O  O9  1  0.89519400  0.55997200  0.22330200  1
