# generated using pymatgen
data_Mn8HO16
_symmetry_space_group_name_H-M   'P 1'
_cell_length_a   5.91599200
_cell_length_b   9.93422300
_cell_length_c   14.09502493
_cell_angle_alpha   45.18366931
_cell_angle_beta   90.00000000
_cell_angle_gamma   90.00000000
_symmetry_Int_Tables_number   1
_chemical_formula_structural   Mn8HO16
_chemical_formula_sum   'Mn16 H2 O32'
_cell_volume   587.62473605
_cell_formula_units_Z   2
loop_
 _symmetry_equiv_pos_site_id
 _symmetry_equiv_pos_as_xyz
  1  'x, y, z'
loop_
 _atom_site_type_symbol
 _atom_site_label
 _atom_site_symmetry_multiplicity
 _atom_site_fract_x
 _atom_site_fract_y
 _atom_site_fract_z
 _atom_site_occupancy
  Mn  Mn0  1  0.88343800  0.17940500  0.16533500  1
  Mn  Mn1  1  0.37765600  0.18189100  0.16586600  1
  Mn  Mn2  1  0.87055900  0.48298900  0.34855600  1
  Mn  Mn3  1  0.37077400  0.48158800  0.35478800  1
  Mn  Mn4  1  0.37189300  0.51589500  0.64817600  1
  Mn  Mn5  1  0.88022000  0.51345800  0.65000100  1
  Mn  Mn6  1  0.37342100  0.81784900  0.83331000  1
  Mn  Mn7  1  0.87394900  0.81703300  0.83389800  1
  Mn  Mn8  1  0.11656200  0.17940500  0.66533500  1
  Mn  Mn9  1  0.62234400  0.18189100  0.66586600  1
  Mn  Mn10  1  0.12944100  0.48298900  0.84855600  1
  Mn  Mn11  1  0.62922600  0.48158800  0.85478800  1
  Mn  Mn12  1  0.11978000  0.51345800  0.15000100  1
  Mn  Mn13  1  0.62810700  0.51589500  0.14817600  1
  Mn  Mn14  1  0.12605100  0.81703300  0.33389800  1
  Mn  Mn15  1  0.62657900  0.81784900  0.33331000  1
  H  H16  1  0.66234300  0.79311100  0.59692000  1
  H  H17  1  0.33765700  0.79311100  0.09692000  1
  O  O18  1  0.12359400  0.71293400  0.95708000  1
  O  O19  1  0.62386200  0.71241500  0.95454800  1
  O  O20  1  0.11288500  0.37494300  0.66115300  1
  O  O21  1  0.62765400  0.38134100  0.66224900  1
  O  O22  1  0.12072600  0.61560100  0.34183300  1
  O  O23  1  0.62201400  0.61896300  0.33819000  1
  O  O24  1  0.13114000  0.28502400  0.04264900  1
  O  O25  1  0.62844400  0.28890400  0.04337900  1
  O  O26  1  0.37613800  0.71241500  0.45454800  1
  O  O27  1  0.87640600  0.71293400  0.45708000  1
  O  O28  1  0.37234600  0.38134100  0.16224900  1
  O  O29  1  0.88711500  0.37494300  0.16115300  1
  O  O30  1  0.87927400  0.61560100  0.84183300  1
  O  O31  1  0.37798600  0.61896300  0.83819000  1
  O  O32  1  0.86886000  0.28502400  0.54264900  1
  O  O33  1  0.37155600  0.28890400  0.54337900  1
  O  O34  1  0.87054900  0.04875900  0.79391300  1
  O  O35  1  0.37127800  0.04953100  0.79375600  1
  O  O36  1  0.38322000  0.36550100  0.84163600  1
  O  O37  1  0.87572000  0.36198200  0.84272000  1
  O  O38  1  0.37687500  0.94908500  0.20462200  1
  O  O39  1  0.87678400  0.94360900  0.20695100  1
  O  O40  1  0.87605300  0.63677000  0.15714600  1
  O  O41  1  0.35783400  0.65657100  0.15411800  1
  O  O42  1  0.12945100  0.04875900  0.29391300  1
  O  O43  1  0.62872200  0.04953100  0.29375600  1
  O  O44  1  0.12428000  0.36198200  0.34272000  1
  O  O45  1  0.61678000  0.36550100  0.34163600  1
  O  O46  1  0.12321600  0.94360900  0.70695100  1
  O  O47  1  0.62312500  0.94908500  0.70462200  1
  O  O48  1  0.12394700  0.63677000  0.65714600  1
  O  O49  1  0.64216600  0.65657100  0.65411800  1
