# generated using pymatgen
data_MgMn6O12
_symmetry_space_group_name_H-M   'P 1'
_cell_length_a   5.73642623
_cell_length_b   5.73642623
_cell_length_c   14.49279516
_cell_angle_alpha   86.91611583
_cell_angle_beta   86.91611583
_cell_angle_gamma   60.83098275
_symmetry_Int_Tables_number   1
_chemical_formula_structural   MgMn6O12
_chemical_formula_sum   'Mg2 Mn12 O24'
_cell_volume   415.61853555
_cell_formula_units_Z   2
loop_
 _symmetry_equiv_pos_site_id
 _symmetry_equiv_pos_as_xyz
  1  'x, y, z'
loop_
 _atom_site_type_symbol
 _atom_site_label
 _atom_site_symmetry_multiplicity
 _atom_site_fract_x
 _atom_site_fract_y
 _atom_site_fract_z
 _atom_site_occupancy
  Mg  Mg0  1  0.76146500  0.50955100  0.18705800  1
  Mg  Mg1  1  0.50955100  0.76146500  0.68705800  1
  Mn  Mn2  1  0.24150900  0.99114400  0.48881000  1
  Mn  Mn3  1  0.74317000  0.49486300  0.49116200  1
  Mn  Mn4  1  0.49255800  0.24383500  0.16079400  1
  Mn  Mn5  1  0.02820500  0.77870800  0.15874400  1
  Mn  Mn6  1  0.48842900  0.24358700  0.84145600  1
  Mn  Mn7  1  0.99222800  0.73916300  0.84138500  1
  Mn  Mn8  1  0.49486300  0.74317000  0.99116200  1
  Mn  Mn9  1  0.99114400  0.24150900  0.98881000  1
  Mn  Mn10  1  0.24383500  0.49255800  0.66079400  1
  Mn  Mn11  1  0.77870800  0.02820500  0.65874400  1
  Mn  Mn12  1  0.24358700  0.48842900  0.34145600  1
  Mn  Mn13  1  0.73916300  0.99222800  0.34138500  1
  O  O14  1  0.34657400  0.09684600  0.93520100  1
  O  O15  1  0.84137000  0.59358800  0.93300900  1
  O  O16  1  0.65633900  0.40652600  0.06616100  1
  O  O17  1  0.16146700  0.91380200  0.06215800  1
  O  O18  1  0.59358800  0.84137000  0.43300900  1
  O  O19  1  0.09684600  0.34657400  0.43520100  1
  O  O20  1  0.40652600  0.65633900  0.56616100  1
  O  O21  1  0.91380200  0.16146700  0.56215800  1
  O  O22  1  0.83477500  0.08494200  0.89225600  1
  O  O23  1  0.33434300  0.58629300  0.89266100  1
  O  O24  1  0.67505000  0.88914800  0.11571600  1
  O  O25  1  0.13877700  0.42640000  0.11581100  1
  O  O26  1  0.58629300  0.33434300  0.39266100  1
  O  O27  1  0.08494200  0.83477500  0.39225600  1
  O  O28  1  0.42640000  0.13877700  0.61581100  1
  O  O29  1  0.88914800  0.67505000  0.61571600  1
  O  O30  1  0.65641800  0.90818500  0.77417200  1
  O  O31  1  0.14575600  0.39591000  0.77787400  1
  O  O32  1  0.83951000  0.12294800  0.22257100  1
  O  O33  1  0.37289200  0.59056300  0.22229900  1
  O  O34  1  0.39591000  0.14575600  0.27787400  1
  O  O35  1  0.90818500  0.65641800  0.27417200  1
  O  O36  1  0.59056300  0.37289200  0.72229900  1
  O  O37  1  0.12294800  0.83951000  0.72257100  1
