# generated using pymatgen
data_MgMnO2
_symmetry_space_group_name_H-M   'P 1'
_cell_length_a   6.19108381
_cell_length_b   6.19479157
_cell_length_c   6.19449309
_cell_angle_alpha   90.04575858
_cell_angle_beta   119.99182903
_cell_angle_gamma   119.99250369
_symmetry_Int_Tables_number   1
_chemical_formula_structural   MgMnO2
_chemical_formula_sum   'Mg4 Mn4 O8'
_cell_volume   167.96290045
_cell_formula_units_Z   4
loop_
 _symmetry_equiv_pos_site_id
 _symmetry_equiv_pos_as_xyz
  1  'x, y, z'
loop_
 _atom_site_type_symbol
 _atom_site_label
 _atom_site_symmetry_multiplicity
 _atom_site_fract_x
 _atom_site_fract_y
 _atom_site_fract_z
 _atom_site_occupancy
  Mg  Mg0  1  0.00004200  0.00035000  0.99977300  1
  Mg  Mg1  1  0.50004500  0.50034000  0.49978600  1
  Mg  Mg2  1  0.00004000  0.50032600  0.99977400  1
  Mg  Mg3  1  0.50003600  0.50034700  0.99975700  1
  Mn  Mn4  1  0.00000200  0.00031900  0.49975600  1
  Mn  Mn5  1  0.00000700  0.50032300  0.49975500  1
  Mn  Mn6  1  0.49999000  0.00031700  0.99971900  1
  Mn  Mn7  1  0.50003300  0.00033500  0.49974300  1
  O  O8  1  0.48984300  0.73530400  0.24466000  1
  O  O9  1  0.01013600  0.25534000  0.24489800  1
  O  O10  1  0.48991900  0.25522600  0.24474900  1
  O  O11  1  0.01019700  0.25541000  0.76476500  1
  O  O12  1  0.98993900  0.74531400  0.75467000  1
  O  O13  1  0.51023900  0.26535700  0.75488600  1
  O  O14  1  0.98988700  0.74525600  0.23478700  1
  O  O15  1  0.51015600  0.74545200  0.75478300  1
