# generated using pymatgen
data_Mn3(HO3)2
_symmetry_space_group_name_H-M   'P 1'
_cell_length_a   7.64043420
_cell_length_b   7.64043420
_cell_length_c   4.67319237
_cell_angle_alpha   89.65039520
_cell_angle_beta   89.65039520
_cell_angle_gamma   22.27831393
_symmetry_Int_Tables_number   1
_chemical_formula_structural   Mn3(HO3)2
_chemical_formula_sum   'Mn3 H2 O6'
_cell_volume   103.41938160
_cell_formula_units_Z   1
loop_
 _symmetry_equiv_pos_site_id
 _symmetry_equiv_pos_as_xyz
  1  'x, y, z'
loop_
 _atom_site_type_symbol
 _atom_site_label
 _atom_site_symmetry_multiplicity
 _atom_site_fract_x
 _atom_site_fract_y
 _atom_site_fract_z
 _atom_site_occupancy
  Mn  Mn0  1  0.00000000  0.00000000  0.50000000  1
  Mn  Mn1  1  0.64428100  0.64428100  0.03060100  1
  Mn  Mn2  1  0.35571900  0.35571900  0.96939900  1
  H  H3  1  0.82054400  0.82054400  0.39739800  1
  H  H4  1  0.17945600  0.17945600  0.60260200  1
  O  O5  1  0.45611500  0.45611500  0.27325100  1
  O  O6  1  0.54388500  0.54388500  0.72674900  1
  O  O7  1  0.88435900  0.88435900  0.71308900  1
  O  O8  1  0.11564100  0.11564100  0.28691100  1
  O  O9  1  0.79685800  0.79685800  0.19714000  1
  O  O10  1  0.20314200  0.20314200  0.80286000  1
