# generated using pymatgen
data_SnPOF7
_symmetry_space_group_name_H-M   'P 1'
_cell_length_a   10.05736900
_cell_length_b   11.20784900
_cell_length_c   12.48672600
_cell_angle_alpha   90.00000000
_cell_angle_beta   90.00000000
_cell_angle_gamma   90.00000000
_symmetry_Int_Tables_number   1
_chemical_formula_structural   SnPOF7
_chemical_formula_sum   'Sn8 P8 O8 F56'
_cell_volume   1407.52214878
_cell_formula_units_Z   8
loop_
 _symmetry_equiv_pos_site_id
 _symmetry_equiv_pos_as_xyz
  1  'x, y, z'
loop_
 _atom_site_type_symbol
 _atom_site_label
 _atom_site_symmetry_multiplicity
 _atom_site_fract_x
 _atom_site_fract_y
 _atom_site_fract_z
 _atom_site_occupancy
  Sn  Sn0  1  0.65788100  0.44034400  0.00033400  1
  Sn  Sn1  1  0.84211900  0.94034400  0.99966600  1
  Sn  Sn2  1  0.15788100  0.55965600  0.49966600  1
  Sn  Sn3  1  0.34211900  0.05965600  0.50033400  1
  Sn  Sn4  1  0.34211900  0.55965600  0.99966600  1
  Sn  Sn5  1  0.15788100  0.05965600  0.00033400  1
  Sn  Sn6  1  0.84211900  0.44034400  0.50033400  1
  Sn  Sn7  1  0.65788100  0.94034400  0.49966600  1
  P  P8  1  0.56710500  0.30141300  0.24012300  1
  P  P9  1  0.93289500  0.80141300  0.75987700  1
  P  P10  1  0.06710500  0.69858700  0.25987700  1
  P  P11  1  0.43289500  0.19858700  0.74012300  1
  P  P12  1  0.43289500  0.69858700  0.75987700  1
  P  P13  1  0.06710500  0.19858700  0.24012300  1
  P  P14  1  0.93289500  0.30141300  0.74012300  1
  P  P15  1  0.56710500  0.80141300  0.25987700  1
  O  O16  1  0.59766400  0.39745600  0.16392900  1
  O  O17  1  0.90233600  0.89745600  0.83607100  1
  O  O18  1  0.09766400  0.60254400  0.33607100  1
  O  O19  1  0.40233600  0.10254400  0.66392900  1
  O  O20  1  0.40233600  0.60254400  0.83607100  1
  O  O21  1  0.09766400  0.10254400  0.16392900  1
  O  O22  1  0.90233600  0.39745600  0.66392900  1
  O  O23  1  0.59766400  0.89745600  0.33607100  1
  F  F24  1  0.45210500  0.40431800  0.96651200  1
  F  F25  1  0.04789500  0.90431800  0.03348800  1
  F  F26  1  0.95210500  0.59568200  0.53348800  1
  F  F27  1  0.54789500  0.09568200  0.46651200  1
  F  F28  1  0.54789500  0.59568200  0.03348800  1
  F  F29  1  0.95210500  0.09568200  0.96651200  1
  F  F30  1  0.04789500  0.40431800  0.46651200  1
  F  F31  1  0.45210500  0.90431800  0.53348800  1
  F  F32  1  0.69102600  0.27085000  0.98254100  1
  F  F33  1  0.80897400  0.77085000  0.01745900  1
  F  F34  1  0.19102600  0.72915000  0.51745900  1
  F  F35  1  0.30897400  0.22915000  0.48254100  1
  F  F36  1  0.30897400  0.72915000  0.01745900  1
  F  F37  1  0.19102600  0.22915000  0.98254100  1
  F  F38  1  0.80897400  0.27085000  0.48254100  1
  F  F39  1  0.69102600  0.77085000  0.51745900  1
  F  F40  1  0.82213700  0.49713400  0.06107800  1
  F  F41  1  0.67786300  0.99713400  0.93892200  1
  F  F42  1  0.32213700  0.50286600  0.43892200  1
  F  F43  1  0.17786300  0.00286600  0.56107800  1
  F  F44  1  0.17786300  0.50286600  0.93892200  1
  F  F45  1  0.32213700  0.00286600  0.06107800  1
  F  F46  1  0.67786300  0.49713400  0.56107800  1
  F  F47  1  0.82213700  0.99713400  0.43892200  1
  F  F48  1  0.68370500  0.48854600  0.85186200  1
  F  F49  1  0.81629500  0.98854600  0.14813800  1
  F  F50  1  0.18370500  0.51145400  0.64813800  1
  F  F51  1  0.31629500  0.01145400  0.35186200  1
  F  F52  1  0.31629500  0.51145400  0.14813800  1
  F  F53  1  0.18370500  0.01145400  0.85186200  1
  F  F54  1  0.81629500  0.48854600  0.35186200  1
  F  F55  1  0.68370500  0.98854600  0.64813800  1
  F  F56  1  0.45164400  0.21990100  0.20761300  1
  F  F57  1  0.04835600  0.71990100  0.79238700  1
  F  F58  1  0.95164400  0.78009900  0.29238700  1
  F  F59  1  0.54835600  0.28009900  0.70761300  1
  F  F60  1  0.54835600  0.78009900  0.79238700  1
  F  F61  1  0.95164400  0.28009900  0.20761300  1
  F  F62  1  0.04835600  0.21990100  0.70761300  1
  F  F63  1  0.45164400  0.71990100  0.29238700  1
  F  F64  1  0.68093900  0.21408400  0.26185200  1
  F  F65  1  0.81906100  0.71408400  0.73814800  1
  F  F66  1  0.18093900  0.78591600  0.23814800  1
  F  F67  1  0.31906100  0.28591600  0.76185200  1
  F  F68  1  0.31906100  0.78591600  0.73814800  1
  F  F69  1  0.18093900  0.28591600  0.26185200  1
  F  F70  1  0.81906100  0.21408400  0.76185200  1
  F  F71  1  0.68093900  0.71408400  0.23814800  1
  F  F72  1  0.52802300  0.34797600  0.35041900  1
  F  F73  1  0.97197700  0.84797600  0.64958100  1
  F  F74  1  0.02802300  0.65202400  0.14958100  1
  F  F75  1  0.47197700  0.15202400  0.85041900  1
  F  F76  1  0.47197700  0.65202400  0.64958100  1
  F  F77  1  0.02802300  0.15202400  0.35041900  1
  F  F78  1  0.97197700  0.34797600  0.85041900  1
  F  F79  1  0.52802300  0.84797600  0.14958100  1
