# generated using pymatgen
data_Rb3FeO3
_symmetry_space_group_name_H-M   'P 1'
_cell_length_a   14.88762200
_cell_length_b   6.67027000
_cell_length_c   6.84946883
_cell_angle_alpha   61.28513975
_cell_angle_beta   90.00000000
_cell_angle_gamma   90.00000000
_symmetry_Int_Tables_number   1
_chemical_formula_structural   Rb3FeO3
_chemical_formula_sum   'Rb12 Fe4 O12'
_cell_volume   596.53498978
_cell_formula_units_Z   4
loop_
 _symmetry_equiv_pos_site_id
 _symmetry_equiv_pos_as_xyz
  1  'x, y, z'
loop_
 _atom_site_type_symbol
 _atom_site_label
 _atom_site_symmetry_multiplicity
 _atom_site_fract_x
 _atom_site_fract_y
 _atom_site_fract_z
 _atom_site_occupancy
  Rb  Rb0  1  0.22789000  0.29338900  0.55443700  1
  Rb  Rb1  1  0.48486000  0.22529300  0.53063200  1
  Rb  Rb2  1  0.98486000  0.27470700  0.46936800  1
  Rb  Rb3  1  0.72789000  0.20661100  0.44556300  1
  Rb  Rb4  1  0.59083200  0.68772100  0.02859000  1
  Rb  Rb5  1  0.09083200  0.81227900  0.97141000  1
  Rb  Rb6  1  0.90916800  0.18772100  0.02859000  1
  Rb  Rb7  1  0.40916800  0.31227900  0.97141000  1
  Rb  Rb8  1  0.27211000  0.79338900  0.55443700  1
  Rb  Rb9  1  0.01514000  0.72529300  0.53063200  1
  Rb  Rb10  1  0.51514000  0.77470700  0.46936800  1
  Rb  Rb11  1  0.77211000  0.70661100  0.44556300  1
  Fe  Fe12  1  0.32432900  0.73791700  0.07218800  1
  Fe  Fe13  1  0.82432900  0.76208300  0.92781200  1
  Fe  Fe14  1  0.17567100  0.23791700  0.07218800  1
  Fe  Fe15  1  0.67567100  0.26208300  0.92781200  1
  O  O16  1  0.37483000  0.58890500  0.36020800  1
  O  O17  1  0.90992900  0.68149000  0.15957300  1
  O  O18  1  0.74255100  0.98947600  0.95416600  1
  O  O19  1  0.12517000  0.08890500  0.36020800  1
  O  O20  1  0.24255100  0.51052400  0.04583400  1
  O  O21  1  0.59007100  0.18149000  0.15957300  1
  O  O22  1  0.40992900  0.81851000  0.84042700  1
  O  O23  1  0.75744900  0.48947600  0.95416600  1
  O  O24  1  0.87483000  0.91109500  0.63979200  1
  O  O25  1  0.25744900  0.01052400  0.04583400  1
  O  O26  1  0.09007100  0.31851000  0.84042700  1
  O  O27  1  0.62517000  0.41109500  0.63979200  1
