# generated using pymatgen
data_NiH12(SO7)2
_symmetry_space_group_name_H-M   'P 1'
_cell_length_a   9.35957758
_cell_length_b   12.65685800
_cell_length_c   6.42933173
_cell_angle_alpha   90.00000000
_cell_angle_beta   105.46208407
_cell_angle_gamma   90.00000000
_symmetry_Int_Tables_number   1
_chemical_formula_structural   NiH12(SO7)2
_chemical_formula_sum   'Ni2 H24 S4 O28'
_cell_volume   734.07106757
_cell_formula_units_Z   2
loop_
 _symmetry_equiv_pos_site_id
 _symmetry_equiv_pos_as_xyz
  1  'x, y, z'
loop_
 _atom_site_type_symbol
 _atom_site_label
 _atom_site_symmetry_multiplicity
 _atom_site_fract_x
 _atom_site_fract_y
 _atom_site_fract_z
 _atom_site_occupancy
  Ni  Ni0  1  0.00000000  0.00000000  0.00000000  1
  Ni  Ni1  1  0.50000000  0.50000000  0.00000000  1
  H  H2  1  0.13600900  0.81491600  0.99015900  1
  H  H3  1  0.02817800  0.86161200  0.32989000  1
  H  H4  1  0.09626200  0.05622300  0.66228200  1
  H  H5  1  0.23865700  0.40036300  0.93951100  1
  H  H6  1  0.25396200  0.62400500  0.90797300  1
  H  H7  1  0.21457200  0.08875800  0.31148600  1
  H  H8  1  0.28542800  0.58875800  0.68851400  1
  H  H9  1  0.24603800  0.12400500  0.09202700  1
  H  H10  1  0.26134300  0.90036200  0.06048900  1
  H  H11  1  0.40373800  0.55622300  0.33771800  1
  H  H12  1  0.47182200  0.36161200  0.67011000  1
  H  H13  1  0.36399100  0.31491600  0.00984100  1
  H  H14  1  0.63600900  0.68508400  0.99015900  1
  H  H15  1  0.52817800  0.63838800  0.32989000  1
  H  H16  1  0.59626200  0.44377700  0.66228200  1
  H  H17  1  0.73865700  0.09963800  0.93951100  1
  H  H18  1  0.75396200  0.87599500  0.90797300  1
  H  H19  1  0.71457200  0.41124300  0.31148600  1
  H  H20  1  0.78542800  0.91124200  0.68851400  1
  H  H21  1  0.74603800  0.37599500  0.09202700  1
  H  H22  1  0.76134300  0.59963800  0.06048900  1
  H  H23  1  0.90373800  0.94377700  0.33771800  1
  H  H24  1  0.97182200  0.13838800  0.67011000  1
  H  H25  1  0.86399100  0.18508400  0.00984100  1
  S  S26  1  0.09569900  0.63399200  0.27032000  1
  S  S27  1  0.40430100  0.13399200  0.72968000  1
  S  S28  1  0.59569900  0.86600800  0.27032000  1
  S  S29  1  0.90430100  0.36600800  0.72968000  1
  O  O30  1  0.05147700  0.41880200  0.75272800  1
  O  O31  1  0.99597000  0.93486300  0.29366700  1
  O  O32  1  0.15887000  0.88962600  0.97309800  1
  O  O33  1  0.08005200  0.72499500  0.41415900  1
  O  O34  1  0.11275600  0.67117600  0.06133700  1
  O  O35  1  0.16708800  0.10378900  0.15870200  1
  O  O36  1  0.21772500  0.56483400  0.38482400  1
  O  O37  1  0.28227500  0.06483400  0.61517600  1
  O  O38  1  0.33291200  0.60378900  0.84129800  1
  O  O39  1  0.38724400  0.17117600  0.93866300  1
  O  O40  1  0.41994800  0.22499500  0.58584100  1
  O  O41  1  0.34113000  0.38962600  0.02690200  1
  O  O42  1  0.50403000  0.43486300  0.70633300  1
  O  O43  1  0.44852300  0.91880200  0.24727200  1
  O  O44  1  0.55147700  0.08119800  0.75272800  1
  O  O45  1  0.49597000  0.56513700  0.29366700  1
  O  O46  1  0.65887000  0.61037400  0.97309800  1
  O  O47  1  0.58005200  0.77500500  0.41415900  1
  O  O48  1  0.61275600  0.82882400  0.06133700  1
  O  O49  1  0.66708800  0.39621100  0.15870200  1
  O  O50  1  0.71772500  0.93516600  0.38482400  1
  O  O51  1  0.78227500  0.43516600  0.61517600  1
  O  O52  1  0.83291200  0.89621100  0.84129800  1
  O  O53  1  0.88724400  0.32882400  0.93866300  1
  O  O54  1  0.91994800  0.27500500  0.58584100  1
  O  O55  1  0.84113000  0.11037400  0.02690200  1
  O  O56  1  0.00403000  0.06513700  0.70633300  1
  O  O57  1  0.94852300  0.58119800  0.24727200  1
