# generated using pymatgen
data_NbCrO4
_symmetry_space_group_name_H-M   'P 1'
_cell_length_a   6.60703527
_cell_length_b   6.60709716
_cell_length_c   7.87168593
_cell_angle_alpha   72.62048289
_cell_angle_beta   107.37931471
_cell_angle_gamma   95.16207574
_symmetry_Int_Tables_number   1
_chemical_formula_structural   NbCrO4
_chemical_formula_sum   'Nb4 Cr4 O16'
_cell_volume   312.96674350
_cell_formula_units_Z   4
loop_
 _symmetry_equiv_pos_site_id
 _symmetry_equiv_pos_as_xyz
  1  'x, y, z'
loop_
 _atom_site_type_symbol
 _atom_site_label
 _atom_site_symmetry_multiplicity
 _atom_site_fract_x
 _atom_site_fract_y
 _atom_site_fract_z
 _atom_site_occupancy
  Nb  Nb0  1  0.22242000  0.77759000  0.85811900  1
  Nb  Nb1  1  0.77757700  0.22240900  0.14187900  1
  Nb  Nb2  1  0.22190300  0.22190500  0.49999300  1
  Nb  Nb3  1  0.77809900  0.77809700  0.50000700  1
  Cr  Cr4  1  0.18249500  0.81751000  0.34312300  1
  Cr  Cr5  1  0.81750900  0.18249500  0.65687300  1
  Cr  Cr6  1  0.18261500  0.18264800  0.99998500  1
  Cr  Cr7  1  0.81738700  0.81735200  0.00002500  1
  O  O8  1  0.15247500  0.84752400  0.58053900  1
  O  O9  1  0.84752200  0.15247500  0.41945800  1
  O  O10  1  0.14656600  0.85343800  0.06923200  1
  O  O11  1  0.85343500  0.14655900  0.93077200  1
  O  O12  1  0.50767800  0.81717000  0.92473800  1
  O  O13  1  0.18282100  0.49233700  0.92473100  1
  O  O14  1  0.81717600  0.50766000  0.07526900  1
  O  O15  1  0.49232000  0.18282900  0.07526000  1
  O  O16  1  0.18347600  0.50742400  0.41725400  1
  O  O17  1  0.49257400  0.81652300  0.41725500  1
  O  O18  1  0.50742800  0.18348000  0.58274100  1
  O  O19  1  0.81652300  0.49257700  0.58274100  1
  O  O20  1  0.84682500  0.85409100  0.74466100  1
  O  O21  1  0.14590800  0.15317900  0.74465200  1
  O  O22  1  0.85409300  0.84682000  0.25535000  1
  O  O23  1  0.15317400  0.14590800  0.25534000  1
