# generated using pymatgen
data_Na2CoP2O7
_symmetry_space_group_name_H-M   'P 1'
_cell_length_a   6.54630170
_cell_length_b   9.55282400
_cell_length_c   11.06920705
_cell_angle_alpha   64.67925841
_cell_angle_beta   85.92540243
_cell_angle_gamma   73.42807598
_symmetry_Int_Tables_number   1
_chemical_formula_structural   Na2CoP2O7
_chemical_formula_sum   'Na8 Co4 P8 O28'
_cell_volume   598.68930625
_cell_formula_units_Z   4
loop_
 _symmetry_equiv_pos_site_id
 _symmetry_equiv_pos_as_xyz
  1  'x, y, z'
loop_
 _atom_site_type_symbol
 _atom_site_label
 _atom_site_symmetry_multiplicity
 _atom_site_fract_x
 _atom_site_fract_y
 _atom_site_fract_z
 _atom_site_occupancy
  Na  Na0  1  0.77970809  0.14815996  0.89040326  1
  Na  Na1  1  0.60264277  0.87705123  0.65044632  1
  Na  Na2  1  0.03485763  0.81303309  0.47819086  1
  Na  Na3  1  0.84409159  0.48798386  0.94644574  1
  Na  Na4  1  0.39351546  0.50624491  0.03405986  1
  Na  Na5  1  0.96752556  0.18419522  0.52214488  1
  Na  Na6  1  0.38873830  0.12418883  0.34924305  1
  Na  Na7  1  0.17393261  0.85372967  0.09696452  1
  Co  Co8  1  0.28070180  0.10455299  0.78095473  1
  Co  Co9  1  0.71988375  0.88763804  0.22397561  1
  Co  Co10  1  0.64309180  0.49928208  0.26565268  1
  Co  Co11  1  0.36305145  0.49328081  0.74028850  1
  P  P12  1  0.11953378  0.54491539  0.31578730  1
  P  P13  1  0.88278162  0.44521727  0.69008279  1
  P  P14  1  0.92159856  0.17817434  0.20905331  1
  P  P15  1  0.42317007  0.29668576  0.54345545  1
  P  P16  1  0.70712248  0.80587138  0.96281036  1
  P  P17  1  0.07942762  0.81653045  0.79162937  1
  P  P18  1  0.57930562  0.69694535  0.46133844  1
  P  P19  1  0.29875735  0.18344846  0.04116509  1
  O  O20  1  0.22681827  0.10134812  0.96690850  1
  O  O21  1  0.72168690  0.32117056  0.18563659  1
  O  O22  1  0.08445647  0.27041711  0.09831868  1
  O  O23  1  0.30771488  0.53800479  0.22410308  1
  O  O24  1  0.96762905  0.45541166  0.30544540  1
  O  O25  1  0.01618157  0.71801105  0.29968172  1
  O  O26  1  0.28281131  0.67905431  0.80875929  1
  O  O27  1  0.35839426  0.14444668  0.56252423  1
  O  O28  1  0.03636190  0.09713265  0.34681531  1
  O  O29  1  0.78308525  0.54507653  0.53748956  1
  O  O30  1  0.62111664  0.66296926  0.04948654  1
  O  O31  1  0.88598153  0.05996073  0.15867576  1
  O  O32  1  0.44388123  0.29175241  0.68408974  1
  O  O33  1  0.61433355  0.31778700  0.45808020  1
  O  O34  1  0.95860810  0.89791611  0.65565196  1
  O  O35  1  0.03482635  0.52850063  0.71197587  1
  O  O36  1  0.77780684  0.88615430  0.03904285  1
  O  O37  1  0.63924143  0.85118133  0.44131962  1
  O  O38  1  0.38786651  0.32251493  0.94992662  1
  O  O39  1  0.38873022  0.67288345  0.54660175  1
  O  O40  1  0.56291184  0.69851987  0.32185931  1
  O  O41  1  0.92400957  0.72077632  0.90543310  1
  O  O42  1  0.43800445  0.06334806  0.16844237  1
  O  O43  1  0.11387060  0.93410386  0.84330786  1
  O  O44  1  0.56734972  0.92904021  0.83638156  1
  O  O45  1  0.69501139  0.45097909  0.78293224  1
  O  O46  1  0.22356296  0.45179297  0.46890597  1
  O  O47  1  0.98410930  0.27361693  0.70301216  1
