# generated using pymatgen
data_ThGe2
_symmetry_space_group_name_H-M   'P 1'
_cell_length_a   8.88189452
_cell_length_b   8.88189452
_cell_length_c   8.88189452
_cell_angle_alpha   153.51594093
_cell_angle_beta   153.51594093
_cell_angle_gamma   37.80355915
_symmetry_Int_Tables_number   1
_chemical_formula_structural   ThGe2
_chemical_formula_sum   'Th2 Ge4'
_cell_volume   139.12972562
_cell_formula_units_Z   2
loop_
 _symmetry_equiv_pos_site_id
 _symmetry_equiv_pos_as_xyz
  1  'x, y, z'
loop_
 _atom_site_type_symbol
 _atom_site_label
 _atom_site_symmetry_multiplicity
 _atom_site_fract_x
 _atom_site_fract_y
 _atom_site_fract_z
 _atom_site_occupancy
  Th  Th0  1  0.50000000  0.50000000  0.00000000  1
  Th  Th1  1  0.25000000  0.75000000  0.50000000  1
  Ge  Ge2  1  0.82990900  0.32990900  0.50000000  1
  Ge  Ge3  1  0.07990900  0.07990900  0.00000000  1
  Ge  Ge4  1  0.67009100  0.17009100  0.50000000  1
  Ge  Ge5  1  0.92009100  0.92009100  0.00000000  1
