# generated using pymatgen
data_NaNi3O5
_symmetry_space_group_name_H-M   'P 1'
_cell_length_a   2.91105800
_cell_length_b   8.45991900
_cell_length_c   15.24468200
_cell_angle_alpha   90.00000000
_cell_angle_beta   90.00000000
_cell_angle_gamma   90.00000000
_symmetry_Int_Tables_number   1
_chemical_formula_structural   NaNi3O5
_chemical_formula_sum   'Na4 Ni12 O20'
_cell_volume   375.43558393
_cell_formula_units_Z   4
loop_
 _symmetry_equiv_pos_site_id
 _symmetry_equiv_pos_as_xyz
  1  'x, y, z'
loop_
 _atom_site_type_symbol
 _atom_site_label
 _atom_site_symmetry_multiplicity
 _atom_site_fract_x
 _atom_site_fract_y
 _atom_site_fract_z
 _atom_site_occupancy
  Na  Na0  1  0.75000000  0.04502400  0.63595900  1
  Na  Na1  1  0.25000000  0.45497600  0.13595900  1
  Na  Na2  1  0.75000000  0.54502400  0.86404100  1
  Na  Na3  1  0.25000000  0.95497600  0.36404100  1
  Ni  Ni4  1  0.75000000  0.09911500  0.14783300  1
  Ni  Ni5  1  0.25000000  0.16412100  0.98630800  1
  Ni  Ni6  1  0.75000000  0.19364200  0.81804800  1
  Ni  Ni7  1  0.25000000  0.30635800  0.31804800  1
  Ni  Ni8  1  0.75000000  0.33587900  0.48630800  1
  Ni  Ni9  1  0.25000000  0.40088500  0.64783300  1
  Ni  Ni10  1  0.75000000  0.59911500  0.35216700  1
  Ni  Ni11  1  0.25000000  0.66412100  0.51369200  1
  Ni  Ni12  1  0.75000000  0.69364200  0.68195200  1
  Ni  Ni13  1  0.25000000  0.80635800  0.18195200  1
  Ni  Ni14  1  0.75000000  0.83587900  0.01369200  1
  Ni  Ni15  1  0.25000000  0.90088500  0.85216700  1
  O  O16  1  0.75000000  0.02172400  0.91891500  1
  O  O17  1  0.25000000  0.07057100  0.77089000  1
  O  O18  1  0.25000000  0.19405900  0.20717000  1
  O  O19  1  0.75000000  0.25663900  0.05782500  1
  O  O20  1  0.75000000  0.19957800  0.37738800  1
  O  O21  1  0.25000000  0.30042200  0.87738800  1
  O  O22  1  0.25000000  0.24336100  0.55782500  1
  O  O23  1  0.75000000  0.30594100  0.70717000  1
  O  O24  1  0.75000000  0.42942900  0.27089000  1
  O  O25  1  0.25000000  0.47827600  0.41891500  1
  O  O26  1  0.75000000  0.52172400  0.58108500  1
  O  O27  1  0.25000000  0.57057100  0.72911000  1
  O  O28  1  0.25000000  0.69405900  0.29283000  1
  O  O29  1  0.75000000  0.75663900  0.44217500  1
  O  O30  1  0.75000000  0.69957800  0.12261200  1
  O  O31  1  0.25000000  0.80042200  0.62261200  1
  O  O32  1  0.25000000  0.74336100  0.94217500  1
  O  O33  1  0.75000000  0.80594100  0.79283000  1
  O  O34  1  0.75000000  0.92942900  0.22911000  1
  O  O35  1  0.25000000  0.97827600  0.08108500  1
