# generated using pymatgen
data_Na2CoP2O7
_symmetry_space_group_name_H-M   'P 1'
_cell_length_a   8.68771665
_cell_length_b   10.44959901
_cell_length_c   8.68418476
_cell_angle_alpha   82.48989774
_cell_angle_beta   73.87872410
_cell_angle_gamma   97.62534061
_symmetry_Int_Tables_number   1
_chemical_formula_structural   Na2CoP2O7
_chemical_formula_sum   'Na8 Co4 P8 O28'
_cell_volume   738.96540034
_cell_formula_units_Z   4
loop_
 _symmetry_equiv_pos_site_id
 _symmetry_equiv_pos_as_xyz
  1  'x, y, z'
loop_
 _atom_site_type_symbol
 _atom_site_label
 _atom_site_symmetry_multiplicity
 _atom_site_fract_x
 _atom_site_fract_y
 _atom_site_fract_z
 _atom_site_occupancy
  Na  Na0  1  0.49190000  0.74993600  0.99156300  1
  Na  Na1  1  0.99232800  0.25061500  0.49214900  1
  Na  Na2  1  0.24295300  0.99985300  0.24291500  1
  Na  Na3  1  0.74199200  0.49980200  0.74302300  1
  Na  Na4  1  0.00824400  0.74939500  0.50849500  1
  Na  Na5  1  0.50750000  0.24999400  0.00781200  1
  Na  Na6  1  0.25798100  0.50015100  0.25695400  1
  Na  Na7  1  0.75702900  0.00015000  0.75713400  1
  Co  Co8  1  0.75003500  0.25084300  0.24966100  1
  Co  Co9  1  0.50009300  0.50015500  0.49994100  1
  Co  Co10  1  0.25002200  0.74932000  0.75026300  1
  Co  Co11  1  0.99993800  0.99989300  0.00003500  1
  P  P12  1  0.07301900  0.71853900  0.13355600  1
  P  P13  1  0.57276700  0.21991200  0.63328100  1
  P  P14  1  0.13314100  0.28105500  0.07298200  1
  P  P15  1  0.63365500  0.78070800  0.57274300  1
  P  P16  1  0.42754500  0.78032700  0.36654400  1
  P  P17  1  0.92668800  0.28122200  0.86658600  1
  P  P18  1  0.36667700  0.21951500  0.42684600  1
  P  P19  1  0.86655300  0.71873900  0.92741800  1
  O  O20  1  0.90942900  0.65982800  0.09068300  1
  O  O21  1  0.40985900  0.16030000  0.58993400  1
  O  O22  1  0.08994900  0.34003000  0.90993800  1
  O  O23  1  0.59076800  0.83982900  0.40944200  1
  O  O24  1  0.43134100  0.86080400  0.20757000  1
  O  O25  1  0.93157400  0.36187200  0.70727200  1
  O  O26  1  0.20721500  0.13905900  0.43142200  1
  O  O27  1  0.70718900  0.63830600  0.93181800  1
  O  O28  1  0.06848200  0.63801200  0.29279900  1
  O  O29  1  0.56863400  0.13933000  0.79235700  1
  O  O30  1  0.29265900  0.36146800  0.06822800  1
  O  O31  1  0.79295300  0.86117000  0.56849400  1
  O  O32  1  0.22015900  0.70607300  0.98964400  1
  O  O33  1  0.72021400  0.20818300  0.48947100  1
  O  O34  1  0.98972400  0.29363200  0.22029600  1
  O  O35  1  0.48982400  0.79256500  0.72013500  1
  O  O36  1  0.64441300  0.63434600  0.56551800  1
  O  O37  1  0.14356100  0.13456900  0.06578700  1
  O  O38  1  0.06728100  0.86502600  0.14339500  1
  O  O39  1  0.56446900  0.36598100  0.64500800  1
  O  O40  1  0.28007000  0.79155300  0.51071600  1
  O  O41  1  0.77959900  0.29412700  0.01020700  1
  O  O42  1  0.51013300  0.20692800  0.27958700  1
  O  O43  1  0.01029300  0.70684500  0.77997700  1
  O  O44  1  0.85610900  0.86525500  0.93442100  1
  O  O45  1  0.35583100  0.36581800  0.43433300  1
  O  O46  1  0.43534300  0.63413800  0.35516100  1
  O  O47  1  0.93286500  0.13482900  0.85648500  1
