# generated using pymatgen
data_Mn2(PO3)5
_symmetry_space_group_name_H-M   'P 1'
_cell_length_a   8.55071200
_cell_length_b   5.40436600
_cell_length_c   13.63467975
_cell_angle_alpha   71.40407476
_cell_angle_beta   90.00000000
_cell_angle_gamma   90.00000000
_symmetry_Int_Tables_number   1
_chemical_formula_structural   Mn2(PO3)5
_chemical_formula_sum   'Mn4 P10 O30'
_cell_volume   597.17909474
_cell_formula_units_Z   2
loop_
 _symmetry_equiv_pos_site_id
 _symmetry_equiv_pos_as_xyz
  1  'x, y, z'
loop_
 _atom_site_type_symbol
 _atom_site_label
 _atom_site_symmetry_multiplicity
 _atom_site_fract_x
 _atom_site_fract_y
 _atom_site_fract_z
 _atom_site_occupancy
  Mn  Mn0  1  0.71818000  0.90510800  0.95468400  1
  Mn  Mn1  1  0.28182000  0.90510800  0.45468400  1
  Mn  Mn2  1  0.71818000  0.09489200  0.54531600  1
  Mn  Mn3  1  0.28182000  0.09489200  0.04531600  1
  P  P4  1  0.05830700  0.00000000  0.25000000  1
  P  P5  1  0.94169300  0.00000000  0.75000000  1
  P  P6  1  0.17446100  0.30535400  0.59186000  1
  P  P7  1  0.49095700  0.46537000  0.64003200  1
  P  P8  1  0.17446100  0.69464600  0.90814000  1
  P  P9  1  0.82553900  0.30535400  0.09186000  1
  P  P10  1  0.50904300  0.46537000  0.14003200  1
  P  P11  1  0.82553900  0.69464600  0.40814000  1
  P  P12  1  0.49095700  0.53463000  0.85996800  1
  P  P13  1  0.50904300  0.53463000  0.35996800  1
  O  O14  1  0.65884500  0.71634300  0.34860200  1
  O  O15  1  0.63187200  0.69540400  0.86829200  1
  O  O16  1  0.85479300  0.09441300  0.82784400  1
  O  O17  1  0.34115500  0.71634300  0.84860200  1
  O  O18  1  0.05923300  0.76778100  0.81002200  1
  O  O19  1  0.85479300  0.90558700  0.67215600  1
  O  O20  1  0.94076700  0.23221900  0.18997800  1
  O  O21  1  0.94076700  0.76778100  0.31002200  1
  O  O22  1  0.14520700  0.09441300  0.32784400  1
  O  O23  1  0.52896000  0.73407200  0.06056400  1
  O  O24  1  0.49820000  0.50000000  0.25000000  1
  O  O25  1  0.82413900  0.90079200  0.45956400  1
  O  O26  1  0.14520700  0.90558700  0.17215600  1
  O  O27  1  0.85496800  0.41480400  0.46878800  1
  O  O28  1  0.34115500  0.28365700  0.65139800  1
  O  O29  1  0.63187200  0.30459600  0.63170800  1
  O  O30  1  0.52896000  0.26592800  0.43943600  1
  O  O31  1  0.82413900  0.09920800  0.04043600  1
  O  O32  1  0.36812800  0.69540400  0.36829200  1
  O  O33  1  0.14503200  0.58519600  0.53121200  1
  O  O34  1  0.14503200  0.41480400  0.96878800  1
  O  O35  1  0.65884500  0.28365700  0.15139800  1
  O  O36  1  0.85496800  0.58519600  0.03121200  1
  O  O37  1  0.47104000  0.26592800  0.93943600  1
  O  O38  1  0.05923300  0.23221900  0.68997800  1
  O  O39  1  0.17586100  0.09920800  0.54043600  1
  O  O40  1  0.50180000  0.50000000  0.75000000  1
  O  O41  1  0.17586100  0.90079200  0.95956400  1
  O  O42  1  0.47104000  0.73407200  0.56056400  1
  O  O43  1  0.36812800  0.30459600  0.13170800  1
