# generated using pymatgen
data_ZrMn2
_symmetry_space_group_name_H-M   'P 1'
_cell_length_a   4.93191863
_cell_length_b   4.93191863
_cell_length_c   8.25141300
_cell_angle_alpha   90.00000000
_cell_angle_beta   90.00000000
_cell_angle_gamma   120.00000839
_symmetry_Int_Tables_number   1
_chemical_formula_structural   ZrMn2
_chemical_formula_sum   'Zr4 Mn8'
_cell_volume   173.81638953
_cell_formula_units_Z   4
loop_
 _symmetry_equiv_pos_site_id
 _symmetry_equiv_pos_as_xyz
  1  'x, y, z'
loop_
 _atom_site_type_symbol
 _atom_site_label
 _atom_site_symmetry_multiplicity
 _atom_site_fract_x
 _atom_site_fract_y
 _atom_site_fract_z
 _atom_site_occupancy
  Zr  Zr0  1  0.33333300  0.66666700  0.06415900  1
  Zr  Zr1  1  0.66666700  0.33333300  0.56415900  1
  Zr  Zr2  1  0.66666700  0.33333300  0.93584100  1
  Zr  Zr3  1  0.33333300  0.66666700  0.43584100  1
  Mn  Mn4  1  0.00000000  0.00000000  0.50000000  1
  Mn  Mn5  1  0.00000000  0.00000000  0.00000000  1
  Mn  Mn6  1  0.16952200  0.33904300  0.75000000  1
  Mn  Mn7  1  0.83047800  0.16952200  0.25000000  1
  Mn  Mn8  1  0.83047800  0.66095700  0.25000000  1
  Mn  Mn9  1  0.16952200  0.83047800  0.75000000  1
  Mn  Mn10  1  0.66095700  0.83047800  0.75000000  1
  Mn  Mn11  1  0.33904300  0.16952200  0.25000000  1
