# generated using pymatgen
data_C3N
_symmetry_space_group_name_H-M   'P 1'
_cell_length_a   3.74649042
_cell_length_b   3.74649042
_cell_length_c   6.42618000
_cell_angle_alpha   90.00000000
_cell_angle_beta   90.00000000
_cell_angle_gamma   120.00000742
_symmetry_Int_Tables_number   1
_chemical_formula_structural   C3N
_chemical_formula_sum   'C6 N2'
_cell_volume   78.11469443
_cell_formula_units_Z   2
loop_
 _symmetry_equiv_pos_site_id
 _symmetry_equiv_pos_as_xyz
  1  'x, y, z'
loop_
 _atom_site_type_symbol
 _atom_site_label
 _atom_site_symmetry_multiplicity
 _atom_site_fract_x
 _atom_site_fract_y
 _atom_site_fract_z
 _atom_site_occupancy
  C  C0  1  0.76514700  0.76514700  0.75000000  1
  C  C1  1  0.23485300  0.00000000  0.75000000  1
  C  C2  1  0.00000000  0.23485300  0.75000000  1
  C  C3  1  0.23485300  0.23485300  0.25000000  1
  C  C4  1  0.76514700  0.00000000  0.25000000  1
  C  C5  1  0.00000000  0.76514700  0.25000000  1
  N  N6  1  0.00000000  0.00000000  0.00000000  1
  N  N7  1  0.00000000  0.00000000  0.50000000  1
