# generated using pymatgen
data_CrN2
_symmetry_space_group_name_H-M   'P 1'
_cell_length_a   4.75922600
_cell_length_b   4.75922600
_cell_length_c   4.75922600
_cell_angle_alpha   90.00000000
_cell_angle_beta   90.00000000
_cell_angle_gamma   90.00000000
_symmetry_Int_Tables_number   1
_chemical_formula_structural   CrN2
_chemical_formula_sum   'Cr4 N8'
_cell_volume   107.79757361
_cell_formula_units_Z   4
loop_
 _symmetry_equiv_pos_site_id
 _symmetry_equiv_pos_as_xyz
  1  'x, y, z'
loop_
 _atom_site_type_symbol
 _atom_site_label
 _atom_site_symmetry_multiplicity
 _atom_site_fract_x
 _atom_site_fract_y
 _atom_site_fract_z
 _atom_site_occupancy
  Cr  Cr0  1  0.50000000  0.50000000  0.00000000  1
  Cr  Cr1  1  0.50000000  0.00000000  0.50000000  1
  Cr  Cr2  1  0.00000000  0.50000000  0.50000000  1
  Cr  Cr3  1  0.00000000  0.00000000  0.00000000  1
  N  N4  1  0.08244500  0.91755500  0.41755500  1
  N  N5  1  0.91755500  0.41755500  0.08244500  1
  N  N6  1  0.41755500  0.08244500  0.91755500  1
  N  N7  1  0.58244500  0.58244500  0.58244500  1
  N  N8  1  0.91755500  0.08244500  0.58244500  1
  N  N9  1  0.08244500  0.58244500  0.91755500  1
  N  N10  1  0.58244500  0.91755500  0.08244500  1
  N  N11  1  0.41755500  0.41755500  0.41755500  1
