# generated using pymatgen
data_CrN2
_symmetry_space_group_name_H-M   'P 1'
_cell_length_a   8.94037260
_cell_length_b   8.94037260
_cell_length_c   8.94037260
_cell_angle_alpha   151.57377390
_cell_angle_beta   149.14356882
_cell_angle_gamma   42.44836016
_symmetry_Int_Tables_number   1
_chemical_formula_structural   CrN2
_chemical_formula_sum   'Cr4 N8'
_cell_volume   174.04347344
_cell_formula_units_Z   4
loop_
 _symmetry_equiv_pos_site_id
 _symmetry_equiv_pos_as_xyz
  1  'x, y, z'
loop_
 _atom_site_type_symbol
 _atom_site_label
 _atom_site_symmetry_multiplicity
 _atom_site_fract_x
 _atom_site_fract_y
 _atom_site_fract_z
 _atom_site_occupancy
  Cr  Cr0  1  0.93928600  0.68928600  0.25000000  1
  Cr  Cr1  1  0.56071400  0.81071400  0.75000000  1
  Cr  Cr2  1  0.68866700  0.43866700  0.25000000  1
  Cr  Cr3  1  0.81133300  0.06133300  0.75000000  1
  N  N4  1  0.79866000  0.12784600  0.17805300  1
  N  N5  1  0.44979300  0.62060700  0.32194700  1
  N  N6  1  0.05020700  0.37215400  0.17081400  1
  N  N7  1  0.70134000  0.87939300  0.32918600  1
  N  N8  1  0.25000000  0.92258900  0.67258900  1
  N  N9  1  0.75000000  0.57741100  0.82741100  1
  N  N10  1  0.94257600  0.75000000  0.69257600  1
  N  N11  1  0.55742400  0.25000000  0.80742400  1
