# generated using pymatgen
data_CrN2
_symmetry_space_group_name_H-M   'P 1'
_cell_length_a   15.13329286
_cell_length_b   15.13329286
_cell_length_c   15.13329286
_cell_angle_alpha   60.00000000
_cell_angle_beta   60.00000000
_cell_angle_gamma   60.00000000
_symmetry_Int_Tables_number   1
_chemical_formula_structural   CrN2
_chemical_formula_sum   'Cr34 N68'
_cell_volume   2450.67269358
_cell_formula_units_Z   34
loop_
 _symmetry_equiv_pos_site_id
 _symmetry_equiv_pos_as_xyz
  1  'x, y, z'
loop_
 _atom_site_type_symbol
 _atom_site_label
 _atom_site_symmetry_multiplicity
 _atom_site_fract_x
 _atom_site_fract_y
 _atom_site_fract_z
 _atom_site_occupancy
  Cr  Cr0  1  0.25441800  0.63098300  0.86018100  1
  Cr  Cr1  1  0.86018100  0.25441800  0.25441800  1
  Cr  Cr2  1  0.63098300  0.25441800  0.25441800  1
  Cr  Cr3  1  0.25441800  0.86018100  0.63098300  1
  Cr  Cr4  1  0.63098300  0.25441800  0.86018100  1
  Cr  Cr5  1  0.25441800  0.63098300  0.25441800  1
  Cr  Cr6  1  0.25441800  0.86018100  0.25441800  1
  Cr  Cr7  1  0.86018100  0.25441800  0.63098300  1
  Cr  Cr8  1  0.25441800  0.25441800  0.86018100  1
  Cr  Cr9  1  0.63098300  0.86018100  0.25441800  1
  Cr  Cr10  1  0.86018100  0.63098300  0.25441800  1
  Cr  Cr11  1  0.25441800  0.25441800  0.63098300  1
  Cr  Cr12  1  0.99558200  0.61901700  0.38981900  1
  Cr  Cr13  1  0.38981900  0.99558200  0.99558200  1
  Cr  Cr14  1  0.61901700  0.99558200  0.99558200  1
  Cr  Cr15  1  0.99558200  0.38981900  0.61901700  1
  Cr  Cr16  1  0.61901700  0.99558200  0.38981900  1
  Cr  Cr17  1  0.99558200  0.61901700  0.99558200  1
  Cr  Cr18  1  0.99558200  0.38981900  0.99558200  1
  Cr  Cr19  1  0.38981900  0.99558200  0.61901700  1
  Cr  Cr20  1  0.99558200  0.99558200  0.38981900  1
  Cr  Cr21  1  0.61901700  0.38981900  0.99558200  1
  Cr  Cr22  1  0.38981900  0.61901700  0.99558200  1
  Cr  Cr23  1  0.99558200  0.99558200  0.61901700  1
  Cr  Cr24  1  0.40754600  0.77736200  0.40754600  1
  Cr  Cr25  1  0.40754600  0.40754600  0.40754600  1
  Cr  Cr26  1  0.77736200  0.40754600  0.40754600  1
  Cr  Cr27  1  0.40754600  0.40754600  0.77736200  1
  Cr  Cr28  1  0.84245400  0.47263800  0.84245400  1
  Cr  Cr29  1  0.84245400  0.84245400  0.84245400  1
  Cr  Cr30  1  0.47263800  0.84245400  0.84245400  1
  Cr  Cr31  1  0.84245400  0.84245400  0.47263800  1
  Cr  Cr32  1  0.50000000  0.50000000  0.50000000  1
  Cr  Cr33  1  0.75000000  0.75000000  0.75000000  1
  N  N34  1  0.93544000  0.62500000  0.12500000  1
  N  N35  1  0.12500000  0.31456000  0.93544000  1
  N  N36  1  0.62500000  0.93544000  0.31456000  1
  N  N37  1  0.31456000  0.12500000  0.62500000  1
  N  N38  1  0.62500000  0.31456000  0.12500000  1
  N  N39  1  0.31456000  0.62500000  0.93544000  1
  N  N40  1  0.93544000  0.12500000  0.31456000  1
  N  N41  1  0.12500000  0.93544000  0.62500000  1
  N  N42  1  0.31456000  0.93544000  0.12500000  1
  N  N43  1  0.62500000  0.12500000  0.93544000  1
  N  N44  1  0.12500000  0.62500000  0.31456000  1
  N  N45  1  0.93544000  0.31456000  0.62500000  1
  N  N46  1  0.31456000  0.62500000  0.12500000  1
  N  N47  1  0.12500000  0.93544000  0.31456000  1
  N  N48  1  0.62500000  0.31456000  0.93544000  1
  N  N49  1  0.93544000  0.12500000  0.62500000  1
  N  N50  1  0.62500000  0.93544000  0.12500000  1
  N  N51  1  0.93544000  0.62500000  0.31456000  1
  N  N52  1  0.31456000  0.12500000  0.93544000  1
  N  N53  1  0.12500000  0.31456000  0.62500000  1
  N  N54  1  0.93544000  0.31456000  0.12500000  1
  N  N55  1  0.62500000  0.12500000  0.31456000  1
  N  N56  1  0.12500000  0.62500000  0.93544000  1
  N  N57  1  0.31456000  0.93544000  0.62500000  1
  N  N58  1  0.43042800  0.91929700  0.73097800  1
  N  N59  1  0.73097800  0.91929700  0.43042800  1
  N  N60  1  0.91929700  0.43042800  0.91929700  1
  N  N61  1  0.91929700  0.73097800  0.91929700  1
  N  N62  1  0.91929700  0.91929700  0.73097800  1
  N  N63  1  0.91929700  0.91929700  0.43042800  1
  N  N64  1  0.43042800  0.73097800  0.91929700  1
  N  N65  1  0.73097800  0.43042800  0.91929700  1
  N  N66  1  0.91929700  0.43042800  0.73097800  1
  N  N67  1  0.91929700  0.73097800  0.43042800  1
  N  N68  1  0.73097800  0.91929700  0.91929700  1
  N  N69  1  0.43042800  0.91929700  0.91929700  1
  N  N70  1  0.81957200  0.33070300  0.51902200  1
  N  N71  1  0.51902200  0.33070300  0.81957200  1
  N  N72  1  0.33070300  0.81957200  0.33070300  1
  N  N73  1  0.33070300  0.51902200  0.33070300  1
  N  N74  1  0.33070300  0.33070300  0.51902200  1
  N  N75  1  0.33070300  0.33070300  0.81957200  1
  N  N76  1  0.81957200  0.51902200  0.33070300  1
  N  N77  1  0.51902200  0.81957200  0.33070300  1
  N  N78  1  0.33070300  0.81957200  0.51902200  1
  N  N79  1  0.33070300  0.51902200  0.81957200  1
  N  N80  1  0.51902200  0.33070300  0.33070300  1
  N  N81  1  0.81957200  0.33070300  0.33070300  1
  N  N82  1  0.74698800  0.74698800  0.25301200  1
  N  N83  1  0.25301200  0.25301200  0.74698800  1
  N  N84  1  0.74698800  0.25301200  0.25301200  1
  N  N85  1  0.25301200  0.74698800  0.74698800  1
  N  N86  1  0.25301200  0.74698800  0.25301200  1
  N  N87  1  0.74698800  0.25301200  0.74698800  1
  N  N88  1  0.50301200  0.50301200  0.99698800  1
  N  N89  1  0.99698800  0.99698800  0.50301200  1
  N  N90  1  0.50301200  0.99698800  0.99698800  1
  N  N91  1  0.99698800  0.50301200  0.50301200  1
  N  N92  1  0.99698800  0.50301200  0.99698800  1
  N  N93  1  0.50301200  0.99698800  0.50301200  1
  N  N94  1  0.45368500  0.63894500  0.45368500  1
  N  N95  1  0.45368500  0.45368500  0.45368500  1
  N  N96  1  0.63894500  0.45368500  0.45368500  1
  N  N97  1  0.45368500  0.45368500  0.63894500  1
  N  N98  1  0.79631500  0.61105500  0.79631500  1
  N  N99  1  0.79631500  0.79631500  0.79631500  1
  N  N100  1  0.61105500  0.79631500  0.79631500  1
  N  N101  1  0.79631500  0.79631500  0.61105500  1
