# generated using pymatgen
data_CrN2
_symmetry_space_group_name_H-M   'P 1'
_cell_length_a   17.07825133
_cell_length_b   17.07825133
_cell_length_c   17.07825133
_cell_angle_alpha   109.47122063
_cell_angle_beta   109.47122063
_cell_angle_gamma   109.47122063
_symmetry_Int_Tables_number   1
_chemical_formula_structural   CrN2
_chemical_formula_sum   'Cr24 N48'
_cell_volume   3834.49618857
_cell_formula_units_Z   24
loop_
 _symmetry_equiv_pos_site_id
 _symmetry_equiv_pos_as_xyz
  1  'x, y, z'
loop_
 _atom_site_type_symbol
 _atom_site_label
 _atom_site_symmetry_multiplicity
 _atom_site_fract_x
 _atom_site_fract_y
 _atom_site_fract_z
 _atom_site_occupancy
  Cr  Cr0  1  0.27227800  0.57510800  0.69717000  1
  Cr  Cr1  1  0.30283000  0.72772200  0.42489200  1
  Cr  Cr2  1  0.42489200  0.69717000  0.12206200  1
  Cr  Cr3  1  0.69717000  0.42489200  0.12206200  1
  Cr  Cr4  1  0.57510800  0.27227800  0.69717000  1
  Cr  Cr5  1  0.72772200  0.30283000  0.42489200  1
  Cr  Cr6  1  0.12206200  0.42489200  0.69717000  1
  Cr  Cr7  1  0.69717000  0.27227800  0.57510800  1
  Cr  Cr8  1  0.42489200  0.30283000  0.72772200  1
  Cr  Cr9  1  0.69717000  0.57510800  0.27227800  1
  Cr  Cr10  1  0.42489200  0.72772200  0.30283000  1
  Cr  Cr11  1  0.12206200  0.69717000  0.42489200  1
  Cr  Cr12  1  0.72772200  0.42489200  0.30283000  1
  Cr  Cr13  1  0.69717000  0.12206200  0.42489200  1
  Cr  Cr14  1  0.57510800  0.69717000  0.27227800  1
  Cr  Cr15  1  0.30283000  0.42489200  0.72772200  1
  Cr  Cr16  1  0.42489200  0.12206200  0.69717000  1
  Cr  Cr17  1  0.27227800  0.69717000  0.57510800  1
  Cr  Cr18  1  0.87793800  0.57510800  0.30283000  1
  Cr  Cr19  1  0.30283000  0.87793800  0.57510800  1
  Cr  Cr20  1  0.57510800  0.30283000  0.87793800  1
  Cr  Cr21  1  0.30283000  0.57510800  0.87793800  1
  Cr  Cr22  1  0.57510800  0.87793800  0.30283000  1
  Cr  Cr23  1  0.87793800  0.30283000  0.57510800  1
  N  N24  1  0.82137000  0.50000000  0.17863000  1
  N  N25  1  0.67863000  0.17863000  0.35725900  1
  N  N26  1  0.50000000  0.32137000  0.67863000  1
  N  N27  1  0.32137000  0.50000000  0.67863000  1
  N  N28  1  0.50000000  0.82137000  0.17863000  1
  N  N29  1  0.17863000  0.67863000  0.35725900  1
  N  N30  1  0.67863000  0.50000000  0.32137000  1
  N  N31  1  0.17863000  0.82137000  0.50000000  1
  N  N32  1  0.35725900  0.67863000  0.17863000  1
  N  N33  1  0.17863000  0.50000000  0.82137000  1
  N  N34  1  0.35725900  0.17863000  0.67863000  1
  N  N35  1  0.67863000  0.32137000  0.50000000  1
  N  N36  1  0.17863000  0.35725900  0.67863000  1
  N  N37  1  0.32137000  0.67863000  0.50000000  1
  N  N38  1  0.50000000  0.17863000  0.82137000  1
  N  N39  1  0.67863000  0.35725900  0.17863000  1
  N  N40  1  0.50000000  0.67863000  0.32137000  1
  N  N41  1  0.82137000  0.17863000  0.50000000  1
  N  N42  1  0.32137000  0.64274100  0.82137000  1
  N  N43  1  0.82137000  0.32137000  0.64274100  1
  N  N44  1  0.64274100  0.82137000  0.32137000  1
  N  N45  1  0.82137000  0.64274100  0.32137000  1
  N  N46  1  0.64274100  0.32137000  0.82137000  1
  N  N47  1  0.32137000  0.82137000  0.64274100  1
  N  N48  1  0.14992900  0.50000000  0.64992900  1
  N  N49  1  0.35007100  0.85007100  0.50000000  1
  N  N50  1  0.50000000  0.64992900  0.14992900  1
  N  N51  1  0.64992900  0.50000000  0.14992900  1
  N  N52  1  0.50000000  0.14992900  0.64992900  1
  N  N53  1  0.85007100  0.35007100  0.50000000  1
  N  N54  1  0.64992900  0.14992900  0.50000000  1
  N  N55  1  0.50000000  0.35007100  0.85007100  1
  N  N56  1  0.50000000  0.85007100  0.35007100  1
  N  N57  1  0.14992900  0.64992900  0.50000000  1
  N  N58  1  0.85007100  0.50000000  0.35007100  1
  N  N59  1  0.35007100  0.50000000  0.85007100  1
  N  N60  1  0.35420200  0.64579800  0.00000000  1
  N  N61  1  0.29159600  0.64579800  0.64579800  1
  N  N62  1  0.35420200  0.70840400  0.35420200  1
  N  N63  1  0.70840400  0.35420200  0.35420200  1
  N  N64  1  0.64579800  0.35420200  0.00000000  1
  N  N65  1  0.64579800  0.29159600  0.64579800  1
  N  N66  1  0.35420200  0.35420200  0.70840400  1
  N  N67  1  0.00000000  0.35420200  0.64579800  1
  N  N68  1  0.00000000  0.64579800  0.35420200  1
  N  N69  1  0.64579800  0.64579800  0.29159600  1
  N  N70  1  0.64579800  0.00000000  0.35420200  1
  N  N71  1  0.35420200  0.00000000  0.64579800  1
