# generated using pymatgen
data_Mg6GaB
_symmetry_space_group_name_H-M   'P 1'
_cell_length_a   6.25404289
_cell_length_b   6.25404289
_cell_length_c   4.04487500
_cell_angle_alpha   90.00000000
_cell_angle_beta   90.00000000
_cell_angle_gamma   100.00402497
_symmetry_Int_Tables_number   1
_chemical_formula_structural   Mg6GaB
_chemical_formula_sum   'Mg6 Ga1 B1'
_cell_volume   155.80195173
_cell_formula_units_Z   1
loop_
 _symmetry_equiv_pos_site_id
 _symmetry_equiv_pos_as_xyz
  1  'x, y, z'
loop_
 _atom_site_type_symbol
 _atom_site_label
 _atom_site_symmetry_multiplicity
 _atom_site_fract_x
 _atom_site_fract_y
 _atom_site_fract_z
 _atom_site_occupancy
  Mg  Mg0  1  0.84131900  0.61490300  0.00000000  1
  Mg  Mg1  1  0.38509700  0.15868100  0.00000000  1
  Mg  Mg2  1  0.35757800  0.64242200  0.00000000  1
  Mg  Mg3  1  0.68791800  0.94981700  0.50000000  1
  Mg  Mg4  1  0.05018300  0.31208200  0.50000000  1
  Mg  Mg5  1  0.13062600  0.86937400  0.50000000  1
  Ga  Ga6  1  0.56355600  0.43644400  0.50000000  1
  B  B7  1  0.98372200  0.01627800  0.00000000  1
