# generated using pymatgen
data_RbMg6B
_symmetry_space_group_name_H-M   'P 1'
_cell_length_a   8.33370725
_cell_length_b   8.33370725
_cell_length_c   3.42424100
_cell_angle_alpha   90.00000000
_cell_angle_beta   90.00000000
_cell_angle_gamma   119.00183738
_symmetry_Int_Tables_number   1
_chemical_formula_structural   RbMg6B
_chemical_formula_sum   'Rb1 Mg6 B1'
_cell_volume   207.99473519
_cell_formula_units_Z   1
loop_
 _symmetry_equiv_pos_site_id
 _symmetry_equiv_pos_as_xyz
  1  'x, y, z'
loop_
 _atom_site_type_symbol
 _atom_site_label
 _atom_site_symmetry_multiplicity
 _atom_site_fract_x
 _atom_site_fract_y
 _atom_site_fract_z
 _atom_site_occupancy
  Rb  Rb0  1  0.33956600  0.66043400  0.50000000  1
  Mg  Mg1  1  0.94383300  0.68771400  0.50000000  1
  Mg  Mg2  1  0.31228600  0.05616700  0.50000000  1
  Mg  Mg3  1  0.79166000  0.20834000  0.50000000  1
  Mg  Mg4  1  0.79252300  0.87196300  0.00000000  1
  Mg  Mg5  1  0.12803700  0.20747700  0.00000000  1
  Mg  Mg6  1  0.59505100  0.40494900  0.00000000  1
  B  B7  1  0.09704500  0.90295500  0.00000000  1
