# generated using pymatgen
data_Cr2(PO3)5
_symmetry_space_group_name_H-M   'P 1'
_cell_length_a   12.96958280
_cell_length_b   8.35779600
_cell_length_c   5.30419195
_cell_angle_alpha   90.00000000
_cell_angle_beta   94.19056004
_cell_angle_gamma   90.00000000
_symmetry_Int_Tables_number   1
_chemical_formula_structural   Cr2(PO3)5
_chemical_formula_sum   'Cr4 P10 O30'
_cell_volume   573.42203354
_cell_formula_units_Z   2
loop_
 _symmetry_equiv_pos_site_id
 _symmetry_equiv_pos_as_xyz
  1  'x, y, z'
loop_
 _atom_site_type_symbol
 _atom_site_label
 _atom_site_symmetry_multiplicity
 _atom_site_fract_x
 _atom_site_fract_y
 _atom_site_fract_z
 _atom_site_occupancy
  Cr  Cr0  1  0.96393300  0.29570500  0.88907800  1
  Cr  Cr1  1  0.53724500  0.29601400  0.61026600  1
  Cr  Cr2  1  0.46393300  0.70429400  0.38907900  1
  Cr  Cr3  1  0.03724500  0.70398600  0.11026600  1
  P  P4  1  0.60260100  0.82542700  0.93743700  1
  P  P5  1  0.64386800  0.50108800  0.12870800  1
  P  P6  1  0.75088100  0.07154000  0.74984300  1
  P  P7  1  0.85701400  0.49937200  0.37029400  1
  P  P8  1  0.10260000  0.17457200  0.43743800  1
  P  P9  1  0.14386800  0.49891100  0.62870700  1
  P  P10  1  0.25088100  0.92846100  0.24984200  1
  P  P11  1  0.35701400  0.50062900  0.87029500  1
  P  P12  1  0.39879600  0.17472600  0.06115100  1
  P  P13  1  0.89879600  0.82527300  0.56114900  1
  O  O14  1  0.67496400  0.66991800  0.01833300  1
  O  O15  1  0.96390200  0.86020900  0.34566100  1
  O  O16  1  0.94815900  0.79799200  0.82055500  1
  O  O17  1  0.92660800  0.51316700  0.14984700  1
  O  O18  1  0.03710200  0.14231800  0.65408000  1
  O  O19  1  0.05257200  0.20065200  0.17815900  1
  O  O20  1  0.07427800  0.48108500  0.84830900  1
  O  O21  1  0.17496400  0.33008200  0.51833400  1
  O  O22  1  0.10997700  0.60985800  0.42040700  1
  O  O23  1  0.17098900  0.84087300  0.08385600  1
  O  O24  1  0.19356400  0.04624800  0.43890000  1
  O  O25  1  0.25003100  0.56654600  0.75050400  1
  O  O26  1  0.33173200  0.84212000  0.41617200  1
  O  O27  1  0.30682700  0.04793800  0.06198600  1
  O  O28  1  0.32699400  0.33061400  0.97702900  1
  O  O29  1  0.39011400  0.61036700  0.08124500  1
  O  O30  1  0.42660700  0.48683200  0.64984600  1
  O  O31  1  0.46390300  0.13979100  0.84566200  1
  O  O32  1  0.44816000  0.20200800  0.32055600  1
  O  O33  1  0.82699500  0.66938600  0.47703000  1
  O  O34  1  0.53710200  0.85768300  0.15408100  1
  O  O35  1  0.57427800  0.51891600  0.34831000  1
  O  O36  1  0.89011400  0.38963300  0.58124600  1
  O  O37  1  0.60997700  0.39014200  0.92040700  1
  O  O38  1  0.67098900  0.15912700  0.58385500  1
  O  O39  1  0.69356400  0.95375200  0.93889900  1
  O  O40  1  0.75003100  0.43345400  0.25050500  1
  O  O41  1  0.83173200  0.15788000  0.91617100  1
  O  O42  1  0.80682700  0.95206200  0.56198500  1
  O  O43  1  0.55257200  0.79934800  0.67815800  1
