# generated using pymatgen
data_Co3(P2O7)2
_symmetry_space_group_name_H-M   'P 1'
_cell_length_a   5.71195500
_cell_length_b   6.87690228
_cell_length_c   7.51170322
_cell_angle_alpha   76.51890314
_cell_angle_beta   73.82456108
_cell_angle_gamma   72.57337070
_symmetry_Int_Tables_number   1
_chemical_formula_structural   Co3(P2O7)2
_chemical_formula_sum   'Co3 P4 O14'
_cell_volume   266.74409101
_cell_formula_units_Z   1
loop_
 _symmetry_equiv_pos_site_id
 _symmetry_equiv_pos_as_xyz
  1  'x, y, z'
loop_
 _atom_site_type_symbol
 _atom_site_label
 _atom_site_symmetry_multiplicity
 _atom_site_fract_x
 _atom_site_fract_y
 _atom_site_fract_z
 _atom_site_occupancy
  Co  Co0  1  0.75414800  0.52271100  0.66294900  1
  Co  Co1  1  0.24585200  0.47728900  0.33705100  1
  Co  Co2  1  0.00000000  0.00000000  0.00000000  1
  P  P3  1  0.20579100  0.70977000  0.67333800  1
  P  P4  1  0.37117400  0.30902200  0.93457600  1
  P  P5  1  0.62882600  0.69097800  0.06542400  1
  P  P6  1  0.79420900  0.29023000  0.32666200  1
  O  O7  1  0.47954000  0.68705200  0.55518700  1
  O  O8  1  0.72899400  0.84865100  0.11037200  1
  O  O9  1  0.93609000  0.36436900  0.44176500  1
  O  O10  1  0.27100600  0.15134900  0.88962800  1
  O  O11  1  0.06391000  0.63563100  0.55823500  1
  O  O12  1  0.34190800  0.30617300  0.14232600  1
  O  O13  1  0.07312200  0.91299500  0.73790500  1
  O  O14  1  0.21316000  0.53803700  0.86058200  1
  O  O15  1  0.92687800  0.08700500  0.26209500  1
  O  O16  1  0.52046000  0.31294800  0.44481300  1
  O  O17  1  0.34504900  0.70580200  0.17158500  1
  O  O18  1  0.65495100  0.29419800  0.82841500  1
  O  O19  1  0.78684000  0.46196300  0.13941800  1
  O  O20  1  0.65809200  0.69382700  0.85767400  1
