# generated using pymatgen
data_SiC2
_symmetry_space_group_name_H-M   'P 1'
_cell_length_a   3.18576100
_cell_length_b   3.18576100
_cell_length_c   6.88027700
_cell_angle_alpha   90.00000000
_cell_angle_beta   90.00000000
_cell_angle_gamma   90.00000000
_symmetry_Int_Tables_number   1
_chemical_formula_structural   SiC2
_chemical_formula_sum   'Si2 C4'
_cell_volume   69.82843456
_cell_formula_units_Z   2
loop_
 _symmetry_equiv_pos_site_id
 _symmetry_equiv_pos_as_xyz
  1  'x, y, z'
loop_
 _atom_site_type_symbol
 _atom_site_label
 _atom_site_symmetry_multiplicity
 _atom_site_fract_x
 _atom_site_fract_y
 _atom_site_fract_z
 _atom_site_occupancy
  Si  Si0  1  0.00000000  0.00000000  0.75000000  1
  Si  Si1  1  0.00000000  0.00000000  0.25000000  1
  C  C2  1  0.00000000  0.50000000  0.40079800  1
  C  C3  1  0.50000000  0.00000000  0.90079800  1
  C  C4  1  0.00000000  0.50000000  0.59920200  1
  C  C5  1  0.50000000  0.00000000  0.09920200  1
