# generated using pymatgen
data_Mo2P2O11
_symmetry_space_group_name_H-M   'P 1'
_cell_length_a   6.43769600
_cell_length_b   7.60702149
_cell_length_c   9.15373869
_cell_angle_alpha   74.81038141
_cell_angle_beta   89.83335905
_cell_angle_gamma   89.90041991
_symmetry_Int_Tables_number   1
_chemical_formula_structural   Mo2P2O11
_chemical_formula_sum   'Mo4 P4 O22'
_cell_volume   432.61110949
_cell_formula_units_Z   2
loop_
 _symmetry_equiv_pos_site_id
 _symmetry_equiv_pos_as_xyz
  1  'x, y, z'
loop_
 _atom_site_type_symbol
 _atom_site_label
 _atom_site_symmetry_multiplicity
 _atom_site_fract_x
 _atom_site_fract_y
 _atom_site_fract_z
 _atom_site_occupancy
  Mo  Mo0  1  0.24672600  0.39140000  0.70493500  1
  Mo  Mo1  1  0.75327400  0.60860000  0.29506500  1
  Mo  Mo2  1  0.24782900  0.18417500  0.13931000  1
  Mo  Mo3  1  0.75217100  0.81582500  0.86069000  1
  P  P4  1  0.74881100  0.07001400  0.11629000  1
  P  P5  1  0.74889800  0.49076700  0.67068900  1
  P  P6  1  0.25110200  0.50923300  0.32931100  1
  P  P7  1  0.25118900  0.92998600  0.88371000  1
  O  O8  1  0.25472000  0.98236500  0.03775100  1
  O  O9  1  0.24038500  0.04251500  0.31557100  1
  O  O10  1  0.75321500  0.90641600  0.25110100  1
  O  O11  1  0.74528000  0.01763500  0.96224900  1
  O  O12  1  0.06250700  0.63874100  0.30489300  1
  O  O13  1  0.75811900  0.37632400  0.35797700  1
  O  O14  1  0.75961500  0.95748500  0.68442900  1
  O  O15  1  0.24678500  0.09358400  0.74889900  1
  O  O16  1  0.05845900  0.80317700  0.89203300  1
  O  O17  1  0.44346600  0.63351600  0.30690100  1
  O  O18  1  0.75152300  0.63673600  0.52013200  1
  O  O19  1  0.24871900  0.35619600  0.90666800  1
  O  O20  1  0.75048100  0.58784700  0.80401100  1
  O  O21  1  0.75128100  0.64380400  0.09333200  1
  O  O22  1  0.55582100  0.19461000  0.11568800  1
  O  O23  1  0.93749300  0.36125900  0.69510700  1
  O  O24  1  0.24951900  0.41215300  0.19598900  1
  O  O25  1  0.55653400  0.36648400  0.69309900  1
  O  O26  1  0.24188100  0.62367600  0.64202300  1
  O  O27  1  0.24847700  0.36326400  0.47986800  1
  O  O28  1  0.44417900  0.80539000  0.88431200  1
  O  O29  1  0.94154100  0.19682300  0.10796700  1
