# generated using pymatgen
data_CaAl2SiO6
_symmetry_space_group_name_H-M   'P 1'
_cell_length_a   6.54044624
_cell_length_b   6.54044624
_cell_length_c   5.32471973
_cell_angle_alpha   78.12063271
_cell_angle_beta   78.12063271
_cell_angle_gamma   83.59878288
_symmetry_Int_Tables_number   1
_chemical_formula_structural   CaAl2SiO6
_chemical_formula_sum   'Ca2 Al4 Si2 O12'
_cell_volume   217.55693310
_cell_formula_units_Z   2
loop_
 _symmetry_equiv_pos_site_id
 _symmetry_equiv_pos_as_xyz
  1  'x, y, z'
loop_
 _atom_site_type_symbol
 _atom_site_label
 _atom_site_symmetry_multiplicity
 _atom_site_fract_x
 _atom_site_fract_y
 _atom_site_fract_z
 _atom_site_occupancy
  Ca  Ca0  1  0.69652900  0.32338500  0.24086100  1
  Ca  Ca1  1  0.32338500  0.69652900  0.74086100  1
  Al  Al2  1  0.61292300  0.80942500  0.20847900  1
  Al  Al3  1  0.80942500  0.61292300  0.70847900  1
  Al  Al4  1  0.08948200  0.90882400  0.26127000  1
  Al  Al5  1  0.90882400  0.08948200  0.76127000  1
  Si  Si6  1  0.18936400  0.38117100  0.28368200  1
  Si  Si7  1  0.38117100  0.18936400  0.78368200  1
  O  O8  1  0.82809600  0.97497600  0.12290400  1
  O  O9  1  0.35790200  0.91058200  0.32006400  1
  O  O10  1  0.61023200  0.66062800  0.97237900  1
  O  O11  1  0.02092900  0.20016800  0.37495600  1
  O  O12  1  0.11038200  0.62424400  0.20245500  1
  O  O13  1  0.33398100  0.35677800  0.51295000  1
  O  O14  1  0.20016800  0.02092900  0.87495600  1
  O  O15  1  0.62424400  0.11038200  0.70245500  1
  O  O16  1  0.35677800  0.33398100  0.01295000  1
  O  O17  1  0.97497600  0.82809600  0.62290400  1
  O  O18  1  0.91058200  0.35790200  0.82006400  1
  O  O19  1  0.66062800  0.61023200  0.47237900  1
