# generated using pymatgen
data_CeZr3O8
_symmetry_space_group_name_H-M   'P 1'
_cell_length_a   7.42353577
_cell_length_b   7.42353577
_cell_length_c   5.31916673
_cell_angle_alpha   89.35914099
_cell_angle_beta   89.35914099
_cell_angle_gamma   90.36399662
_symmetry_Int_Tables_number   1
_chemical_formula_structural   CeZr3O8
_chemical_formula_sum   'Ce2 Zr6 O16'
_cell_volume   293.09051589
_cell_formula_units_Z   2
loop_
 _symmetry_equiv_pos_site_id
 _symmetry_equiv_pos_as_xyz
  1  'x, y, z'
loop_
 _atom_site_type_symbol
 _atom_site_label
 _atom_site_symmetry_multiplicity
 _atom_site_fract_x
 _atom_site_fract_y
 _atom_site_fract_z
 _atom_site_occupancy
  Ce  Ce0  1  0.63032800  0.36967200  0.75000000  1
  Ce  Ce1  1  0.36967200  0.63032800  0.25000000  1
  Zr  Zr2  1  0.62191900  0.87565100  0.74814700  1
  Zr  Zr3  1  0.37808100  0.12434900  0.25185300  1
  Zr  Zr4  1  0.12434900  0.37808100  0.75185300  1
  Zr  Zr5  1  0.87565100  0.62191900  0.24814700  1
  Zr  Zr6  1  0.11851500  0.88148500  0.75000000  1
  Zr  Zr7  1  0.88148500  0.11851500  0.25000000  1
  O  O8  1  0.37789900  0.35664400  0.02538500  1
  O  O9  1  0.62210100  0.64335600  0.97461500  1
  O  O10  1  0.64335600  0.62210100  0.47461500  1
  O  O11  1  0.35664400  0.37789900  0.52538500  1
  O  O12  1  0.35501500  0.89519800  0.03106500  1
  O  O13  1  0.64498500  0.10480200  0.96893500  1
  O  O14  1  0.61759300  0.13156000  0.45205700  1
  O  O15  1  0.38240700  0.86844000  0.54794300  1
  O  O16  1  0.86844000  0.38240700  0.04794300  1
  O  O17  1  0.13156000  0.61759300  0.95205700  1
  O  O18  1  0.10480200  0.64498500  0.46893500  1
  O  O19  1  0.89519800  0.35501500  0.53106500  1
  O  O20  1  0.90159100  0.86560500  0.06016300  1
  O  O21  1  0.09840900  0.13439500  0.93983700  1
  O  O22  1  0.13439500  0.09840900  0.43983700  1
  O  O23  1  0.86560500  0.90159100  0.56016300  1
