# generated using pymatgen
data_RbCd(NO2)3
_symmetry_space_group_name_H-M   'P 1'
_cell_length_a   5.50033653
_cell_length_b   5.50033653
_cell_length_c   5.50033679
_cell_angle_alpha   90.55586864
_cell_angle_beta   90.55586864
_cell_angle_gamma   90.55586766
_symmetry_Int_Tables_number   1
_chemical_formula_structural   RbCd(NO2)3
_chemical_formula_sum   'Rb1 Cd1 N3 O6'
_cell_volume   166.38190300
_cell_formula_units_Z   1
loop_
 _symmetry_equiv_pos_site_id
 _symmetry_equiv_pos_as_xyz
  1  'x, y, z'
loop_
 _atom_site_type_symbol
 _atom_site_label
 _atom_site_symmetry_multiplicity
 _atom_site_fract_x
 _atom_site_fract_y
 _atom_site_fract_z
 _atom_site_occupancy
  Rb  Rb0  1  0.54483000  0.54483000  0.54483000  1
  Cd  Cd1  1  0.01311500  0.01311500  0.01311500  1
  N  N2  1  0.46743300  0.06825900  0.02916700  1
  N  N3  1  0.02916700  0.46743300  0.06825900  1
  N  N4  1  0.06825900  0.02916700  0.46743300  1
  O  O5  1  0.22848700  0.58010400  0.06806600  1
  O  O6  1  0.58010400  0.06806600  0.22848700  1
  O  O7  1  0.06034800  0.83910000  0.59652300  1
  O  O8  1  0.83910000  0.59652300  0.06034800  1
  O  O9  1  0.59652300  0.06034800  0.83910000  1
  O  O10  1  0.06806600  0.22848700  0.58010400  1
