# generated using pymatgen
data_K2Ca3Si3O10
_symmetry_space_group_name_H-M   'P 1'
_cell_length_a   7.49887404
_cell_length_b   7.49887404
_cell_length_c   9.92870343
_cell_angle_alpha   71.04156887
_cell_angle_beta   71.04156887
_cell_angle_gamma   91.68197773
_symmetry_Int_Tables_number   1
_chemical_formula_structural   K2Ca3Si3O10
_chemical_formula_sum   'K4 Ca6 Si6 O20'
_cell_volume   493.67958795
_cell_formula_units_Z   2
loop_
 _symmetry_equiv_pos_site_id
 _symmetry_equiv_pos_as_xyz
  1  'x, y, z'
loop_
 _atom_site_type_symbol
 _atom_site_label
 _atom_site_symmetry_multiplicity
 _atom_site_fract_x
 _atom_site_fract_y
 _atom_site_fract_z
 _atom_site_occupancy
  K  K0  1  0.23073300  0.47354900  0.51102300  1
  K  K1  1  0.52645100  0.76926700  0.98897700  1
  K  K2  1  0.76926700  0.52645100  0.48897700  1
  K  K3  1  0.47354900  0.23073300  0.01102300  1
  Ca  Ca4  1  0.36968900  0.63031100  0.75000000  1
  Ca  Ca5  1  0.63031100  0.36968900  0.25000000  1
  Ca  Ca6  1  0.22170400  0.98390900  0.52208200  1
  Ca  Ca7  1  0.01609100  0.77829600  0.97791800  1
  Ca  Ca8  1  0.77829600  0.01609100  0.47791800  1
  Ca  Ca9  1  0.98390900  0.22170400  0.02208200  1
  Si  Si10  1  0.57590800  0.85247500  0.29244700  1
  Si  Si11  1  0.14752500  0.42409200  0.20755300  1
  Si  Si12  1  0.42409200  0.14752500  0.70755300  1
  Si  Si13  1  0.85247500  0.57590800  0.79244700  1
  Si  Si14  1  0.15930200  0.84069800  0.25000000  1
  Si  Si15  1  0.84069800  0.15930200  0.75000000  1
  O  O16  1  0.68968500  0.68018900  0.73335500  1
  O  O17  1  0.31981100  0.31031500  0.76664500  1
  O  O18  1  0.31031500  0.31981100  0.26664500  1
  O  O19  1  0.68018900  0.68968500  0.23335500  1
  O  O20  1  0.11985800  0.61497000  0.26304600  1
  O  O21  1  0.38503000  0.88014200  0.23695400  1
  O  O22  1  0.88014200  0.38503000  0.73695400  1
  O  O23  1  0.61497000  0.11985800  0.76304600  1
  O  O24  1  0.49371900  0.78708200  0.48090500  1
  O  O25  1  0.21291800  0.50628100  0.01909500  1
  O  O26  1  0.50628100  0.21291800  0.51909500  1
  O  O27  1  0.78708200  0.49371900  0.98090500  1
  O  O28  1  0.06615600  0.69624100  0.72709900  1
  O  O29  1  0.30375900  0.93384400  0.77290100  1
  O  O30  1  0.93384400  0.30375900  0.27290100  1
  O  O31  1  0.69624100  0.06615600  0.22709900  1
  O  O32  1  0.13944800  0.97177000  0.09236900  1
  O  O33  1  0.02823000  0.86055200  0.40763100  1
  O  O34  1  0.86055200  0.02823000  0.90763100  1
  O  O35  1  0.97177000  0.13944800  0.59236900  1
