# generated using pymatgen
data_EuBN2
_symmetry_space_group_name_H-M   'P 1'
_cell_length_a   7.33542640
_cell_length_b   7.33542640
_cell_length_c   7.33542601
_cell_angle_alpha   110.31473380
_cell_angle_beta   110.31473380
_cell_angle_gamma   110.31473784
_symmetry_Int_Tables_number   1
_chemical_formula_structural   EuBN2
_chemical_formula_sum   'Eu6 B6 N12'
_cell_volume   293.97490532
_cell_formula_units_Z   6
loop_
 _symmetry_equiv_pos_site_id
 _symmetry_equiv_pos_as_xyz
  1  'x, y, z'
loop_
 _atom_site_type_symbol
 _atom_site_label
 _atom_site_symmetry_multiplicity
 _atom_site_fract_x
 _atom_site_fract_y
 _atom_site_fract_z
 _atom_site_occupancy
  Eu  Eu0  1  0.30039700  0.19960300  0.75000000  1
  Eu  Eu1  1  0.75000000  0.30039700  0.19960300  1
  Eu  Eu2  1  0.19960300  0.75000000  0.30039700  1
  Eu  Eu3  1  0.25000000  0.69960300  0.80039700  1
  Eu  Eu4  1  0.80039700  0.25000000  0.69960300  1
  Eu  Eu5  1  0.69960300  0.80039700  0.25000000  1
  B  B6  1  0.62893000  0.87107000  0.75000000  1
  B  B7  1  0.75000000  0.62893000  0.87107000  1
  B  B8  1  0.87107000  0.75000000  0.62893000  1
  B  B9  1  0.25000000  0.37107000  0.12893000  1
  B  B10  1  0.12893000  0.25000000  0.37107000  1
  B  B11  1  0.37107000  0.12893000  0.25000000  1
  N  N12  1  0.87313000  0.62687000  0.75000000  1
  N  N13  1  0.75000000  0.87313000  0.62687000  1
  N  N14  1  0.62687000  0.75000000  0.87313000  1
  N  N15  1  0.25000000  0.12687000  0.37313000  1
  N  N16  1  0.37313000  0.25000000  0.12687000  1
  N  N17  1  0.12687000  0.37313000  0.25000000  1
  N  N18  1  0.50721000  0.99279000  0.75000000  1
  N  N19  1  0.75000000  0.50721000  0.99279000  1
  N  N20  1  0.99279000  0.75000000  0.50721000  1
  N  N21  1  0.25000000  0.49279000  0.00721000  1
  N  N22  1  0.00721000  0.25000000  0.49279000  1
  N  N23  1  0.49279000  0.00721000  0.25000000  1
