# generated using pymatgen
data_Tl2SO3
_symmetry_space_group_name_H-M   'P 1'
_cell_length_a   6.04467621
_cell_length_b   8.25059800
_cell_length_c   10.14903547
_cell_angle_alpha   90.00000000
_cell_angle_beta   85.66800016
_cell_angle_gamma   90.00000000
_symmetry_Int_Tables_number   1
_chemical_formula_structural   Tl2SO3
_chemical_formula_sum   'Tl8 S4 O12'
_cell_volume   504.70862761
_cell_formula_units_Z   4
loop_
 _symmetry_equiv_pos_site_id
 _symmetry_equiv_pos_as_xyz
  1  'x, y, z'
loop_
 _atom_site_type_symbol
 _atom_site_label
 _atom_site_symmetry_multiplicity
 _atom_site_fract_x
 _atom_site_fract_y
 _atom_site_fract_z
 _atom_site_occupancy
  Tl  Tl0  1  0.24313700  0.02938500  0.70197100  1
  Tl  Tl1  1  0.25587700  0.18397400  0.07242200  1
  Tl  Tl2  1  0.25686300  0.52938500  0.79802900  1
  Tl  Tl3  1  0.24412300  0.68397400  0.42757800  1
  Tl  Tl4  1  0.75587700  0.31602600  0.57242200  1
  Tl  Tl5  1  0.74313700  0.47061500  0.20197100  1
  Tl  Tl6  1  0.74412300  0.81602600  0.92757800  1
  Tl  Tl7  1  0.75686300  0.97061500  0.29802900  1
  S  S8  1  0.24232200  0.70780600  0.10093200  1
  S  S9  1  0.25767800  0.20780600  0.39906800  1
  S  S10  1  0.75767800  0.29219400  0.89906800  1
  S  S11  1  0.74232200  0.79219400  0.60093200  1
  O  O12  1  0.03102500  0.24015300  0.34322700  1
  O  O13  1  0.23789300  0.52604700  0.06765400  1
  O  O14  1  0.25047400  0.79705500  0.96666600  1
  O  O15  1  0.26210700  0.02604700  0.43234600  1
  O  O16  1  0.24952600  0.29705500  0.53333400  1
  O  O17  1  0.46897500  0.74015300  0.15677300  1
  O  O18  1  0.53102500  0.25984700  0.84322700  1
  O  O19  1  0.74952600  0.20294500  0.03333400  1
  O  O20  1  0.76210700  0.47395300  0.93234600  1
  O  O21  1  0.75047400  0.70294500  0.46666600  1
  O  O22  1  0.73789300  0.97395300  0.56765400  1
  O  O23  1  0.96897500  0.75984700  0.65677300  1
