# generated using pymatgen
data_Nd3O2F5
_symmetry_space_group_name_H-M   'P 1'
_cell_length_a   3.73862000
_cell_length_b   5.26294908
_cell_length_c   16.72500338
_cell_angle_alpha   87.23181752
_cell_angle_beta   90.00000000
_cell_angle_gamma   90.00000000
_symmetry_Int_Tables_number   1
_chemical_formula_structural   Nd3O2F5
_chemical_formula_sum   'Nd6 O4 F10'
_cell_volume   328.69994947
_cell_formula_units_Z   2
loop_
 _symmetry_equiv_pos_site_id
 _symmetry_equiv_pos_as_xyz
  1  'x, y, z'
loop_
 _atom_site_type_symbol
 _atom_site_label
 _atom_site_symmetry_multiplicity
 _atom_site_fract_x
 _atom_site_fract_y
 _atom_site_fract_z
 _atom_site_occupancy
  Nd  Nd0  1  0.25000000  0.18603600  0.07011000  1
  Nd  Nd1  1  0.25000000  0.17600000  0.39824600  1
  Nd  Nd2  1  0.25000000  0.23338500  0.72373600  1
  Nd  Nd3  1  0.75000000  0.69802600  0.25122300  1
  Nd  Nd4  1  0.75000000  0.76328400  0.58153700  1
  Nd  Nd5  1  0.75000000  0.69358800  0.91579000  1
  O  O6  1  0.25000000  0.89544300  0.64688500  1
  O  O7  1  0.75000000  0.00240300  0.33807900  1
  O  O8  1  0.75000000  0.40537100  0.66655600  1
  O  O9  1  0.75000000  0.34757700  0.99086700  1
  F  F10  1  0.25000000  0.91171300  0.19106000  1
  F  F11  1  0.25000000  0.75686500  0.48427000  1
  F  F12  1  0.25000000  0.43913600  0.27143900  1
  F  F13  1  0.25000000  0.90701700  0.95735900  1
  F  F14  1  0.25000000  0.53516500  0.84190600  1
  F  F15  1  0.75000000  0.35630900  0.14931200  1
  F  F16  1  0.75000000  0.48926800  0.38038600  1
  F  F17  1  0.75000000  0.87669600  0.07289200  1
  F  F18  1  0.75000000  0.16764900  0.50207500  1
  F  F19  1  0.75000000  0.02506900  0.80494000  1
