# generated using pymatgen
data_KBe2B3O7
_symmetry_space_group_name_H-M   'P 1'
_cell_length_a   13.41525300
_cell_length_b   7.57093600
_cell_length_c   9.43330728
_cell_angle_alpha   68.56722096
_cell_angle_beta   90.00000000
_cell_angle_gamma   90.00000000
_symmetry_Int_Tables_number   1
_chemical_formula_structural   KBe2B3O7
_chemical_formula_sum   'K6 Be12 B18 O42'
_cell_volume   891.84768338
_cell_formula_units_Z   6
loop_
 _symmetry_equiv_pos_site_id
 _symmetry_equiv_pos_as_xyz
  1  'x, y, z'
loop_
 _atom_site_type_symbol
 _atom_site_label
 _atom_site_symmetry_multiplicity
 _atom_site_fract_x
 _atom_site_fract_y
 _atom_site_fract_z
 _atom_site_occupancy
  K  K0  1  0.44166300  0.37005800  0.23319700  1
  K  K1  1  0.94166300  0.62994200  0.76680300  1
  K  K2  1  0.08872600  0.37911700  0.23376600  1
  K  K3  1  0.58872600  0.62088300  0.76623400  1
  K  K4  1  0.51712700  0.00190000  0.99451900  1
  K  K5  1  0.01712700  0.99810000  0.00548100  1
  Be  Be6  1  0.60398100  0.97501600  0.41413200  1
  Be  Be7  1  0.10398100  0.02498400  0.58586800  1
  Be  Be8  1  0.43699800  0.02989000  0.57635300  1
  Be  Be9  1  0.93699800  0.97011000  0.42364700  1
  Be  Be10  1  0.43622100  0.39609100  0.58372700  1
  Be  Be11  1  0.93622100  0.60390900  0.41627300  1
  Be  Be12  1  0.60447500  0.59882000  0.42351700  1
  Be  Be13  1  0.10447500  0.40118000  0.57648300  1
  Be  Be14  1  0.77188000  0.39869000  0.59092300  1
  Be  Be15  1  0.27188000  0.60131000  0.40907700  1
  Be  Be16  1  0.76937600  0.02654300  0.59011200  1
  Be  Be17  1  0.26937600  0.97345700  0.40988800  1
  B  B18  1  0.60425000  0.23550400  0.53576100  1
  B  B19  1  0.10425000  0.76449600  0.46423900  1
  B  B20  1  0.27114700  0.23598900  0.52557200  1
  B  B21  1  0.77114700  0.76401100  0.47442800  1
  B  B22  1  0.43546400  0.76730200  0.46050800  1
  B  B23  1  0.93546400  0.23269800  0.53949200  1
  B  B24  1  0.35574500  0.34579700  0.84784200  1
  B  B25  1  0.85574500  0.65420300  0.15215800  1
  B  B26  1  0.26236100  0.19130000  0.08703000  1
  B  B27  1  0.76236100  0.80870000  0.91297000  1
  B  B28  1  0.17663900  0.35640300  0.84249400  1
  B  B29  1  0.67663900  0.64359700  0.15750600  1
  B  B30  1  0.77122300  0.30983500  0.91273600  1
  B  B31  1  0.27122300  0.69016500  0.08726400  1
  B  B32  1  0.67702500  0.15459300  0.14968700  1
  B  B33  1  0.17702500  0.84540700  0.85031300  1
  B  B34  1  0.85859200  0.15559500  0.15716800  1
  B  B35  1  0.35859200  0.84440500  0.84283200  1
  O  O36  1  0.48768800  0.91865400  0.47405200  1
  O  O37  1  0.98768800  0.08134600  0.52594800  1
  O  O38  1  0.65487400  0.08652700  0.51814400  1
  O  O39  1  0.15487400  0.91347300  0.48185600  1
  O  O40  1  0.83469700  0.22119900  0.56915200  1
  O  O41  1  0.33469700  0.77880100  0.43084800  1
  O  O42  1  0.65406400  0.39499400  0.53651200  1
  O  O43  1  0.15406400  0.60500600  0.46348800  1
  O  O44  1  0.48790200  0.60126000  0.48372000  1
  O  O45  1  0.98790200  0.39874000  0.51628000  1
  O  O46  1  0.50093800  0.22844600  0.54805600  1
  O  O47  1  0.00093800  0.77155400  0.45194400  1
  O  O48  1  0.32268400  0.39782500  0.51620300  1
  O  O49  1  0.82268400  0.60217500  0.48379700  1
  O  O50  1  0.32432100  0.09285400  0.50202500  1
  O  O51  1  0.82432100  0.90714600  0.49797500  1
  O  O52  1  0.16829800  0.22706400  0.54682100  1
  O  O53  1  0.66829800  0.77293600  0.45317900  1
  O  O54  1  0.25922200  0.11130700  0.23623500  1
  O  O55  1  0.75922200  0.88869300  0.76376500  1
  O  O56  1  0.35379600  0.23301200  0.00570900  1
  O  O57  1  0.85379600  0.76698800  0.99429100  1
  O  O58  1  0.17327800  0.24486600  0.00034200  1
  O  O59  1  0.67327800  0.75513400  0.99965800  1
  O  O60  1  0.43805900  0.35589900  0.76526400  1
  O  O61  1  0.93805900  0.64410100  0.23473600  1
  O  O62  1  0.26784600  0.43879500  0.78487200  1
  O  O63  1  0.76784600  0.56120500  0.21512800  1
  O  O64  1  0.09636400  0.37529600  0.75429700  1
  O  O65  1  0.59636400  0.62470400  0.24570300  1
  O  O66  1  0.77430800  0.39639100  0.76300200  1
  O  O67  1  0.27430800  0.60360900  0.23699800  1
  O  O68  1  0.86064700  0.27047100  0.00022400  1
  O  O69  1  0.36064700  0.72952900  0.99977600  1
  O  O70  1  0.67877400  0.26612900  0.99217800  1
  O  O71  1  0.17877400  0.73387100  0.00782200  1
  O  O72  1  0.94062600  0.10793900  0.24344900  1
  O  O73  1  0.44062600  0.89206100  0.75655100  1
  O  O74  1  0.76697400  0.08260600  0.21654400  1
  O  O75  1  0.26697400  0.91739400  0.78345600  1
  O  O76  1  0.59332700  0.10799700  0.23227600  1
  O  O77  1  0.09332700  0.89200300  0.76772400  1
