# generated using pymatgen
data_LaPO4
_symmetry_space_group_name_H-M   'P 1'
_cell_length_a   6.05286187
_cell_length_b   6.05286187
_cell_length_c   6.05286187
_cell_angle_alpha   105.94203473
_cell_angle_beta   105.94203473
_cell_angle_gamma   116.78671440
_symmetry_Int_Tables_number   1
_chemical_formula_structural   LaPO4
_chemical_formula_sum   'La2 P2 O8'
_cell_volume   168.59804228
_cell_formula_units_Z   2
loop_
 _symmetry_equiv_pos_site_id
 _symmetry_equiv_pos_as_xyz
  1  'x, y, z'
loop_
 _atom_site_type_symbol
 _atom_site_label
 _atom_site_symmetry_multiplicity
 _atom_site_fract_x
 _atom_site_fract_y
 _atom_site_fract_z
 _atom_site_occupancy
  La  La0  1  0.25000000  0.75000000  0.50000000  1
  La  La1  1  0.00000000  0.00000000  0.00000000  1
  P  P2  1  0.50000000  0.50000000  0.00000000  1
  P  P3  1  0.75000000  0.25000000  0.50000000  1
  O  O4  1  0.48225000  0.65084100  0.83141000  1
  O  O5  1  0.90084100  0.23225000  0.33141000  1
  O  O6  1  0.90084100  0.56943100  0.66859000  1
  O  O7  1  0.81943100  0.65084100  0.16859000  1
  O  O8  1  0.76775000  0.09915900  0.66859000  1
  O  O9  1  0.34915900  0.51775000  0.16859000  1
  O  O10  1  0.34915900  0.18056900  0.83141000  1
  O  O11  1  0.43056900  0.09915900  0.33141000  1
