# generated using pymatgen
data_Y3NbO7
_symmetry_space_group_name_H-M   'P 1'
_cell_length_a   8.18122425
_cell_length_b   8.18122425
_cell_length_c   5.37999200
_cell_angle_alpha   90.00000000
_cell_angle_beta   90.00000000
_cell_angle_gamma   125.50558008
_symmetry_Int_Tables_number   1
_chemical_formula_structural   Y3NbO7
_chemical_formula_sum   'Y6 Nb2 O14'
_cell_volume   293.13932557
_cell_formula_units_Z   2
loop_
 _symmetry_equiv_pos_site_id
 _symmetry_equiv_pos_as_xyz
  1  'x, y, z'
loop_
 _atom_site_type_symbol
 _atom_site_label
 _atom_site_symmetry_multiplicity
 _atom_site_fract_x
 _atom_site_fract_y
 _atom_site_fract_z
 _atom_site_occupancy
  Y  Y0  1  0.00000000  0.50000000  0.00000000  1
  Y  Y1  1  0.50000000  0.00000000  0.00000000  1
  Y  Y2  1  0.61959900  0.38040100  0.47131400  1
  Y  Y3  1  0.88040100  0.11959900  0.47131400  1
  Y  Y4  1  0.11959900  0.88040100  0.52868600  1
  Y  Y5  1  0.38040100  0.61959900  0.52868600  1
  Nb  Nb6  1  0.75000000  0.75000000  0.00000000  1
  Nb  Nb7  1  0.25000000  0.25000000  0.00000000  1
  O  O8  1  0.75000000  0.25000000  0.24272900  1
  O  O9  1  0.83866400  0.59792500  0.76311200  1
  O  O10  1  0.25000000  0.75000000  0.75727100  1
  O  O11  1  0.98818900  0.01181100  0.21271900  1
  O  O12  1  0.40207500  0.16133600  0.76311200  1
  O  O13  1  0.33866400  0.09792500  0.23688800  1
  O  O14  1  0.09792500  0.33866400  0.76311200  1
  O  O15  1  0.48818900  0.51181100  0.78728100  1
  O  O16  1  0.51181100  0.48818900  0.21271900  1
  O  O17  1  0.90207500  0.66133600  0.23688800  1
  O  O18  1  0.59792500  0.83866400  0.23688800  1
  O  O19  1  0.66133600  0.90207500  0.76311200  1
  O  O20  1  0.01181100  0.98818900  0.78728100  1
  O  O21  1  0.16133600  0.40207500  0.23688800  1
