# generated using pymatgen
data_RbB3O5
_symmetry_space_group_name_H-M   'P 1'
_cell_length_a   6.70474755
_cell_length_b   6.70474755
_cell_length_c   9.30837215
_cell_angle_alpha   80.19793455
_cell_angle_beta   80.19793455
_cell_angle_gamma   83.91829487
_symmetry_Int_Tables_number   1
_chemical_formula_structural   RbB3O5
_chemical_formula_sum   'Rb4 B12 O20'
_cell_volume   405.03895896
_cell_formula_units_Z   4
loop_
 _symmetry_equiv_pos_site_id
 _symmetry_equiv_pos_as_xyz
  1  'x, y, z'
loop_
 _atom_site_type_symbol
 _atom_site_label
 _atom_site_symmetry_multiplicity
 _atom_site_fract_x
 _atom_site_fract_y
 _atom_site_fract_z
 _atom_site_occupancy
  Rb  Rb0  1  0.26597600  0.57715400  0.94560900  1
  Rb  Rb1  1  0.42284600  0.73402400  0.55439100  1
  Rb  Rb2  1  0.73402400  0.42284600  0.05439100  1
  Rb  Rb3  1  0.57715400  0.26597600  0.44560900  1
  B  B4  1  0.80730600  0.79056000  0.73483400  1
  B  B5  1  0.20944000  0.19269400  0.76516600  1
  B  B6  1  0.19269400  0.20944000  0.26516600  1
  B  B7  1  0.79056000  0.80730600  0.23483400  1
  B  B8  1  0.93209300  0.42857300  0.68008900  1
  B  B9  1  0.57142700  0.06790700  0.81991100  1
  B  B10  1  0.06790700  0.57142700  0.31991100  1
  B  B11  1  0.42857300  0.93209300  0.18008900  1
  B  B12  1  0.03409300  0.11252800  0.56783000  1
  B  B13  1  0.88747200  0.96590700  0.93217000  1
  B  B14  1  0.96590700  0.88747200  0.43217000  1
  B  B15  1  0.11252800  0.03409300  0.06783000  1
  O  O16  1  0.92670700  0.91057000  0.59595100  1
  O  O17  1  0.08943000  0.07329300  0.90404900  1
  O  O18  1  0.07329300  0.08943000  0.40404900  1
  O  O19  1  0.91057000  0.92670700  0.09595100  1
  O  O20  1  0.90433500  0.78937600  0.86317000  1
  O  O21  1  0.21062400  0.09566500  0.63683000  1
  O  O22  1  0.09566500  0.21062400  0.13683000  1
  O  O23  1  0.78937600  0.90433500  0.36317000  1
  O  O24  1  0.10508900  0.40091900  0.74518100  1
  O  O25  1  0.59908100  0.89491100  0.75481900  1
  O  O26  1  0.89491100  0.59908100  0.25481900  1
  O  O27  1  0.40091900  0.10508900  0.24518100  1
  O  O28  1  0.78877800  0.58886400  0.69989800  1
  O  O29  1  0.41113600  0.21122200  0.80010200  1
  O  O30  1  0.21122200  0.41113600  0.30010200  1
  O  O31  1  0.58886400  0.78877800  0.19989800  1
  O  O32  1  0.89415200  0.28809000  0.59604700  1
  O  O33  1  0.71191000  0.10584800  0.90395300  1
  O  O34  1  0.10584800  0.71191000  0.40395300  1
  O  O35  1  0.28809000  0.89415200  0.09604700  1
