# generated using pymatgen
data_Sr2Ga2O5
_symmetry_space_group_name_H-M   'P 1'
_cell_length_a   9.72946000
_cell_length_b   10.11510700
_cell_length_c   10.81225300
_cell_angle_alpha   90.00000000
_cell_angle_beta   90.00000000
_cell_angle_gamma   90.00000000
_symmetry_Int_Tables_number   1
_chemical_formula_structural   Sr2Ga2O5
_chemical_formula_sum   'Sr16 Ga16 O40'
_cell_volume   1064.08278591
_cell_formula_units_Z   8
loop_
 _symmetry_equiv_pos_site_id
 _symmetry_equiv_pos_as_xyz
  1  'x, y, z'
loop_
 _atom_site_type_symbol
 _atom_site_label
 _atom_site_symmetry_multiplicity
 _atom_site_fract_x
 _atom_site_fract_y
 _atom_site_fract_z
 _atom_site_occupancy
  Sr  Sr0  1  0.99564000  0.49678900  0.25549200  1
  Sr  Sr1  1  0.50436000  0.99678900  0.74450800  1
  Sr  Sr2  1  0.49564000  0.50321100  0.24450800  1
  Sr  Sr3  1  0.00436000  0.00321100  0.75549200  1
  Sr  Sr4  1  0.00436000  0.50321100  0.74450800  1
  Sr  Sr5  1  0.49564000  0.00321100  0.25549200  1
  Sr  Sr6  1  0.50436000  0.49678900  0.75549200  1
  Sr  Sr7  1  0.99564000  0.99678900  0.24450800  1
  Sr  Sr8  1  0.75129100  0.25400100  0.27396200  1
  Sr  Sr9  1  0.74870900  0.75400100  0.72603800  1
  Sr  Sr10  1  0.25129100  0.74599900  0.22603800  1
  Sr  Sr11  1  0.24870900  0.24599900  0.77396200  1
  Sr  Sr12  1  0.24870900  0.74599900  0.72603800  1
  Sr  Sr13  1  0.25129100  0.24599900  0.27396200  1
  Sr  Sr14  1  0.74870900  0.25400100  0.77396200  1
  Sr  Sr15  1  0.75129100  0.75400100  0.22603800  1
  Ga  Ga16  1  0.73266000  0.53348600  0.49375600  1
  Ga  Ga17  1  0.76734000  0.03348600  0.50624400  1
  Ga  Ga18  1  0.23266000  0.46651400  0.00624400  1
  Ga  Ga19  1  0.26734000  0.96651400  0.99375600  1
  Ga  Ga20  1  0.26734000  0.46651400  0.50624400  1
  Ga  Ga21  1  0.23266000  0.96651400  0.49375600  1
  Ga  Ga22  1  0.76734000  0.53348600  0.99375600  1
  Ga  Ga23  1  0.73266000  0.03348600  0.00624400  1
  Ga  Ga24  1  0.96130300  0.76649000  0.46907600  1
  Ga  Ga25  1  0.53869700  0.26649000  0.53092400  1
  Ga  Ga26  1  0.46130300  0.23351000  0.03092400  1
  Ga  Ga27  1  0.03869700  0.73351000  0.96907600  1
  Ga  Ga28  1  0.03869700  0.23351000  0.53092400  1
  Ga  Ga29  1  0.46130300  0.73351000  0.46907600  1
  Ga  Ga30  1  0.53869700  0.76649000  0.96907600  1
  Ga  Ga31  1  0.96130300  0.26649000  0.03092400  1
  O  O32  1  0.00906300  0.73732600  0.30604700  1
  O  O33  1  0.49093700  0.23732600  0.69395300  1
  O  O34  1  0.50906300  0.26267400  0.19395300  1
  O  O35  1  0.99093700  0.76267400  0.80604700  1
  O  O36  1  0.99093700  0.26267400  0.69395300  1
  O  O37  1  0.50906300  0.76267400  0.30604700  1
  O  O38  1  0.49093700  0.73732600  0.80604700  1
  O  O39  1  0.00906300  0.23732600  0.19395300  1
  O  O40  1  0.89218100  0.61922800  0.55879600  1
  O  O41  1  0.60781900  0.11922800  0.44120400  1
  O  O42  1  0.39218100  0.38077200  0.94120400  1
  O  O43  1  0.10781900  0.88077200  0.05879600  1
  O  O44  1  0.10781900  0.38077200  0.44120400  1
  O  O45  1  0.39218100  0.88077200  0.55879600  1
  O  O46  1  0.60781900  0.61922800  0.05879600  1
  O  O47  1  0.89218100  0.11922800  0.94120400  1
  O  O48  1  0.74358200  0.51320700  0.32366300  1
  O  O49  1  0.75641800  0.01320700  0.67633700  1
  O  O50  1  0.24358200  0.48679300  0.17633700  1
  O  O51  1  0.25641800  0.98679300  0.82366300  1
  O  O52  1  0.25641800  0.48679300  0.67633700  1
  O  O53  1  0.24358200  0.98679300  0.32366300  1
  O  O54  1  0.75641800  0.51320700  0.82366300  1
  O  O55  1  0.74358200  0.01320700  0.17633700  1
  O  O56  1  0.58873100  0.63809200  0.56260800  1
  O  O57  1  0.91126900  0.13809200  0.43739200  1
  O  O58  1  0.08873100  0.36190800  0.93739200  1
  O  O59  1  0.41126900  0.86190800  0.06260800  1
  O  O60  1  0.41126900  0.36190800  0.43739200  1
  O  O61  1  0.08873100  0.86190800  0.56260800  1
  O  O62  1  0.91126900  0.63809200  0.06260800  1
  O  O63  1  0.58873100  0.13809200  0.93739200  1
  O  O64  1  0.69879800  0.36940800  0.56491800  1
  O  O65  1  0.80120200  0.86940800  0.43508200  1
  O  O66  1  0.19879800  0.63059200  0.93508200  1
  O  O67  1  0.30120200  0.13059200  0.06491800  1
  O  O68  1  0.30120200  0.63059200  0.43508200  1
  O  O69  1  0.19879800  0.13059200  0.56491800  1
  O  O70  1  0.80120200  0.36940800  0.06491800  1
  O  O71  1  0.69879800  0.86940800  0.93508200  1
