# generated using pymatgen
data_Na3PO4
_symmetry_space_group_name_H-M   'P 1'
_cell_length_a   5.25151200
_cell_length_b   5.25151200
_cell_length_c   7.89210900
_cell_angle_alpha   90.00000000
_cell_angle_beta   90.00000000
_cell_angle_gamma   90.00000000
_symmetry_Int_Tables_number   1
_chemical_formula_structural   Na3PO4
_chemical_formula_sum   'Na6 P2 O8'
_cell_volume   217.65156748
_cell_formula_units_Z   2
loop_
 _symmetry_equiv_pos_site_id
 _symmetry_equiv_pos_as_xyz
  1  'x, y, z'
loop_
 _atom_site_type_symbol
 _atom_site_label
 _atom_site_symmetry_multiplicity
 _atom_site_fract_x
 _atom_site_fract_y
 _atom_site_fract_z
 _atom_site_occupancy
  Na  Na0  1  0.00000000  0.50000000  0.75000000  1
  Na  Na1  1  0.50000000  0.50000000  0.00000000  1
  Na  Na2  1  0.50000000  0.00000000  0.75000000  1
  Na  Na3  1  0.50000000  0.00000000  0.25000000  1
  Na  Na4  1  0.00000000  0.50000000  0.25000000  1
  Na  Na5  1  0.00000000  0.00000000  0.50000000  1
  P  P6  1  0.00000000  0.00000000  0.00000000  1
  P  P7  1  0.50000000  0.50000000  0.50000000  1
  O  O8  1  0.71685300  0.28314700  0.50000000  1
  O  O9  1  0.21685300  0.21685300  0.00000000  1
  O  O10  1  0.50000000  0.50000000  0.29180500  1
  O  O11  1  0.50000000  0.50000000  0.70819500  1
  O  O12  1  0.78314700  0.78314700  0.00000000  1
  O  O13  1  0.00000000  0.00000000  0.79180500  1
  O  O14  1  0.00000000  0.00000000  0.20819500  1
  O  O15  1  0.28314700  0.71685300  0.50000000  1
