# generated using pymatgen
data_Y(PO3)3
_symmetry_space_group_name_H-M   'P 1'
_cell_length_a   8.04316625
_cell_length_b   8.04316625
_cell_length_c   10.24883994
_cell_angle_alpha   57.03131082
_cell_angle_beta   57.03131082
_cell_angle_gamma   51.10244387
_symmetry_Int_Tables_number   1
_chemical_formula_structural   Y(PO3)3
_chemical_formula_sum   'Y2 P6 O18'
_cell_volume   411.57671991
_cell_formula_units_Z   2
loop_
 _symmetry_equiv_pos_site_id
 _symmetry_equiv_pos_as_xyz
  1  'x, y, z'
loop_
 _atom_site_type_symbol
 _atom_site_label
 _atom_site_symmetry_multiplicity
 _atom_site_fract_x
 _atom_site_fract_y
 _atom_site_fract_z
 _atom_site_occupancy
  Y  Y0  1  0.69455900  0.20518200  0.25009600  1
  Y  Y1  1  0.20518200  0.69455900  0.75009600  1
  P  P2  1  0.39849300  0.19080100  0.08734400  1
  P  P3  1  0.19080100  0.39849300  0.58734400  1
  P  P4  1  0.62438700  0.77994400  0.99149400  1
  P  P5  1  0.77994400  0.62438700  0.49149400  1
  P  P6  1  0.20352500  0.99684600  0.91491500  1
  P  P7  1  0.99684600  0.20352500  0.41491500  1
  O  O8  1  0.53043900  0.93503700  0.09161800  1
  O  O9  1  0.93503700  0.53043900  0.59161800  1
  O  O10  1  0.45788500  0.91748800  0.88745600  1
  O  O11  1  0.91748800  0.45788500  0.38745600  1
  O  O12  1  0.17156100  0.19955300  0.75153200  1
  O  O13  1  0.19955300  0.17156100  0.25153200  1
  O  O14  1  0.54193300  0.22895700  0.10757100  1
  O  O15  1  0.22895700  0.54193300  0.60757100  1
  O  O16  1  0.31031500  0.35066200  0.94402900  1
  O  O17  1  0.35066200  0.31031500  0.44402900  1
  O  O18  1  0.61127000  0.56809800  0.11383100  1
  O  O19  1  0.56809800  0.61127000  0.61383100  1
  O  O20  1  0.84827500  0.76166000  0.87086900  1
  O  O21  1  0.76166000  0.84827500  0.37086900  1
  O  O22  1  0.04355500  0.07988500  0.06087200  1
  O  O23  1  0.07988500  0.04355500  0.56087200  1
  O  O24  1  0.19605500  0.82143400  0.90587300  1
  O  O25  1  0.82143400  0.19605500  0.40587300  1
