# generated using pymatgen
data_NaDyO2
_symmetry_space_group_name_H-M   'P 1'
_cell_length_a   5.91288259
_cell_length_b   5.91288259
_cell_length_c   5.91288240
_cell_angle_alpha   33.73141916
_cell_angle_beta   33.73141916
_cell_angle_gamma   33.73142503
_symmetry_Int_Tables_number   1
_chemical_formula_structural   NaDyO2
_chemical_formula_sum   'Na1 Dy1 O2'
_cell_volume   56.79650287
_cell_formula_units_Z   1
loop_
 _symmetry_equiv_pos_site_id
 _symmetry_equiv_pos_as_xyz
  1  'x, y, z'
loop_
 _atom_site_type_symbol
 _atom_site_label
 _atom_site_symmetry_multiplicity
 _atom_site_fract_x
 _atom_site_fract_y
 _atom_site_fract_z
 _atom_site_occupancy
  Na  Na0  1  0.00000000  0.00000000  0.00000000  1
  Dy  Dy1  1  0.50000000  0.50000000  0.50000000  1
  O  O2  1  0.23718900  0.23718900  0.23718900  1
  O  O3  1  0.76281100  0.76281100  0.76281100  1
