# generated using pymatgen
data_YHfMg6
_symmetry_space_group_name_H-M   'P 1'
_cell_length_a   6.26092060
_cell_length_b   6.26092060
_cell_length_c   4.88992800
_cell_angle_alpha   90.00000000
_cell_angle_beta   90.00000000
_cell_angle_gamma   102.84904611
_symmetry_Int_Tables_number   1
_chemical_formula_structural   YHfMg6
_chemical_formula_sum   'Y1 Hf1 Mg6'
_cell_volume   186.88109244
_cell_formula_units_Z   1
loop_
 _symmetry_equiv_pos_site_id
 _symmetry_equiv_pos_as_xyz
  1  'x, y, z'
loop_
 _atom_site_type_symbol
 _atom_site_label
 _atom_site_symmetry_multiplicity
 _atom_site_fract_x
 _atom_site_fract_y
 _atom_site_fract_z
 _atom_site_occupancy
  Y  Y0  1  0.50000000  0.50000000  0.50000000  1
  Hf  Hf1  1  0.00000000  0.00000000  0.50000000  1
  Mg  Mg2  1  0.50000000  0.00000000  0.50000000  1
  Mg  Mg3  1  0.00000000  0.50000000  0.50000000  1
  Mg  Mg4  1  0.75989700  0.75989700  0.00000000  1
  Mg  Mg5  1  0.24010300  0.24010300  0.00000000  1
  Mg  Mg6  1  0.75515600  0.24484400  0.00000000  1
  Mg  Mg7  1  0.24484400  0.75515600  0.00000000  1
