# generated using pymatgen
data_Ba2NbFeO6
_symmetry_space_group_name_H-M   'P 1'
_cell_length_a   5.87902029
_cell_length_b   5.87902029
_cell_length_c   14.38339100
_cell_angle_alpha   90.00000000
_cell_angle_beta   90.00000000
_cell_angle_gamma   120.00000322
_symmetry_Int_Tables_number   1
_chemical_formula_structural   Ba2NbFeO6
_chemical_formula_sum   'Ba6 Nb3 Fe3 O18'
_cell_volume   430.52841638
_cell_formula_units_Z   3
loop_
 _symmetry_equiv_pos_site_id
 _symmetry_equiv_pos_as_xyz
  1  'x, y, z'
loop_
 _atom_site_type_symbol
 _atom_site_label
 _atom_site_symmetry_multiplicity
 _atom_site_fract_x
 _atom_site_fract_y
 _atom_site_fract_z
 _atom_site_occupancy
  Ba  Ba0  1  0.00000000  0.00000000  0.75037100  1
  Ba  Ba1  1  0.00000000  0.00000000  0.24962900  1
  Ba  Ba2  1  0.66666700  0.33333300  0.90464600  1
  Ba  Ba3  1  0.33333300  0.66666700  0.09535400  1
  Ba  Ba4  1  0.66666700  0.33333300  0.60176600  1
  Ba  Ba5  1  0.33333300  0.66666700  0.39823400  1
  Nb  Nb6  1  0.00000000  0.00000000  0.50000000  1
  Nb  Nb7  1  0.66666700  0.33333300  0.15561500  1
  Nb  Nb8  1  0.33333300  0.66666700  0.84438500  1
  Fe  Fe9  1  0.00000000  0.00000000  0.00000000  1
  Fe  Fe10  1  0.66666700  0.33333300  0.34932300  1
  Fe  Fe11  1  0.33333300  0.66666700  0.65067700  1
  O  O12  1  0.02885500  0.51442800  0.75141600  1
  O  O13  1  0.48557200  0.97114500  0.75141600  1
  O  O14  1  0.48557200  0.51442800  0.75141600  1
  O  O15  1  0.97114500  0.48557200  0.24858400  1
  O  O16  1  0.51442800  0.02885500  0.24858400  1
  O  O17  1  0.51442800  0.48557200  0.24858400  1
  O  O18  1  0.66648400  0.83324200  0.91845500  1
  O  O19  1  0.16675800  0.33351600  0.91845500  1
  O  O20  1  0.16675800  0.83324200  0.91845500  1
  O  O21  1  0.33351600  0.16675800  0.08154500  1
  O  O22  1  0.83324200  0.66648400  0.08154500  1
  O  O23  1  0.83324200  0.16675800  0.08154500  1
  O  O24  1  0.67380400  0.83690200  0.58072700  1
  O  O25  1  0.16309800  0.32619600  0.58072700  1
  O  O26  1  0.16309800  0.83690200  0.58072700  1
  O  O27  1  0.32619600  0.16309800  0.41927300  1
  O  O28  1  0.83690200  0.67380400  0.41927300  1
  O  O29  1  0.83690200  0.16309800  0.41927300  1
