# generated using pymatgen
data_Hf3(CuSi)4
_symmetry_space_group_name_H-M   'P 1'
_cell_length_a   7.50748783
_cell_length_b   7.50748783
_cell_length_c   7.50748783
_cell_angle_alpha   149.74038498
_cell_angle_beta   129.76780433
_cell_angle_gamma   59.77288950
_symmetry_Int_Tables_number   1
_chemical_formula_structural   Hf3(CuSi)4
_chemical_formula_sum   'Hf3 Cu4 Si4'
_cell_volume   162.57454345
_cell_formula_units_Z   1
loop_
 _symmetry_equiv_pos_site_id
 _symmetry_equiv_pos_as_xyz
  1  'x, y, z'
loop_
 _atom_site_type_symbol
 _atom_site_label
 _atom_site_symmetry_multiplicity
 _atom_site_fract_x
 _atom_site_fract_y
 _atom_site_fract_z
 _atom_site_occupancy
  Hf  Hf0  1  0.87661700  0.87661700  0.00000000  1
  Hf  Hf1  1  0.12338300  0.12338300  0.00000000  1
  Hf  Hf2  1  0.50000000  0.00000000  0.50000000  1
  Cu  Cu3  1  0.52329700  0.32977400  0.19352300  1
  Cu  Cu4  1  0.86374900  0.67022600  0.19352300  1
  Cu  Cu5  1  0.13625100  0.32977400  0.80647700  1
  Cu  Cu6  1  0.47670300  0.67022600  0.80647700  1
  Si  Si7  1  0.80822500  0.50000000  0.30822500  1
  Si  Si8  1  0.19177500  0.50000000  0.69177500  1
  Si  Si9  1  0.28419800  0.78419800  0.50000000  1
  Si  Si10  1  0.71580200  0.21580200  0.50000000  1
