# generated using pymatgen
data_Na2Zn3S4
_symmetry_space_group_name_H-M   'P 1'
_cell_length_a   6.85549500
_cell_length_b   7.76559000
_cell_length_c   14.13141600
_cell_angle_alpha   90.00000000
_cell_angle_beta   90.00000000
_cell_angle_gamma   90.00000000
_symmetry_Int_Tables_number   1
_chemical_formula_structural   Na2Zn3S4
_chemical_formula_sum   'Na8 Zn12 S16'
_cell_volume   752.31367662
_cell_formula_units_Z   4
loop_
 _symmetry_equiv_pos_site_id
 _symmetry_equiv_pos_as_xyz
  1  'x, y, z'
loop_
 _atom_site_type_symbol
 _atom_site_label
 _atom_site_symmetry_multiplicity
 _atom_site_fract_x
 _atom_site_fract_y
 _atom_site_fract_z
 _atom_site_occupancy
  Na  Na0  1  0.03728900  0.61525700  0.10101400  1
  Na  Na1  1  0.53728900  0.38474300  0.39898600  1
  Na  Na2  1  0.96271100  0.88474300  0.60101400  1
  Na  Na3  1  0.46271100  0.11525700  0.89898600  1
  Na  Na4  1  0.96271100  0.38474300  0.89898600  1
  Na  Na5  1  0.46271100  0.61525700  0.60101400  1
  Na  Na6  1  0.03728900  0.11525700  0.39898600  1
  Na  Na7  1  0.53728900  0.88474300  0.10101400  1
  Zn  Zn8  1  0.21543500  0.84216400  0.79804200  1
  Zn  Zn9  1  0.71543500  0.15783600  0.70195800  1
  Zn  Zn10  1  0.78456500  0.65783600  0.29804200  1
  Zn  Zn11  1  0.28456500  0.34216400  0.20195800  1
  Zn  Zn12  1  0.78456500  0.15783600  0.20195800  1
  Zn  Zn13  1  0.28456500  0.84216400  0.29804200  1
  Zn  Zn14  1  0.21543500  0.34216400  0.70195800  1
  Zn  Zn15  1  0.71543500  0.65783600  0.79804200  1
  Zn  Zn16  1  0.00000000  0.00000000  0.00000000  1
  Zn  Zn17  1  0.50000000  0.00000000  0.50000000  1
  Zn  Zn18  1  0.00000000  0.50000000  0.50000000  1
  Zn  Zn19  1  0.50000000  0.50000000  0.00000000  1
  S  S20  1  0.74608500  0.66590700  0.96460300  1
  S  S21  1  0.24608500  0.33409300  0.53539700  1
  S  S22  1  0.25391500  0.83409300  0.46460300  1
  S  S23  1  0.75391500  0.16590700  0.03539700  1
  S  S24  1  0.25391500  0.33409300  0.03539700  1
  S  S25  1  0.75391500  0.66590700  0.46460300  1
  S  S26  1  0.74608500  0.16590700  0.53539700  1
  S  S27  1  0.24608500  0.83409300  0.96460300  1
  S  S28  1  0.96404700  0.88396400  0.23114400  1
  S  S29  1  0.46404700  0.11603600  0.26885600  1
  S  S30  1  0.03595300  0.61603600  0.73114400  1
  S  S31  1  0.53595300  0.38396400  0.76885600  1
  S  S32  1  0.03595300  0.11603600  0.76885600  1
  S  S33  1  0.53595300  0.88396400  0.73114400  1
  S  S34  1  0.96404700  0.38396400  0.26885600  1
  S  S35  1  0.46404700  0.61603600  0.23114400  1
