# generated using pymatgen
data_NaCoPCO7
_symmetry_space_group_name_H-M   'P 1'
_cell_length_a   6.35348800
_cell_length_b   5.17793600
_cell_length_c   8.98693429
_cell_angle_alpha   87.54353768
_cell_angle_beta   90.00000000
_cell_angle_gamma   90.00000000
_symmetry_Int_Tables_number   1
_chemical_formula_structural   NaCoPCO7
_chemical_formula_sum   'Na2 Co2 P2 C2 O14'
_cell_volume   295.38007219
_cell_formula_units_Z   2
loop_
 _symmetry_equiv_pos_site_id
 _symmetry_equiv_pos_as_xyz
  1  'x, y, z'
loop_
 _atom_site_type_symbol
 _atom_site_label
 _atom_site_symmetry_multiplicity
 _atom_site_fract_x
 _atom_site_fract_y
 _atom_site_fract_z
 _atom_site_occupancy
  Na  Na0  1  0.46047500  0.24234600  0.25138400  1
  Na  Na1  1  0.96047500  0.75765400  0.74861600  1
  Co  Co2  1  0.76927800  0.78618000  0.34208400  1
  Co  Co3  1  0.26927800  0.21382000  0.65791600  1
  P  P4  1  0.25826200  0.71931000  0.43003800  1
  P  P5  1  0.75826200  0.28069000  0.56996200  1
  C  C6  1  0.74159800  0.71336300  0.07538700  1
  C  C7  1  0.24159800  0.28663700  0.92461300  1
  O  O8  1  0.23504500  0.32747700  0.05986700  1
  O  O9  1  0.74972300  0.94245100  0.12976300  1
  O  O10  1  0.74236300  0.52892000  0.17941800  1
  O  O11  1  0.06156000  0.77944500  0.33052300  1
  O  O12  1  0.44937200  0.79298700  0.33159700  1
  O  O13  1  0.74551800  0.13077400  0.42613900  1
  O  O14  1  0.26482100  0.42299900  0.46977300  1
  O  O15  1  0.76482100  0.57700100  0.53022700  1
  O  O16  1  0.24551800  0.86922600  0.57386100  1
  O  O17  1  0.94937200  0.20701300  0.66840300  1
  O  O18  1  0.56156000  0.22055500  0.66947700  1
  O  O19  1  0.24236300  0.47108000  0.82058200  1
  O  O20  1  0.24972300  0.05754900  0.87023700  1
  O  O21  1  0.73504500  0.67252300  0.94013300  1
