# generated using pymatgen
data_NaCr2O4
_symmetry_space_group_name_H-M   'P 1'
_cell_length_a   5.09421400
_cell_length_b   5.94818100
_cell_length_c   11.38752100
_cell_angle_alpha   90.00000000
_cell_angle_beta   90.00000000
_cell_angle_gamma   90.00000000
_symmetry_Int_Tables_number   1
_chemical_formula_structural   NaCr2O4
_chemical_formula_sum   'Na4 Cr8 O16'
_cell_volume   345.05676893
_cell_formula_units_Z   4
loop_
 _symmetry_equiv_pos_site_id
 _symmetry_equiv_pos_as_xyz
  1  'x, y, z'
loop_
 _atom_site_type_symbol
 _atom_site_label
 _atom_site_symmetry_multiplicity
 _atom_site_fract_x
 _atom_site_fract_y
 _atom_site_fract_z
 _atom_site_occupancy
  Na  Na0  1  0.02976600  0.50000000  0.00000000  1
  Na  Na1  1  0.35563500  0.50000000  0.50000000  1
  Na  Na2  1  0.64436500  0.00000000  0.00000000  1
  Na  Na3  1  0.97023400  0.00000000  0.50000000  1
  Cr  Cr4  1  0.00319600  0.00000000  0.75610300  1
  Cr  Cr5  1  0.99680400  0.50000000  0.74389700  1
  Cr  Cr6  1  0.00319600  0.00000000  0.24389700  1
  Cr  Cr7  1  0.99680400  0.50000000  0.25610300  1
  Cr  Cr8  1  0.50000000  0.25000000  0.75000000  1
  Cr  Cr9  1  0.50000000  0.75000000  0.75000000  1
  Cr  Cr10  1  0.50000000  0.75000000  0.25000000  1
  Cr  Cr11  1  0.50000000  0.25000000  0.25000000  1
  O  O12  1  0.15940600  0.75205100  0.34162900  1
  O  O13  1  0.15940600  0.75205100  0.65837100  1
  O  O14  1  0.15940600  0.24794900  0.34162900  1
  O  O15  1  0.15940600  0.24794900  0.65837100  1
  O  O16  1  0.32813900  0.00000000  0.83963500  1
  O  O17  1  0.32813900  0.00000000  0.16036500  1
  O  O18  1  0.31579000  0.50000000  0.83364500  1
  O  O19  1  0.31579000  0.50000000  0.16635500  1
  O  O20  1  0.68421000  0.00000000  0.33364500  1
  O  O21  1  0.68421000  0.00000000  0.66635500  1
  O  O22  1  0.67186100  0.50000000  0.33963500  1
  O  O23  1  0.67186100  0.50000000  0.66036500  1
  O  O24  1  0.84059400  0.74794900  0.15837100  1
  O  O25  1  0.84059400  0.25205100  0.15837100  1
  O  O26  1  0.84059400  0.74794900  0.84162900  1
  O  O27  1  0.84059400  0.25205100  0.84162900  1
