# generated using pymatgen
data_MgAlF5
_symmetry_space_group_name_H-M   'P 1'
_cell_length_a   5.99852225
_cell_length_b   5.99852225
_cell_length_c   5.99852225
_cell_angle_alpha   147.69983836
_cell_angle_beta   97.51840839
_cell_angle_gamma   91.36921013
_symmetry_Int_Tables_number   1
_chemical_formula_structural   MgAlF5
_chemical_formula_sum   'Mg1 Al1 F5'
_cell_volume   110.59757999
_cell_formula_units_Z   1
loop_
 _symmetry_equiv_pos_site_id
 _symmetry_equiv_pos_as_xyz
  1  'x, y, z'
loop_
 _atom_site_type_symbol
 _atom_site_label
 _atom_site_symmetry_multiplicity
 _atom_site_fract_x
 _atom_site_fract_y
 _atom_site_fract_z
 _atom_site_occupancy
  Mg  Mg0  1  0.50000000  0.50000000  0.00000000  1
  Al  Al1  1  0.00000000  0.50000000  0.50000000  1
  F  F2  1  0.34340100  0.00000000  0.34340100  1
  F  F3  1  0.65659900  0.00000000  0.65659900  1
  F  F4  1  0.20330300  0.70330300  0.50000000  1
  F  F5  1  0.79669700  0.29669700  0.50000000  1
  F  F6  1  0.00000000  0.00000000  0.00000000  1
