# generated using pymatgen
data_Sm2AlNO3
_symmetry_space_group_name_H-M   'P 1'
_cell_length_a   6.74276996
_cell_length_b   6.74276996
_cell_length_c   6.74276996
_cell_angle_alpha   148.19021007
_cell_angle_beta   148.19021007
_cell_angle_gamma   45.60465563
_symmetry_Int_Tables_number   1
_chemical_formula_structural   Sm2AlNO3
_chemical_formula_sum   'Sm2 Al1 N1 O3'
_cell_volume   84.89192041
_cell_formula_units_Z   1
loop_
 _symmetry_equiv_pos_site_id
 _symmetry_equiv_pos_as_xyz
  1  'x, y, z'
loop_
 _atom_site_type_symbol
 _atom_site_label
 _atom_site_symmetry_multiplicity
 _atom_site_fract_x
 _atom_site_fract_y
 _atom_site_fract_z
 _atom_site_occupancy
  Sm  Sm0  1  0.51849800  0.51849800  0.00000000  1
  Sm  Sm1  1  0.80815200  0.80815200  0.00000000  1
  Al  Al2  1  0.15694700  0.15694700  0.00000000  1
  N  N3  1  0.99563100  0.99563100  0.00000000  1
  O  O4  1  0.67084200  0.17084200  0.50000000  1
  O  O5  1  0.17084200  0.67084200  0.50000000  1
  O  O6  1  0.33178900  0.33178900  0.00000000  1
