# generated using pymatgen
data_Ti2CoS4
_symmetry_space_group_name_H-M   'P 1'
_cell_length_a   6.49607526
_cell_length_b   6.49607526
_cell_length_c   5.82416109
_cell_angle_alpha   63.73925130
_cell_angle_beta   63.73925130
_cell_angle_gamma   30.18481906
_symmetry_Int_Tables_number   1
_chemical_formula_structural   Ti2CoS4
_chemical_formula_sum   'Ti2 Co1 S4'
_cell_volume   109.83351821
_cell_formula_units_Z   1
loop_
 _symmetry_equiv_pos_site_id
 _symmetry_equiv_pos_as_xyz
  1  'x, y, z'
loop_
 _atom_site_type_symbol
 _atom_site_label
 _atom_site_symmetry_multiplicity
 _atom_site_fract_x
 _atom_site_fract_y
 _atom_site_fract_z
 _atom_site_occupancy
  Ti  Ti0  1  0.74362500  0.74362500  0.26486300  1
  Ti  Ti1  1  0.25637500  0.25637500  0.73513700  1
  Co  Co2  1  0.00000000  0.00000000  0.00000000  1
  S  S3  1  0.88538200  0.88538200  0.44365700  1
  S  S4  1  0.11461800  0.11461800  0.55634300  1
  S  S5  1  0.62017800  0.62017800  0.04032200  1
  S  S6  1  0.37982200  0.37982200  0.95967800  1
