# generated using pymatgen
data_Nd2PdO4
_symmetry_space_group_name_H-M   'P 1'
_cell_length_a   7.03144254
_cell_length_b   7.03144254
_cell_length_c   7.03144254
_cell_angle_alpha   147.13647134
_cell_angle_beta   147.13647134
_cell_angle_gamma   47.16175653
_symmetry_Int_Tables_number   1
_chemical_formula_structural   Nd2PdO4
_chemical_formula_sum   'Nd2 Pd1 O4'
_cell_volume   101.97829761
_cell_formula_units_Z   1
loop_
 _symmetry_equiv_pos_site_id
 _symmetry_equiv_pos_as_xyz
  1  'x, y, z'
loop_
 _atom_site_type_symbol
 _atom_site_label
 _atom_site_symmetry_multiplicity
 _atom_site_fract_x
 _atom_site_fract_y
 _atom_site_fract_z
 _atom_site_occupancy
  Nd  Nd0  1  0.36280400  0.36280400  0.00000000  1
  Nd  Nd1  1  0.63719600  0.63719600  0.00000000  1
  Pd  Pd2  1  0.00000000  0.00000000  0.00000000  1
  O  O3  1  0.19135200  0.19135200  0.00000000  1
  O  O4  1  0.80864800  0.80864800  0.00000000  1
  O  O5  1  0.50000000  0.00000000  0.50000000  1
  O  O6  1  0.00000000  0.50000000  0.50000000  1
