# generated using pymatgen
data_YbCl3
_symmetry_space_group_name_H-M   'P 1'
_cell_length_a   7.86583109
_cell_length_b   7.86583109
_cell_length_c   5.76515151
_cell_angle_alpha   75.98833456
_cell_angle_beta   75.98833456
_cell_angle_gamma   129.57541292
_symmetry_Int_Tables_number   1
_chemical_formula_structural   YbCl3
_chemical_formula_sum   'Yb2 Cl6'
_cell_volume   226.20729428
_cell_formula_units_Z   2
loop_
 _symmetry_equiv_pos_site_id
 _symmetry_equiv_pos_as_xyz
  1  'x, y, z'
loop_
 _atom_site_type_symbol
 _atom_site_label
 _atom_site_symmetry_multiplicity
 _atom_site_fract_x
 _atom_site_fract_y
 _atom_site_fract_z
 _atom_site_occupancy
  Yb  Yb0  1  0.84056000  0.15944000  0.00000000  1
  Yb  Yb1  1  0.15944000  0.84056000  0.00000000  1
  Cl  Cl2  1  0.42403500  0.07197500  0.25138800  1
  Cl  Cl3  1  0.57596500  0.92802500  0.74861200  1
  Cl  Cl4  1  0.92802500  0.57596500  0.74861200  1
  Cl  Cl5  1  0.07197500  0.42403500  0.25138800  1
  Cl  Cl6  1  0.74540800  0.74540800  0.25869300  1
  Cl  Cl7  1  0.25459200  0.25459200  0.74130700  1
