# generated using pymatgen
data_NdZrO3
_symmetry_space_group_name_H-M   'P 1'
_cell_length_a   6.15001300
_cell_length_b   8.22635700
_cell_length_c   11.31666600
_cell_angle_alpha   90.00000000
_cell_angle_beta   90.00000000
_cell_angle_gamma   90.00000000
_symmetry_Int_Tables_number   1
_chemical_formula_structural   NdZrO3
_chemical_formula_sum   'Nd8 Zr8 O24'
_cell_volume   572.53505781
_cell_formula_units_Z   8
loop_
 _symmetry_equiv_pos_site_id
 _symmetry_equiv_pos_as_xyz
  1  'x, y, z'
loop_
 _atom_site_type_symbol
 _atom_site_label
 _atom_site_symmetry_multiplicity
 _atom_site_fract_x
 _atom_site_fract_y
 _atom_site_fract_z
 _atom_site_occupancy
  Nd  Nd0  1  0.26013600  0.50000000  0.35691600  1
  Nd  Nd1  1  0.24165700  0.00000000  0.39268900  1
  Nd  Nd2  1  0.25834300  0.00000000  0.89268900  1
  Nd  Nd3  1  0.23986400  0.50000000  0.85691600  1
  Nd  Nd4  1  0.74165700  0.00000000  0.10731100  1
  Nd  Nd5  1  0.76013600  0.50000000  0.14308400  1
  Nd  Nd6  1  0.75834300  0.00000000  0.60731100  1
  Nd  Nd7  1  0.73986400  0.50000000  0.64308400  1
  Zr  Zr8  1  0.25062300  0.24960900  0.12487400  1
  Zr  Zr9  1  0.25062300  0.75039100  0.12487400  1
  Zr  Zr10  1  0.24937700  0.24960900  0.62487400  1
  Zr  Zr11  1  0.24937700  0.75039100  0.62487400  1
  Zr  Zr12  1  0.75062300  0.75039100  0.37512600  1
  Zr  Zr13  1  0.75062300  0.24960900  0.37512600  1
  Zr  Zr14  1  0.74937700  0.24960900  0.87512600  1
  Zr  Zr15  1  0.74937700  0.75039100  0.87512600  1
  O  O16  1  0.00000000  0.17717000  0.00000000  1
  O  O17  1  0.00000000  0.82283000  0.00000000  1
  O  O18  1  0.00000000  0.18596100  0.50000000  1
  O  O19  1  0.00000000  0.81403900  0.50000000  1
  O  O20  1  0.00491800  0.31905200  0.25373700  1
  O  O21  1  0.00491800  0.68094800  0.25373700  1
  O  O22  1  0.25943500  0.50000000  0.56485800  1
  O  O23  1  0.22633700  0.00000000  0.68546000  1
  O  O24  1  0.27366300  0.00000000  0.18546000  1
  O  O25  1  0.24056500  0.50000000  0.06485800  1
  O  O26  1  0.49508200  0.31905200  0.75373700  1
  O  O27  1  0.49508200  0.68094800  0.75373700  1
  O  O28  1  0.50000000  0.18596100  0.00000000  1
  O  O29  1  0.50000000  0.81403900  0.00000000  1
  O  O30  1  0.50000000  0.82283000  0.50000000  1
  O  O31  1  0.50000000  0.17717000  0.50000000  1
  O  O32  1  0.50491800  0.31905200  0.24626300  1
  O  O33  1  0.50491800  0.68094800  0.24626300  1
  O  O34  1  0.75943500  0.50000000  0.93514200  1
  O  O35  1  0.72633700  0.00000000  0.81454000  1
  O  O36  1  0.77366300  0.00000000  0.31454000  1
  O  O37  1  0.74056500  0.50000000  0.43514200  1
  O  O38  1  0.99508200  0.31905200  0.74626300  1
  O  O39  1  0.99508200  0.68094800  0.74626300  1
