# generated using pymatgen
data_LaAu
_symmetry_space_group_name_H-M   'P 1'
_cell_length_a   4.89584700
_cell_length_b   6.02726800
_cell_length_c   7.59244600
_cell_angle_alpha   90.00000000
_cell_angle_beta   90.00000000
_cell_angle_gamma   90.00000000
_symmetry_Int_Tables_number   1
_chemical_formula_structural   LaAu
_chemical_formula_sum   'La4 Au4'
_cell_volume   224.04231504
_cell_formula_units_Z   4
loop_
 _symmetry_equiv_pos_site_id
 _symmetry_equiv_pos_as_xyz
  1  'x, y, z'
loop_
 _atom_site_type_symbol
 _atom_site_label
 _atom_site_symmetry_multiplicity
 _atom_site_fract_x
 _atom_site_fract_y
 _atom_site_fract_z
 _atom_site_occupancy
  La  La0  1  0.25000000  0.64564700  0.18447900  1
  La  La1  1  0.75000000  0.35435300  0.81552100  1
  La  La2  1  0.75000000  0.14564700  0.31552100  1
  La  La3  1  0.25000000  0.85435300  0.68447900  1
  Au  Au4  1  0.25000000  0.15158600  0.04097300  1
  Au  Au5  1  0.75000000  0.84841400  0.95902700  1
  Au  Au6  1  0.75000000  0.65158600  0.45902700  1
  Au  Au7  1  0.25000000  0.34841400  0.54097300  1
