# generated using pymatgen
data_TaIn3O7
_symmetry_space_group_name_H-M   'P 1'
_cell_length_a   6.29263300
_cell_length_b   6.31356398
_cell_length_c   7.49221906
_cell_angle_alpha   106.85681730
_cell_angle_beta   89.77262012
_cell_angle_gamma   98.12891264
_symmetry_Int_Tables_number   1
_chemical_formula_structural   TaIn3O7
_chemical_formula_sum   'Ta2 In6 O14'
_cell_volume   281.79050595
_cell_formula_units_Z   2
loop_
 _symmetry_equiv_pos_site_id
 _symmetry_equiv_pos_as_xyz
  1  'x, y, z'
loop_
 _atom_site_type_symbol
 _atom_site_label
 _atom_site_symmetry_multiplicity
 _atom_site_fract_x
 _atom_site_fract_y
 _atom_site_fract_z
 _atom_site_occupancy
  Ta  Ta0  1  0.00000000  0.00000000  0.00000000  1
  Ta  Ta1  1  0.00000000  0.00000000  0.50000000  1
  In  In2  1  0.73383500  0.46837800  0.11680100  1
  In  In3  1  0.73754800  0.45710600  0.61260000  1
  In  In4  1  0.52951000  0.99337400  0.75307700  1
  In  In5  1  0.47049000  0.00662600  0.24692300  1
  In  In6  1  0.26245200  0.54289400  0.38740000  1
  In  In7  1  0.26616500  0.53162200  0.88319900  1
  O  O8  1  0.70680400  0.05803800  0.47886900  1
  O  O9  1  0.90490000  0.67188900  0.95469900  1
  O  O10  1  0.70833000  0.08302700  0.05076100  1
  O  O11  1  0.93261400  0.64518800  0.38754500  1
  O  O12  1  0.91908000  0.95318800  0.73707300  1
  O  O13  1  0.55591000  0.34060600  0.83399900  1
  O  O14  1  0.52645200  0.35571300  0.33827700  1
  O  O15  1  0.47354800  0.64428700  0.66172300  1
  O  O16  1  0.44409000  0.65939400  0.16600100  1
  O  O17  1  0.08092000  0.04681200  0.26292700  1
  O  O18  1  0.06738600  0.35481200  0.61245500  1
  O  O19  1  0.29167000  0.91697300  0.94923900  1
  O  O20  1  0.09510000  0.32811100  0.04530100  1
  O  O21  1  0.29319600  0.94196200  0.52113100  1
