# generated using pymatgen
data_V4Ni2O9
_symmetry_space_group_name_H-M   'P 1'
_cell_length_a   5.49007480
_cell_length_b   5.49007480
_cell_length_c   12.60625354
_cell_angle_alpha   86.22471524
_cell_angle_beta   86.22471524
_cell_angle_gamma   55.21121406
_symmetry_Int_Tables_number   1
_chemical_formula_structural   V4Ni2O9
_chemical_formula_sum   'V8 Ni4 O18'
_cell_volume   311.18707722
_cell_formula_units_Z   2
loop_
 _symmetry_equiv_pos_site_id
 _symmetry_equiv_pos_as_xyz
  1  'x, y, z'
loop_
 _atom_site_type_symbol
 _atom_site_label
 _atom_site_symmetry_multiplicity
 _atom_site_fract_x
 _atom_site_fract_y
 _atom_site_fract_z
 _atom_site_occupancy
  V  V0  1  0.13189100  0.13515500  0.78443700  1
  V  V1  1  0.47273400  0.46399600  0.61066700  1
  V  V2  1  0.13515500  0.13189100  0.28443700  1
  V  V3  1  0.46399600  0.47273400  0.11066700  1
  V  V4  1  0.79573800  0.79975600  0.94939400  1
  V  V5  1  0.86389500  0.86715000  0.71541400  1
  V  V6  1  0.79975600  0.79573800  0.44939400  1
  V  V7  1  0.86715000  0.86389500  0.21541400  1
  Ni  Ni8  1  0.20070500  0.19348000  0.54931300  1
  Ni  Ni9  1  0.19348000  0.20070500  0.04931300  1
  Ni  Ni10  1  0.53084800  0.52670200  0.88123300  1
  Ni  Ni11  1  0.52670200  0.53084800  0.38123300  1
  O  O12  1  0.81921200  0.08909000  0.34959200  1
  O  O13  1  0.64482000  0.03228000  0.58260100  1
  O  O14  1  0.69628200  0.30858500  0.74307700  1
  O  O15  1  0.54784400  0.21785000  0.98764600  1
  O  O16  1  0.41937000  0.14017500  0.19328700  1
  O  O17  1  0.14017500  0.41937000  0.69328700  1
  O  O18  1  0.21785000  0.54784400  0.48764600  1
  O  O19  1  0.88074800  0.21462700  0.15085000  1
  O  O20  1  0.97741000  0.36451500  0.90955700  1
  O  O21  1  0.30858500  0.69628200  0.24307700  1
  O  O22  1  0.03228000  0.64482000  0.08260100  1
  O  O23  1  0.08909000  0.81921200  0.84959200  1
  O  O24  1  0.75150900  0.47177900  0.52757500  1
  O  O25  1  0.89145600  0.55039500  0.31536000  1
  O  O26  1  0.55039500  0.89145600  0.81536000  1
  O  O27  1  0.47177900  0.75150900  0.02757500  1
  O  O28  1  0.36451500  0.97741000  0.40955700  1
  O  O29  1  0.21462700  0.88074800  0.65085000  1
