# generated using pymatgen
data_LuTe3
_symmetry_space_group_name_H-M   'P 1'
_cell_length_a   14.06065446
_cell_length_b   14.06065446
_cell_length_c   4.64628300
_cell_angle_alpha   90.00000000
_cell_angle_beta   90.00000000
_cell_angle_gamma   163.98038695
_symmetry_Int_Tables_number   1
_chemical_formula_structural   LuTe3
_chemical_formula_sum   'Lu2 Te6'
_cell_volume   253.49705843
_cell_formula_units_Z   2
loop_
 _symmetry_equiv_pos_site_id
 _symmetry_equiv_pos_as_xyz
  1  'x, y, z'
loop_
 _atom_site_type_symbol
 _atom_site_label
 _atom_site_symmetry_multiplicity
 _atom_site_fract_x
 _atom_site_fract_y
 _atom_site_fract_z
 _atom_site_occupancy
  Lu  Lu0  1  0.95061600  0.04938400  0.25000000  1
  Lu  Lu1  1  0.04938400  0.95061600  0.75000000  1
  Te  Te2  1  0.83798300  0.16201700  0.25000000  1
  Te  Te3  1  0.16201700  0.83798300  0.75000000  1
  Te  Te4  1  0.68504500  0.31495500  0.25000000  1
  Te  Te5  1  0.31495500  0.68504500  0.75000000  1
  Te  Te6  1  0.55059800  0.44940200  0.25000000  1
  Te  Te7  1  0.44940200  0.55059800  0.75000000  1
