# generated using pymatgen
data_Te4Mo(WSe)2
_symmetry_space_group_name_H-M   'P 1'
_cell_length_a   3.47679989
_cell_length_b   3.47679989
_cell_length_c   32.10030300
_cell_angle_alpha   90.00000000
_cell_angle_beta   90.00000000
_cell_angle_gamma   119.99999796
_symmetry_Int_Tables_number   1
_chemical_formula_structural   Te4Mo(WSe)2
_chemical_formula_sum   'Te4 Mo1 W2 Se2'
_cell_volume   336.04633526
_cell_formula_units_Z   1
loop_
 _symmetry_equiv_pos_site_id
 _symmetry_equiv_pos_as_xyz
  1  'x, y, z'
loop_
 _atom_site_type_symbol
 _atom_site_label
 _atom_site_symmetry_multiplicity
 _atom_site_fract_x
 _atom_site_fract_y
 _atom_site_fract_z
 _atom_site_occupancy
  Te  Te0  1  0.33333300  0.66666700  0.40428600  1
  Te  Te1  1  0.66666700  0.33333300  0.52065600  1
  Te  Te2  1  0.66666700  0.33333300  0.63598100  1
  Te  Te3  1  0.33333300  0.66666700  0.28960500  1
  Mo  Mo4  1  0.66666700  0.33333300  0.34699600  1
  W  W5  1  0.33333300  0.66666700  0.11565900  1
  W  W6  1  0.33333300  0.66666700  0.57837200  1
  Se  Se7  1  0.66666700  0.33333300  0.06487200  1
  Se  Se8  1  0.66666700  0.33333300  0.16641300  1
