# generated using pymatgen
data_Te2Mo
_symmetry_space_group_name_H-M   'P 1'
_cell_length_a   3.55871064
_cell_length_b   3.55871064
_cell_length_c   33.01996800
_cell_angle_alpha   90.00000000
_cell_angle_beta   90.00000000
_cell_angle_gamma   120.00001184
_symmetry_Int_Tables_number   1
_chemical_formula_structural   Te2Mo
_chemical_formula_sum   'Te6 Mo3'
_cell_volume   362.15341161
_cell_formula_units_Z   3
loop_
 _symmetry_equiv_pos_site_id
 _symmetry_equiv_pos_as_xyz
  1  'x, y, z'
loop_
 _atom_site_type_symbol
 _atom_site_label
 _atom_site_symmetry_multiplicity
 _atom_site_fract_x
 _atom_site_fract_y
 _atom_site_fract_z
 _atom_site_occupancy
  Te  Te0  1  0.00000000  0.00000000  0.94519500  1
  Te  Te1  1  0.33333300  0.66666700  0.71281100  1
  Te  Te2  1  0.33333300  0.66666700  0.17757900  1
  Te  Te3  1  0.33333300  0.66666700  0.82242100  1
  Te  Te4  1  0.33333300  0.66666700  0.28718900  1
  Te  Te5  1  0.00000000  0.00000000  0.05480500  1
  Mo  Mo6  1  0.00000000  0.00000000  0.76761600  1
  Mo  Mo7  1  0.00000000  0.00000000  0.23238400  1
  Mo  Mo8  1  0.33333300  0.66666700  0.00000000  1
