# generated using pymatgen
data_MoW2(SeS2)2
_symmetry_space_group_name_H-M   'P 1'
_cell_length_a   3.23416161
_cell_length_b   3.23416161
_cell_length_c   29.65297000
_cell_angle_alpha   90.00000000
_cell_angle_beta   90.00000000
_cell_angle_gamma   119.99999199
_symmetry_Int_Tables_number   1
_chemical_formula_structural   MoW2(SeS2)2
_chemical_formula_sum   'Mo1 W2 Se2 S4'
_cell_volume   268.61007610
_cell_formula_units_Z   1
loop_
 _symmetry_equiv_pos_site_id
 _symmetry_equiv_pos_as_xyz
  1  'x, y, z'
loop_
 _atom_site_type_symbol
 _atom_site_label
 _atom_site_symmetry_multiplicity
 _atom_site_fract_x
 _atom_site_fract_y
 _atom_site_fract_z
 _atom_site_occupancy
  Mo  Mo0  1  0.66666700  0.33333300  0.34697600  1
  W  W1  1  0.33333300  0.66666700  0.11564100  1
  W  W2  1  0.33333300  0.66666700  0.57834200  1
  Se  Se3  1  0.66666700  0.33333300  0.52046600  1
  Se  Se4  1  0.66666700  0.33333300  0.63618200  1
  S  S5  1  0.33333300  0.66666700  0.39923200  1
  S  S6  1  0.66666700  0.33333300  0.06315600  1
  S  S7  1  0.66666700  0.33333300  0.16813800  1
  S  S8  1  0.33333300  0.66666700  0.29470700  1
