# generated using pymatgen
data_Te2Mo2WS4
_symmetry_space_group_name_H-M   'P 1'
_cell_length_a   3.30001987
_cell_length_b   3.30001987
_cell_length_c   30.26710600
_cell_angle_alpha   90.00000000
_cell_angle_beta   90.00000000
_cell_angle_gamma   119.99999734
_symmetry_Int_Tables_number   1
_chemical_formula_structural   Te2Mo2WS4
_chemical_formula_sum   'Te2 Mo2 W1 S4'
_cell_volume   285.45302527
_cell_formula_units_Z   1
loop_
 _symmetry_equiv_pos_site_id
 _symmetry_equiv_pos_as_xyz
  1  'x, y, z'
loop_
 _atom_site_type_symbol
 _atom_site_label
 _atom_site_symmetry_multiplicity
 _atom_site_fract_x
 _atom_site_fract_y
 _atom_site_fract_z
 _atom_site_occupancy
  Te  Te0  1  0.33333300  0.66666700  0.05235200  1
  Te  Te1  1  0.33333300  0.66666700  0.17887500  1
  Mo  Mo2  1  0.00000000  0.00000000  0.11559100  1
  Mo  Mo3  1  0.33333300  0.66666700  0.34704900  1
  W  W4  1  0.00000000  0.00000000  0.57831200  1
  S  S5  1  0.00000000  0.00000000  0.39755300  1
  S  S6  1  0.33333300  0.66666700  0.52757500  1
  S  S7  1  0.33333300  0.66666700  0.62903700  1
  S  S8  1  0.00000000  0.00000000  0.29649600  1
