# generated using pymatgen
data_Te2Mo3(SeS)2
_symmetry_space_group_name_H-M   'P 1'
_cell_length_a   3.34935344
_cell_length_b   3.34935344
_cell_length_c   30.95988300
_cell_angle_alpha   90.00000000
_cell_angle_beta   90.00000000
_cell_angle_gamma   119.99998888
_symmetry_Int_Tables_number   1
_chemical_formula_structural   Te2Mo3(SeS)2
_chemical_formula_sum   'Te2 Mo3 Se2 S2'
_cell_volume   300.78207286
_cell_formula_units_Z   1
loop_
 _symmetry_equiv_pos_site_id
 _symmetry_equiv_pos_as_xyz
  1  'x, y, z'
loop_
 _atom_site_type_symbol
 _atom_site_label
 _atom_site_symmetry_multiplicity
 _atom_site_fract_x
 _atom_site_fract_y
 _atom_site_fract_z
 _atom_site_occupancy
  Te  Te0  1  0.33333300  0.66666700  0.40810400  1
  Te  Te1  1  0.33333300  0.66666700  0.28573000  1
  Mo  Mo2  1  0.33333300  0.66666700  0.11564900  1
  Mo  Mo3  1  0.33333300  0.66666700  0.57838900  1
  Mo  Mo4  1  0.66666700  0.33333300  0.34697400  1
  Se  Se5  1  0.66666700  0.33333300  0.52452200  1
  Se  Se6  1  0.66666700  0.33333300  0.63219400  1
  S  S7  1  0.66666700  0.33333300  0.06670300  1
  S  S8  1  0.66666700  0.33333300  0.16457700  1
