# generated using pymatgen
data_Mo2W(SeS2)2
_symmetry_space_group_name_H-M   'P 1'
_cell_length_a   3.23063030
_cell_length_b   3.23063030
_cell_length_c   29.69340600
_cell_angle_alpha   90.00000000
_cell_angle_beta   90.00000000
_cell_angle_gamma   120.00000620
_symmetry_Int_Tables_number   1
_chemical_formula_structural   Mo2W(SeS2)2
_chemical_formula_sum   'Mo2 W1 Se2 S4'
_cell_volume   268.38926796
_cell_formula_units_Z   1
loop_
 _symmetry_equiv_pos_site_id
 _symmetry_equiv_pos_as_xyz
  1  'x, y, z'
loop_
 _atom_site_type_symbol
 _atom_site_label
 _atom_site_symmetry_multiplicity
 _atom_site_fract_x
 _atom_site_fract_y
 _atom_site_fract_z
 _atom_site_occupancy
  Mo  Mo0  1  0.00000000  0.00000000  0.11563700  1
  Mo  Mo1  1  0.33333300  0.66666700  0.34697300  1
  W  W2  1  0.00000000  0.00000000  0.57833600  1
  Se  Se3  1  0.00000000  0.00000000  0.40449100  1
  Se  Se4  1  0.00000000  0.00000000  0.28945600  1
  S  S5  1  0.33333300  0.66666700  0.06332200  1
  S  S6  1  0.33333300  0.66666700  0.52585200  1
  S  S7  1  0.33333300  0.66666700  0.16796600  1
  S  S8  1  0.33333300  0.66666700  0.63080800  1
