# generated using pymatgen
data_Te2Mo3W(Se2S)2
_symmetry_space_group_name_H-M   'P 1'
_cell_length_a   3.34365150
_cell_length_b   3.34365150
_cell_length_c   38.09537600
_cell_angle_alpha   90.00000000
_cell_angle_beta   90.00000000
_cell_angle_gamma   119.99999017
_symmetry_Int_Tables_number   1
_chemical_formula_structural   Te2Mo3W(Se2S)2
_chemical_formula_sum   'Te2 Mo3 W1 Se4 S2'
_cell_volume   368.84589251
_cell_formula_units_Z   1
loop_
 _symmetry_equiv_pos_site_id
 _symmetry_equiv_pos_as_xyz
  1  'x, y, z'
loop_
 _atom_site_type_symbol
 _atom_site_label
 _atom_site_symmetry_multiplicity
 _atom_site_fract_x
 _atom_site_fract_y
 _atom_site_fract_z
 _atom_site_occupancy
  Te  Te0  1  0.66666700  0.33333300  0.41991500  1
  Te  Te1  1  0.66666700  0.33333300  0.51942100  1
  Mo  Mo2  1  0.33333300  0.66666700  0.09393800  1
  Mo  Mo3  1  0.33333300  0.66666700  0.46965700  1
  Mo  Mo4  1  0.66666700  0.33333300  0.65757400  1
  W  W5  1  0.66666700  0.33333300  0.28174200  1
  Se  Se6  1  0.33333300  0.66666700  0.32574000  1
  Se  Se7  1  0.33333300  0.66666700  0.70136300  1
  Se  Se8  1  0.33333300  0.66666700  0.23775400  1
  Se  Se9  1  0.33333300  0.66666700  0.61377500  1
  S  S10  1  0.66666700  0.33333300  0.05412300  1
  S  S11  1  0.66666700  0.33333300  0.13374600  1
