# generated using pymatgen
data_MoWSeS3
_symmetry_space_group_name_H-M   'P 1'
_cell_length_a   3.22254763
_cell_length_b   3.22254763
_cell_length_c   36.38927600
_cell_angle_alpha   90.00000000
_cell_angle_beta   90.00000000
_cell_angle_gamma   119.99999230
_symmetry_Int_Tables_number   1
_chemical_formula_structural   MoWSeS3
_chemical_formula_sum   'Mo2 W2 Se2 S6'
_cell_volume   327.26741726
_cell_formula_units_Z   2
loop_
 _symmetry_equiv_pos_site_id
 _symmetry_equiv_pos_as_xyz
  1  'x, y, z'
loop_
 _atom_site_type_symbol
 _atom_site_label
 _atom_site_symmetry_multiplicity
 _atom_site_fract_x
 _atom_site_fract_y
 _atom_site_fract_z
 _atom_site_occupancy
  Mo  Mo0  1  0.00000000  0.00000000  0.09389600  1
  Mo  Mo1  1  0.00000000  0.00000000  0.46966100  1
  W  W2  1  0.33333300  0.66666700  0.28178000  1
  W  W3  1  0.33333300  0.66666700  0.65754000  1
  Se  Se4  1  0.00000000  0.00000000  0.32908000  1
  Se  Se5  1  0.00000000  0.00000000  0.23452300  1
  S  S6  1  0.00000000  0.00000000  0.70044100  1
  S  S7  1  0.33333300  0.66666700  0.05118000  1
  S  S8  1  0.33333300  0.66666700  0.42696100  1
  S  S9  1  0.33333300  0.66666700  0.13664100  1
  S  S10  1  0.33333300  0.66666700  0.51239900  1
  S  S11  1  0.00000000  0.00000000  0.61464800  1
