# generated using pymatgen
data_TeMoWSe2S
_symmetry_space_group_name_H-M   'P 1'
_cell_length_a   3.34280744
_cell_length_b   3.34280744
_cell_length_c   38.09599800
_cell_angle_alpha   90.00000000
_cell_angle_beta   90.00000000
_cell_angle_gamma   119.99998889
_symmetry_Int_Tables_number   1
_chemical_formula_structural   TeMoWSe2S
_chemical_formula_sum   'Te2 Mo2 W2 Se4 S2'
_cell_volume   368.66571863
_cell_formula_units_Z   2
loop_
 _symmetry_equiv_pos_site_id
 _symmetry_equiv_pos_as_xyz
  1  'x, y, z'
loop_
 _atom_site_type_symbol
 _atom_site_label
 _atom_site_symmetry_multiplicity
 _atom_site_fract_x
 _atom_site_fract_y
 _atom_site_fract_z
 _atom_site_occupancy
  Te  Te0  1  0.33333300  0.66666700  0.41985900  1
  Te  Te1  1  0.33333300  0.66666700  0.51945400  1
  Mo  Mo2  1  0.00000000  0.00000000  0.09393500  1
  Mo  Mo3  1  0.00000000  0.00000000  0.46965500  1
  W  W4  1  0.33333300  0.66666700  0.28175300  1
  W  W5  1  0.33333300  0.66666700  0.65757900  1
  Se  Se6  1  0.00000000  0.00000000  0.32570800  1
  Se  Se7  1  0.00000000  0.00000000  0.70151000  1
  Se  Se8  1  0.00000000  0.00000000  0.23780900  1
  Se  Se9  1  0.00000000  0.00000000  0.61361400  1
  S  S10  1  0.33333300  0.66666700  0.05405900  1
  S  S11  1  0.33333300  0.66666700  0.13381300  1
