# generated using pymatgen
data_Tm3(CuSn)4
_symmetry_space_group_name_H-M   'P 1'
_cell_length_a   8.33914377
_cell_length_b   8.33914377
_cell_length_c   8.33914377
_cell_angle_alpha   149.04849894
_cell_angle_beta   130.91816249
_cell_angle_gamma   59.16394165
_symmetry_Int_Tables_number   1
_chemical_formula_structural   Tm3(CuSn)4
_chemical_formula_sum   'Tm3 Cu4 Sn4'
_cell_volume   223.56891506
_cell_formula_units_Z   1
loop_
 _symmetry_equiv_pos_site_id
 _symmetry_equiv_pos_as_xyz
  1  'x, y, z'
loop_
 _atom_site_type_symbol
 _atom_site_label
 _atom_site_symmetry_multiplicity
 _atom_site_fract_x
 _atom_site_fract_y
 _atom_site_fract_z
 _atom_site_occupancy
  Tm  Tm0  1  0.00000000  0.00000000  0.00000000  1
  Tm  Tm1  1  0.37086400  0.87086400  0.50000000  1
  Tm  Tm2  1  0.62913600  0.12913600  0.50000000  1
  Cu  Cu3  1  0.01428900  0.32654500  0.68774300  1
  Cu  Cu4  1  0.63880200  0.32654500  0.31225700  1
  Cu  Cu5  1  0.98571100  0.67345500  0.31225700  1
  Cu  Cu6  1  0.36119800  0.67345500  0.68774300  1
  Sn  Sn7  1  0.21670900  0.21670900  0.00000000  1
  Sn  Sn8  1  0.78329100  0.78329100  0.00000000  1
  Sn  Sn9  1  0.29532200  0.50000000  0.79532200  1
  Sn  Sn10  1  0.70467800  0.50000000  0.20467800  1
