# generated using pymatgen
data_MoWS4
_symmetry_space_group_name_H-M   'P 1'
_cell_length_a   3.19174590
_cell_length_b   3.19174590
_cell_length_c   35.84706500
_cell_angle_alpha   90.00000000
_cell_angle_beta   90.00000000
_cell_angle_gamma   119.99999787
_symmetry_Int_Tables_number   1
_chemical_formula_structural   MoWS4
_chemical_formula_sum   'Mo2 W2 S8'
_cell_volume   316.25752072
_cell_formula_units_Z   2
loop_
 _symmetry_equiv_pos_site_id
 _symmetry_equiv_pos_as_xyz
  1  'x, y, z'
loop_
 _atom_site_type_symbol
 _atom_site_label
 _atom_site_symmetry_multiplicity
 _atom_site_fract_x
 _atom_site_fract_y
 _atom_site_fract_z
 _atom_site_occupancy
  Mo  Mo0  1  0.00000000  0.00000000  0.09390600  1
  Mo  Mo1  1  0.33333300  0.66666700  0.28178100  1
  W  W2  1  0.00000000  0.00000000  0.46963000  1
  W  W3  1  0.33333300  0.66666700  0.65755000  1
  S  S4  1  0.00000000  0.00000000  0.32547000  1
  S  S5  1  0.00000000  0.00000000  0.70143800  1
  S  S6  1  0.33333300  0.66666700  0.05024800  1
  S  S7  1  0.33333300  0.66666700  0.42581200  1
  S  S8  1  0.33333300  0.66666700  0.13758900  1
  S  S9  1  0.33333300  0.66666700  0.51353000  1
  S  S10  1  0.00000000  0.00000000  0.23813000  1
  S  S11  1  0.00000000  0.00000000  0.61366400  1
