# generated using pymatgen
data_TeMoWS3
_symmetry_space_group_name_H-M   'P 1'
_cell_length_a   3.27515128
_cell_length_b   3.27515128
_cell_length_c   37.20105700
_cell_angle_alpha   90.00000000
_cell_angle_beta   90.00000000
_cell_angle_gamma   119.99998542
_symmetry_Int_Tables_number   1
_chemical_formula_structural   TeMoWS3
_chemical_formula_sum   'Te2 Mo2 W2 S6'
_cell_volume   345.58008308
_cell_formula_units_Z   2
loop_
 _symmetry_equiv_pos_site_id
 _symmetry_equiv_pos_as_xyz
  1  'x, y, z'
loop_
 _atom_site_type_symbol
 _atom_site_label
 _atom_site_symmetry_multiplicity
 _atom_site_fract_x
 _atom_site_fract_y
 _atom_site_fract_z
 _atom_site_occupancy
  Te  Te0  1  0.33333300  0.66666700  0.70965300  1
  Te  Te1  1  0.33333300  0.66666700  0.60548500  1
  Mo  Mo2  1  0.33333300  0.66666700  0.09391800  1
  Mo  Mo3  1  0.66666700  0.33333300  0.28180300  1
  W  W4  1  0.33333300  0.66666700  0.46959900  1
  W  W5  1  0.66666700  0.33333300  0.65760300  1
  S  S6  1  0.33333300  0.66666700  0.32315000  1
  S  S7  1  0.66666700  0.33333300  0.05256800  1
  S  S8  1  0.66666700  0.33333300  0.42810300  1
  S  S9  1  0.66666700  0.33333300  0.13529600  1
  S  S10  1  0.66666700  0.33333300  0.51111500  1
  S  S11  1  0.33333300  0.66666700  0.24045300  1
