# generated using pymatgen
data_WSeS
_symmetry_space_group_name_H-M   'P 1'
_cell_length_a   3.25342501
_cell_length_b   3.25342501
_cell_length_c   36.93006000
_cell_angle_alpha   90.00000000
_cell_angle_beta   90.00000000
_cell_angle_gamma   120.00002055
_symmetry_Int_Tables_number   1
_chemical_formula_structural   WSeS
_chemical_formula_sum   'W4 Se4 S4'
_cell_volume   338.52609919
_cell_formula_units_Z   4
loop_
 _symmetry_equiv_pos_site_id
 _symmetry_equiv_pos_as_xyz
  1  'x, y, z'
loop_
 _atom_site_type_symbol
 _atom_site_label
 _atom_site_symmetry_multiplicity
 _atom_site_fract_x
 _atom_site_fract_y
 _atom_site_fract_z
 _atom_site_occupancy
  W  W0  1  0.00000000  0.00000000  0.09391800  1
  W  W1  1  0.00000000  0.00000000  0.46964500  1
  W  W2  1  0.33333300  0.66666700  0.28177500  1
  W  W3  1  0.33333300  0.66666700  0.65756500  1
  Se  Se4  1  0.00000000  0.00000000  0.70382900  1
  Se  Se5  1  0.33333300  0.66666700  0.42339400  1
  Se  Se6  1  0.33333300  0.66666700  0.51591900  1
  Se  Se7  1  0.00000000  0.00000000  0.61129000  1
  S  S8  1  0.00000000  0.00000000  0.32379500  1
  S  S9  1  0.33333300  0.66666700  0.05190900  1
  S  S10  1  0.33333300  0.66666700  0.13592400  1
  S  S11  1  0.00000000  0.00000000  0.23978600  1
