# generated using pymatgen
data_MoW3(SeS)4
_symmetry_space_group_name_H-M   'P 1'
_cell_length_a   3.25810055
_cell_length_b   3.25810055
_cell_length_c   36.91997100
_cell_angle_alpha   90.00000000
_cell_angle_beta   90.00000000
_cell_angle_gamma   120.00001111
_symmetry_Int_Tables_number   1
_chemical_formula_structural   MoW3(SeS)4
_chemical_formula_sum   'Mo1 W3 Se4 S4'
_cell_volume   339.40708195
_cell_formula_units_Z   1
loop_
 _symmetry_equiv_pos_site_id
 _symmetry_equiv_pos_as_xyz
  1  'x, y, z'
loop_
 _atom_site_type_symbol
 _atom_site_label
 _atom_site_symmetry_multiplicity
 _atom_site_fract_x
 _atom_site_fract_y
 _atom_site_fract_z
 _atom_site_occupancy
  Mo  Mo0  1  0.00000000  0.00000000  0.46966900  1
  W  W1  1  0.00000000  0.00000000  0.09389300  1
  W  W2  1  0.33333300  0.66666700  0.28179000  1
  W  W3  1  0.33333300  0.66666700  0.65759300  1
  Se  Se4  1  0.00000000  0.00000000  0.32803200  1
  Se  Se5  1  0.00000000  0.00000000  0.70382500  1
  Se  Se6  1  0.00000000  0.00000000  0.23552200  1
  Se  Se7  1  0.00000000  0.00000000  0.61130600  1
  S  S8  1  0.33333300  0.66666700  0.05190700  1
  S  S9  1  0.33333300  0.66666700  0.42793600  1
  S  S10  1  0.33333300  0.66666700  0.13587600  1
  S  S11  1  0.33333300  0.66666700  0.51139800  1
