# generated using pymatgen
data_Te3W2Se
_symmetry_space_group_name_H-M   'P 1'
_cell_length_a   3.49734781
_cell_length_b   3.49734781
_cell_length_c   39.67434100
_cell_angle_alpha   90.00000000
_cell_angle_beta   90.00000000
_cell_angle_gamma   119.99999650
_symmetry_Int_Tables_number   1
_chemical_formula_structural   Te3W2Se
_chemical_formula_sum   'Te6 W4 Se2'
_cell_volume   420.25996475
_cell_formula_units_Z   2
loop_
 _symmetry_equiv_pos_site_id
 _symmetry_equiv_pos_as_xyz
  1  'x, y, z'
loop_
 _atom_site_type_symbol
 _atom_site_label
 _atom_site_symmetry_multiplicity
 _atom_site_fract_x
 _atom_site_fract_y
 _atom_site_fract_z
 _atom_site_occupancy
  Te  Te0  1  0.33333300  0.66666700  0.70396000  1
  Te  Te1  1  0.66666700  0.33333300  0.04750400  1
  Te  Te2  1  0.66666700  0.33333300  0.42323700  1
  Te  Te3  1  0.66666700  0.33333300  0.14035100  1
  Te  Te4  1  0.66666700  0.33333300  0.51608000  1
  Te  Te5  1  0.33333300  0.66666700  0.61110700  1
  W  W6  1  0.33333300  0.66666700  0.09391800  1
  W  W7  1  0.33333300  0.66666700  0.46964300  1
  W  W8  1  0.66666700  0.33333300  0.28179900  1
  W  W9  1  0.66666700  0.33333300  0.65755100  1
  Se  Se10  1  0.33333300  0.66666700  0.32271300  1
  Se  Se11  1  0.33333300  0.66666700  0.24088600  1
