# generated using pymatgen
data_WSeS
_symmetry_space_group_name_H-M   'P 1'
_cell_length_a   3.25432378
_cell_length_b   3.25432378
_cell_length_c   36.89402600
_cell_angle_alpha   90.00000000
_cell_angle_beta   90.00000000
_cell_angle_gamma   119.99999549
_symmetry_Int_Tables_number   1
_chemical_formula_structural   WSeS
_chemical_formula_sum   'W4 Se4 S4'
_cell_volume   338.38275330
_cell_formula_units_Z   4
loop_
 _symmetry_equiv_pos_site_id
 _symmetry_equiv_pos_as_xyz
  1  'x, y, z'
loop_
 _atom_site_type_symbol
 _atom_site_label
 _atom_site_symmetry_multiplicity
 _atom_site_fract_x
 _atom_site_fract_y
 _atom_site_fract_z
 _atom_site_occupancy
  W  W0  1  0.33333300  0.66666700  0.71817200  1
  W  W1  1  0.33333300  0.66666700  0.09392900  1
  W  W2  1  0.66666700  0.33333300  0.90607100  1
  W  W3  1  0.66666700  0.33333300  0.28182800  1
  Se  Se4  1  0.33333300  0.66666700  0.32807600  1
  Se  Se5  1  0.66666700  0.33333300  0.67192400  1
  Se  Se6  1  0.66666700  0.33333300  0.76443000  1
  Se  Se7  1  0.33333300  0.66666700  0.23557000  1
  S  S8  1  0.33333300  0.66666700  0.94804300  1
  S  S9  1  0.66666700  0.33333300  0.05195700  1
  S  S10  1  0.66666700  0.33333300  0.13590200  1
  S  S11  1  0.33333300  0.66666700  0.86409800  1
