# generated using pymatgen
data_Te2Mo(WSe2)3
_symmetry_space_group_name_H-M   'P 1'
_cell_length_a   3.38229887
_cell_length_b   3.38229887
_cell_length_c   38.49632000
_cell_angle_alpha   90.00000000
_cell_angle_beta   90.00000000
_cell_angle_gamma   120.00001709
_symmetry_Int_Tables_number   1
_chemical_formula_structural   Te2Mo(WSe2)3
_chemical_formula_sum   'Te2 Mo1 W3 Se6'
_cell_volume   381.39389292
_cell_formula_units_Z   1
loop_
 _symmetry_equiv_pos_site_id
 _symmetry_equiv_pos_as_xyz
  1  'x, y, z'
loop_
 _atom_site_type_symbol
 _atom_site_label
 _atom_site_symmetry_multiplicity
 _atom_site_fract_x
 _atom_site_fract_y
 _atom_site_fract_z
 _atom_site_occupancy
  Te  Te0  1  0.00000000  0.00000000  0.70663800  1
  Te  Te1  1  0.00000000  0.00000000  0.60844300  1
  Mo  Mo2  1  0.00000000  0.00000000  0.46967500  1
  W  W3  1  0.00000000  0.00000000  0.09391500  1
  W  W4  1  0.33333300  0.66666700  0.28182100  1
  W  W5  1  0.33333300  0.66666700  0.65756000  1
  Se  Se6  1  0.00000000  0.00000000  0.32493400  1
  Se  Se7  1  0.33333300  0.66666700  0.05078400  1
  Se  Se8  1  0.33333300  0.66666700  0.42668900  1
  Se  Se9  1  0.33333300  0.66666700  0.13704400  1
  Se  Se10  1  0.33333300  0.66666700  0.51261200  1
  Se  Se11  1  0.00000000  0.00000000  0.23863400  1
