# generated using pymatgen
data_TeW2Se2S
_symmetry_space_group_name_H-M   'P 1'
_cell_length_a   3.34338582
_cell_length_b   3.34338582
_cell_length_c   41.07582700
_cell_angle_alpha   90.00000000
_cell_angle_beta   90.00000000
_cell_angle_gamma   119.99999639
_symmetry_Int_Tables_number   1
_chemical_formula_structural   TeW2Se2S
_chemical_formula_sum   'Te2 W4 Se4 S2'
_cell_volume   397.63989945
_cell_formula_units_Z   2
loop_
 _symmetry_equiv_pos_site_id
 _symmetry_equiv_pos_as_xyz
  1  'x, y, z'
loop_
 _atom_site_type_symbol
 _atom_site_label
 _atom_site_symmetry_multiplicity
 _atom_site_fract_x
 _atom_site_fract_y
 _atom_site_fract_z
 _atom_site_occupancy
  Te  Te0  1  0.66666700  0.33333300  0.42320700  1
  Te  Te1  1  0.66666700  0.33333300  0.51611800  1
  W  W2  1  0.33333300  0.66666700  0.09370200  1
  W  W3  1  0.33333300  0.66666700  0.46963300  1
  W  W4  1  0.66666700  0.33333300  0.28043700  1
  W  W5  1  0.66666700  0.33333300  0.65908300  1
  Se  Se6  1  0.33333300  0.66666700  0.32122400  1
  Se  Se7  1  0.33333300  0.66666700  0.69984100  1
  Se  Se8  1  0.33333300  0.66666700  0.23972800  1
  Se  Se9  1  0.33333300  0.66666700  0.61836000  1
  S  S10  1  0.66666700  0.33333300  0.05665700  1
  S  S11  1  0.66666700  0.33333300  0.13075800  1
