# generated using pymatgen
data_Te4MoW3S4
_symmetry_space_group_name_H-M   'P 1'
_cell_length_a   3.36175232
_cell_length_b   3.36175232
_cell_length_c   38.32632600
_cell_angle_alpha   90.00000000
_cell_angle_beta   90.00000000
_cell_angle_gamma   120.00000625
_symmetry_Int_Tables_number   1
_chemical_formula_structural   Te4MoW3S4
_chemical_formula_sum   'Te4 Mo1 W3 S4'
_cell_volume   375.11049880
_cell_formula_units_Z   1
loop_
 _symmetry_equiv_pos_site_id
 _symmetry_equiv_pos_as_xyz
  1  'x, y, z'
loop_
 _atom_site_type_symbol
 _atom_site_label
 _atom_site_symmetry_multiplicity
 _atom_site_fract_x
 _atom_site_fract_y
 _atom_site_fract_z
 _atom_site_occupancy
  Te  Te0  1  0.00000000  0.00000000  0.33143000  1
  Te  Te1  1  0.00000000  0.00000000  0.70718000  1
  Te  Te2  1  0.00000000  0.00000000  0.23218500  1
  Te  Te3  1  0.00000000  0.00000000  0.60788500  1
  Mo  Mo4  1  0.00000000  0.00000000  0.46967400  1
  W  W5  1  0.00000000  0.00000000  0.09389100  1
  W  W6  1  0.33333300  0.66666700  0.28179300  1
  W  W7  1  0.33333300  0.66666700  0.65755600  1
  S  S8  1  0.33333300  0.66666700  0.05430100  1
  S  S9  1  0.33333300  0.66666700  0.43034100  1
  S  S10  1  0.33333300  0.66666700  0.13350300  1
  S  S11  1  0.33333300  0.66666700  0.50901000  1
