# generated using pymatgen
data_Te4MoW3S4
_symmetry_space_group_name_H-M   'P 1'
_cell_length_a   3.35724435
_cell_length_b   3.35724435
_cell_length_c   38.35284200
_cell_angle_alpha   90.00000000
_cell_angle_beta   90.00000000
_cell_angle_gamma   120.00000699
_symmetry_Int_Tables_number   1
_chemical_formula_structural   Te4MoW3S4
_chemical_formula_sum   'Te4 Mo1 W3 S4'
_cell_volume   374.36398090
_cell_formula_units_Z   1
loop_
 _symmetry_equiv_pos_site_id
 _symmetry_equiv_pos_as_xyz
  1  'x, y, z'
loop_
 _atom_site_type_symbol
 _atom_site_label
 _atom_site_symmetry_multiplicity
 _atom_site_fract_x
 _atom_site_fract_y
 _atom_site_fract_z
 _atom_site_occupancy
  Te  Te0  1  0.00000000  0.00000000  0.70714800  1
  Te  Te1  1  0.33333300  0.66666700  0.04460500  1
  Te  Te2  1  0.33333300  0.66666700  0.14323300  1
  Te  Te3  1  0.00000000  0.00000000  0.60793700  1
  Mo  Mo4  1  0.00000000  0.00000000  0.09390600  1
  W  W5  1  0.00000000  0.00000000  0.46964200  1
  W  W6  1  0.33333300  0.66666700  0.28181500  1
  W  W7  1  0.33333300  0.66666700  0.65754800  1
  S  S8  1  0.00000000  0.00000000  0.32141200  1
  S  S9  1  0.33333300  0.66666700  0.43005400  1
  S  S10  1  0.33333300  0.66666700  0.50924300  1
  S  S11  1  0.00000000  0.00000000  0.24220600  1
