# generated using pymatgen
data_Te4MoW3(SeS)2
_symmetry_space_group_name_H-M   'P 1'
_cell_length_a   3.40206636
_cell_length_b   3.40206636
_cell_length_c   40.09765200
_cell_angle_alpha   90.00000000
_cell_angle_beta   90.00000000
_cell_angle_gamma   120.00000705
_symmetry_Int_Tables_number   1
_chemical_formula_structural   Te4MoW3(SeS)2
_chemical_formula_sum   'Te4 Mo1 W3 Se2 S2'
_cell_volume   401.91582379
_cell_formula_units_Z   1
loop_
 _symmetry_equiv_pos_site_id
 _symmetry_equiv_pos_as_xyz
  1  'x, y, z'
loop_
 _atom_site_type_symbol
 _atom_site_label
 _atom_site_symmetry_multiplicity
 _atom_site_fract_x
 _atom_site_fract_y
 _atom_site_fract_z
 _atom_site_occupancy
  Te  Te0  1  0.00000000  0.00000000  0.32776100  1
  Te  Te1  1  0.33333300  0.66666700  0.42390300  1
  Te  Te2  1  0.33333300  0.66666700  0.51774500  1
  Te  Te3  1  0.00000000  0.00000000  0.23388300  1
  Mo  Mo4  1  0.00000000  0.00000000  0.09368500  1
  W  W5  1  0.00000000  0.00000000  0.47081400  1
  W  W6  1  0.33333300  0.66666700  0.28086400  1
  W  W7  1  0.33333300  0.66666700  0.65758100  1
  Se  Se8  1  0.33333300  0.66666700  0.05260000  1
  Se  Se9  1  0.33333300  0.66666700  0.13469800  1
  S  S10  1  0.00000000  0.00000000  0.69513700  1
  S  S11  1  0.00000000  0.00000000  0.62007700  1
