# generated using pymatgen
data_Te4MoW3(SeS)2
_symmetry_space_group_name_H-M   'P 1'
_cell_length_a   3.39426326
_cell_length_b   3.39426326
_cell_length_c   38.75348000
_cell_angle_alpha   90.00000000
_cell_angle_beta   90.00000000
_cell_angle_gamma   119.99998563
_symmetry_Int_Tables_number   1
_chemical_formula_structural   Te4MoW3(SeS)2
_chemical_formula_sum   'Te4 Mo1 W3 Se2 S2'
_cell_volume   386.66285153
_cell_formula_units_Z   1
loop_
 _symmetry_equiv_pos_site_id
 _symmetry_equiv_pos_as_xyz
  1  'x, y, z'
loop_
 _atom_site_type_symbol
 _atom_site_label
 _atom_site_symmetry_multiplicity
 _atom_site_fract_x
 _atom_site_fract_y
 _atom_site_fract_z
 _atom_site_occupancy
  Te  Te0  1  0.00000000  0.00000000  0.70617600  1
  Te  Te1  1  0.33333300  0.66666700  0.04563800  1
  Te  Te2  1  0.33333300  0.66666700  0.14223400  1
  Te  Te3  1  0.00000000  0.00000000  0.60889500  1
  Mo  Mo4  1  0.00000000  0.00000000  0.09390500  1
  W  W5  1  0.00000000  0.00000000  0.46964200  1
  W  W6  1  0.33333300  0.66666700  0.28179000  1
  W  W7  1  0.33333300  0.66666700  0.65756800  1
  Se  Se8  1  0.33333300  0.66666700  0.42696800  1
  Se  Se9  1  0.33333300  0.66666700  0.51233200  1
  S  S10  1  0.00000000  0.00000000  0.32066800  1
  S  S11  1  0.00000000  0.00000000  0.24293300  1
