# generated using pymatgen
data_Mg2Ni
_symmetry_space_group_name_H-M   'P 1'
_cell_length_a   6.05650300
_cell_length_b   6.07511187
_cell_length_c   7.45659414
_cell_angle_alpha   113.27825025
_cell_angle_beta   113.85454450
_cell_angle_gamma   90.10330032
_symmetry_Int_Tables_number   1
_chemical_formula_structural   Mg2Ni
_chemical_formula_sum   'Mg8 Ni4'
_cell_volume   226.18893910
_cell_formula_units_Z   4
loop_
 _symmetry_equiv_pos_site_id
 _symmetry_equiv_pos_as_xyz
  1  'x, y, z'
loop_
 _atom_site_type_symbol
 _atom_site_label
 _atom_site_symmetry_multiplicity
 _atom_site_fract_x
 _atom_site_fract_y
 _atom_site_fract_z
 _atom_site_occupancy
  Mg  Mg0  1  0.38073000  0.67163300  0.76185500  1
  Mg  Mg1  1  0.38109200  0.17127200  0.76192300  1
  Mg  Mg2  1  0.87280000  0.66454600  0.75060100  1
  Mg  Mg3  1  0.87781000  0.16453600  0.75033400  1
  Mg  Mg4  1  0.11777900  0.42011500  0.25586400  1
  Mg  Mg5  1  0.13772100  0.91997700  0.25545600  1
  Mg  Mg6  1  0.61903600  0.39355800  0.25476100  1
  Mg  Mg7  1  0.63610100  0.89363800  0.25521700  1
  Ni  Ni8  1  0.49904400  0.29083600  0.50908600  1
  Ni  Ni9  1  0.00993200  0.79083800  0.50908600  1
  Ni  Ni10  1  0.24963200  0.53891400  0.00672300  1
  Ni  Ni11  1  0.75712400  0.03873700  0.00669500  1
