# generated using pymatgen
data_NaBH4
_symmetry_space_group_name_H-M   'P 1'
_cell_length_a   4.32688400
_cell_length_b   4.32688400
_cell_length_c   5.88888900
_cell_angle_alpha   90.00000000
_cell_angle_beta   90.00000000
_cell_angle_gamma   90.00000000
_symmetry_Int_Tables_number   1
_chemical_formula_structural   NaBH4
_chemical_formula_sum   'Na2 B2 H8'
_cell_volume   110.25133907
_cell_formula_units_Z   2
loop_
 _symmetry_equiv_pos_site_id
 _symmetry_equiv_pos_as_xyz
  1  'x, y, z'
loop_
 _atom_site_type_symbol
 _atom_site_label
 _atom_site_symmetry_multiplicity
 _atom_site_fract_x
 _atom_site_fract_y
 _atom_site_fract_z
 _atom_site_occupancy
  Na  Na0  1  0.50000000  0.50000000  0.50000000  1
  Na  Na1  1  0.00000000  0.00000000  0.00000000  1
  B  B2  1  0.50000000  0.50000000  0.00000000  1
  B  B3  1  0.00000000  0.00000000  0.50000000  1
  H  H4  1  0.27187800  0.53859200  0.87933100  1
  H  H5  1  0.77187800  0.96140800  0.62066900  1
  H  H6  1  0.72812200  0.46140800  0.87933100  1
  H  H7  1  0.22812200  0.03859200  0.62066900  1
  H  H8  1  0.53859200  0.72812200  0.12066900  1
  H  H9  1  0.96140800  0.22812200  0.37933100  1
  H  H10  1  0.46140800  0.27187800  0.12066900  1
  H  H11  1  0.03859200  0.77187800  0.37933100  1
