# generated using pymatgen
data_NdIr3
_symmetry_space_group_name_H-M   'P 1'
_cell_length_a   9.37667475
_cell_length_b   9.37667475
_cell_length_c   9.37667523
_cell_angle_alpha   33.35395466
_cell_angle_beta   33.35395466
_cell_angle_gamma   33.35395366
_symmetry_Int_Tables_number   1
_chemical_formula_structural   NdIr3
_chemical_formula_sum   'Nd3 Ir9'
_cell_volume   221.90616804
_cell_formula_units_Z   3
loop_
 _symmetry_equiv_pos_site_id
 _symmetry_equiv_pos_as_xyz
  1  'x, y, z'
loop_
 _atom_site_type_symbol
 _atom_site_label
 _atom_site_symmetry_multiplicity
 _atom_site_fract_x
 _atom_site_fract_y
 _atom_site_fract_z
 _atom_site_occupancy
  Nd  Nd0  1  0.86057000  0.86057000  0.86057000  1
  Nd  Nd1  1  0.13943000  0.13943000  0.13943000  1
  Nd  Nd2  1  0.00000000  0.00000000  0.00000000  1
  Ir  Ir3  1  0.42080900  0.91675800  0.42080900  1
  Ir  Ir4  1  0.42080900  0.42080900  0.91675800  1
  Ir  Ir5  1  0.91675800  0.42080900  0.42080900  1
  Ir  Ir6  1  0.57919100  0.08324200  0.57919100  1
  Ir  Ir7  1  0.57919100  0.57919100  0.08324200  1
  Ir  Ir8  1  0.08324200  0.57919100  0.57919100  1
  Ir  Ir9  1  0.66775100  0.66775100  0.66775100  1
  Ir  Ir10  1  0.33224900  0.33224900  0.33224900  1
  Ir  Ir11  1  0.50000000  0.50000000  0.50000000  1
