# generated using pymatgen
data_Sr3BN3
_symmetry_space_group_name_H-M   'P 1'
_cell_length_a   7.38698640
_cell_length_b   7.38698640
_cell_length_c   5.25823900
_cell_angle_alpha   90.00000000
_cell_angle_beta   90.00000000
_cell_angle_gamma   120.00000362
_symmetry_Int_Tables_number   1
_chemical_formula_structural   Sr3BN3
_chemical_formula_sum   'Sr6 B2 N6'
_cell_volume   248.48806673
_cell_formula_units_Z   2
loop_
 _symmetry_equiv_pos_site_id
 _symmetry_equiv_pos_as_xyz
  1  'x, y, z'
loop_
 _atom_site_type_symbol
 _atom_site_label
 _atom_site_symmetry_multiplicity
 _atom_site_fract_x
 _atom_site_fract_y
 _atom_site_fract_z
 _atom_site_occupancy
  Sr  Sr0  1  0.92955300  0.62980500  0.25000000  1
  Sr  Sr1  1  0.70025200  0.07044700  0.25000000  1
  Sr  Sr2  1  0.37019500  0.29974800  0.25000000  1
  Sr  Sr3  1  0.07044700  0.37019500  0.75000000  1
  Sr  Sr4  1  0.29974800  0.92955300  0.75000000  1
  Sr  Sr5  1  0.62980500  0.70025200  0.75000000  1
  B  B6  1  0.66666700  0.33333300  0.75000000  1
  B  B7  1  0.33333300  0.66666700  0.25000000  1
  N  N8  1  0.86193100  0.55250200  0.75000000  1
  N  N9  1  0.69057100  0.13806900  0.75000000  1
  N  N10  1  0.44749800  0.30942900  0.75000000  1
  N  N11  1  0.13806900  0.44749800  0.25000000  1
  N  N12  1  0.30942900  0.86193100  0.25000000  1
  N  N13  1  0.55250200  0.69057100  0.25000000  1
