# generated using pymatgen
data_K15Os7N19
_symmetry_space_group_name_H-M   'P 1'
_cell_length_a   6.87868100
_cell_length_b   12.36684480
_cell_length_c   19.07914346
_cell_angle_alpha   89.31986370
_cell_angle_beta   94.63558830
_cell_angle_gamma   99.39355316
_symmetry_Int_Tables_number   1
_chemical_formula_structural   K15Os7N19
_chemical_formula_sum   'K30 Os14 N38'
_cell_volume   1596.01344063
_cell_formula_units_Z   2
loop_
 _symmetry_equiv_pos_site_id
 _symmetry_equiv_pos_as_xyz
  1  'x, y, z'
loop_
 _atom_site_type_symbol
 _atom_site_label
 _atom_site_symmetry_multiplicity
 _atom_site_fract_x
 _atom_site_fract_y
 _atom_site_fract_z
 _atom_site_occupancy
  K  K0  1  0.50773300  0.62466500  0.43649400  1
  K  K1  1  0.49226700  0.37533500  0.56350600  1
  K  K2  1  0.63449400  0.12721300  0.65285500  1
  K  K3  1  0.36550600  0.87278700  0.34714500  1
  K  K4  1  0.71567000  0.02737300  0.20187600  1
  K  K5  1  0.28433000  0.97262700  0.79812400  1
  K  K6  1  0.93076100  0.03977000  0.39283700  1
  K  K7  1  0.06923900  0.96023000  0.60716300  1
  K  K8  1  0.76647300  0.76126600  0.28341100  1
  K  K9  1  0.23352700  0.23873400  0.71658900  1
  K  K10  1  0.86210700  0.17502000  0.83387100  1
  K  K11  1  0.13789300  0.82498000  0.16612900  1
  K  K12  1  0.86154400  0.90302600  0.89481300  1
  K  K13  1  0.13845600  0.09697400  0.10518700  1
  K  K14  1  0.71394000  0.07882400  0.01097600  1
  K  K15  1  0.28606000  0.92117600  0.98902400  1
  K  K16  1  0.59041900  0.88766400  0.53812800  1
  K  K17  1  0.40958100  0.11233600  0.46187200  1
  K  K18  1  0.59698300  0.46571300  0.27791600  1
  K  K19  1  0.40301700  0.53428700  0.72208400  1
  K  K20  1  0.98485400  0.33948700  0.01999800  1
  K  K21  1  0.01514600  0.66051300  0.98000200  1
  K  K22  1  0.91878200  0.65749300  0.78214900  1
  K  K23  1  0.08121800  0.34250700  0.21785100  1
  K  K24  1  0.78480600  0.27438000  0.37247100  1
  K  K25  1  0.21519400  0.72562000  0.62752900  1
  K  K26  1  0.59643400  0.37243000  0.84318700  1
  K  K27  1  0.40356600  0.62757000  0.15681300  1
  K  K28  1  0.00000000  0.50000000  0.50000000  1
  K  K29  1  0.50000000  0.50000000  0.00000000  1
  Os  Os30  1  0.58619500  0.27667600  0.12736700  1
  Os  Os31  1  0.41380500  0.72332400  0.87263300  1
  Os  Os32  1  0.87390800  0.40291800  0.68749000  1
  Os  Os33  1  0.12609200  0.59708200  0.31251000  1
  Os  Os34  1  0.72191800  0.64631100  0.60310500  1
  Os  Os35  1  0.27808200  0.35368900  0.39689500  1
  Os  Os36  1  0.97473000  0.77869700  0.45096100  1
  Os  Os37  1  0.02527000  0.22130300  0.54903900  1
  Os  Os38  1  0.87775700  0.55093600  0.13547100  1
  Os  Os39  1  0.12224300  0.44906400  0.86452900  1
  Os  Os40  1  0.67467100  0.86438700  0.72440100  1
  Os  Os41  1  0.32532900  0.13561300  0.27559900  1
  Os  Os42  1  0.68438800  0.79252800  0.05211000  1
  Os  Os43  1  0.31561200  0.20747200  0.94789000  1
  N  N44  1  0.80013100  0.21228000  0.12543700  1
  N  N45  1  0.19986900  0.78772000  0.87456300  1
  N  N46  1  0.96421300  0.31258500  0.61996500  1
  N  N47  1  0.03578700  0.68741500  0.38003500  1
  N  N48  1  0.54290500  0.09145700  0.32064100  1
  N  N49  1  0.45709500  0.90854300  0.67935900  1
  N  N50  1  0.59990800  0.77261400  0.79935500  1
  N  N51  1  0.40009200  0.22738600  0.20064500  1
  N  N52  1  0.67833100  0.42552400  0.14743100  1
  N  N53  1  0.32166900  0.57447600  0.85256900  1
  N  N54  1  0.53194900  0.39859100  0.42033000  1
  N  N55  1  0.46805100  0.60140900  0.57967000  1
  N  N56  1  0.81975800  0.11175100  0.52961300  1
  N  N57  1  0.18024200  0.88824900  0.47038700  1
  N  N58  1  0.89458500  0.70547400  0.53069500  1
  N  N59  1  0.10541500  0.29452600  0.46930500  1
  N  N60  1  0.92107000  0.88432500  0.04912900  1
  N  N61  1  0.07893000  0.11567500  0.95087100  1
  N  N62  1  0.75700400  0.83409700  0.41540000  1
  N  N63  1  0.24299600  0.16590300  0.58460000  1
  N  N64  1  0.78884600  0.78486300  0.66057200  1
  N  N65  1  0.21115400  0.21513700  0.33942800  1
  N  N66  1  0.91736600  0.47442700  0.90832900  1
  N  N67  1  0.08263400  0.52557300  0.09167100  1
  N  N68  1  0.57896400  0.76491200  0.95875200  1
  N  N69  1  0.42103600  0.23508800  0.04124800  1
  N  N70  1  0.73942100  0.66263700  0.09284200  1
  N  N71  1  0.26057900  0.33736300  0.90715800  1
  N  N72  1  0.85143300  0.98360300  0.75507400  1
  N  N73  1  0.14856700  0.01639700  0.24492600  1
  N  N74  1  0.95389500  0.61078500  0.23001900  1
  N  N75  1  0.04610500  0.38921500  0.76998100  1
  N  N76  1  0.86347600  0.54139900  0.64929200  1
  N  N77  1  0.13652400  0.45860100  0.35070800  1
  N  N78  1  0.62321000  0.35199400  0.70803500  1
  N  N79  1  0.37679000  0.64800600  0.29196500  1
  N  N80  1  0.51641100  0.85282200  0.10243300  1
  N  N81  1  0.48358900  0.14717800  0.89756700  1
