# generated using pymatgen
data_Te4MoW3Se4
_symmetry_space_group_name_H-M   'P 1'
_cell_length_a   3.43685498
_cell_length_b   3.43685498
_cell_length_c   39.17168300
_cell_angle_alpha   90.00000000
_cell_angle_beta   90.00000000
_cell_angle_gamma   120.00001879
_symmetry_Int_Tables_number   1
_chemical_formula_structural   Te4MoW3Se4
_chemical_formula_sum   'Te4 Mo1 W3 Se4'
_cell_volume   400.70539914
_cell_formula_units_Z   1
loop_
 _symmetry_equiv_pos_site_id
 _symmetry_equiv_pos_as_xyz
  1  'x, y, z'
loop_
 _atom_site_type_symbol
 _atom_site_label
 _atom_site_symmetry_multiplicity
 _atom_site_fract_x
 _atom_site_fract_y
 _atom_site_fract_z
 _atom_site_occupancy
  Te  Te0  1  0.00000000  0.00000000  0.32950600  1
  Te  Te1  1  0.33333300  0.66666700  0.04655500  1
  Te  Te2  1  0.33333300  0.66666700  0.14124700  1
  Te  Te3  1  0.00000000  0.00000000  0.23415300  1
  Mo  Mo4  1  0.00000000  0.00000000  0.09387800  1
  W  W5  1  0.00000000  0.00000000  0.46965300  1
  W  W6  1  0.33333300  0.66666700  0.28181800  1
  W  W7  1  0.33333300  0.66666700  0.65753000  1
  Se  Se8  1  0.00000000  0.00000000  0.69946900  1
  Se  Se9  1  0.33333300  0.66666700  0.42772600  1
  Se  Se10  1  0.33333300  0.66666700  0.51161400  1
  Se  Se11  1  0.00000000  0.00000000  0.61559800  1
