# generated using pymatgen
data_Te6Mo3WSe2
_symmetry_space_group_name_H-M   'P 1'
_cell_length_a   3.49853595
_cell_length_b   3.49853595
_cell_length_c   39.58097400
_cell_angle_alpha   90.00000000
_cell_angle_beta   90.00000000
_cell_angle_gamma   119.99999915
_symmetry_Int_Tables_number   1
_chemical_formula_structural   Te6Mo3WSe2
_chemical_formula_sum   'Te6 Mo3 W1 Se2'
_cell_volume   419.55586413
_cell_formula_units_Z   1
loop_
 _symmetry_equiv_pos_site_id
 _symmetry_equiv_pos_as_xyz
  1  'x, y, z'
loop_
 _atom_site_type_symbol
 _atom_site_label
 _atom_site_symmetry_multiplicity
 _atom_site_fract_x
 _atom_site_fract_y
 _atom_site_fract_z
 _atom_site_occupancy
  Te  Te0  1  0.33333300  0.66666700  0.32833200  1
  Te  Te1  1  0.33333300  0.66666700  0.70382900  1
  Te  Te2  1  0.66666700  0.33333300  0.42336800  1
  Te  Te3  1  0.66666700  0.33333300  0.51594000  1
  Te  Te4  1  0.33333300  0.66666700  0.23522000  1
  Te  Te5  1  0.33333300  0.66666700  0.61124300  1
  Mo  Mo6  1  0.33333300  0.66666700  0.09392700  1
  Mo  Mo7  1  0.33333300  0.66666700  0.46968100  1
  Mo  Mo8  1  0.66666700  0.33333300  0.65756100  1
  W  W9  1  0.66666700  0.33333300  0.28178800  1
  Se  Se10  1  0.66666700  0.33333300  0.05304300  1
  Se  Se11  1  0.66666700  0.33333300  0.13481600  1
