# generated using pymatgen
data_Te3Mo2S
_symmetry_space_group_name_H-M   'P 1'
_cell_length_a   3.45176956
_cell_length_b   3.45176956
_cell_length_c   39.55331300
_cell_angle_alpha   90.00000000
_cell_angle_beta   90.00000000
_cell_angle_gamma   119.99999157
_symmetry_Int_Tables_number   1
_chemical_formula_structural   Te3Mo2S
_chemical_formula_sum   'Te6 Mo4 S2'
_cell_volume   408.12868857
_cell_formula_units_Z   2
loop_
 _symmetry_equiv_pos_site_id
 _symmetry_equiv_pos_as_xyz
  1  'x, y, z'
loop_
 _atom_site_type_symbol
 _atom_site_label
 _atom_site_symmetry_multiplicity
 _atom_site_fract_x
 _atom_site_fract_y
 _atom_site_fract_z
 _atom_site_occupancy
  Te  Te0  1  0.33333300  0.66666700  0.70459900  1
  Te  Te1  1  0.66666700  0.33333300  0.04728000  1
  Te  Te2  1  0.66666700  0.33333300  0.42249000  1
  Te  Te3  1  0.66666700  0.33333300  0.14080300  1
  Te  Te4  1  0.66666700  0.33333300  0.51605000  1
  Te  Te5  1  0.33333300  0.66666700  0.61106600  1
  Mo  Mo6  1  0.33333300  0.66666700  0.09404500  1
  Mo  Mo7  1  0.33333300  0.66666700  0.46925100  1
  Mo  Mo8  1  0.66666700  0.33333300  0.28179400  1
  Mo  Mo9  1  0.66666700  0.33333300  0.65785100  1
  S  S10  1  0.33333300  0.66666700  0.31943700  1
  S  S11  1  0.33333300  0.66666700  0.24408200  1
