# generated using pymatgen
data_TeMoSe
_symmetry_space_group_name_H-M   'P 1'
_cell_length_a   3.44061029
_cell_length_b   3.44061029
_cell_length_c   39.03685000
_cell_angle_alpha   90.00000000
_cell_angle_beta   90.00000000
_cell_angle_gamma   120.00000559
_symmetry_Int_Tables_number   1
_chemical_formula_structural   TeMoSe
_chemical_formula_sum   'Te4 Mo4 Se4'
_cell_volume   400.19931507
_cell_formula_units_Z   4
loop_
 _symmetry_equiv_pos_site_id
 _symmetry_equiv_pos_as_xyz
  1  'x, y, z'
loop_
 _atom_site_type_symbol
 _atom_site_label
 _atom_site_symmetry_multiplicity
 _atom_site_fract_x
 _atom_site_fract_y
 _atom_site_fract_z
 _atom_site_occupancy
  Te  Te0  1  0.33333300  0.66666700  0.32931400  1
  Te  Te1  1  0.66666700  0.33333300  0.67068600  1
  Te  Te2  1  0.66666700  0.33333300  0.76572400  1
  Te  Te3  1  0.33333300  0.66666700  0.23427600  1
  Mo  Mo4  1  0.33333300  0.66666700  0.71819400  1
  Mo  Mo5  1  0.33333300  0.66666700  0.09391200  1
  Mo  Mo6  1  0.66666700  0.33333300  0.90608800  1
  Mo  Mo7  1  0.66666700  0.33333300  0.28180600  1
  Se  Se8  1  0.33333300  0.66666700  0.94797300  1
  Se  Se9  1  0.66666700  0.33333300  0.05202700  1
  Se  Se10  1  0.66666700  0.33333300  0.13582900  1
  Se  Se11  1  0.33333300  0.66666700  0.86417100  1
