# generated using pymatgen
data_TeMoWSe3
_symmetry_space_group_name_H-M   'P 1'
_cell_length_a   3.38294002
_cell_length_b   3.38294002
_cell_length_c   38.47217400
_cell_angle_alpha   90.00000000
_cell_angle_beta   90.00000000
_cell_angle_gamma   120.00000035
_symmetry_Int_Tables_number   1
_chemical_formula_structural   TeMoWSe3
_chemical_formula_sum   'Te2 Mo2 W2 Se6'
_cell_volume   381.29925206
_cell_formula_units_Z   2
loop_
 _symmetry_equiv_pos_site_id
 _symmetry_equiv_pos_as_xyz
  1  'x, y, z'
loop_
 _atom_site_type_symbol
 _atom_site_label
 _atom_site_symmetry_multiplicity
 _atom_site_fract_x
 _atom_site_fract_y
 _atom_site_fract_z
 _atom_site_occupancy
  Te  Te0  1  0.33333300  0.66666700  0.42060500  1
  Te  Te1  1  0.33333300  0.66666700  0.51873200  1
  Mo  Mo2  1  0.00000000  0.00000000  0.09392500  1
  Mo  Mo3  1  0.33333300  0.66666700  0.65755000  1
  W  W4  1  0.00000000  0.00000000  0.46964800  1
  W  W5  1  0.33333300  0.66666700  0.28177100  1
  Se  Se6  1  0.00000000  0.00000000  0.32493300  1
  Se  Se7  1  0.00000000  0.00000000  0.70055400  1
  Se  Se8  1  0.33333300  0.66666700  0.05091900  1
  Se  Se9  1  0.33333300  0.66666700  0.13694300  1
  Se  Se10  1  0.00000000  0.00000000  0.23865000  1
  Se  Se11  1  0.00000000  0.00000000  0.61451900  1
