# generated using pymatgen
data_Te6Mo3WSe2
_symmetry_space_group_name_H-M   'P 1'
_cell_length_a   3.49919409
_cell_length_b   3.49919409
_cell_length_c   39.59251600
_cell_angle_alpha   90.00000000
_cell_angle_beta   90.00000000
_cell_angle_gamma   120.00000169
_symmetry_Int_Tables_number   1
_chemical_formula_structural   Te6Mo3WSe2
_chemical_formula_sum   'Te6 Mo3 W1 Se2'
_cell_volume   419.83611001
_cell_formula_units_Z   1
loop_
 _symmetry_equiv_pos_site_id
 _symmetry_equiv_pos_as_xyz
  1  'x, y, z'
loop_
 _atom_site_type_symbol
 _atom_site_label
 _atom_site_symmetry_multiplicity
 _atom_site_fract_x
 _atom_site_fract_y
 _atom_site_fract_z
 _atom_site_occupancy
  Te  Te0  1  0.00000000  0.00000000  0.32807400  1
  Te  Te1  1  0.00000000  0.00000000  0.70382200  1
  Te  Te2  1  0.33333300  0.66666700  0.42308800  1
  Te  Te3  1  0.33333300  0.66666700  0.51623500  1
  Te  Te4  1  0.00000000  0.00000000  0.23549500  1
  Te  Te5  1  0.00000000  0.00000000  0.61124500  1
  Mo  Mo6  1  0.00000000  0.00000000  0.09391800  1
  Mo  Mo7  1  0.33333300  0.66666700  0.28177200  1
  Mo  Mo8  1  0.33333300  0.66666700  0.65755000  1
  W  W9  1  0.00000000  0.00000000  0.46965900  1
  Se  Se10  1  0.33333300  0.66666700  0.05305600  1
  Se  Se11  1  0.33333300  0.66666700  0.13483300  1
