# generated using pymatgen
data_SnBi4Te7
_symmetry_space_group_name_H-M   'P 1'
_cell_length_a   4.46054947
_cell_length_b   4.46054947
_cell_length_c   24.57213400
_cell_angle_alpha   90.00000000
_cell_angle_beta   90.00000000
_cell_angle_gamma   119.99999210
_symmetry_Int_Tables_number   1
_chemical_formula_structural   SnBi4Te7
_chemical_formula_sum   'Sn1 Bi4 Te7'
_cell_volume   423.39942256
_cell_formula_units_Z   1
loop_
 _symmetry_equiv_pos_site_id
 _symmetry_equiv_pos_as_xyz
  1  'x, y, z'
loop_
 _atom_site_type_symbol
 _atom_site_label
 _atom_site_symmetry_multiplicity
 _atom_site_fract_x
 _atom_site_fract_y
 _atom_site_fract_z
 _atom_site_occupancy
  Sn  Sn0  1  0.00000000  0.00000000  0.00000000  1
  Bi  Bi1  1  0.66666700  0.33333300  0.16152100  1
  Bi  Bi2  1  0.33333300  0.66666700  0.83847900  1
  Bi  Bi3  1  0.66666700  0.33333300  0.41795700  1
  Bi  Bi4  1  0.33333300  0.66666700  0.58204300  1
  Te  Te5  1  0.00000000  0.00000000  0.50000000  1
  Te  Te6  1  0.66666700  0.33333300  0.92328400  1
  Te  Te7  1  0.33333300  0.66666700  0.07671600  1
  Te  Te8  1  0.00000000  0.00000000  0.76881700  1
  Te  Te9  1  0.00000000  0.00000000  0.23118300  1
  Te  Te10  1  0.66666700  0.33333300  0.65192200  1
  Te  Te11  1  0.33333300  0.66666700  0.34807800  1
