# generated using pymatgen
data_KRbMg6O7
_symmetry_space_group_name_H-M   'P 1'
_cell_length_a   4.29360600
_cell_length_b   4.29360600
_cell_length_c   11.39932300
_cell_angle_alpha   90.00000000
_cell_angle_beta   90.00000000
_cell_angle_gamma   90.00000000
_symmetry_Int_Tables_number   1
_chemical_formula_structural   KRbMg6O7
_chemical_formula_sum   'K1 Rb1 Mg6 O7'
_cell_volume   210.14711778
_cell_formula_units_Z   1
loop_
 _symmetry_equiv_pos_site_id
 _symmetry_equiv_pos_as_xyz
  1  'x, y, z'
loop_
 _atom_site_type_symbol
 _atom_site_label
 _atom_site_symmetry_multiplicity
 _atom_site_fract_x
 _atom_site_fract_y
 _atom_site_fract_z
 _atom_site_occupancy
  K  K0  1  0.00000000  0.00000000  0.00068000  1
  Rb  Rb1  1  0.50000000  0.50000000  0.97591300  1
  Mg  Mg2  1  0.00000000  0.00000000  0.48415300  1
  Mg  Mg3  1  0.50000000  0.50000000  0.50253200  1
  Mg  Mg4  1  0.00000000  0.50000000  0.26908200  1
  Mg  Mg5  1  0.00000000  0.50000000  0.67799700  1
  Mg  Mg6  1  0.50000000  0.00000000  0.26908200  1
  Mg  Mg7  1  0.50000000  0.00000000  0.67799700  1
  O  O8  1  0.00000000  0.00000000  0.30882000  1
  O  O9  1  0.00000000  0.00000000  0.69348500  1
  O  O10  1  0.50000000  0.50000000  0.68791300  1
  O  O11  1  0.00000000  0.50000000  0.10511500  1
  O  O12  1  0.00000000  0.50000000  0.49605700  1
  O  O13  1  0.50000000  0.00000000  0.10511500  1
  O  O14  1  0.50000000  0.00000000  0.49605700  1
