# generated using pymatgen
data_Mg14TiVO16
_symmetry_space_group_name_H-M   'P 1'
_cell_length_a   8.57906900
_cell_length_b   8.57238100
_cell_length_c   4.26804900
_cell_angle_alpha   90.00000000
_cell_angle_beta   90.00000000
_cell_angle_gamma   90.00000000
_symmetry_Int_Tables_number   1
_chemical_formula_structural   Mg14TiVO16
_chemical_formula_sum   'Mg14 Ti1 V1 O16'
_cell_volume   313.88533287
_cell_formula_units_Z   1
loop_
 _symmetry_equiv_pos_site_id
 _symmetry_equiv_pos_as_xyz
  1  'x, y, z'
loop_
 _atom_site_type_symbol
 _atom_site_label
 _atom_site_symmetry_multiplicity
 _atom_site_fract_x
 _atom_site_fract_y
 _atom_site_fract_z
 _atom_site_occupancy
  Mg  Mg0  1  0.50000000  0.00000000  0.00000000  1
  Mg  Mg1  1  0.50000000  0.50000000  0.00000000  1
  Mg  Mg2  1  0.00000000  0.24793700  0.50000000  1
  Mg  Mg3  1  0.00000000  0.75206300  0.50000000  1
  Mg  Mg4  1  0.50000000  0.24960300  0.50000000  1
  Mg  Mg5  1  0.50000000  0.75039700  0.50000000  1
  Mg  Mg6  1  0.25132100  0.00000000  0.50000000  1
  Mg  Mg7  1  0.25274400  0.50000000  0.50000000  1
  Mg  Mg8  1  0.74867900  0.00000000  0.50000000  1
  Mg  Mg9  1  0.74725600  0.50000000  0.50000000  1
  Mg  Mg10  1  0.25104200  0.25027500  0.00000000  1
  Mg  Mg11  1  0.25104200  0.74972500  0.00000000  1
  Mg  Mg12  1  0.74895800  0.25027500  0.00000000  1
  Mg  Mg13  1  0.74895800  0.74972500  0.00000000  1
  Ti  Ti14  1  0.00000000  0.50000000  0.00000000  1
  V  V15  1  0.00000000  0.00000000  0.00000000  1
  O  O16  1  0.25554700  0.00000000  0.00000000  1
  O  O17  1  0.25835000  0.50000000  0.00000000  1
  O  O18  1  0.74445300  0.00000000  0.00000000  1
  O  O19  1  0.74165000  0.50000000  0.00000000  1
  O  O20  1  0.24894700  0.24995200  0.50000000  1
  O  O21  1  0.24894700  0.75004800  0.50000000  1
  O  O22  1  0.75105300  0.24995200  0.50000000  1
  O  O23  1  0.75105300  0.75004800  0.50000000  1
  O  O24  1  0.00000000  0.00000000  0.50000000  1
  O  O25  1  0.00000000  0.50000000  0.50000000  1
  O  O26  1  0.50000000  0.00000000  0.50000000  1
  O  O27  1  0.50000000  0.50000000  0.50000000  1
  O  O28  1  0.00000000  0.24935600  0.00000000  1
  O  O29  1  0.00000000  0.75064400  0.00000000  1
  O  O30  1  0.50000000  0.24932300  0.00000000  1
  O  O31  1  0.50000000  0.75067700  0.00000000  1
