# generated using pymatgen
data_CsHfMg6O7
_symmetry_space_group_name_H-M   'P 1'
_cell_length_a   4.10475700
_cell_length_b   4.10475700
_cell_length_c   14.06282500
_cell_angle_alpha   90.00000000
_cell_angle_beta   90.00000000
_cell_angle_gamma   90.00000000
_symmetry_Int_Tables_number   1
_chemical_formula_structural   CsHfMg6O7
_chemical_formula_sum   'Cs1 Hf1 Mg6 O7'
_cell_volume   236.94496072
_cell_formula_units_Z   1
loop_
 _symmetry_equiv_pos_site_id
 _symmetry_equiv_pos_as_xyz
  1  'x, y, z'
loop_
 _atom_site_type_symbol
 _atom_site_label
 _atom_site_symmetry_multiplicity
 _atom_site_fract_x
 _atom_site_fract_y
 _atom_site_fract_z
 _atom_site_occupancy
  Cs  Cs0  1  0.00000000  0.00000000  0.11299100  1
  Hf  Hf1  1  0.50000000  0.50000000  0.92619300  1
  Mg  Mg2  1  0.00000000  0.00000000  0.56369900  1
  Mg  Mg3  1  0.50000000  0.50000000  0.56858200  1
  Mg  Mg4  1  0.00000000  0.50000000  0.38522900  1
  Mg  Mg5  1  0.00000000  0.50000000  0.74653800  1
  Mg  Mg6  1  0.50000000  0.00000000  0.38522900  1
  Mg  Mg7  1  0.50000000  0.00000000  0.74653800  1
  O  O8  1  0.00000000  0.00000000  0.70449200  1
  O  O9  1  0.50000000  0.50000000  0.06033900  1
  O  O10  1  0.50000000  0.50000000  0.71387700  1
  O  O11  1  0.00000000  0.50000000  0.88839700  1
  O  O12  1  0.00000000  0.50000000  0.52974900  1
  O  O13  1  0.50000000  0.00000000  0.88839700  1
  O  O14  1  0.50000000  0.00000000  0.52974900  1
