# generated using pymatgen
data_Th2Cu
_symmetry_space_group_name_H-M   'P 1'
_cell_length_a   5.89918930
_cell_length_b   5.89918930
_cell_length_c   5.89918930
_cell_angle_alpha   103.88650372
_cell_angle_beta   103.88650372
_cell_angle_gamma   121.33233478
_symmetry_Int_Tables_number   1
_chemical_formula_structural   Th2Cu
_chemical_formula_sum   'Th4 Cu2'
_cell_volume   152.87131458
_cell_formula_units_Z   2
loop_
 _symmetry_equiv_pos_site_id
 _symmetry_equiv_pos_as_xyz
  1  'x, y, z'
loop_
 _atom_site_type_symbol
 _atom_site_label
 _atom_site_symmetry_multiplicity
 _atom_site_fract_x
 _atom_site_fract_y
 _atom_site_fract_z
 _atom_site_occupancy
  Th  Th0  1  0.16070500  0.66070500  0.82141100  1
  Th  Th1  1  0.83929500  0.33929500  0.17858900  1
  Th  Th2  1  0.33929500  0.16070500  0.50000000  1
  Th  Th3  1  0.66070500  0.83929500  0.50000000  1
  Cu  Cu4  1  0.25000000  0.25000000  0.00000000  1
  Cu  Cu5  1  0.75000000  0.75000000  0.00000000  1
