# generated using pymatgen
data_RbNaMg14O15
_symmetry_space_group_name_H-M   'P 1'
_cell_length_a   4.20504300
_cell_length_b   8.38365300
_cell_length_c   10.38118700
_cell_angle_alpha   90.00000000
_cell_angle_beta   90.00000000
_cell_angle_gamma   90.00000000
_symmetry_Int_Tables_number   1
_chemical_formula_structural   RbNaMg14O15
_chemical_formula_sum   'Rb1 Na1 Mg14 O15'
_cell_volume   365.97443579
_cell_formula_units_Z   1
loop_
 _symmetry_equiv_pos_site_id
 _symmetry_equiv_pos_as_xyz
  1  'x, y, z'
loop_
 _atom_site_type_symbol
 _atom_site_label
 _atom_site_symmetry_multiplicity
 _atom_site_fract_x
 _atom_site_fract_y
 _atom_site_fract_z
 _atom_site_occupancy
  Rb  Rb0  1  0.00000000  0.50000000  0.05313400  1
  Na  Na1  1  0.00000000  0.00000000  0.03597600  1
  Mg  Mg2  1  0.00000000  0.00000000  0.47674200  1
  Mg  Mg3  1  0.00000000  0.50000000  0.51330400  1
  Mg  Mg4  1  0.50000000  0.74611400  0.94090300  1
  Mg  Mg5  1  0.50000000  0.25388600  0.94090300  1
  Mg  Mg6  1  0.50000000  0.76345300  0.51763300  1
  Mg  Mg7  1  0.50000000  0.23654700  0.51763300  1
  Mg  Mg8  1  0.50000000  0.00000000  0.79708700  1
  Mg  Mg9  1  0.50000000  0.50000000  0.73012000  1
  Mg  Mg10  1  0.50000000  0.00000000  0.26786400  1
  Mg  Mg11  1  0.50000000  0.50000000  0.31719000  1
  Mg  Mg12  1  0.00000000  0.72986200  0.73436600  1
  Mg  Mg13  1  0.00000000  0.27013800  0.73436600  1
  Mg  Mg14  1  0.00000000  0.74688900  0.30321400  1
  Mg  Mg15  1  0.00000000  0.25311100  0.30321400  1
  O  O16  1  0.00000000  0.50000000  0.70385500  1
  O  O17  1  0.00000000  0.00000000  0.27533700  1
  O  O18  1  0.00000000  0.50000000  0.31546100  1
  O  O19  1  0.50000000  0.77920200  0.72173600  1
  O  O20  1  0.50000000  0.22079800  0.72173600  1
  O  O21  1  0.50000000  0.74256100  0.28365100  1
  O  O22  1  0.50000000  0.25743900  0.28365100  1
  O  O23  1  0.50000000  0.00000000  0.98604600  1
  O  O24  1  0.50000000  0.50000000  0.92013500  1
  O  O25  1  0.50000000  0.00000000  0.47858600  1
  O  O26  1  0.50000000  0.50000000  0.51654400  1
  O  O27  1  0.00000000  0.77464600  0.91783500  1
  O  O28  1  0.00000000  0.22535400  0.91783500  1
  O  O29  1  0.00000000  0.76183400  0.51197200  1
  O  O30  1  0.00000000  0.23816600  0.51197200  1
