# generated using pymatgen
data_Mg14ZnCdO16
_symmetry_space_group_name_H-M   'P 1'
_cell_length_a   4.31675500
_cell_length_b   8.60421000
_cell_length_c   8.62557900
_cell_angle_alpha   90.00000000
_cell_angle_beta   90.00000000
_cell_angle_gamma   90.00000000
_symmetry_Int_Tables_number   1
_chemical_formula_structural   Mg14ZnCdO16
_chemical_formula_sum   'Mg14 Zn1 Cd1 O16'
_cell_volume   320.37355427
_cell_formula_units_Z   1
loop_
 _symmetry_equiv_pos_site_id
 _symmetry_equiv_pos_as_xyz
  1  'x, y, z'
loop_
 _atom_site_type_symbol
 _atom_site_label
 _atom_site_symmetry_multiplicity
 _atom_site_fract_x
 _atom_site_fract_y
 _atom_site_fract_z
 _atom_site_occupancy
  Mg  Mg0  1  0.00000000  0.00000000  0.50000000  1
  Mg  Mg1  1  0.00000000  0.50000000  0.50000000  1
  Mg  Mg2  1  0.50000000  0.75608000  0.00000000  1
  Mg  Mg3  1  0.50000000  0.24392000  0.00000000  1
  Mg  Mg4  1  0.50000000  0.75099900  0.50000000  1
  Mg  Mg5  1  0.50000000  0.24900100  0.50000000  1
  Mg  Mg6  1  0.50000000  0.00000000  0.74922900  1
  Mg  Mg7  1  0.50000000  0.50000000  0.74442900  1
  Mg  Mg8  1  0.50000000  0.00000000  0.25077100  1
  Mg  Mg9  1  0.50000000  0.50000000  0.25557100  1
  Mg  Mg10  1  0.00000000  0.75313200  0.74685800  1
  Mg  Mg11  1  0.00000000  0.24686800  0.74685800  1
  Mg  Mg12  1  0.00000000  0.75313200  0.25314200  1
  Mg  Mg13  1  0.00000000  0.24686800  0.25314200  1
  Zn  Zn14  1  0.00000000  0.00000000  0.00000000  1
  Cd  Cd15  1  0.00000000  0.50000000  0.00000000  1
  O  O16  1  0.00000000  0.00000000  0.74187900  1
  O  O17  1  0.00000000  0.50000000  0.73471400  1
  O  O18  1  0.00000000  0.00000000  0.25812100  1
  O  O19  1  0.00000000  0.50000000  0.26528600  1
  O  O20  1  0.50000000  0.74964100  0.75122500  1
  O  O21  1  0.50000000  0.25035900  0.75122500  1
  O  O22  1  0.50000000  0.74964100  0.24877500  1
  O  O23  1  0.50000000  0.25035900  0.24877500  1
  O  O24  1  0.50000000  0.00000000  0.00000000  1
  O  O25  1  0.50000000  0.50000000  0.00000000  1
  O  O26  1  0.50000000  0.00000000  0.50000000  1
  O  O27  1  0.50000000  0.50000000  0.50000000  1
  O  O28  1  0.00000000  0.76412300  0.00000000  1
  O  O29  1  0.00000000  0.23587700  0.00000000  1
  O  O30  1  0.00000000  0.75178200  0.50000000  1
  O  O31  1  0.00000000  0.24821800  0.50000000  1
