# generated using pymatgen
data_KMg14BO15
_symmetry_space_group_name_H-M   'P 1'
_cell_length_a   4.50369200
_cell_length_b   8.30908400
_cell_length_c   8.69761600
_cell_angle_alpha   90.00000000
_cell_angle_beta   90.00000000
_cell_angle_gamma   90.00000000
_symmetry_Int_Tables_number   1
_chemical_formula_structural   KMg14BO15
_chemical_formula_sum   'K1 Mg14 B1 O15'
_cell_volume   325.47831671
_cell_formula_units_Z   1
loop_
 _symmetry_equiv_pos_site_id
 _symmetry_equiv_pos_as_xyz
  1  'x, y, z'
loop_
 _atom_site_type_symbol
 _atom_site_label
 _atom_site_symmetry_multiplicity
 _atom_site_fract_x
 _atom_site_fract_y
 _atom_site_fract_z
 _atom_site_occupancy
  K  K0  1  0.00000000  0.00000000  0.98499800  1
  Mg  Mg1  1  0.00000000  0.00000000  0.50333300  1
  Mg  Mg2  1  0.00000000  0.50000000  0.49466500  1
  Mg  Mg3  1  0.50000000  0.73825100  0.00127800  1
  Mg  Mg4  1  0.50000000  0.26174900  0.00127800  1
  Mg  Mg5  1  0.50000000  0.74964100  0.49723100  1
  Mg  Mg6  1  0.50000000  0.25035900  0.49723100  1
  Mg  Mg7  1  0.50000000  0.00000000  0.74565700  1
  Mg  Mg8  1  0.50000000  0.50000000  0.75826700  1
  Mg  Mg9  1  0.50000000  0.00000000  0.24883900  1
  Mg  Mg10  1  0.50000000  0.50000000  0.24581700  1
  Mg  Mg11  1  0.00000000  0.73372000  0.73867600  1
  Mg  Mg12  1  0.00000000  0.26628000  0.73867600  1
  Mg  Mg13  1  0.00000000  0.75668400  0.25508700  1
  Mg  Mg14  1  0.00000000  0.24331600  0.25508700  1
  B  B15  1  0.00000000  0.50000000  0.06099400  1
  O  O16  1  0.00000000  0.50000000  0.72123800  1
  O  O17  1  0.00000000  0.00000000  0.26801900  1
  O  O18  1  0.00000000  0.50000000  0.23281500  1
  O  O19  1  0.50000000  0.74661400  0.75311500  1
  O  O20  1  0.50000000  0.25338600  0.75311500  1
  O  O21  1  0.50000000  0.75022500  0.24753000  1
  O  O22  1  0.50000000  0.24977500  0.24753000  1
  O  O23  1  0.50000000  0.00000000  0.00356300  1
  O  O24  1  0.50000000  0.50000000  0.01018500  1
  O  O25  1  0.50000000  0.00000000  0.49880300  1
  O  O26  1  0.50000000  0.50000000  0.48562800  1
  O  O27  1  0.00000000  0.66721400  0.00908700  1
  O  O28  1  0.00000000  0.33278600  0.00908700  1
  O  O29  1  0.00000000  0.74545300  0.49158400  1
  O  O30  1  0.00000000  0.25454700  0.49158400  1
