# generated using pymatgen
data_KYMg14O16
_symmetry_space_group_name_H-M   'P 1'
_cell_length_a   4.43111400
_cell_length_b   8.68321900
_cell_length_c   8.87288000
_cell_angle_alpha   90.00000000
_cell_angle_beta   90.00000000
_cell_angle_gamma   90.00000000
_symmetry_Int_Tables_number   1
_chemical_formula_structural   KYMg14O16
_chemical_formula_sum   'K1 Y1 Mg14 O16'
_cell_volume   341.39588800
_cell_formula_units_Z   1
loop_
 _symmetry_equiv_pos_site_id
 _symmetry_equiv_pos_as_xyz
  1  'x, y, z'
loop_
 _atom_site_type_symbol
 _atom_site_label
 _atom_site_symmetry_multiplicity
 _atom_site_fract_x
 _atom_site_fract_y
 _atom_site_fract_z
 _atom_site_occupancy
  K  K0  1  0.00000000  0.00000000  0.50000000  1
  Y  Y1  1  0.00000000  0.00000000  0.00000000  1
  Mg  Mg2  1  0.00000000  0.50000000  0.00000000  1
  Mg  Mg3  1  0.00000000  0.50000000  0.50000000  1
  Mg  Mg4  1  0.50000000  0.00000000  0.26401200  1
  Mg  Mg5  1  0.50000000  0.00000000  0.73598800  1
  Mg  Mg6  1  0.50000000  0.50000000  0.25313100  1
  Mg  Mg7  1  0.50000000  0.50000000  0.74686900  1
  Mg  Mg8  1  0.50000000  0.26160500  0.00000000  1
  Mg  Mg9  1  0.50000000  0.25233800  0.50000000  1
  Mg  Mg10  1  0.50000000  0.73839500  0.00000000  1
  Mg  Mg11  1  0.50000000  0.74766200  0.50000000  1
  Mg  Mg12  1  0.00000000  0.25714600  0.25821500  1
  Mg  Mg13  1  0.00000000  0.25714600  0.74178500  1
  Mg  Mg14  1  0.00000000  0.74285400  0.25821500  1
  Mg  Mg15  1  0.00000000  0.74285400  0.74178500  1
  O  O16  1  0.00000000  0.26161400  0.00000000  1
  O  O17  1  0.00000000  0.27605200  0.50000000  1
  O  O18  1  0.00000000  0.73838600  0.00000000  1
  O  O19  1  0.00000000  0.72394800  0.50000000  1
  O  O20  1  0.50000000  0.24930100  0.24813500  1
  O  O21  1  0.50000000  0.24930100  0.75186500  1
  O  O22  1  0.50000000  0.75069900  0.24813500  1
  O  O23  1  0.50000000  0.75069900  0.75186500  1
  O  O24  1  0.50000000  0.00000000  0.00000000  1
  O  O25  1  0.50000000  0.00000000  0.50000000  1
  O  O26  1  0.50000000  0.50000000  0.00000000  1
  O  O27  1  0.50000000  0.50000000  0.50000000  1
  O  O28  1  0.00000000  0.00000000  0.23969700  1
  O  O29  1  0.00000000  0.00000000  0.76030300  1
  O  O30  1  0.00000000  0.50000000  0.24483200  1
  O  O31  1  0.00000000  0.50000000  0.75516800  1
