# generated using pymatgen
data_Mg14MnZnO16
_symmetry_space_group_name_H-M   'P 1'
_cell_length_a   4.28514900
_cell_length_b   8.54747800
_cell_length_c   8.57158700
_cell_angle_alpha   90.00000000
_cell_angle_beta   90.00000000
_cell_angle_gamma   90.00000000
_symmetry_Int_Tables_number   1
_chemical_formula_structural   Mg14MnZnO16
_chemical_formula_sum   'Mg14 Mn1 Zn1 O16'
_cell_volume   313.95337541
_cell_formula_units_Z   1
loop_
 _symmetry_equiv_pos_site_id
 _symmetry_equiv_pos_as_xyz
  1  'x, y, z'
loop_
 _atom_site_type_symbol
 _atom_site_label
 _atom_site_symmetry_multiplicity
 _atom_site_fract_x
 _atom_site_fract_y
 _atom_site_fract_z
 _atom_site_occupancy
  Mg  Mg0  1  0.00000000  0.00000000  0.50000000  1
  Mg  Mg1  1  0.00000000  0.50000000  0.50000000  1
  Mg  Mg2  1  0.50000000  0.74716800  0.00000000  1
  Mg  Mg3  1  0.50000000  0.25283200  0.00000000  1
  Mg  Mg4  1  0.50000000  0.75018600  0.50000000  1
  Mg  Mg5  1  0.50000000  0.24981400  0.50000000  1
  Mg  Mg6  1  0.50000000  0.00000000  0.74807700  1
  Mg  Mg7  1  0.50000000  0.50000000  0.74969400  1
  Mg  Mg8  1  0.50000000  0.00000000  0.25192300  1
  Mg  Mg9  1  0.50000000  0.50000000  0.25030600  1
  Mg  Mg10  1  0.00000000  0.74865000  0.74896200  1
  Mg  Mg11  1  0.00000000  0.25135000  0.74896200  1
  Mg  Mg12  1  0.00000000  0.74865000  0.25103800  1
  Mg  Mg13  1  0.00000000  0.25135000  0.25103800  1
  Mn  Mn14  1  0.00000000  0.00000000  0.00000000  1
  Zn  Zn15  1  0.00000000  0.50000000  0.00000000  1
  O  O16  1  0.00000000  0.00000000  0.74234200  1
  O  O17  1  0.00000000  0.50000000  0.74433200  1
  O  O18  1  0.00000000  0.00000000  0.25765800  1
  O  O19  1  0.00000000  0.50000000  0.25566800  1
  O  O20  1  0.50000000  0.75000100  0.75115700  1
  O  O21  1  0.50000000  0.24999900  0.75115700  1
  O  O22  1  0.50000000  0.75000100  0.24884300  1
  O  O23  1  0.50000000  0.24999900  0.24884300  1
  O  O24  1  0.50000000  0.00000000  0.00000000  1
  O  O25  1  0.50000000  0.50000000  0.00000000  1
  O  O26  1  0.50000000  0.00000000  0.50000000  1
  O  O27  1  0.50000000  0.50000000  0.50000000  1
  O  O28  1  0.00000000  0.74522400  0.00000000  1
  O  O29  1  0.00000000  0.25477600  0.00000000  1
  O  O30  1  0.00000000  0.74980000  0.50000000  1
  O  O31  1  0.00000000  0.25020000  0.50000000  1
