# generated using pymatgen
data_Mg14MnCoO16
_symmetry_space_group_name_H-M   'P 1'
_cell_length_a   4.28418500
_cell_length_b   8.54460600
_cell_length_c   8.56881600
_cell_angle_alpha   90.00000000
_cell_angle_beta   90.00000000
_cell_angle_gamma   90.00000000
_symmetry_Int_Tables_number   1
_chemical_formula_structural   Mg14MnCoO16
_chemical_formula_sum   'Mg14 Mn1 Co1 O16'
_cell_volume   313.67584408
_cell_formula_units_Z   1
loop_
 _symmetry_equiv_pos_site_id
 _symmetry_equiv_pos_as_xyz
  1  'x, y, z'
loop_
 _atom_site_type_symbol
 _atom_site_label
 _atom_site_symmetry_multiplicity
 _atom_site_fract_x
 _atom_site_fract_y
 _atom_site_fract_z
 _atom_site_occupancy
  Mg  Mg0  1  0.00000000  0.50000000  0.00000000  1
  Mg  Mg1  1  0.00000000  0.50000000  0.50000000  1
  Mg  Mg2  1  0.50000000  0.00000000  0.25311600  1
  Mg  Mg3  1  0.50000000  0.00000000  0.74688400  1
  Mg  Mg4  1  0.50000000  0.50000000  0.24999600  1
  Mg  Mg5  1  0.50000000  0.50000000  0.75000400  1
  Mg  Mg6  1  0.50000000  0.25169700  0.00000000  1
  Mg  Mg7  1  0.50000000  0.24904500  0.50000000  1
  Mg  Mg8  1  0.50000000  0.74830300  0.00000000  1
  Mg  Mg9  1  0.50000000  0.75095500  0.50000000  1
  Mg  Mg10  1  0.00000000  0.25033700  0.25098800  1
  Mg  Mg11  1  0.00000000  0.25033700  0.74901200  1
  Mg  Mg12  1  0.00000000  0.74966300  0.25098800  1
  Mg  Mg13  1  0.00000000  0.74966300  0.74901200  1
  Mn  Mn14  1  0.00000000  0.00000000  0.00000000  1
  Co  Co15  1  0.00000000  0.00000000  0.50000000  1
  O  O16  1  0.00000000  0.25743200  0.00000000  1
  O  O17  1  0.00000000  0.25205400  0.50000000  1
  O  O18  1  0.00000000  0.74256800  0.00000000  1
  O  O19  1  0.00000000  0.74794600  0.50000000  1
  O  O20  1  0.50000000  0.24933400  0.25012300  1
  O  O21  1  0.50000000  0.24933400  0.74987700  1
  O  O22  1  0.50000000  0.75066600  0.25012300  1
  O  O23  1  0.50000000  0.75066600  0.74987700  1
  O  O24  1  0.50000000  0.00000000  0.00000000  1
  O  O25  1  0.50000000  0.00000000  0.50000000  1
  O  O26  1  0.50000000  0.50000000  0.00000000  1
  O  O27  1  0.50000000  0.50000000  0.50000000  1
  O  O28  1  0.00000000  0.00000000  0.25430900  1
  O  O29  1  0.00000000  0.00000000  0.74569100  1
  O  O30  1  0.00000000  0.50000000  0.25112100  1
  O  O31  1  0.00000000  0.50000000  0.74887900  1
