# generated using pymatgen
data_CaMg14CdO16
_symmetry_space_group_name_H-M   'P 1'
_cell_length_a   4.36375200
_cell_length_b   8.66138000
_cell_length_c   8.70699400
_cell_angle_alpha   90.00000000
_cell_angle_beta   90.00000000
_cell_angle_gamma   90.00000000
_symmetry_Int_Tables_number   1
_chemical_formula_structural   CaMg14CdO16
_chemical_formula_sum   'Ca1 Mg14 Cd1 O16'
_cell_volume   329.09054041
_cell_formula_units_Z   1
loop_
 _symmetry_equiv_pos_site_id
 _symmetry_equiv_pos_as_xyz
  1  'x, y, z'
loop_
 _atom_site_type_symbol
 _atom_site_label
 _atom_site_symmetry_multiplicity
 _atom_site_fract_x
 _atom_site_fract_y
 _atom_site_fract_z
 _atom_site_occupancy
  Ca  Ca0  1  0.00000000  0.00000000  0.00000000  1
  Mg  Mg1  1  0.00000000  0.50000000  0.00000000  1
  Mg  Mg2  1  0.00000000  0.50000000  0.50000000  1
  Mg  Mg3  1  0.50000000  0.00000000  0.25110800  1
  Mg  Mg4  1  0.50000000  0.00000000  0.74889200  1
  Mg  Mg5  1  0.50000000  0.50000000  0.25033400  1
  Mg  Mg6  1  0.50000000  0.50000000  0.74966600  1
  Mg  Mg7  1  0.50000000  0.25587000  0.00000000  1
  Mg  Mg8  1  0.50000000  0.25523700  0.50000000  1
  Mg  Mg9  1  0.50000000  0.74413000  0.00000000  1
  Mg  Mg10  1  0.50000000  0.74476300  0.50000000  1
  Mg  Mg11  1  0.00000000  0.25578400  0.25118600  1
  Mg  Mg12  1  0.00000000  0.25578400  0.74881400  1
  Mg  Mg13  1  0.00000000  0.74421600  0.25118600  1
  Mg  Mg14  1  0.00000000  0.74421600  0.74881400  1
  Cd  Cd15  1  0.00000000  0.00000000  0.50000000  1
  O  O16  1  0.00000000  0.26459200  0.00000000  1
  O  O17  1  0.00000000  0.26770000  0.50000000  1
  O  O18  1  0.00000000  0.73540800  0.00000000  1
  O  O19  1  0.00000000  0.73230000  0.50000000  1
  O  O20  1  0.50000000  0.24962800  0.25045600  1
  O  O21  1  0.50000000  0.24962800  0.74954400  1
  O  O22  1  0.50000000  0.75037200  0.25045600  1
  O  O23  1  0.50000000  0.75037200  0.74954400  1
  O  O24  1  0.50000000  0.00000000  0.00000000  1
  O  O25  1  0.50000000  0.00000000  0.50000000  1
  O  O26  1  0.50000000  0.50000000  0.00000000  1
  O  O27  1  0.50000000  0.50000000  0.50000000  1
  O  O28  1  0.00000000  0.00000000  0.24901900  1
  O  O29  1  0.00000000  0.00000000  0.75098100  1
  O  O30  1  0.00000000  0.50000000  0.24963400  1
  O  O31  1  0.00000000  0.50000000  0.75036600  1
