# generated using pymatgen
data_CaMg14SiO16
_symmetry_space_group_name_H-M   'P 1'
_cell_length_a   4.35482600
_cell_length_b   8.64447900
_cell_length_c   8.67622200
_cell_angle_alpha   90.00000000
_cell_angle_beta   90.00000000
_cell_angle_gamma   90.00000000
_symmetry_Int_Tables_number   1
_chemical_formula_structural   CaMg14SiO16
_chemical_formula_sum   'Ca1 Mg14 Si1 O16'
_cell_volume   326.61812897
_cell_formula_units_Z   1
loop_
 _symmetry_equiv_pos_site_id
 _symmetry_equiv_pos_as_xyz
  1  'x, y, z'
loop_
 _atom_site_type_symbol
 _atom_site_label
 _atom_site_symmetry_multiplicity
 _atom_site_fract_x
 _atom_site_fract_y
 _atom_site_fract_z
 _atom_site_occupancy
  Ca  Ca0  1  0.00000000  0.00000000  0.00000000  1
  Mg  Mg1  1  0.00000000  0.00000000  0.50000000  1
  Mg  Mg2  1  0.00000000  0.50000000  0.50000000  1
  Mg  Mg3  1  0.50000000  0.74645300  0.00000000  1
  Mg  Mg4  1  0.50000000  0.25354700  0.00000000  1
  Mg  Mg5  1  0.50000000  0.74926000  0.50000000  1
  Mg  Mg6  1  0.50000000  0.25074000  0.50000000  1
  Mg  Mg7  1  0.50000000  0.00000000  0.74415300  1
  Mg  Mg8  1  0.50000000  0.50000000  0.74699100  1
  Mg  Mg9  1  0.50000000  0.00000000  0.25584700  1
  Mg  Mg10  1  0.50000000  0.50000000  0.25300900  1
  Mg  Mg11  1  0.00000000  0.74748200  0.74484400  1
  Mg  Mg12  1  0.00000000  0.25251800  0.74484400  1
  Mg  Mg13  1  0.00000000  0.74748200  0.25515600  1
  Mg  Mg14  1  0.00000000  0.25251800  0.25515600  1
  Si  Si15  1  0.00000000  0.50000000  0.00000000  1
  O  O16  1  0.00000000  0.00000000  0.73620600  1
  O  O17  1  0.00000000  0.50000000  0.73538500  1
  O  O18  1  0.00000000  0.00000000  0.26379400  1
  O  O19  1  0.00000000  0.50000000  0.26461500  1
  O  O20  1  0.50000000  0.74974200  0.75085400  1
  O  O21  1  0.50000000  0.25025800  0.75085400  1
  O  O22  1  0.50000000  0.74974200  0.24914600  1
  O  O23  1  0.50000000  0.25025800  0.24914600  1
  O  O24  1  0.50000000  0.00000000  0.00000000  1
  O  O25  1  0.50000000  0.50000000  0.00000000  1
  O  O26  1  0.50000000  0.00000000  0.50000000  1
  O  O27  1  0.50000000  0.50000000  0.50000000  1
  O  O28  1  0.00000000  0.74322600  0.00000000  1
  O  O29  1  0.00000000  0.25677400  0.00000000  1
  O  O30  1  0.00000000  0.74980100  0.50000000  1
  O  O31  1  0.00000000  0.25019900  0.50000000  1
