# generated using pymatgen
data_CaHfMg14O16
_symmetry_space_group_name_H-M   'P 1'
_cell_length_a   4.38539000
_cell_length_b   8.70430900
_cell_length_c   8.73095100
_cell_angle_alpha   90.00000000
_cell_angle_beta   90.00000000
_cell_angle_gamma   90.00000000
_symmetry_Int_Tables_number   1
_chemical_formula_structural   CaHfMg14O16
_chemical_formula_sum   'Ca1 Hf1 Mg14 O16'
_cell_volume   333.27602498
_cell_formula_units_Z   1
loop_
 _symmetry_equiv_pos_site_id
 _symmetry_equiv_pos_as_xyz
  1  'x, y, z'
loop_
 _atom_site_type_symbol
 _atom_site_label
 _atom_site_symmetry_multiplicity
 _atom_site_fract_x
 _atom_site_fract_y
 _atom_site_fract_z
 _atom_site_occupancy
  Ca  Ca0  1  0.00000000  0.00000000  0.00000000  1
  Hf  Hf1  1  0.00000000  0.00000000  0.50000000  1
  Mg  Mg2  1  0.00000000  0.50000000  0.00000000  1
  Mg  Mg3  1  0.00000000  0.50000000  0.50000000  1
  Mg  Mg4  1  0.50000000  0.00000000  0.24742500  1
  Mg  Mg5  1  0.50000000  0.00000000  0.75257500  1
  Mg  Mg6  1  0.50000000  0.50000000  0.24971600  1
  Mg  Mg7  1  0.50000000  0.50000000  0.75028400  1
  Mg  Mg8  1  0.50000000  0.25758300  0.00000000  1
  Mg  Mg9  1  0.50000000  0.25690000  0.50000000  1
  Mg  Mg10  1  0.50000000  0.74241700  0.00000000  1
  Mg  Mg11  1  0.50000000  0.74310000  0.50000000  1
  Mg  Mg12  1  0.00000000  0.25983300  0.24723200  1
  Mg  Mg13  1  0.00000000  0.25983300  0.75276800  1
  Mg  Mg14  1  0.00000000  0.74016700  0.24723200  1
  Mg  Mg15  1  0.00000000  0.74016700  0.75276800  1
  O  O16  1  0.00000000  0.26405500  0.00000000  1
  O  O17  1  0.00000000  0.25490800  0.50000000  1
  O  O18  1  0.00000000  0.73594500  0.00000000  1
  O  O19  1  0.00000000  0.74509200  0.50000000  1
  O  O20  1  0.50000000  0.25013300  0.24930400  1
  O  O21  1  0.50000000  0.25013300  0.75069600  1
  O  O22  1  0.50000000  0.74986700  0.24930400  1
  O  O23  1  0.50000000  0.74986700  0.75069600  1
  O  O24  1  0.50000000  0.00000000  0.00000000  1
  O  O25  1  0.50000000  0.00000000  0.50000000  1
  O  O26  1  0.50000000  0.50000000  0.00000000  1
  O  O27  1  0.50000000  0.50000000  0.50000000  1
  O  O28  1  0.00000000  0.00000000  0.25791100  1
  O  O29  1  0.00000000  0.00000000  0.74208900  1
  O  O30  1  0.00000000  0.50000000  0.25256500  1
  O  O31  1  0.00000000  0.50000000  0.74743500  1
