# generated using pymatgen
data_BaMg14AlO16
_symmetry_space_group_name_H-M   'P 1'
_cell_length_a   4.55540800
_cell_length_b   8.64426800
_cell_length_c   8.80333600
_cell_angle_alpha   90.00000000
_cell_angle_beta   90.00000000
_cell_angle_gamma   90.00000000
_symmetry_Int_Tables_number   1
_chemical_formula_structural   BaMg14AlO16
_chemical_formula_sum   'Ba1 Mg14 Al1 O16'
_cell_volume   346.65924046
_cell_formula_units_Z   1
loop_
 _symmetry_equiv_pos_site_id
 _symmetry_equiv_pos_as_xyz
  1  'x, y, z'
loop_
 _atom_site_type_symbol
 _atom_site_label
 _atom_site_symmetry_multiplicity
 _atom_site_fract_x
 _atom_site_fract_y
 _atom_site_fract_z
 _atom_site_occupancy
  Ba  Ba0  1  0.00000000  0.50000000  0.00000000  1
  Mg  Mg1  1  0.00000000  0.00000000  0.50000000  1
  Mg  Mg2  1  0.00000000  0.50000000  0.50000000  1
  Mg  Mg3  1  0.50000000  0.76200200  0.00000000  1
  Mg  Mg4  1  0.50000000  0.23799800  0.00000000  1
  Mg  Mg5  1  0.50000000  0.75144400  0.50000000  1
  Mg  Mg6  1  0.50000000  0.24855600  0.50000000  1
  Mg  Mg7  1  0.50000000  0.00000000  0.74757300  1
  Mg  Mg8  1  0.50000000  0.50000000  0.73499000  1
  Mg  Mg9  1  0.50000000  0.00000000  0.25242700  1
  Mg  Mg10  1  0.50000000  0.50000000  0.26501000  1
  Mg  Mg11  1  0.00000000  0.75619200  0.73795500  1
  Mg  Mg12  1  0.00000000  0.24380800  0.73795500  1
  Mg  Mg13  1  0.00000000  0.75619200  0.26204500  1
  Mg  Mg14  1  0.00000000  0.24380800  0.26204500  1
  Al  Al15  1  0.00000000  0.00000000  0.00000000  1
  O  O16  1  0.00000000  0.00000000  0.76081800  1
  O  O17  1  0.00000000  0.50000000  0.71970400  1
  O  O18  1  0.00000000  0.00000000  0.23918200  1
  O  O19  1  0.00000000  0.50000000  0.28029600  1
  O  O20  1  0.50000000  0.74973200  0.75099700  1
  O  O21  1  0.50000000  0.25026800  0.75099700  1
  O  O22  1  0.50000000  0.74973200  0.24900300  1
  O  O23  1  0.50000000  0.25026800  0.24900300  1
  O  O24  1  0.50000000  0.00000000  0.00000000  1
  O  O25  1  0.50000000  0.50000000  0.00000000  1
  O  O26  1  0.50000000  0.00000000  0.50000000  1
  O  O27  1  0.50000000  0.50000000  0.50000000  1
  O  O28  1  0.00000000  0.79197900  0.00000000  1
  O  O29  1  0.00000000  0.20802100  0.00000000  1
  O  O30  1  0.00000000  0.75968000  0.50000000  1
  O  O31  1  0.00000000  0.24032000  0.50000000  1
