# generated using pymatgen
data_SrMg14AlO16
_symmetry_space_group_name_H-M   'P 1'
_cell_length_a   4.43945600
_cell_length_b   8.61130600
_cell_length_c   8.71940700
_cell_angle_alpha   90.00000000
_cell_angle_beta   90.00000000
_cell_angle_gamma   90.00000000
_symmetry_Int_Tables_number   1
_chemical_formula_structural   SrMg14AlO16
_chemical_formula_sum   'Sr1 Mg14 Al1 O16'
_cell_volume   333.33869276
_cell_formula_units_Z   1
loop_
 _symmetry_equiv_pos_site_id
 _symmetry_equiv_pos_as_xyz
  1  'x, y, z'
loop_
 _atom_site_type_symbol
 _atom_site_label
 _atom_site_symmetry_multiplicity
 _atom_site_fract_x
 _atom_site_fract_y
 _atom_site_fract_z
 _atom_site_occupancy
  Sr  Sr0  1  0.00000000  0.50000000  0.00000000  1
  Mg  Mg1  1  0.00000000  0.00000000  0.50000000  1
  Mg  Mg2  1  0.00000000  0.50000000  0.50000000  1
  Mg  Mg3  1  0.50000000  0.75796100  0.00000000  1
  Mg  Mg4  1  0.50000000  0.24203900  0.00000000  1
  Mg  Mg5  1  0.50000000  0.75109400  0.50000000  1
  Mg  Mg6  1  0.50000000  0.24890600  0.50000000  1
  Mg  Mg7  1  0.50000000  0.00000000  0.74843100  1
  Mg  Mg8  1  0.50000000  0.50000000  0.73924700  1
  Mg  Mg9  1  0.50000000  0.00000000  0.25156900  1
  Mg  Mg10  1  0.50000000  0.50000000  0.26075300  1
  Mg  Mg11  1  0.00000000  0.75372600  0.74165700  1
  Mg  Mg12  1  0.00000000  0.24627400  0.74165700  1
  Mg  Mg13  1  0.00000000  0.75372600  0.25834300  1
  Mg  Mg14  1  0.00000000  0.24627400  0.25834300  1
  Al  Al15  1  0.00000000  0.00000000  0.00000000  1
  O  O16  1  0.00000000  0.00000000  0.76490400  1
  O  O17  1  0.00000000  0.50000000  0.72893100  1
  O  O18  1  0.00000000  0.00000000  0.23509600  1
  O  O19  1  0.00000000  0.50000000  0.27106900  1
  O  O20  1  0.50000000  0.75022200  0.75055100  1
  O  O21  1  0.50000000  0.24977800  0.75055100  1
  O  O22  1  0.50000000  0.75022200  0.24944900  1
  O  O23  1  0.50000000  0.24977800  0.24944900  1
  O  O24  1  0.50000000  0.00000000  0.00000000  1
  O  O25  1  0.50000000  0.50000000  0.00000000  1
  O  O26  1  0.50000000  0.00000000  0.50000000  1
  O  O27  1  0.50000000  0.50000000  0.50000000  1
  O  O28  1  0.00000000  0.78354100  0.00000000  1
  O  O29  1  0.00000000  0.21645900  0.00000000  1
  O  O30  1  0.00000000  0.75738100  0.50000000  1
  O  O31  1  0.00000000  0.24261900  0.50000000  1
