# generated using pymatgen
data_WN2
_symmetry_space_group_name_H-M   'P 1'
_cell_length_a   5.01837100
_cell_length_b   5.01837100
_cell_length_c   5.01837100
_cell_angle_alpha   90.00000000
_cell_angle_beta   90.00000000
_cell_angle_gamma   90.00000000
_symmetry_Int_Tables_number   1
_chemical_formula_structural   WN2
_chemical_formula_sum   'W4 N8'
_cell_volume   126.38289360
_cell_formula_units_Z   4
loop_
 _symmetry_equiv_pos_site_id
 _symmetry_equiv_pos_as_xyz
  1  'x, y, z'
loop_
 _atom_site_type_symbol
 _atom_site_label
 _atom_site_symmetry_multiplicity
 _atom_site_fract_x
 _atom_site_fract_y
 _atom_site_fract_z
 _atom_site_occupancy
  W  W0  1  0.50000000  0.50000000  0.00000000  1
  W  W1  1  0.50000000  0.00000000  0.50000000  1
  W  W2  1  0.00000000  0.50000000  0.50000000  1
  W  W3  1  0.00000000  0.00000000  0.00000000  1
  N  N4  1  0.14945200  0.85054800  0.35054800  1
  N  N5  1  0.85054800  0.35054800  0.14945200  1
  N  N6  1  0.35054800  0.14945200  0.85054800  1
  N  N7  1  0.64945200  0.64945200  0.64945200  1
  N  N8  1  0.85054800  0.14945200  0.64945200  1
  N  N9  1  0.14945200  0.64945200  0.85054800  1
  N  N10  1  0.64945200  0.85054800  0.14945200  1
  N  N11  1  0.35054800  0.35054800  0.35054800  1
