# generated using pymatgen
data_Mg30VCoO32
_symmetry_space_group_name_H-M   'P 1'
_cell_length_a   8.51471100
_cell_length_b   8.51471100
_cell_length_c   8.53567500
_cell_angle_alpha   90.00000000
_cell_angle_beta   90.00000000
_cell_angle_gamma   90.00000000
_symmetry_Int_Tables_number   1
_chemical_formula_structural   Mg30VCoO32
_chemical_formula_sum   'Mg30 V1 Co1 O32'
_cell_volume   618.83902734
_cell_formula_units_Z   1
loop_
 _symmetry_equiv_pos_site_id
 _symmetry_equiv_pos_as_xyz
  1  'x, y, z'
loop_
 _atom_site_type_symbol
 _atom_site_label
 _atom_site_symmetry_multiplicity
 _atom_site_fract_x
 _atom_site_fract_y
 _atom_site_fract_z
 _atom_site_occupancy
  Mg  Mg0  1  0.00000000  0.50000000  0.00000000  1
  Mg  Mg1  1  0.00000000  0.50000000  0.50000000  1
  Mg  Mg2  1  0.50000000  0.00000000  0.00000000  1
  Mg  Mg3  1  0.50000000  0.00000000  0.50000000  1
  Mg  Mg4  1  0.50000000  0.50000000  0.00000000  1
  Mg  Mg5  1  0.50000000  0.50000000  0.50000000  1
  Mg  Mg6  1  0.00000000  0.24968100  0.24954000  1
  Mg  Mg7  1  0.00000000  0.24968100  0.75046000  1
  Mg  Mg8  1  0.00000000  0.75031900  0.24954000  1
  Mg  Mg9  1  0.00000000  0.75031900  0.75046000  1
  Mg  Mg10  1  0.50000000  0.24986000  0.25000800  1
  Mg  Mg11  1  0.50000000  0.24986000  0.74999200  1
  Mg  Mg12  1  0.50000000  0.75014000  0.25000800  1
  Mg  Mg13  1  0.50000000  0.75014000  0.74999200  1
  Mg  Mg14  1  0.24968100  0.00000000  0.24954000  1
  Mg  Mg15  1  0.24968100  0.00000000  0.75046000  1
  Mg  Mg16  1  0.24986000  0.50000000  0.25000800  1
  Mg  Mg17  1  0.24986000  0.50000000  0.74999200  1
  Mg  Mg18  1  0.75031900  0.00000000  0.24954000  1
  Mg  Mg19  1  0.75031900  0.00000000  0.75046000  1
  Mg  Mg20  1  0.75014000  0.50000000  0.25000800  1
  Mg  Mg21  1  0.75014000  0.50000000  0.74999200  1
  Mg  Mg22  1  0.25018200  0.25018200  0.00000000  1
  Mg  Mg23  1  0.25018000  0.25018000  0.50000000  1
  Mg  Mg24  1  0.25018200  0.74981800  0.00000000  1
  Mg  Mg25  1  0.25018000  0.74982000  0.50000000  1
  Mg  Mg26  1  0.74981800  0.25018200  0.00000000  1
  Mg  Mg27  1  0.74982000  0.25018000  0.50000000  1
  Mg  Mg28  1  0.74981800  0.74981800  0.00000000  1
  Mg  Mg29  1  0.74982000  0.74982000  0.50000000  1
  V  V30  1  0.00000000  0.00000000  0.50000000  1
  Co  Co31  1  0.00000000  0.00000000  0.00000000  1
  O  O32  1  0.25165200  0.00000000  0.00000000  1
  O  O33  1  0.25524800  0.00000000  0.50000000  1
  O  O34  1  0.25016300  0.50000000  0.00000000  1
  O  O35  1  0.25048900  0.50000000  0.50000000  1
  O  O36  1  0.74834800  0.00000000  0.00000000  1
  O  O37  1  0.74475200  0.00000000  0.50000000  1
  O  O38  1  0.74983700  0.50000000  0.00000000  1
  O  O39  1  0.74951100  0.50000000  0.50000000  1
  O  O40  1  0.24965800  0.24965800  0.24953900  1
  O  O41  1  0.24965800  0.24965800  0.75046100  1
  O  O42  1  0.24965800  0.75034200  0.24953900  1
  O  O43  1  0.24965800  0.75034200  0.75046100  1
  O  O44  1  0.75034200  0.24965800  0.24953900  1
  O  O45  1  0.75034200  0.24965800  0.75046100  1
  O  O46  1  0.75034200  0.75034200  0.24953900  1
  O  O47  1  0.75034200  0.75034200  0.75046100  1
  O  O48  1  0.00000000  0.00000000  0.24873300  1
  O  O49  1  0.00000000  0.00000000  0.75126700  1
  O  O50  1  0.00000000  0.50000000  0.24965700  1
  O  O51  1  0.00000000  0.50000000  0.75034300  1
  O  O52  1  0.50000000  0.00000000  0.24965700  1
  O  O53  1  0.50000000  0.00000000  0.75034300  1
  O  O54  1  0.50000000  0.50000000  0.24986400  1
  O  O55  1  0.50000000  0.50000000  0.75013600  1
  O  O56  1  0.00000000  0.25165200  0.00000000  1
  O  O57  1  0.00000000  0.25524800  0.50000000  1
  O  O58  1  0.00000000  0.74834800  0.00000000  1
  O  O59  1  0.00000000  0.74475200  0.50000000  1
  O  O60  1  0.50000000  0.25016300  0.00000000  1
  O  O61  1  0.50000000  0.25048900  0.50000000  1
  O  O62  1  0.50000000  0.74983700  0.00000000  1
  O  O63  1  0.50000000  0.74951100  0.50000000  1
