# generated using pymatgen
data_Mg30ZnCdO32
_symmetry_space_group_name_H-M   'P 1'
_cell_length_a   8.56657100
_cell_length_b   8.56657100
_cell_length_c   8.56780000
_cell_angle_alpha   90.00000000
_cell_angle_beta   90.00000000
_cell_angle_gamma   90.00000000
_symmetry_Int_Tables_number   1
_chemical_formula_structural   Mg30ZnCdO32
_chemical_formula_sum   'Mg30 Zn1 Cd1 O32'
_cell_volume   628.75775914
_cell_formula_units_Z   1
loop_
 _symmetry_equiv_pos_site_id
 _symmetry_equiv_pos_as_xyz
  1  'x, y, z'
loop_
 _atom_site_type_symbol
 _atom_site_label
 _atom_site_symmetry_multiplicity
 _atom_site_fract_x
 _atom_site_fract_y
 _atom_site_fract_z
 _atom_site_occupancy
  Mg  Mg0  1  0.00000000  0.50000000  0.00000000  1
  Mg  Mg1  1  0.50000000  0.00000000  0.00000000  1
  Mg  Mg2  1  0.00000000  0.00000000  0.50000000  1
  Mg  Mg3  1  0.00000000  0.50000000  0.50000000  1
  Mg  Mg4  1  0.50000000  0.00000000  0.50000000  1
  Mg  Mg5  1  0.50000000  0.50000000  0.50000000  1
  Mg  Mg6  1  0.24788000  0.24788000  0.00000000  1
  Mg  Mg7  1  0.24788000  0.75212000  0.00000000  1
  Mg  Mg8  1  0.75212000  0.24788000  0.00000000  1
  Mg  Mg9  1  0.75212000  0.75212000  0.00000000  1
  Mg  Mg10  1  0.24997900  0.24997900  0.50000000  1
  Mg  Mg11  1  0.24997900  0.75002100  0.50000000  1
  Mg  Mg12  1  0.75002100  0.24997900  0.50000000  1
  Mg  Mg13  1  0.75002100  0.75002100  0.50000000  1
  Mg  Mg14  1  0.00000000  0.24998900  0.24989800  1
  Mg  Mg15  1  0.00000000  0.75001100  0.24989800  1
  Mg  Mg16  1  0.50000000  0.24783000  0.25200500  1
  Mg  Mg17  1  0.50000000  0.75217000  0.25200500  1
  Mg  Mg18  1  0.00000000  0.24998900  0.75010200  1
  Mg  Mg19  1  0.00000000  0.75001100  0.75010200  1
  Mg  Mg20  1  0.50000000  0.24783000  0.74799500  1
  Mg  Mg21  1  0.50000000  0.75217000  0.74799500  1
  Mg  Mg22  1  0.24998900  0.00000000  0.24989800  1
  Mg  Mg23  1  0.24783000  0.50000000  0.25200500  1
  Mg  Mg24  1  0.75001100  0.00000000  0.24989800  1
  Mg  Mg25  1  0.75217000  0.50000000  0.25200500  1
  Mg  Mg26  1  0.24998900  0.00000000  0.75010200  1
  Mg  Mg27  1  0.24783000  0.50000000  0.74799500  1
  Mg  Mg28  1  0.75001100  0.00000000  0.75010200  1
  Mg  Mg29  1  0.75217000  0.50000000  0.74799500  1
  Zn  Zn30  1  0.00000000  0.00000000  0.00000000  1
  Cd  Cd31  1  0.50000000  0.50000000  0.00000000  1
  O  O32  1  0.00000000  0.00000000  0.25355300  1
  O  O33  1  0.00000000  0.50000000  0.25181100  1
  O  O34  1  0.50000000  0.00000000  0.25181100  1
  O  O35  1  0.50000000  0.50000000  0.26394200  1
  O  O36  1  0.00000000  0.00000000  0.74644700  1
  O  O37  1  0.00000000  0.50000000  0.74818900  1
  O  O38  1  0.50000000  0.00000000  0.74818900  1
  O  O39  1  0.50000000  0.50000000  0.73605800  1
  O  O40  1  0.25021300  0.25021300  0.24929900  1
  O  O41  1  0.25021300  0.74978700  0.24929900  1
  O  O42  1  0.74978700  0.25021300  0.24929900  1
  O  O43  1  0.74978700  0.74978700  0.24929900  1
  O  O44  1  0.25021300  0.25021300  0.75070100  1
  O  O45  1  0.25021300  0.74978700  0.75070100  1
  O  O46  1  0.74978700  0.25021300  0.75070100  1
  O  O47  1  0.74978700  0.74978700  0.75070100  1
  O  O48  1  0.00000000  0.25142700  0.00000000  1
  O  O49  1  0.00000000  0.74857300  0.00000000  1
  O  O50  1  0.50000000  0.23622300  0.00000000  1
  O  O51  1  0.50000000  0.76377700  0.00000000  1
  O  O52  1  0.00000000  0.24986000  0.50000000  1
  O  O53  1  0.00000000  0.75014000  0.50000000  1
  O  O54  1  0.50000000  0.24831900  0.50000000  1
  O  O55  1  0.50000000  0.75168100  0.50000000  1
  O  O56  1  0.25142700  0.00000000  0.00000000  1
  O  O57  1  0.23622300  0.50000000  0.00000000  1
  O  O58  1  0.74857300  0.00000000  0.00000000  1
  O  O59  1  0.76377700  0.50000000  0.00000000  1
  O  O60  1  0.24986000  0.00000000  0.50000000  1
  O  O61  1  0.24831900  0.50000000  0.50000000  1
  O  O62  1  0.75014000  0.00000000  0.50000000  1
  O  O63  1  0.75168100  0.50000000  0.50000000  1
