# generated using pymatgen
data_TbPO4
_symmetry_space_group_name_H-M   'P 1'
_cell_length_a   6.62501101
_cell_length_b   6.62501101
_cell_length_c   6.62501101
_cell_angle_alpha   136.80986353
_cell_angle_beta   136.80986353
_cell_angle_gamma   62.73072765
_symmetry_Int_Tables_number   1
_chemical_formula_structural   TbPO4
_chemical_formula_sum   'Tb2 P2 O8'
_cell_volume   134.52717862
_cell_formula_units_Z   2
loop_
 _symmetry_equiv_pos_site_id
 _symmetry_equiv_pos_as_xyz
  1  'x, y, z'
loop_
 _atom_site_type_symbol
 _atom_site_label
 _atom_site_symmetry_multiplicity
 _atom_site_fract_x
 _atom_site_fract_y
 _atom_site_fract_z
 _atom_site_occupancy
  Tb  Tb0  1  0.75000000  0.25000000  0.50000000  1
  Tb  Tb1  1  0.00000000  0.00000000  0.00000000  1
  P  P2  1  0.25000000  0.75000000  0.50000000  1
  P  P3  1  0.50000000  0.50000000  0.00000000  1
  O  O4  1  0.56478600  0.94762600  0.86428400  1
  O  O5  1  0.08334200  0.70050200  0.13571600  1
  O  O6  1  0.45050200  0.81478600  0.11716000  1
  O  O7  1  0.69762600  0.33334300  0.88284000  1
  O  O8  1  0.18521400  0.30237400  0.63571600  1
  O  O9  1  0.66665700  0.54949800  0.36428400  1
  O  O10  1  0.29949800  0.43521400  0.38284000  1
  O  O11  1  0.05237400  0.91665700  0.61716000  1
