# generated using pymatgen
data_YbSbS
_symmetry_space_group_name_H-M   'P 1'
_cell_length_a   3.94116563
_cell_length_b   3.88165315
_cell_length_c   21.46511300
_cell_angle_alpha   90.00000000
_cell_angle_beta   90.00000000
_cell_angle_gamma   89.99621398
_symmetry_Int_Tables_number   1
_chemical_formula_structural   YbSbS
_chemical_formula_sum   'Yb4 Sb4 S4'
_cell_volume   328.37840617
_cell_formula_units_Z   4
loop_
 _symmetry_equiv_pos_site_id
 _symmetry_equiv_pos_as_xyz
  1  'x, y, z'
loop_
 _atom_site_type_symbol
 _atom_site_label
 _atom_site_symmetry_multiplicity
 _atom_site_fract_x
 _atom_site_fract_y
 _atom_site_fract_z
 _atom_site_occupancy
  Yb  Yb0  1  0.81313200  0.24509000  0.18568200  1
  Yb  Yb1  1  0.68686800  0.25491000  0.68568200  1
  Yb  Yb2  1  0.18686800  0.75491000  0.81431800  1
  Yb  Yb3  1  0.31313200  0.74509000  0.31431800  1
  Sb  Sb4  1  0.74988500  0.75321000  0.53094300  1
  Sb  Sb5  1  0.75011500  0.74679000  0.03094300  1
  Sb  Sb6  1  0.25011500  0.24679000  0.46905700  1
  Sb  Sb7  1  0.24988500  0.25321000  0.96905700  1
  S  S8  1  0.81185800  0.24563200  0.31545900  1
  S  S9  1  0.68814200  0.25436800  0.81545900  1
  S  S10  1  0.18814200  0.75436800  0.68454100  1
  S  S11  1  0.31185800  0.74563200  0.18454100  1
