# generated using pymatgen
data_CsHfMg30O31
_symmetry_space_group_name_H-M   'P 1'
_cell_length_a   8.73622600
_cell_length_b   8.74517400
_cell_length_c   8.74865400
_cell_angle_alpha   90.00000000
_cell_angle_beta   90.00000000
_cell_angle_gamma   90.00000000
_symmetry_Int_Tables_number   1
_chemical_formula_structural   CsHfMg30O31
_chemical_formula_sum   'Cs1 Hf1 Mg30 O31'
_cell_volume   668.39555999
_cell_formula_units_Z   1
loop_
 _symmetry_equiv_pos_site_id
 _symmetry_equiv_pos_as_xyz
  1  'x, y, z'
loop_
 _atom_site_type_symbol
 _atom_site_label
 _atom_site_symmetry_multiplicity
 _atom_site_fract_x
 _atom_site_fract_y
 _atom_site_fract_z
 _atom_site_occupancy
  Cs  Cs0  1  0.00000000  0.00036900  0.00000000  1
  Hf  Hf1  1  0.50000000  0.00067400  0.50000000  1
  Mg  Mg2  1  0.50000000  0.00457400  0.00000000  1
  Mg  Mg3  1  0.00000000  0.00008800  0.50000000  1
  Mg  Mg4  1  0.00000000  0.49990700  0.00000000  1
  Mg  Mg5  1  0.50000000  0.49888800  0.00000000  1
  Mg  Mg6  1  0.00000000  0.50000200  0.50000000  1
  Mg  Mg7  1  0.50000000  0.49891000  0.50000000  1
  Mg  Mg8  1  0.24719000  0.99965200  0.24702300  1
  Mg  Mg9  1  0.75281000  0.99965200  0.24702300  1
  Mg  Mg10  1  0.24719000  0.99965200  0.75297700  1
  Mg  Mg11  1  0.75281000  0.99965200  0.75297700  1
  Mg  Mg12  1  0.24865000  0.50014300  0.24855200  1
  Mg  Mg13  1  0.75135000  0.50014300  0.24855200  1
  Mg  Mg14  1  0.24865000  0.50014300  0.75144800  1
  Mg  Mg15  1  0.75135000  0.50014300  0.75144800  1
  Mg  Mg16  1  0.25054800  0.74322600  0.00000000  1
  Mg  Mg17  1  0.74945200  0.74322600  0.00000000  1
  Mg  Mg18  1  0.24236900  0.74324700  0.50000000  1
  Mg  Mg19  1  0.75763100  0.74324700  0.50000000  1
  Mg  Mg20  1  0.25217300  0.25638300  0.00000000  1
  Mg  Mg21  1  0.74782700  0.25638300  0.00000000  1
  Mg  Mg22  1  0.24279500  0.25697200  0.50000000  1
  Mg  Mg23  1  0.75720500  0.25697200  0.50000000  1
  Mg  Mg24  1  0.00000000  0.74394700  0.25407900  1
  Mg  Mg25  1  0.50000000  0.74259300  0.24526300  1
  Mg  Mg26  1  0.00000000  0.74394700  0.74592100  1
  Mg  Mg27  1  0.50000000  0.74259300  0.75473700  1
  Mg  Mg28  1  0.00000000  0.25621700  0.25324700  1
  Mg  Mg29  1  0.50000000  0.25646400  0.24389200  1
  Mg  Mg30  1  0.00000000  0.25621700  0.74675300  1
  Mg  Mg31  1  0.50000000  0.25646400  0.75610800  1
  O  O32  1  0.00000000  0.71465500  0.00000000  1
  O  O33  1  0.00000000  0.74344900  0.50000000  1
  O  O34  1  0.50000000  0.75612800  0.50000000  1
  O  O35  1  0.00000000  0.28477000  0.00000000  1
  O  O36  1  0.50000000  0.25617400  0.00000000  1
  O  O37  1  0.00000000  0.25647400  0.50000000  1
  O  O38  1  0.50000000  0.24439500  0.50000000  1
  O  O39  1  0.24905200  0.75157500  0.25197100  1
  O  O40  1  0.75094800  0.75157500  0.25197100  1
  O  O41  1  0.24905200  0.75157500  0.74802900  1
  O  O42  1  0.75094800  0.75157500  0.74802900  1
  O  O43  1  0.25067500  0.24812400  0.25021000  1
  O  O44  1  0.74932500  0.24812400  0.25021000  1
  O  O45  1  0.25067500  0.24812400  0.74979000  1
  O  O46  1  0.74932500  0.24812400  0.74979000  1
  O  O47  1  0.28572400  0.99872100  0.00000000  1
  O  O48  1  0.71427600  0.99872100  0.00000000  1
  O  O49  1  0.26065700  0.99967500  0.50000000  1
  O  O50  1  0.73934300  0.99967500  0.50000000  1
  O  O51  1  0.25712700  0.49896900  0.00000000  1
  O  O52  1  0.74287300  0.49896900  0.00000000  1
  O  O53  1  0.25376300  0.50013100  0.50000000  1
  O  O54  1  0.74623700  0.50013100  0.50000000  1
  O  O55  1  0.00000000  0.99979900  0.28565800  1
  O  O56  1  0.50000000  0.00161700  0.26105500  1
  O  O57  1  0.00000000  0.99979900  0.71434200  1
  O  O58  1  0.50000000  0.00161700  0.73894500  1
  O  O59  1  0.00000000  0.50003600  0.25810400  1
  O  O60  1  0.50000000  0.49828700  0.25536100  1
  O  O61  1  0.00000000  0.50003600  0.74189600  1
  O  O62  1  0.50000000  0.49828700  0.74463900  1
