# generated using pymatgen
data_MgCd2
_symmetry_space_group_name_H-M   'P 1'
_cell_length_a   5.87342594
_cell_length_b   5.87342594
_cell_length_c   7.36667564
_cell_angle_alpha   78.54452349
_cell_angle_beta   78.54452349
_cell_angle_gamma   32.62357767
_symmetry_Int_Tables_number   1
_chemical_formula_structural   MgCd2
_chemical_formula_sum   'Mg2 Cd4'
_cell_volume   134.03991205
_cell_formula_units_Z   2
loop_
 _symmetry_equiv_pos_site_id
 _symmetry_equiv_pos_as_xyz
  1  'x, y, z'
loop_
 _atom_site_type_symbol
 _atom_site_label
 _atom_site_symmetry_multiplicity
 _atom_site_fract_x
 _atom_site_fract_y
 _atom_site_fract_z
 _atom_site_occupancy
  Mg  Mg0  1  0.61477800  0.61477800  0.27237300  1
  Mg  Mg1  1  0.94189100  0.94189100  0.61440800  1
  Cd  Cd2  1  0.00042700  0.00042700  0.00211900  1
  Cd  Cd3  1  0.33549100  0.33549100  0.33815200  1
  Cd  Cd4  1  0.66351000  0.66351000  0.66060100  1
  Cd  Cd5  1  0.27723600  0.27723600  0.94568000  1
