# generated using pymatgen
data_CeMg2
_symmetry_space_group_name_H-M   'P 1'
_cell_length_a   6.83477791
_cell_length_b   6.83477791
_cell_length_c   7.41937089
_cell_angle_alpha   77.84495759
_cell_angle_beta   77.84495759
_cell_angle_gamma   26.90153530
_symmetry_Int_Tables_number   1
_chemical_formula_structural   CeMg2
_chemical_formula_sum   'Ce2 Mg4'
_cell_volume   153.09840834
_cell_formula_units_Z   2
loop_
 _symmetry_equiv_pos_site_id
 _symmetry_equiv_pos_as_xyz
  1  'x, y, z'
loop_
 _atom_site_type_symbol
 _atom_site_label
 _atom_site_symmetry_multiplicity
 _atom_site_fract_x
 _atom_site_fract_y
 _atom_site_fract_z
 _atom_site_occupancy
  Ce  Ce0  1  0.51633300  0.51633300  0.67426700  1
  Ce  Ce1  1  0.48366700  0.48366700  0.32573300  1
  Mg  Mg2  1  0.79410400  0.79410400  0.64781500  1
  Mg  Mg3  1  0.14870000  0.14870000  0.96892900  1
  Mg  Mg4  1  0.85130000  0.85130000  0.03107100  1
  Mg  Mg5  1  0.20589600  0.20589600  0.35218500  1
