# generated using pymatgen
data_CeMg
_symmetry_space_group_name_H-M   'P 1'
_cell_length_a   3.14994664
_cell_length_b   3.14994664
_cell_length_c   11.60879500
_cell_angle_alpha   90.00000000
_cell_angle_beta   90.00000000
_cell_angle_gamma   120.00001352
_symmetry_Int_Tables_number   1
_chemical_formula_structural   CeMg
_chemical_formula_sum   'Ce2 Mg2'
_cell_volume   99.75257365
_cell_formula_units_Z   2
loop_
 _symmetry_equiv_pos_site_id
 _symmetry_equiv_pos_as_xyz
  1  'x, y, z'
loop_
 _atom_site_type_symbol
 _atom_site_label
 _atom_site_symmetry_multiplicity
 _atom_site_fract_x
 _atom_site_fract_y
 _atom_site_fract_z
 _atom_site_occupancy
  Ce  Ce0  1  0.33333300  0.66666700  0.13413000  1
  Ce  Ce1  1  0.66666700  0.33333300  0.86587000  1
  Mg  Mg2  1  0.66666700  0.33333300  0.38565800  1
  Mg  Mg3  1  0.33333300  0.66666700  0.61434200  1
