# generated using pymatgen
data_CaMg
_symmetry_space_group_name_H-M   'P 1'
_cell_length_a   6.46240035
_cell_length_b   6.46240035
_cell_length_c   5.99370940
_cell_angle_alpha   72.20734428
_cell_angle_beta   72.20734428
_cell_angle_gamma   32.01060796
_symmetry_Int_Tables_number   1
_chemical_formula_structural   CaMg
_chemical_formula_sum   'Ca2 Mg2'
_cell_volume   125.80201852
_cell_formula_units_Z   2
loop_
 _symmetry_equiv_pos_site_id
 _symmetry_equiv_pos_as_xyz
  1  'x, y, z'
loop_
 _atom_site_type_symbol
 _atom_site_label
 _atom_site_symmetry_multiplicity
 _atom_site_fract_x
 _atom_site_fract_y
 _atom_site_fract_z
 _atom_site_occupancy
  Ca  Ca0  1  0.89638600  0.89638600  0.81766400  1
  Ca  Ca1  1  0.10361400  0.10361400  0.18233600  1
  Mg  Mg2  1  0.64826100  0.64826100  0.65455700  1
  Mg  Mg3  1  0.35173900  0.35173900  0.34544300  1
