# generated using pymatgen
data_Ca2Mg
_symmetry_space_group_name_H-M   'P 1'
_cell_length_a   6.26854298
_cell_length_b   6.26854298
_cell_length_c   6.68425710
_cell_angle_alpha   67.22401359
_cell_angle_beta   67.22401359
_cell_angle_gamma   63.49751500
_symmetry_Int_Tables_number   1
_chemical_formula_structural   Ca2Mg
_chemical_formula_sum   'Ca4 Mg2'
_cell_volume   209.28362179
_cell_formula_units_Z   2
loop_
 _symmetry_equiv_pos_site_id
 _symmetry_equiv_pos_as_xyz
  1  'x, y, z'
loop_
 _atom_site_type_symbol
 _atom_site_label
 _atom_site_symmetry_multiplicity
 _atom_site_fract_x
 _atom_site_fract_y
 _atom_site_fract_z
 _atom_site_occupancy
  Ca  Ca0  1  0.20860400  0.45487500  0.22073200  1
  Ca  Ca1  1  0.54512500  0.79139600  0.27926800  1
  Ca  Ca2  1  0.45487500  0.20860400  0.72073200  1
  Ca  Ca3  1  0.79139600  0.54512500  0.77926800  1
  Mg  Mg4  1  0.08127400  0.91872600  0.75000000  1
  Mg  Mg5  1  0.91872600  0.08127400  0.25000000  1
