# generated using pymatgen
data_CaMg
_symmetry_space_group_name_H-M   'P 1'
_cell_length_a   6.03442610
_cell_length_b   6.03442610
_cell_length_c   6.03442566
_cell_angle_alpha   35.28209338
_cell_angle_beta   35.28209338
_cell_angle_gamma   35.28209350
_symmetry_Int_Tables_number   1
_chemical_formula_structural   CaMg
_chemical_formula_sum   'Ca1 Mg1'
_cell_volume   65.48918274
_cell_formula_units_Z   1
loop_
 _symmetry_equiv_pos_site_id
 _symmetry_equiv_pos_as_xyz
  1  'x, y, z'
loop_
 _atom_site_type_symbol
 _atom_site_label
 _atom_site_symmetry_multiplicity
 _atom_site_fract_x
 _atom_site_fract_y
 _atom_site_fract_z
 _atom_site_occupancy
  Ca  Ca0  1  0.00000000  0.00000000  0.00000000  1
  Mg  Mg1  1  0.50000000  0.50000000  0.50000000  1
