# generated using pymatgen
data_MgCd
_symmetry_space_group_name_H-M   'P 1'
_cell_length_a   3.12386350
_cell_length_b   3.12386350
_cell_length_c   16.09334500
_cell_angle_alpha   90.00000000
_cell_angle_beta   90.00000000
_cell_angle_gamma   119.99998933
_symmetry_Int_Tables_number   1
_chemical_formula_structural   MgCd
_chemical_formula_sum   'Mg3 Cd3'
_cell_volume   136.00694837
_cell_formula_units_Z   3
loop_
 _symmetry_equiv_pos_site_id
 _symmetry_equiv_pos_as_xyz
  1  'x, y, z'
loop_
 _atom_site_type_symbol
 _atom_site_label
 _atom_site_symmetry_multiplicity
 _atom_site_fract_x
 _atom_site_fract_y
 _atom_site_fract_z
 _atom_site_occupancy
  Mg  Mg0  1  0.66666700  0.33333300  0.66788700  1
  Mg  Mg1  1  0.00000000  0.00000000  0.50000000  1
  Mg  Mg2  1  0.66666700  0.33333300  0.33211300  1
  Cd  Cd3  1  0.66666700  0.33333300  0.00000000  1
  Cd  Cd4  1  0.00000000  0.00000000  0.83197700  1
  Cd  Cd5  1  0.00000000  0.00000000  0.16802300  1
