# generated using pymatgen
data_Ce2Mg
_symmetry_space_group_name_H-M   'P 1'
_cell_length_a   5.71281919
_cell_length_b   5.71281919
_cell_length_c   6.15415984
_cell_angle_alpha   65.16960488
_cell_angle_beta   65.16960488
_cell_angle_gamma   65.95517688
_symmetry_Int_Tables_number   1
_chemical_formula_structural   Ce2Mg
_chemical_formula_sum   'Ce4 Mg2'
_cell_volume   158.78489426
_cell_formula_units_Z   2
loop_
 _symmetry_equiv_pos_site_id
 _symmetry_equiv_pos_as_xyz
  1  'x, y, z'
loop_
 _atom_site_type_symbol
 _atom_site_label
 _atom_site_symmetry_multiplicity
 _atom_site_fract_x
 _atom_site_fract_y
 _atom_site_fract_z
 _atom_site_occupancy
  Ce  Ce0  1  0.26099500  0.44523300  0.76708800  1
  Ce  Ce1  1  0.55476700  0.73900500  0.73291200  1
  Ce  Ce2  1  0.44523300  0.26099500  0.26708800  1
  Ce  Ce3  1  0.73900500  0.55476700  0.23291200  1
  Mg  Mg4  1  0.09365200  0.90634800  0.25000000  1
  Mg  Mg5  1  0.90634800  0.09365200  0.75000000  1
