# generated using pymatgen
data_TmH2ClO2
_symmetry_space_group_name_H-M   'P 1'
_cell_length_a   3.54845000
_cell_length_b   6.18774198
_cell_length_c   6.63499213
_cell_angle_alpha   105.38280338
_cell_angle_beta   90.00000000
_cell_angle_gamma   90.00000000
_symmetry_Int_Tables_number   1
_chemical_formula_structural   TmH2ClO2
_chemical_formula_sum   'Tm2 H4 Cl2 O4'
_cell_volume   140.46469929
_cell_formula_units_Z   2
loop_
 _symmetry_equiv_pos_site_id
 _symmetry_equiv_pos_as_xyz
  1  'x, y, z'
loop_
 _atom_site_type_symbol
 _atom_site_label
 _atom_site_symmetry_multiplicity
 _atom_site_fract_x
 _atom_site_fract_y
 _atom_site_fract_z
 _atom_site_occupancy
  Tm  Tm0  1  0.75000000  0.71832600  0.89095900  1
  Tm  Tm1  1  0.25000000  0.28167400  0.10904100  1
  H  H2  1  0.25000000  0.87338800  0.23117900  1
  H  H3  1  0.75000000  0.12661200  0.76882100  1
  H  H4  1  0.25000000  0.35703300  0.69823400  1
  H  H5  1  0.75000000  0.64296700  0.30176600  1
  Cl  Cl6  1  0.25000000  0.77044200  0.57797000  1
  Cl  Cl7  1  0.75000000  0.22955800  0.42203000  1
  O  O8  1  0.25000000  0.89410500  0.09037500  1
  O  O9  1  0.75000000  0.10589500  0.90962500  1
  O  O10  1  0.25000000  0.45271800  0.84119200  1
  O  O11  1  0.75000000  0.54728200  0.15880800  1
