# generated using pymatgen
data_RbNaMg30O31
_symmetry_space_group_name_H-M   'P 1'
_cell_length_a   8.61758600
_cell_length_b   8.64979400
_cell_length_c   8.70286400
_cell_angle_alpha   90.00000000
_cell_angle_beta   90.00000000
_cell_angle_gamma   90.00000000
_symmetry_Int_Tables_number   1
_chemical_formula_structural   RbNaMg30O31
_chemical_formula_sum   'Rb1 Na1 Mg30 O31'
_cell_volume   648.71447354
_cell_formula_units_Z   1
loop_
 _symmetry_equiv_pos_site_id
 _symmetry_equiv_pos_as_xyz
  1  'x, y, z'
loop_
 _atom_site_type_symbol
 _atom_site_label
 _atom_site_symmetry_multiplicity
 _atom_site_fract_x
 _atom_site_fract_y
 _atom_site_fract_z
 _atom_site_occupancy
  Rb  Rb0  1  0.50000000  0.99104500  0.50000000  1
  Na  Na1  1  0.00000000  0.99671100  0.00000000  1
  Mg  Mg2  1  0.00000000  0.97852500  0.50000000  1
  Mg  Mg3  1  0.50000000  0.99850200  0.00000000  1
  Mg  Mg4  1  0.00000000  0.50077700  0.00000000  1
  Mg  Mg5  1  0.00000000  0.51919000  0.50000000  1
  Mg  Mg6  1  0.50000000  0.50103800  0.00000000  1
  Mg  Mg7  1  0.50000000  0.49733200  0.50000000  1
  Mg  Mg8  1  0.75390100  0.00277300  0.75538100  1
  Mg  Mg9  1  0.75390100  0.00277300  0.24461900  1
  Mg  Mg10  1  0.24609900  0.00277300  0.75538100  1
  Mg  Mg11  1  0.24609900  0.00277300  0.24461900  1
  Mg  Mg12  1  0.75082400  0.49838700  0.75122600  1
  Mg  Mg13  1  0.75082400  0.49838700  0.24877400  1
  Mg  Mg14  1  0.24917600  0.49838700  0.75122600  1
  Mg  Mg15  1  0.24917600  0.49838700  0.24877400  1
  Mg  Mg16  1  0.00000000  0.24485000  0.77375600  1
  Mg  Mg17  1  0.00000000  0.24485000  0.22624400  1
  Mg  Mg18  1  0.50000000  0.25091000  0.75828600  1
  Mg  Mg19  1  0.50000000  0.25091000  0.24171400  1
  Mg  Mg20  1  0.00000000  0.75377900  0.75524500  1
  Mg  Mg21  1  0.00000000  0.75377900  0.24475500  1
  Mg  Mg22  1  0.50000000  0.74731800  0.75548700  1
  Mg  Mg23  1  0.50000000  0.74731800  0.24451300  1
  Mg  Mg24  1  0.74708200  0.24884000  0.00000000  1
  Mg  Mg25  1  0.72959700  0.25165000  0.50000000  1
  Mg  Mg26  1  0.25291800  0.24884000  0.00000000  1
  Mg  Mg27  1  0.27040300  0.25165000  0.50000000  1
  Mg  Mg28  1  0.75016200  0.75239200  0.00000000  1
  Mg  Mg29  1  0.74892500  0.74254500  0.50000000  1
  Mg  Mg30  1  0.24983800  0.75239200  0.00000000  1
  Mg  Mg31  1  0.25107500  0.74254500  0.50000000  1
  O  O32  1  0.00000000  0.26485100  0.00000000  1
  O  O33  1  0.50000000  0.25940700  0.00000000  1
  O  O34  1  0.50000000  0.27582600  0.50000000  1
  O  O35  1  0.00000000  0.73458500  0.00000000  1
  O  O36  1  0.00000000  0.74707500  0.50000000  1
  O  O37  1  0.50000000  0.74226400  0.00000000  1
  O  O38  1  0.50000000  0.71564200  0.50000000  1
  O  O39  1  0.75398200  0.25191700  0.74777600  1
  O  O40  1  0.75398200  0.25191700  0.25222400  1
  O  O41  1  0.24601800  0.25191700  0.74777600  1
  O  O42  1  0.24601800  0.25191700  0.25222400  1
  O  O43  1  0.75099300  0.75051100  0.74559100  1
  O  O44  1  0.75099300  0.75051100  0.25440900  1
  O  O45  1  0.24900700  0.75051100  0.74559100  1
  O  O46  1  0.24900700  0.75051100  0.25440900  1
  O  O47  1  0.00000000  0.00414900  0.73984700  1
  O  O48  1  0.00000000  0.00414900  0.26015300  1
  O  O49  1  0.50000000  0.00356800  0.77718800  1
  O  O50  1  0.50000000  0.00356800  0.22281200  1
  O  O51  1  0.00000000  0.49261700  0.74195200  1
  O  O52  1  0.00000000  0.49261700  0.25804800  1
  O  O53  1  0.50000000  0.49810700  0.75355200  1
  O  O54  1  0.50000000  0.49810700  0.24644800  1
  O  O55  1  0.74232400  0.00117300  0.00000000  1
  O  O56  1  0.78205600  0.02274900  0.50000000  1
  O  O57  1  0.25767600  0.00117300  0.00000000  1
  O  O58  1  0.21794400  0.02274900  0.50000000  1
  O  O59  1  0.75089400  0.50037300  0.00000000  1
  O  O60  1  0.76215800  0.49141600  0.50000000  1
  O  O61  1  0.24910600  0.50037300  0.00000000  1
  O  O62  1  0.23784200  0.49141600  0.50000000  1
