# generated using pymatgen
data_NaMg30BO31
_symmetry_space_group_name_H-M   'P 1'
_cell_length_a   8.50088400
_cell_length_b   8.50088400
_cell_length_c   8.55277200
_cell_angle_alpha   90.00000000
_cell_angle_beta   90.00000000
_cell_angle_gamma   90.00000000
_symmetry_Int_Tables_number   1
_chemical_formula_structural   NaMg30BO31
_chemical_formula_sum   'Na1 Mg30 B1 O31'
_cell_volume   618.06631474
_cell_formula_units_Z   1
loop_
 _symmetry_equiv_pos_site_id
 _symmetry_equiv_pos_as_xyz
  1  'x, y, z'
loop_
 _atom_site_type_symbol
 _atom_site_label
 _atom_site_symmetry_multiplicity
 _atom_site_fract_x
 _atom_site_fract_y
 _atom_site_fract_z
 _atom_site_occupancy
  Na  Na0  1  0.00000000  0.00000000  0.00493200  1
  Mg  Mg1  1  0.00000000  0.50000000  0.00091300  1
  Mg  Mg2  1  0.50000000  0.00000000  0.00091300  1
  Mg  Mg3  1  0.00000000  0.00000000  0.49631300  1
  Mg  Mg4  1  0.00000000  0.50000000  0.49977100  1
  Mg  Mg5  1  0.50000000  0.00000000  0.49977100  1
  Mg  Mg6  1  0.50000000  0.50000000  0.50008000  1
  Mg  Mg7  1  0.25148000  0.25148000  0.99986900  1
  Mg  Mg8  1  0.25148000  0.74852000  0.99986900  1
  Mg  Mg9  1  0.74852000  0.25148000  0.99986900  1
  Mg  Mg10  1  0.74852000  0.74852000  0.99986900  1
  Mg  Mg11  1  0.24939300  0.24939300  0.50051800  1
  Mg  Mg12  1  0.24939300  0.75060700  0.50051800  1
  Mg  Mg13  1  0.75060700  0.24939300  0.50051800  1
  Mg  Mg14  1  0.75060700  0.75060700  0.50051800  1
  Mg  Mg15  1  0.00000000  0.25293600  0.24915700  1
  Mg  Mg16  1  0.00000000  0.74706400  0.24915700  1
  Mg  Mg17  1  0.50000000  0.25969800  0.24864900  1
  Mg  Mg18  1  0.50000000  0.74030200  0.24864900  1
  Mg  Mg19  1  0.00000000  0.24659400  0.75159700  1
  Mg  Mg20  1  0.00000000  0.75340600  0.75159700  1
  Mg  Mg21  1  0.50000000  0.24455800  0.75042000  1
  Mg  Mg22  1  0.50000000  0.75544200  0.75042000  1
  Mg  Mg23  1  0.25293600  0.00000000  0.24915700  1
  Mg  Mg24  1  0.25969800  0.50000000  0.24864900  1
  Mg  Mg25  1  0.74706400  0.00000000  0.24915700  1
  Mg  Mg26  1  0.74030200  0.50000000  0.24864900  1
  Mg  Mg27  1  0.24659400  0.00000000  0.75159700  1
  Mg  Mg28  1  0.24455800  0.50000000  0.75042000  1
  Mg  Mg29  1  0.75340600  0.00000000  0.75159700  1
  Mg  Mg30  1  0.75544200  0.50000000  0.75042000  1
  B  B31  1  0.50000000  0.50000000  0.95121400  1
  O  O32  1  0.00000000  0.50000000  0.24787800  1
  O  O33  1  0.50000000  0.00000000  0.24787800  1
  O  O34  1  0.50000000  0.50000000  0.26931400  1
  O  O35  1  0.00000000  0.00000000  0.73741100  1
  O  O36  1  0.00000000  0.50000000  0.75346000  1
  O  O37  1  0.50000000  0.00000000  0.75346000  1
  O  O38  1  0.50000000  0.50000000  0.77959200  1
  O  O39  1  0.25265500  0.25265500  0.24899300  1
  O  O40  1  0.25265500  0.74734500  0.24899300  1
  O  O41  1  0.74734500  0.25265500  0.24899300  1
  O  O42  1  0.74734500  0.74734500  0.24899300  1
  O  O43  1  0.25043000  0.25043000  0.75102700  1
  O  O44  1  0.25043000  0.74957000  0.75102700  1
  O  O45  1  0.74957000  0.25043000  0.75102700  1
  O  O46  1  0.74957000  0.74957000  0.75102700  1
  O  O47  1  0.00000000  0.26738400  0.00005800  1
  O  O48  1  0.00000000  0.73261600  0.00005800  1
  O  O49  1  0.50000000  0.28717800  0.99470300  1
  O  O50  1  0.50000000  0.71282200  0.99470300  1
  O  O51  1  0.00000000  0.25401400  0.50036100  1
  O  O52  1  0.00000000  0.74598600  0.50036100  1
  O  O53  1  0.50000000  0.25193800  0.50642300  1
  O  O54  1  0.50000000  0.74806200  0.50642300  1
  O  O55  1  0.26738400  0.00000000  0.00005800  1
  O  O56  1  0.28717800  0.50000000  0.99470300  1
  O  O57  1  0.73261600  0.00000000  0.00005800  1
  O  O58  1  0.71282200  0.50000000  0.99470300  1
  O  O59  1  0.25401400  0.00000000  0.50036100  1
  O  O60  1  0.25193800  0.50000000  0.50642300  1
  O  O61  1  0.74598600  0.00000000  0.50036100  1
  O  O62  1  0.74806200  0.50000000  0.50642300  1
