# generated using pymatgen
data_CsRbMg30O31
_symmetry_space_group_name_H-M   'P 1'
_cell_length_a   8.69355200
_cell_length_b   8.80335200
_cell_length_c   8.90272700
_cell_angle_alpha   90.00000000
_cell_angle_beta   90.00000000
_cell_angle_gamma   90.00000000
_symmetry_Int_Tables_number   1
_chemical_formula_structural   CsRbMg30O31
_chemical_formula_sum   'Cs1 Rb1 Mg30 O31'
_cell_volume   681.34704949
_cell_formula_units_Z   1
loop_
 _symmetry_equiv_pos_site_id
 _symmetry_equiv_pos_as_xyz
  1  'x, y, z'
loop_
 _atom_site_type_symbol
 _atom_site_label
 _atom_site_symmetry_multiplicity
 _atom_site_fract_x
 _atom_site_fract_y
 _atom_site_fract_z
 _atom_site_occupancy
  Cs  Cs0  1  0.50000000  0.50000000  0.97006800  1
  Rb  Rb1  1  0.00000000  0.00000000  0.99506200  1
  Mg  Mg2  1  0.00000000  0.50000000  0.98071700  1
  Mg  Mg3  1  0.50000000  0.00000000  0.00026100  1
  Mg  Mg4  1  0.00000000  0.00000000  0.50052600  1
  Mg  Mg5  1  0.00000000  0.50000000  0.51724100  1
  Mg  Mg6  1  0.50000000  0.00000000  0.49956000  1
  Mg  Mg7  1  0.50000000  0.50000000  0.48626200  1
  Mg  Mg8  1  0.24941300  0.25008700  0.00970100  1
  Mg  Mg9  1  0.24941300  0.74991300  0.00970100  1
  Mg  Mg10  1  0.75058700  0.25008700  0.00970100  1
  Mg  Mg11  1  0.75058700  0.74991300  0.00970100  1
  Mg  Mg12  1  0.24862400  0.24448800  0.49545700  1
  Mg  Mg13  1  0.24862400  0.75551200  0.49545700  1
  Mg  Mg14  1  0.75137600  0.24448800  0.49545700  1
  Mg  Mg15  1  0.75137600  0.75551200  0.49545700  1
  Mg  Mg16  1  0.00000000  0.22798400  0.24995300  1
  Mg  Mg17  1  0.00000000  0.77201600  0.24995300  1
  Mg  Mg18  1  0.50000000  0.23914600  0.25244300  1
  Mg  Mg19  1  0.50000000  0.76085400  0.25244300  1
  Mg  Mg20  1  0.00000000  0.25086000  0.74881700  1
  Mg  Mg21  1  0.00000000  0.74914000  0.74881700  1
  Mg  Mg22  1  0.50000000  0.24373400  0.73510900  1
  Mg  Mg23  1  0.50000000  0.75626600  0.73510900  1
  Mg  Mg24  1  0.25763900  0.00000000  0.25246700  1
  Mg  Mg25  1  0.27084300  0.50000000  0.25649000  1
  Mg  Mg26  1  0.74236100  0.00000000  0.25246700  1
  Mg  Mg27  1  0.72915700  0.50000000  0.25649000  1
  Mg  Mg28  1  0.25397800  0.00000000  0.75009400  1
  Mg  Mg29  1  0.25380700  0.50000000  0.72333100  1
  Mg  Mg30  1  0.74602200  0.00000000  0.75009400  1
  Mg  Mg31  1  0.74619300  0.50000000  0.72333100  1
  O  O32  1  0.00000000  0.00000000  0.27928000  1
  O  O33  1  0.50000000  0.00000000  0.26770100  1
  O  O34  1  0.50000000  0.50000000  0.27290500  1
  O  O35  1  0.00000000  0.00000000  0.71912400  1
  O  O36  1  0.00000000  0.50000000  0.74376600  1
  O  O37  1  0.50000000  0.00000000  0.73815900  1
  O  O38  1  0.50000000  0.50000000  0.69479100  1
  O  O39  1  0.24416600  0.24712200  0.25653600  1
  O  O40  1  0.24416600  0.75287800  0.25653600  1
  O  O41  1  0.75583400  0.24712200  0.25653600  1
  O  O42  1  0.75583400  0.75287800  0.25653600  1
  O  O43  1  0.25159600  0.25739400  0.74958800  1
  O  O44  1  0.25159600  0.74260600  0.74958800  1
  O  O45  1  0.74840400  0.25739400  0.74958800  1
  O  O46  1  0.74840400  0.74260600  0.74958800  1
  O  O47  1  0.00000000  0.27601300  0.00633200  1
  O  O48  1  0.00000000  0.72398700  0.00633200  1
  O  O49  1  0.50000000  0.22082200  0.02088100  1
  O  O50  1  0.50000000  0.77917800  0.02088100  1
  O  O51  1  0.00000000  0.26061900  0.49491500  1
  O  O52  1  0.00000000  0.73938100  0.49491500  1
  O  O53  1  0.50000000  0.24526900  0.49553100  1
  O  O54  1  0.50000000  0.75473100  0.49553100  1
  O  O55  1  0.27539300  0.00000000  0.99956600  1
  O  O56  1  0.21491500  0.50000000  0.04320700  1
  O  O57  1  0.72460700  0.00000000  0.99956600  1
  O  O58  1  0.78508500  0.50000000  0.04320700  1
  O  O59  1  0.25144400  0.00000000  0.50301000  1
  O  O60  1  0.23712800  0.50000000  0.48758100  1
  O  O61  1  0.74855600  0.00000000  0.50301000  1
  O  O62  1  0.76287200  0.50000000  0.48758100  1
