# generated using pymatgen
data_KHfMg30O31
_symmetry_space_group_name_H-M   'P 1'
_cell_length_a   8.67563700
_cell_length_b   8.67563700
_cell_length_c   8.60270600
_cell_angle_alpha   90.00000000
_cell_angle_beta   90.00000000
_cell_angle_gamma   90.00000000
_symmetry_Int_Tables_number   1
_chemical_formula_structural   KHfMg30O31
_chemical_formula_sum   'K1 Hf1 Mg30 O31'
_cell_volume   647.49709689
_cell_formula_units_Z   1
loop_
 _symmetry_equiv_pos_site_id
 _symmetry_equiv_pos_as_xyz
  1  'x, y, z'
loop_
 _atom_site_type_symbol
 _atom_site_label
 _atom_site_symmetry_multiplicity
 _atom_site_fract_x
 _atom_site_fract_y
 _atom_site_fract_z
 _atom_site_occupancy
  K  K0  1  0.00000000  0.00000000  0.01165700  1
  Hf  Hf1  1  0.50000000  0.50000000  0.99979200  1
  Mg  Mg2  1  0.50000000  0.00000000  0.99910300  1
  Mg  Mg3  1  0.00000000  0.50000000  0.99910300  1
  Mg  Mg4  1  0.00000000  0.00000000  0.49418200  1
  Mg  Mg5  1  0.50000000  0.00000000  0.50134300  1
  Mg  Mg6  1  0.00000000  0.50000000  0.50134300  1
  Mg  Mg7  1  0.50000000  0.50000000  0.50008400  1
  Mg  Mg8  1  0.24398200  0.24398200  0.99997200  1
  Mg  Mg9  1  0.75601800  0.24398200  0.99997200  1
  Mg  Mg10  1  0.24398200  0.75601800  0.99997200  1
  Mg  Mg11  1  0.75601800  0.75601800  0.99997200  1
  Mg  Mg12  1  0.24819100  0.24819100  0.50015300  1
  Mg  Mg13  1  0.75180900  0.24819100  0.50015300  1
  Mg  Mg14  1  0.24819100  0.75180900  0.50015300  1
  Mg  Mg15  1  0.75180900  0.75180900  0.50015300  1
  Mg  Mg16  1  0.25479800  0.00000000  0.25359000  1
  Mg  Mg17  1  0.74520200  0.00000000  0.25359000  1
  Mg  Mg18  1  0.24429000  0.50000000  0.25600800  1
  Mg  Mg19  1  0.75571000  0.50000000  0.25600800  1
  Mg  Mg20  1  0.24890500  0.00000000  0.74859600  1
  Mg  Mg21  1  0.75109500  0.00000000  0.74859600  1
  Mg  Mg22  1  0.24306600  0.50000000  0.74398200  1
  Mg  Mg23  1  0.75693400  0.50000000  0.74398200  1
  Mg  Mg24  1  0.00000000  0.25479800  0.25359000  1
  Mg  Mg25  1  0.50000000  0.24429000  0.25600800  1
  Mg  Mg26  1  0.00000000  0.74520200  0.25359000  1
  Mg  Mg27  1  0.50000000  0.75571000  0.25600800  1
  Mg  Mg28  1  0.00000000  0.24890500  0.74859600  1
  Mg  Mg29  1  0.50000000  0.24306600  0.74398200  1
  Mg  Mg30  1  0.00000000  0.75109500  0.74859600  1
  Mg  Mg31  1  0.50000000  0.75693400  0.74398200  1
  O  O32  1  0.50000000  0.00000000  0.25295300  1
  O  O33  1  0.00000000  0.50000000  0.25295300  1
  O  O34  1  0.50000000  0.50000000  0.24670700  1
  O  O35  1  0.00000000  0.00000000  0.72894100  1
  O  O36  1  0.50000000  0.00000000  0.74770100  1
  O  O37  1  0.00000000  0.50000000  0.74770100  1
  O  O38  1  0.50000000  0.50000000  0.75323500  1
  O  O39  1  0.25279400  0.25279400  0.24838100  1
  O  O40  1  0.74720600  0.25279400  0.24838100  1
  O  O41  1  0.25279400  0.74720600  0.24838100  1
  O  O42  1  0.74720600  0.74720600  0.24838100  1
  O  O43  1  0.25112500  0.25112500  0.75166300  1
  O  O44  1  0.74887500  0.25112500  0.75166300  1
  O  O45  1  0.25112500  0.74887500  0.75166300  1
  O  O46  1  0.74887500  0.74887500  0.75166300  1
  O  O47  1  0.27429900  0.00000000  0.99971300  1
  O  O48  1  0.72570100  0.00000000  0.99971300  1
  O  O49  1  0.25810400  0.50000000  0.99989600  1
  O  O50  1  0.74189600  0.50000000  0.99989600  1
  O  O51  1  0.25602600  0.00000000  0.50134500  1
  O  O52  1  0.74397400  0.00000000  0.50134500  1
  O  O53  1  0.25202100  0.50000000  0.50000000  1
  O  O54  1  0.74797900  0.50000000  0.50000000  1
  O  O55  1  0.00000000  0.27429900  0.99971300  1
  O  O56  1  0.50000000  0.25810400  0.99989600  1
  O  O57  1  0.00000000  0.72570100  0.99971300  1
  O  O58  1  0.50000000  0.74189600  0.99989600  1
  O  O59  1  0.00000000  0.25602600  0.50134500  1
  O  O60  1  0.50000000  0.25202100  0.50000000  1
  O  O61  1  0.00000000  0.74397400  0.50134500  1
  O  O62  1  0.50000000  0.74797900  0.50000000  1
