# generated using pymatgen
data_KMg30BO31
_symmetry_space_group_name_H-M   'P 1'
_cell_length_a   8.56883500
_cell_length_b   8.56883500
_cell_length_c   8.57053600
_cell_angle_alpha   90.00000000
_cell_angle_beta   90.00000000
_cell_angle_gamma   90.00000000
_symmetry_Int_Tables_number   1
_chemical_formula_structural   KMg30BO31
_chemical_formula_sum   'K1 Mg30 B1 O31'
_cell_volume   629.29103378
_cell_formula_units_Z   1
loop_
 _symmetry_equiv_pos_site_id
 _symmetry_equiv_pos_as_xyz
  1  'x, y, z'
loop_
 _atom_site_type_symbol
 _atom_site_label
 _atom_site_symmetry_multiplicity
 _atom_site_fract_x
 _atom_site_fract_y
 _atom_site_fract_z
 _atom_site_occupancy
  K  K0  1  0.00000000  0.00000000  0.01508700  1
  Mg  Mg1  1  0.00000000  0.50000000  0.00011700  1
  Mg  Mg2  1  0.50000000  0.00000000  0.00011700  1
  Mg  Mg3  1  0.00000000  0.00000000  0.49135700  1
  Mg  Mg4  1  0.00000000  0.50000000  0.50125400  1
  Mg  Mg5  1  0.50000000  0.00000000  0.50125400  1
  Mg  Mg6  1  0.50000000  0.50000000  0.50061600  1
  Mg  Mg7  1  0.25457900  0.25457900  0.99944100  1
  Mg  Mg8  1  0.25457900  0.74542100  0.99944100  1
  Mg  Mg9  1  0.74542100  0.25457900  0.99944100  1
  Mg  Mg10  1  0.74542100  0.74542100  0.99944100  1
  Mg  Mg11  1  0.24963800  0.24963800  0.50085000  1
  Mg  Mg12  1  0.24963800  0.75036200  0.50085000  1
  Mg  Mg13  1  0.75036200  0.24963800  0.50085000  1
  Mg  Mg14  1  0.75036200  0.75036200  0.50085000  1
  Mg  Mg15  1  0.00000000  0.25875600  0.25276300  1
  Mg  Mg16  1  0.00000000  0.74124400  0.25276300  1
  Mg  Mg17  1  0.50000000  0.26098400  0.24906900  1
  Mg  Mg18  1  0.50000000  0.73901600  0.24906900  1
  Mg  Mg19  1  0.00000000  0.24785500  0.74960900  1
  Mg  Mg20  1  0.00000000  0.75214500  0.74960900  1
  Mg  Mg21  1  0.50000000  0.24439900  0.74993700  1
  Mg  Mg22  1  0.50000000  0.75560100  0.74993700  1
  Mg  Mg23  1  0.25875600  0.00000000  0.25276300  1
  Mg  Mg24  1  0.26098400  0.50000000  0.24906900  1
  Mg  Mg25  1  0.74124400  0.00000000  0.25276300  1
  Mg  Mg26  1  0.73901600  0.50000000  0.24906900  1
  Mg  Mg27  1  0.24785500  0.00000000  0.74960900  1
  Mg  Mg28  1  0.24439900  0.50000000  0.74993700  1
  Mg  Mg29  1  0.75214500  0.00000000  0.74960900  1
  Mg  Mg30  1  0.75560100  0.50000000  0.74993700  1
  B  B31  1  0.50000000  0.50000000  0.94980800  1
  O  O32  1  0.00000000  0.50000000  0.25015700  1
  O  O33  1  0.50000000  0.00000000  0.25015700  1
  O  O34  1  0.50000000  0.50000000  0.27009000  1
  O  O35  1  0.00000000  0.00000000  0.72830500  1
  O  O36  1  0.00000000  0.50000000  0.75159400  1
  O  O37  1  0.50000000  0.00000000  0.75159400  1
  O  O38  1  0.50000000  0.50000000  0.77842100  1
  O  O39  1  0.25318200  0.25318200  0.24841700  1
  O  O40  1  0.25318200  0.74681800  0.24841700  1
  O  O41  1  0.74681800  0.25318200  0.24841700  1
  O  O42  1  0.74681800  0.74681800  0.24841700  1
  O  O43  1  0.25037300  0.25037300  0.75126000  1
  O  O44  1  0.25037300  0.74962700  0.75126000  1
  O  O45  1  0.74962700  0.25037300  0.75126000  1
  O  O46  1  0.74962700  0.74962700  0.75126000  1
  O  O47  1  0.00000000  0.27633800  0.00008400  1
  O  O48  1  0.00000000  0.72366200  0.00008400  1
  O  O49  1  0.50000000  0.28954600  0.99394000  1
  O  O50  1  0.50000000  0.71045400  0.99394000  1
  O  O51  1  0.00000000  0.25669800  0.50084800  1
  O  O52  1  0.00000000  0.74330200  0.50084800  1
  O  O53  1  0.50000000  0.25257900  0.50629900  1
  O  O54  1  0.50000000  0.74742100  0.50629900  1
  O  O55  1  0.27633800  0.00000000  0.00008400  1
  O  O56  1  0.28954600  0.50000000  0.99394000  1
  O  O57  1  0.72366200  0.00000000  0.00008400  1
  O  O58  1  0.71045400  0.50000000  0.99394000  1
  O  O59  1  0.25669800  0.00000000  0.50084800  1
  O  O60  1  0.25257900  0.50000000  0.50629900  1
  O  O61  1  0.74330200  0.00000000  0.50084800  1
  O  O62  1  0.74742100  0.50000000  0.50629900  1
