# generated using pymatgen
data_HfMg30TiO32
_symmetry_space_group_name_H-M   'P 1'
_cell_length_a   8.62228200
_cell_length_b   8.62228200
_cell_length_c   8.59338000
_cell_angle_alpha   90.00000000
_cell_angle_beta   90.00000000
_cell_angle_gamma   90.00000000
_symmetry_Int_Tables_number   1
_chemical_formula_structural   HfMg30TiO32
_chemical_formula_sum   'Hf1 Mg30 Ti1 O32'
_cell_volume   638.86406763
_cell_formula_units_Z   1
loop_
 _symmetry_equiv_pos_site_id
 _symmetry_equiv_pos_as_xyz
  1  'x, y, z'
loop_
 _atom_site_type_symbol
 _atom_site_label
 _atom_site_symmetry_multiplicity
 _atom_site_fract_x
 _atom_site_fract_y
 _atom_site_fract_z
 _atom_site_occupancy
  Hf  Hf0  1  0.00000000  0.00000000  0.50000000  1
  Mg  Mg1  1  0.50000000  0.00000000  0.00000000  1
  Mg  Mg2  1  0.50000000  0.00000000  0.50000000  1
  Mg  Mg3  1  0.00000000  0.50000000  0.00000000  1
  Mg  Mg4  1  0.00000000  0.50000000  0.50000000  1
  Mg  Mg5  1  0.50000000  0.50000000  0.00000000  1
  Mg  Mg6  1  0.50000000  0.50000000  0.50000000  1
  Mg  Mg7  1  0.25558000  0.00000000  0.24363800  1
  Mg  Mg8  1  0.25558000  0.00000000  0.75636200  1
  Mg  Mg9  1  0.74442000  0.00000000  0.24363800  1
  Mg  Mg10  1  0.74442000  0.00000000  0.75636200  1
  Mg  Mg11  1  0.25093300  0.50000000  0.24831600  1
  Mg  Mg12  1  0.25093300  0.50000000  0.75168400  1
  Mg  Mg13  1  0.74906700  0.50000000  0.24831600  1
  Mg  Mg14  1  0.74906700  0.50000000  0.75168400  1
  Mg  Mg15  1  0.00000000  0.25558000  0.24363800  1
  Mg  Mg16  1  0.00000000  0.25558000  0.75636200  1
  Mg  Mg17  1  0.50000000  0.25093300  0.24831600  1
  Mg  Mg18  1  0.50000000  0.25093300  0.75168400  1
  Mg  Mg19  1  0.00000000  0.74442000  0.24363800  1
  Mg  Mg20  1  0.00000000  0.74442000  0.75636200  1
  Mg  Mg21  1  0.50000000  0.74906700  0.24831600  1
  Mg  Mg22  1  0.50000000  0.74906700  0.75168400  1
  Mg  Mg23  1  0.25050300  0.25050300  0.00000000  1
  Mg  Mg24  1  0.25589900  0.25589900  0.50000000  1
  Mg  Mg25  1  0.74949700  0.25050300  0.00000000  1
  Mg  Mg26  1  0.74410100  0.25589900  0.50000000  1
  Mg  Mg27  1  0.25050300  0.74949700  0.00000000  1
  Mg  Mg28  1  0.25589900  0.74410100  0.50000000  1
  Mg  Mg29  1  0.74949700  0.74949700  0.00000000  1
  Mg  Mg30  1  0.74410100  0.74410100  0.50000000  1
  Ti  Ti31  1  0.00000000  0.00000000  0.00000000  1
  O  O32  1  0.00000000  0.26136300  0.00000000  1
  O  O33  1  0.00000000  0.24896400  0.50000000  1
  O  O34  1  0.50000000  0.25138600  0.00000000  1
  O  O35  1  0.50000000  0.24956200  0.50000000  1
  O  O36  1  0.00000000  0.73863700  0.00000000  1
  O  O37  1  0.00000000  0.75103600  0.50000000  1
  O  O38  1  0.50000000  0.74861400  0.00000000  1
  O  O39  1  0.50000000  0.75043800  0.50000000  1
  O  O40  1  0.24927800  0.24927800  0.25109700  1
  O  O41  1  0.24927800  0.24927800  0.74890300  1
  O  O42  1  0.75072200  0.24927800  0.25109700  1
  O  O43  1  0.75072200  0.24927800  0.74890300  1
  O  O44  1  0.24927800  0.75072200  0.25109700  1
  O  O45  1  0.24927800  0.75072200  0.74890300  1
  O  O46  1  0.75072200  0.75072200  0.25109700  1
  O  O47  1  0.75072200  0.75072200  0.74890300  1
  O  O48  1  0.00000000  0.00000000  0.25402800  1
  O  O49  1  0.00000000  0.00000000  0.74597200  1
  O  O50  1  0.50000000  0.00000000  0.25271100  1
  O  O51  1  0.50000000  0.00000000  0.74728900  1
  O  O52  1  0.00000000  0.50000000  0.25271100  1
  O  O53  1  0.00000000  0.50000000  0.74728900  1
  O  O54  1  0.50000000  0.50000000  0.25103300  1
  O  O55  1  0.50000000  0.50000000  0.74896700  1
  O  O56  1  0.26136300  0.00000000  0.00000000  1
  O  O57  1  0.24896400  0.00000000  0.50000000  1
  O  O58  1  0.73863700  0.00000000  0.00000000  1
  O  O59  1  0.75103600  0.00000000  0.50000000  1
  O  O60  1  0.25138600  0.50000000  0.00000000  1
  O  O61  1  0.24956200  0.50000000  0.50000000  1
  O  O62  1  0.74861400  0.50000000  0.00000000  1
  O  O63  1  0.75043800  0.50000000  0.50000000  1
