# generated using pymatgen
data_NaCr2P2O9
_symmetry_space_group_name_H-M   'P 1'
_cell_length_a   6.40171700
_cell_length_b   7.67685500
_cell_length_c   13.98679800
_cell_angle_alpha   90.00000000
_cell_angle_beta   90.00000000
_cell_angle_gamma   90.00000000
_symmetry_Int_Tables_number   1
_chemical_formula_structural   NaCr2P2O9
_chemical_formula_sum   'Na4 Cr8 P8 O36'
_cell_volume   687.38193125
_cell_formula_units_Z   4
loop_
 _symmetry_equiv_pos_site_id
 _symmetry_equiv_pos_as_xyz
  1  'x, y, z'
loop_
 _atom_site_type_symbol
 _atom_site_label
 _atom_site_symmetry_multiplicity
 _atom_site_fract_x
 _atom_site_fract_y
 _atom_site_fract_z
 _atom_site_occupancy
  Na  Na0  1  0.75000000  0.85465500  0.77857500  1
  Na  Na1  1  0.75000000  0.64534500  0.27857500  1
  Na  Na2  1  0.25000100  0.35465400  0.72142500  1
  Na  Na3  1  0.25000100  0.14534500  0.22142500  1
  Cr  Cr4  1  0.75000000  0.34688500  0.88230900  1
  Cr  Cr5  1  0.25000100  0.65311500  0.11769100  1
  Cr  Cr6  1  0.25000100  0.84688500  0.61769100  1
  Cr  Cr7  1  0.75000000  0.15311500  0.38230900  1
  Cr  Cr8  1  0.50000000  0.00000000  0.00000000  1
  Cr  Cr9  1  0.50000000  0.50000000  0.50000000  1
  Cr  Cr10  1  0.00000000  0.50000000  0.50000000  1
  Cr  Cr11  1  0.00000000  0.00000000  0.00000000  1
  P  P12  1  0.25000100  0.34857500  0.93997100  1
  P  P13  1  0.75000000  0.65142500  0.06003000  1
  P  P14  1  0.75000000  0.84857500  0.56002900  1
  P  P15  1  0.25000100  0.15142600  0.43997100  1
  P  P16  1  0.75000000  0.39904000  0.69464900  1
  P  P17  1  0.75000000  0.10096000  0.19464900  1
  P  P18  1  0.25000100  0.89904000  0.80535100  1
  P  P19  1  0.25000100  0.60095900  0.30535100  1
  O  O20  1  0.05171500  0.58851600  0.36808000  1
  O  O21  1  0.55171400  0.41148300  0.63192000  1
  O  O22  1  0.94828500  0.08851600  0.13192000  1
  O  O23  1  0.44828500  0.91148400  0.86808000  1
  O  O24  1  0.94828500  0.41148300  0.63192000  1
  O  O25  1  0.44828500  0.58851600  0.36808000  1
  O  O26  1  0.05171500  0.91148400  0.86808000  1
  O  O27  1  0.55171400  0.08851600  0.13192000  1
  O  O28  1  0.25000100  0.33523000  0.49173200  1
  O  O29  1  0.75000000  0.66477100  0.50826800  1
  O  O30  1  0.75000000  0.83522900  0.00826700  1
  O  O31  1  0.25000100  0.16477100  0.99173200  1
  O  O32  1  0.75000000  0.14463900  0.95220600  1
  O  O33  1  0.25000100  0.85536100  0.04779300  1
  O  O34  1  0.25000100  0.64463900  0.54779300  1
  O  O35  1  0.75000000  0.35536200  0.45220700  1
  O  O36  1  0.75000000  0.22755300  0.75566400  1
  O  O37  1  0.25000100  0.77244700  0.24433700  1
  O  O38  1  0.25000100  0.72755300  0.74433600  1
  O  O39  1  0.75000000  0.27244800  0.25566300  1
  O  O40  1  0.44107300  0.14400700  0.37434500  1
  O  O41  1  0.94107300  0.85599300  0.62565500  1
  O  O42  1  0.55892700  0.64400600  0.12565500  1
  O  O43  1  0.05892700  0.35599300  0.87434500  1
  O  O44  1  0.55892700  0.85599300  0.62565500  1
  O  O45  1  0.05892700  0.14400700  0.37434500  1
  O  O46  1  0.44107300  0.35599300  0.87434500  1
  O  O47  1  0.94107300  0.64400600  0.12565500  1
  O  O48  1  0.75000000  0.51217800  0.98238500  1
  O  O49  1  0.25000100  0.03482600  0.72231200  1
  O  O50  1  0.25000100  0.46517300  0.22231200  1
  O  O51  1  0.75000000  0.53482600  0.77768800  1
  O  O52  1  0.75000000  0.98782200  0.48238500  1
  O  O53  1  0.25000100  0.01217900  0.51761500  1
  O  O54  1  0.25000100  0.48782000  0.01761400  1
  O  O55  1  0.75000000  0.96517400  0.27768800  1
