# generated using pymatgen
data_GaAuO2
_symmetry_space_group_name_H-M   'P 1'
_cell_length_a   3.05006768
_cell_length_b   3.05006768
_cell_length_c   12.48642900
_cell_angle_alpha   90.00000000
_cell_angle_beta   90.00000000
_cell_angle_gamma   119.99999303
_symmetry_Int_Tables_number   1
_chemical_formula_structural   GaAuO2
_chemical_formula_sum   'Ga2 Au2 O4'
_cell_volume   100.59765715
_cell_formula_units_Z   2
loop_
 _symmetry_equiv_pos_site_id
 _symmetry_equiv_pos_as_xyz
  1  'x, y, z'
loop_
 _atom_site_type_symbol
 _atom_site_label
 _atom_site_symmetry_multiplicity
 _atom_site_fract_x
 _atom_site_fract_y
 _atom_site_fract_z
 _atom_site_occupancy
  Ga  Ga0  1  0.00000000  0.00000000  0.00000000  1
  Ga  Ga1  1  0.00000000  0.00000000  0.50000000  1
  Au  Au2  1  0.66666700  0.33333300  0.75000000  1
  Au  Au3  1  0.33333300  0.66666700  0.25000000  1
  O  O4  1  0.33333300  0.66666700  0.41996900  1
  O  O5  1  0.66666700  0.33333300  0.91996900  1
  O  O6  1  0.33333300  0.66666700  0.08003100  1
  O  O7  1  0.66666700  0.33333300  0.58003100  1
