# generated using pymatgen
data_Nb2O5
_symmetry_space_group_name_H-M   'P 1'
_cell_length_a   4.05615517
_cell_length_b   4.05615517
_cell_length_c   5.84511883
_cell_angle_alpha   68.58748970
_cell_angle_beta   68.58748970
_cell_angle_gamma   80.70473397
_symmetry_Int_Tables_number   1
_chemical_formula_structural   Nb2O5
_chemical_formula_sum   'Nb2 O5'
_cell_volume   83.30458764
_cell_formula_units_Z   1
loop_
 _symmetry_equiv_pos_site_id
 _symmetry_equiv_pos_as_xyz
  1  'x, y, z'
loop_
 _atom_site_type_symbol
 _atom_site_label
 _atom_site_symmetry_multiplicity
 _atom_site_fract_x
 _atom_site_fract_y
 _atom_site_fract_z
 _atom_site_occupancy
  Nb  Nb0  1  0.84969800  0.77090800  0.29505900  1
  Nb  Nb1  1  0.22909200  0.15030200  0.70494100  1
  O  O2  1  0.28286000  0.71714000  0.50000000  1
  O  O3  1  0.63731600  0.20893400  0.35373400  1
  O  O4  1  0.23788600  0.11592000  0.03604900  1
  O  O5  1  0.88408000  0.76211400  0.96395100  1
  O  O6  1  0.79106600  0.36268400  0.64626600  1
