# generated using pymatgen
data_MgNb2
_symmetry_space_group_name_H-M   'P 1'
_cell_length_a   7.65163122
_cell_length_b   7.50862413
_cell_length_c   2.85594091
_cell_angle_alpha   81.97373765
_cell_angle_beta   76.33594295
_cell_angle_gamma   21.69031940
_symmetry_Int_Tables_number   1
_chemical_formula_structural   MgNb2
_chemical_formula_sum   'Mg1 Nb2'
_cell_volume   57.45105337
_cell_formula_units_Z   1
loop_
 _symmetry_equiv_pos_site_id
 _symmetry_equiv_pos_as_xyz
  1  'x, y, z'
loop_
 _atom_site_type_symbol
 _atom_site_label
 _atom_site_symmetry_multiplicity
 _atom_site_fract_x
 _atom_site_fract_y
 _atom_site_fract_z
 _atom_site_occupancy
  Mg  Mg0  1  0.00000000  0.00000000  0.00000000  1
  Nb  Nb1  1  0.32747100  0.32747100  0.67252900  1
  Nb  Nb2  1  0.67252900  0.67252900  0.32747100  1
