# generated using pymatgen
data_ZrSb
_symmetry_space_group_name_H-M   'P 1'
_cell_length_a   5.60776358
_cell_length_b   5.60776358
_cell_length_c   14.21265800
_cell_angle_alpha   90.00000000
_cell_angle_beta   90.00000000
_cell_angle_gamma   140.20213069
_symmetry_Int_Tables_number   1
_chemical_formula_structural   ZrSb
_chemical_formula_sum   'Zr6 Sb6'
_cell_volume   286.08146404
_cell_formula_units_Z   6
loop_
 _symmetry_equiv_pos_site_id
 _symmetry_equiv_pos_as_xyz
  1  'x, y, z'
loop_
 _atom_site_type_symbol
 _atom_site_label
 _atom_site_symmetry_multiplicity
 _atom_site_fract_x
 _atom_site_fract_y
 _atom_site_fract_z
 _atom_site_occupancy
  Zr  Zr0  1  0.61906700  0.38093300  0.75000000  1
  Zr  Zr1  1  0.38093300  0.61906700  0.25000000  1
  Zr  Zr2  1  0.92875200  0.07124800  0.89177800  1
  Zr  Zr3  1  0.07124800  0.92875200  0.10822200  1
  Zr  Zr4  1  0.07124800  0.92875200  0.39177800  1
  Zr  Zr5  1  0.92875200  0.07124800  0.60822200  1
  Sb  Sb6  1  0.33090700  0.66909300  0.75000000  1
  Sb  Sb7  1  0.66909300  0.33090700  0.25000000  1
  Sb  Sb8  1  0.35730600  0.64269400  0.45088200  1
  Sb  Sb9  1  0.64269400  0.35730600  0.54911800  1
  Sb  Sb10  1  0.64269400  0.35730600  0.95088200  1
  Sb  Sb11  1  0.35730600  0.64269400  0.04911800  1
