# generated using pymatgen
data_CsAsO4
_symmetry_space_group_name_H-M   'P 1'
_cell_length_a   6.83888342
_cell_length_b   6.83888342
_cell_length_c   6.83888342
_cell_angle_alpha   110.10907924
_cell_angle_beta   110.10907924
_cell_angle_gamma   108.20289976
_symmetry_Int_Tables_number   1
_chemical_formula_structural   CsAsO4
_chemical_formula_sum   'Cs2 As2 O8'
_cell_volume   246.13563917
_cell_formula_units_Z   2
loop_
 _symmetry_equiv_pos_site_id
 _symmetry_equiv_pos_as_xyz
  1  'x, y, z'
loop_
 _atom_site_type_symbol
 _atom_site_label
 _atom_site_symmetry_multiplicity
 _atom_site_fract_x
 _atom_site_fract_y
 _atom_site_fract_z
 _atom_site_occupancy
  Cs  Cs0  1  0.25000000  0.75000000  0.50000000  1
  Cs  Cs1  1  0.50000000  0.50000000  0.00000000  1
  As  As2  1  0.75000000  0.25000000  0.50000000  1
  As  As3  1  0.00000000  0.00000000  0.00000000  1
  O  O4  1  0.72046700  0.25507400  0.74461300  1
  O  O5  1  0.02953300  0.27414700  0.03460700  1
  O  O6  1  0.51046000  0.97585300  0.25538700  1
  O  O7  1  0.23954000  0.99492600  0.96539300  1
  O  O8  1  0.74492600  0.48954000  0.46539300  1
  O  O9  1  0.00507400  0.97046700  0.24461300  1
  O  O10  1  0.02414700  0.27953300  0.53460700  1
  O  O11  1  0.72585300  0.76046000  0.75538700  1
