# generated using pymatgen
data_W
_symmetry_space_group_name_H-M   'P 1'
_cell_length_a   2.80966200
_cell_length_b   4.86387000
_cell_length_c   4.92369500
_cell_angle_alpha   90.00000000
_cell_angle_beta   90.00000000
_cell_angle_gamma   90.00000000
_symmetry_Int_Tables_number   1
_chemical_formula_structural   W
_chemical_formula_sum   W4
_cell_volume   67.28638235
_cell_formula_units_Z   4
loop_
 _symmetry_equiv_pos_site_id
 _symmetry_equiv_pos_as_xyz
  1  'x, y, z'
loop_
 _atom_site_type_symbol
 _atom_site_label
 _atom_site_symmetry_multiplicity
 _atom_site_fract_x
 _atom_site_fract_y
 _atom_site_fract_z
 _atom_site_occupancy
  W  W0  1  0.79317200  0.56315700  0.25000000  1
  W  W1  1  0.20682800  0.06315700  0.25000000  1
  W  W2  1  0.20682800  0.43684300  0.75000000  1
  W  W3  1  0.79317200  0.93684300  0.75000000  1
