# generated using pymatgen
data_NiHO2
_symmetry_space_group_name_H-M   'P 1'
_cell_length_a   3.03225298
_cell_length_b   3.03225298
_cell_length_c   4.54881695
_cell_angle_alpha   77.27441990
_cell_angle_beta   77.27441990
_cell_angle_gamma   56.11544140
_symmetry_Int_Tables_number   1
_chemical_formula_structural   NiHO2
_chemical_formula_sum   'Ni1 H1 O2'
_cell_volume   33.62190187
_cell_formula_units_Z   1
loop_
 _symmetry_equiv_pos_site_id
 _symmetry_equiv_pos_as_xyz
  1  'x, y, z'
loop_
 _atom_site_type_symbol
 _atom_site_label
 _atom_site_symmetry_multiplicity
 _atom_site_fract_x
 _atom_site_fract_y
 _atom_site_fract_z
 _atom_site_occupancy
  Ni  Ni0  1  0.99776200  0.99776200  0.99754300  1
  H  H1  1  0.50820700  0.50820700  0.46815800  1
  O  O2  1  0.59870400  0.59870400  0.22556200  1
  O  O3  1  0.39532700  0.39532700  0.77548700  1
