# generated using pymatgen
data_ZrCl
_symmetry_space_group_name_H-M   'P 1'
_cell_length_a   3.36166723
_cell_length_b   3.36166723
_cell_length_c   9.61556300
_cell_angle_alpha   90.00000000
_cell_angle_beta   90.00000000
_cell_angle_gamma   119.99998488
_symmetry_Int_Tables_number   1
_chemical_formula_structural   ZrCl
_chemical_formula_sum   'Zr2 Cl2'
_cell_volume   94.10546764
_cell_formula_units_Z   2
loop_
 _symmetry_equiv_pos_site_id
 _symmetry_equiv_pos_as_xyz
  1  'x, y, z'
loop_
 _atom_site_type_symbol
 _atom_site_label
 _atom_site_symmetry_multiplicity
 _atom_site_fract_x
 _atom_site_fract_y
 _atom_site_fract_z
 _atom_site_occupancy
  Zr  Zr0  1  0.66666700  0.33333300  0.63111200  1
  Zr  Zr1  1  0.33333300  0.66666700  0.36888800  1
  Cl  Cl2  1  0.66666700  0.33333300  0.18073400  1
  Cl  Cl3  1  0.33333300  0.66666700  0.81926600  1
