# generated using pymatgen
data_Y2Ni2Sn
_symmetry_space_group_name_H-M   'P 1'
_cell_length_a   5.45325255
_cell_length_b   5.45325255
_cell_length_c   5.45325255
_cell_angle_alpha   133.83680972
_cell_angle_beta   117.80104776
_cell_angle_gamma   80.85058877
_symmetry_Int_Tables_number   1
_chemical_formula_structural   Y2Ni2Sn
_chemical_formula_sum   'Y2 Ni2 Sn1'
_cell_volume   99.99522967
_cell_formula_units_Z   1
loop_
 _symmetry_equiv_pos_site_id
 _symmetry_equiv_pos_as_xyz
  1  'x, y, z'
loop_
 _atom_site_type_symbol
 _atom_site_label
 _atom_site_symmetry_multiplicity
 _atom_site_fract_x
 _atom_site_fract_y
 _atom_site_fract_z
 _atom_site_occupancy
  Y  Y0  1  0.70389300  0.20389300  0.50000000  1
  Y  Y1  1  0.29610700  0.79610700  0.50000000  1
  Ni  Ni2  1  0.71363600  0.50000000  0.21363600  1
  Ni  Ni3  1  0.28636400  0.50000000  0.78636400  1
  Sn  Sn4  1  0.00000000  0.00000000  0.00000000  1
