# generated using pymatgen
data_FeBiO3
_symmetry_space_group_name_H-M   'P 1'
_cell_length_a   4.87982800
_cell_length_b   5.30529985
_cell_length_c   5.30530409
_cell_angle_alpha   90.00001527
_cell_angle_beta   90.00001910
_cell_angle_gamma   90.00001910
_symmetry_Int_Tables_number   1
_chemical_formula_structural   FeBiO3
_chemical_formula_sum   'Fe2 Bi2 O6'
_cell_volume   137.34875639
_cell_formula_units_Z   2
loop_
 _symmetry_equiv_pos_site_id
 _symmetry_equiv_pos_as_xyz
  1  'x, y, z'
loop_
 _atom_site_type_symbol
 _atom_site_label
 _atom_site_symmetry_multiplicity
 _atom_site_fract_x
 _atom_site_fract_y
 _atom_site_fract_z
 _atom_site_occupancy
  Fe  Fe0  1  0.47616700  0.00000000  0.50000100  1
  Fe  Fe1  1  0.47616300  0.50000000  0.00000000  1
  Bi  Bi2  1  0.04870700  0.00000000  0.00000000  1
  Bi  Bi3  1  0.04870700  0.50000000  0.49999900  1
  O  O4  1  0.85630600  0.50000000  0.00000000  1
  O  O5  1  0.85630300  0.00000000  0.50000000  1
  O  O6  1  0.33041300  0.24999900  0.25000100  1
  O  O7  1  0.33041200  0.75000100  0.74999900  1
  O  O8  1  0.33041200  0.24999900  0.74999800  1
  O  O9  1  0.33041200  0.75000200  0.25000100  1
