# generated using pymatgen
data_VAu4
_symmetry_space_group_name_H-M   'P 1'
_cell_length_a   5.04150725
_cell_length_b   5.04150725
_cell_length_c   5.04150725
_cell_angle_alpha   99.34638499
_cell_angle_beta   99.34638499
_cell_angle_gamma   132.46926420
_symmetry_Int_Tables_number   1
_chemical_formula_structural   VAu4
_chemical_formula_sum   'V1 Au4'
_cell_volume   86.50537102
_cell_formula_units_Z   1
loop_
 _symmetry_equiv_pos_site_id
 _symmetry_equiv_pos_as_xyz
  1  'x, y, z'
loop_
 _atom_site_type_symbol
 _atom_site_label
 _atom_site_symmetry_multiplicity
 _atom_site_fract_x
 _atom_site_fract_y
 _atom_site_fract_z
 _atom_site_occupancy
  V  V0  1  0.00000000  0.00000000  0.00000000  1
  Au  Au1  1  0.39656700  0.20505900  0.60162500  1
  Au  Au2  1  0.60343300  0.79494100  0.39837500  1
  Au  Au3  1  0.79494100  0.39656700  0.19150800  1
  Au  Au4  1  0.20505900  0.60343300  0.80849200  1
