# generated using pymatgen
data_Na3Cl2
_symmetry_space_group_name_H-M   'P 1'
_cell_length_a   10.32141146
_cell_length_b   10.32141146
_cell_length_c   3.52763600
_cell_angle_alpha   90.00000000
_cell_angle_beta   90.00000000
_cell_angle_gamma   160.36452326
_symmetry_Int_Tables_number   1
_chemical_formula_structural   Na3Cl2
_chemical_formula_sum   'Na3 Cl2'
_cell_volume   126.28338746
_cell_formula_units_Z   1
loop_
 _symmetry_equiv_pos_site_id
 _symmetry_equiv_pos_as_xyz
  1  'x, y, z'
loop_
 _atom_site_type_symbol
 _atom_site_label
 _atom_site_symmetry_multiplicity
 _atom_site_fract_x
 _atom_site_fract_y
 _atom_site_fract_z
 _atom_site_occupancy
  Na  Na0  1  0.50000000  0.50000000  0.00000000  1
  Na  Na1  1  0.33101100  0.66898900  0.00000000  1
  Na  Na2  1  0.66898900  0.33101100  0.00000000  1
  Cl  Cl3  1  0.91340200  0.08659800  0.50000000  1
  Cl  Cl4  1  0.08659800  0.91340200  0.50000000  1
