# generated using pymatgen
data_Ho2AlNi2
_symmetry_space_group_name_H-M   'P 1'
_cell_length_a   5.39567340
_cell_length_b   5.39567340
_cell_length_c   5.39567340
_cell_angle_alpha   135.71045910
_cell_angle_beta   118.94924865
_cell_angle_gamma   78.47152439
_symmetry_Int_Tables_number   1
_chemical_formula_structural   Ho2AlNi2
_chemical_formula_sum   'Ho2 Al1 Ni2'
_cell_volume   93.18009824
_cell_formula_units_Z   1
loop_
 _symmetry_equiv_pos_site_id
 _symmetry_equiv_pos_as_xyz
  1  'x, y, z'
loop_
 _atom_site_type_symbol
 _atom_site_label
 _atom_site_symmetry_multiplicity
 _atom_site_fract_x
 _atom_site_fract_y
 _atom_site_fract_z
 _atom_site_occupancy
  Ho  Ho0  1  0.70495000  0.20495000  0.50000000  1
  Ho  Ho1  1  0.29505000  0.79505000  0.50000000  1
  Al  Al2  1  0.00000000  0.00000000  0.00000000  1
  Ni  Ni3  1  0.27362100  0.50000000  0.77362100  1
  Ni  Ni4  1  0.72637900  0.50000000  0.22637900  1
