# generated using pymatgen
data_Cd(NCl)2
_symmetry_space_group_name_H-M   'P 1'
_cell_length_a   6.05101178
_cell_length_b   6.05101178
_cell_length_c   3.74369400
_cell_angle_alpha   90.00000000
_cell_angle_beta   90.00000000
_cell_angle_gamma   100.54482003
_symmetry_Int_Tables_number   1
_chemical_formula_structural   Cd(NCl)2
_chemical_formula_sum   'Cd1 N2 Cl2'
_cell_volume   134.75949035
_cell_formula_units_Z   1
loop_
 _symmetry_equiv_pos_site_id
 _symmetry_equiv_pos_as_xyz
  1  'x, y, z'
loop_
 _atom_site_type_symbol
 _atom_site_label
 _atom_site_symmetry_multiplicity
 _atom_site_fract_x
 _atom_site_fract_y
 _atom_site_fract_z
 _atom_site_occupancy
  Cd  Cd0  1  0.00000000  0.00000000  0.00000000  1
  N  N1  1  0.28036000  0.71964000  0.00000000  1
  N  N2  1  0.71964000  0.28036000  0.00000000  1
  Cl  Cl3  1  0.22753400  0.22753400  0.50000000  1
  Cl  Cl4  1  0.77246600  0.77246600  0.50000000  1
