# generated using pymatgen
data_Al3Tc2
_symmetry_space_group_name_H-M   'P 1'
_cell_length_a   4.35609481
_cell_length_b   4.35609481
_cell_length_c   5.12100100
_cell_angle_alpha   90.00000000
_cell_angle_beta   90.00000000
_cell_angle_gamma   120.00001229
_symmetry_Int_Tables_number   1
_chemical_formula_structural   Al3Tc2
_chemical_formula_sum   'Al3 Tc2'
_cell_volume   84.15503124
_cell_formula_units_Z   1
loop_
 _symmetry_equiv_pos_site_id
 _symmetry_equiv_pos_as_xyz
  1  'x, y, z'
loop_
 _atom_site_type_symbol
 _atom_site_label
 _atom_site_symmetry_multiplicity
 _atom_site_fract_x
 _atom_site_fract_y
 _atom_site_fract_z
 _atom_site_occupancy
  Al  Al0  1  0.00000000  0.00000000  0.00000000  1
  Al  Al1  1  0.66666700  0.33333300  0.39188000  1
  Al  Al2  1  0.33333300  0.66666700  0.60812000  1
  Tc  Tc3  1  0.66666700  0.33333300  0.89620100  1
  Tc  Tc4  1  0.33333300  0.66666700  0.10379900  1
