# generated using pymatgen
data_Fe4C
_symmetry_space_group_name_H-M   'P 1'
_cell_length_a   4.47977609
_cell_length_b   4.47977609
_cell_length_c   4.47977609
_cell_angle_alpha   94.36237434
_cell_angle_beta   94.36237434
_cell_angle_gamma   147.98091006
_symmetry_Int_Tables_number   1
_chemical_formula_structural   Fe4C
_chemical_formula_sum   'Fe4 C1'
_cell_volume   45.81745859
_cell_formula_units_Z   1
loop_
 _symmetry_equiv_pos_site_id
 _symmetry_equiv_pos_as_xyz
  1  'x, y, z'
loop_
 _atom_site_type_symbol
 _atom_site_label
 _atom_site_symmetry_multiplicity
 _atom_site_fract_x
 _atom_site_fract_y
 _atom_site_fract_z
 _atom_site_occupancy
  Fe  Fe0  1  0.23659800  0.57428200  0.81088000  1
  Fe  Fe1  1  0.76340200  0.42571800  0.18912000  1
  Fe  Fe2  1  0.42571800  0.23659800  0.66231600  1
  Fe  Fe3  1  0.57428200  0.76340200  0.33768400  1
  C  C4  1  0.00000000  0.00000000  0.00000000  1
