# generated using pymatgen
data_LaAsIr
_symmetry_space_group_name_H-M   'P 1'
_cell_length_a   8.06575723
_cell_length_b   8.06575723
_cell_length_c   8.06575723
_cell_angle_alpha   149.51426779
_cell_angle_beta   149.51426779
_cell_angle_gamma   43.65487541
_symmetry_Int_Tables_number   1
_chemical_formula_structural   LaAsIr
_chemical_formula_sum   'La2 As2 Ir2'
_cell_volume   134.68066997
_cell_formula_units_Z   2
loop_
 _symmetry_equiv_pos_site_id
 _symmetry_equiv_pos_as_xyz
  1  'x, y, z'
loop_
 _atom_site_type_symbol
 _atom_site_label
 _atom_site_symmetry_multiplicity
 _atom_site_fract_x
 _atom_site_fract_y
 _atom_site_fract_z
 _atom_site_occupancy
  La  La0  1  0.74973000  0.24973000  0.50000000  1
  La  La1  1  0.99973000  0.99973000  0.00000000  1
  As  As2  1  0.32695700  0.82695700  0.50000000  1
  As  As3  1  0.57695700  0.57695700  0.00000000  1
  Ir  Ir4  1  0.16131300  0.66131300  0.50000000  1
  Ir  Ir5  1  0.41131300  0.41131300  0.00000000  1
