# generated using pymatgen
data_TbGe5
_symmetry_space_group_name_H-M   'P 1'
_cell_length_a   6.15135729
_cell_length_b   6.15135729
_cell_length_c   6.15135729
_cell_angle_alpha   142.17536207
_cell_angle_beta   119.76022004
_cell_angle_gamma   73.36565655
_symmetry_Int_Tables_number   1
_chemical_formula_structural   TbGe5
_chemical_formula_sum   'Tb1 Ge5'
_cell_volume   121.44226102
_cell_formula_units_Z   1
loop_
 _symmetry_equiv_pos_site_id
 _symmetry_equiv_pos_as_xyz
  1  'x, y, z'
loop_
 _atom_site_type_symbol
 _atom_site_label
 _atom_site_symmetry_multiplicity
 _atom_site_fract_x
 _atom_site_fract_y
 _atom_site_fract_z
 _atom_site_occupancy
  Tb  Tb0  1  0.00000000  0.00000000  0.00000000  1
  Ge  Ge1  1  0.46033200  0.66857700  0.79175600  1
  Ge  Ge2  1  0.53966800  0.33142300  0.20824400  1
  Ge  Ge3  1  0.12317900  0.33142300  0.79175600  1
  Ge  Ge4  1  0.87682100  0.66857700  0.20824400  1
  Ge  Ge5  1  0.50000000  0.00000000  0.50000000  1
