# generated using pymatgen
data_IrN2
_symmetry_space_group_name_H-M   'P 1'
_cell_length_a   4.85559600
_cell_length_b   4.85559600
_cell_length_c   4.85559600
_cell_angle_alpha   90.00000000
_cell_angle_beta   90.00000000
_cell_angle_gamma   90.00000000
_symmetry_Int_Tables_number   1
_chemical_formula_structural   IrN2
_chemical_formula_sum   'Ir4 N8'
_cell_volume   114.47947654
_cell_formula_units_Z   4
loop_
 _symmetry_equiv_pos_site_id
 _symmetry_equiv_pos_as_xyz
  1  'x, y, z'
loop_
 _atom_site_type_symbol
 _atom_site_label
 _atom_site_symmetry_multiplicity
 _atom_site_fract_x
 _atom_site_fract_y
 _atom_site_fract_z
 _atom_site_occupancy
  Ir  Ir0  1  0.50000000  0.50000000  0.00000000  1
  Ir  Ir1  1  0.50000000  0.00000000  0.50000000  1
  Ir  Ir2  1  0.00000000  0.50000000  0.50000000  1
  Ir  Ir3  1  0.00000000  0.00000000  0.00000000  1
  N  N4  1  0.08234100  0.91765900  0.41765900  1
  N  N5  1  0.91765900  0.41765900  0.08234100  1
  N  N6  1  0.41765900  0.08234100  0.91765900  1
  N  N7  1  0.58234100  0.58234100  0.58234100  1
  N  N8  1  0.91765900  0.08234100  0.58234100  1
  N  N9  1  0.08234100  0.58234100  0.91765900  1
  N  N10  1  0.58234100  0.91765900  0.08234100  1
  N  N11  1  0.41765900  0.41765900  0.41765900  1
