# generated using pymatgen
data_UCoGe
_symmetry_space_group_name_H-M   'P 1'
_cell_length_a   4.19367749
_cell_length_b   4.19367749
_cell_length_c   6.81440600
_cell_angle_alpha   90.00000000
_cell_angle_beta   90.00000000
_cell_angle_gamma   120.03327660
_symmetry_Int_Tables_number   1
_chemical_formula_structural   UCoGe
_chemical_formula_sum   'U2 Co2 Ge2'
_cell_volume   103.75355128
_cell_formula_units_Z   2
loop_
 _symmetry_equiv_pos_site_id
 _symmetry_equiv_pos_as_xyz
  1  'x, y, z'
loop_
 _atom_site_type_symbol
 _atom_site_label
 _atom_site_symmetry_multiplicity
 _atom_site_fract_x
 _atom_site_fract_y
 _atom_site_fract_z
 _atom_site_occupancy
  U  U0  1  0.00000000  0.00000000  0.50000000  1
  U  U1  1  0.00000000  0.00000000  0.00000000  1
  Co  Co2  1  0.66686800  0.33313200  0.75000000  1
  Co  Co3  1  0.33313200  0.66686800  0.25000000  1
  Ge  Ge4  1  0.33334600  0.66665400  0.75000000  1
  Ge  Ge5  1  0.66665400  0.33334600  0.25000000  1
