# generated using pymatgen
data_In2Cu
_symmetry_space_group_name_H-M   'P 1'
_cell_length_a   5.68577712
_cell_length_b   5.68577712
_cell_length_c   5.68577712
_cell_angle_alpha   101.60802939
_cell_angle_beta   101.60802939
_cell_angle_gamma   126.69603121
_symmetry_Int_Tables_number   1
_chemical_formula_structural   In2Cu
_chemical_formula_sum   'In4 Cu2'
_cell_volume   131.72241126
_cell_formula_units_Z   2
loop_
 _symmetry_equiv_pos_site_id
 _symmetry_equiv_pos_as_xyz
  1  'x, y, z'
loop_
 _atom_site_type_symbol
 _atom_site_label
 _atom_site_symmetry_multiplicity
 _atom_site_fract_x
 _atom_site_fract_y
 _atom_site_fract_z
 _atom_site_occupancy
  In  In0  1  0.15287100  0.65287100  0.80574100  1
  In  In1  1  0.84712900  0.34712900  0.19425900  1
  In  In2  1  0.34712900  0.15287100  0.50000000  1
  In  In3  1  0.65287100  0.84712900  0.50000000  1
  Cu  Cu4  1  0.00000000  0.00000000  0.00000000  1
  Cu  Cu5  1  0.50000000  0.50000000  0.00000000  1
