# generated using pymatgen
data_Si2Os
_symmetry_space_group_name_H-M   'P 1'
_cell_length_a   4.60547645
_cell_length_b   4.60547645
_cell_length_c   7.51558837
_cell_angle_alpha   62.70531382
_cell_angle_beta   62.70531382
_cell_angle_gamma   38.07196774
_symmetry_Int_Tables_number   1
_chemical_formula_structural   Si2Os
_chemical_formula_sum   'Si4 Os2'
_cell_volume   85.95913927
_cell_formula_units_Z   2
loop_
 _symmetry_equiv_pos_site_id
 _symmetry_equiv_pos_as_xyz
  1  'x, y, z'
loop_
 _atom_site_type_symbol
 _atom_site_label
 _atom_site_symmetry_multiplicity
 _atom_site_fract_x
 _atom_site_fract_y
 _atom_site_fract_z
 _atom_site_occupancy
  Si  Si0  1  0.39497700  0.39497700  0.89512900  1
  Si  Si1  1  0.60502300  0.60502300  0.10487100  1
  Si  Si2  1  0.85881200  0.85881200  0.52726600  1
  Si  Si3  1  0.14118800  0.14118800  0.47273400  1
  Os  Os4  1  0.15525700  0.15525700  0.79763400  1
  Os  Os5  1  0.84474300  0.84474300  0.20236600  1
