# generated using pymatgen
data_IrS2
_symmetry_space_group_name_H-M   'P 1'
_cell_length_a   5.74574700
_cell_length_b   5.74574700
_cell_length_c   5.74574700
_cell_angle_alpha   90.00000000
_cell_angle_beta   90.00000000
_cell_angle_gamma   90.00000000
_symmetry_Int_Tables_number   1
_chemical_formula_structural   IrS2
_chemical_formula_sum   'Ir4 S8'
_cell_volume   189.68784250
_cell_formula_units_Z   4
loop_
 _symmetry_equiv_pos_site_id
 _symmetry_equiv_pos_as_xyz
  1  'x, y, z'
loop_
 _atom_site_type_symbol
 _atom_site_label
 _atom_site_symmetry_multiplicity
 _atom_site_fract_x
 _atom_site_fract_y
 _atom_site_fract_z
 _atom_site_occupancy
  Ir  Ir0  1  0.50000000  0.50000000  0.00000000  1
  Ir  Ir1  1  0.50000000  0.00000000  0.50000000  1
  Ir  Ir2  1  0.00000000  0.50000000  0.50000000  1
  Ir  Ir3  1  0.00000000  0.00000000  0.00000000  1
  S  S4  1  0.13258800  0.86741200  0.36741200  1
  S  S5  1  0.86741200  0.36741200  0.13258800  1
  S  S6  1  0.36741200  0.13258800  0.86741200  1
  S  S7  1  0.63258800  0.63258800  0.63258800  1
  S  S8  1  0.86741200  0.13258800  0.63258800  1
  S  S9  1  0.13258800  0.63258800  0.86741200  1
  S  S10  1  0.63258800  0.86741200  0.13258800  1
  S  S11  1  0.36741200  0.36741200  0.36741200  1
