# generated using pymatgen
data_Mg2Si3
_symmetry_space_group_name_H-M   'P 1'
_cell_length_a   3.52720300
_cell_length_b   6.10275235
_cell_length_c   9.13555484
_cell_angle_alpha   99.27575279
_cell_angle_beta   100.03635049
_cell_angle_gamma   106.05257688
_symmetry_Int_Tables_number   1
_chemical_formula_structural   Mg2Si3
_chemical_formula_sum   'Mg4 Si6'
_cell_volume   181.47704251
_cell_formula_units_Z   2
loop_
 _symmetry_equiv_pos_site_id
 _symmetry_equiv_pos_as_xyz
  1  'x, y, z'
loop_
 _atom_site_type_symbol
 _atom_site_label
 _atom_site_symmetry_multiplicity
 _atom_site_fract_x
 _atom_site_fract_y
 _atom_site_fract_z
 _atom_site_occupancy
  Mg  Mg0  1  0.41648200  0.71380200  0.59026100  1
  Mg  Mg1  1  0.58351800  0.28619800  0.40973900  1
  Mg  Mg2  1  0.74229500  0.09179100  0.88348800  1
  Mg  Mg3  1  0.25770500  0.90820900  0.11651200  1
  Si  Si4  1  0.51660800  0.61456100  0.90146800  1
  Si  Si5  1  0.48339200  0.38543900  0.09853200  1
  Si  Si6  1  0.84888600  0.43931500  0.71966200  1
  Si  Si7  1  0.15111400  0.56068500  0.28033800  1
  Si  Si8  1  0.14150000  0.11505000  0.63252700  1
  Si  Si9  1  0.85850000  0.88495000  0.36747300  1
