# generated using pymatgen
data_MgSi2
_symmetry_space_group_name_H-M   'P 1'
_cell_length_a   3.60296300
_cell_length_b   6.93298600
_cell_length_c   9.00690329
_cell_angle_alpha   77.00596967
_cell_angle_beta   90.00000000
_cell_angle_gamma   90.00000000
_symmetry_Int_Tables_number   1
_chemical_formula_structural   MgSi2
_chemical_formula_sum   'Mg4 Si8'
_cell_volume   219.22496137
_cell_formula_units_Z   4
loop_
 _symmetry_equiv_pos_site_id
 _symmetry_equiv_pos_as_xyz
  1  'x, y, z'
loop_
 _atom_site_type_symbol
 _atom_site_label
 _atom_site_symmetry_multiplicity
 _atom_site_fract_x
 _atom_site_fract_y
 _atom_site_fract_z
 _atom_site_occupancy
  Mg  Mg0  1  0.75000000  0.45323400  0.85884500  1
  Mg  Mg1  1  0.25000000  0.54676600  0.14115500  1
  Mg  Mg2  1  0.75000000  0.74037500  0.36081700  1
  Mg  Mg3  1  0.25000000  0.25962500  0.63918300  1
  Si  Si4  1  0.25000000  0.97272700  0.14732100  1
  Si  Si5  1  0.25000000  0.79169300  0.86550100  1
  Si  Si6  1  0.75000000  0.91363300  0.60137000  1
  Si  Si7  1  0.75000000  0.34402000  0.36922600  1
  Si  Si8  1  0.75000000  0.02727300  0.85267900  1
  Si  Si9  1  0.75000000  0.20830700  0.13449900  1
  Si  Si10  1  0.25000000  0.08636700  0.39863000  1
  Si  Si11  1  0.25000000  0.65598000  0.63077400  1
