# generated using pymatgen
data_MgSi2
_symmetry_space_group_name_H-M   'P 1'
_cell_length_a   3.71170300
_cell_length_b   5.80842100
_cell_length_c   9.34910268
_cell_angle_alpha   87.40521600
_cell_angle_beta   90.00000000
_cell_angle_gamma   90.00000000
_symmetry_Int_Tables_number   1
_chemical_formula_structural   MgSi2
_chemical_formula_sum   'Mg4 Si8'
_cell_volume   201.35189524
_cell_formula_units_Z   4
loop_
 _symmetry_equiv_pos_site_id
 _symmetry_equiv_pos_as_xyz
  1  'x, y, z'
loop_
 _atom_site_type_symbol
 _atom_site_label
 _atom_site_symmetry_multiplicity
 _atom_site_fract_x
 _atom_site_fract_y
 _atom_site_fract_z
 _atom_site_occupancy
  Mg  Mg0  1  0.00000000  0.25287800  0.84320200  1
  Mg  Mg1  1  0.00000000  0.74712200  0.15679800  1
  Mg  Mg2  1  0.50000000  0.46250800  0.34512000  1
  Mg  Mg3  1  0.50000000  0.53749200  0.65488000  1
  Si  Si4  1  0.00000000  0.24851000  0.14538200  1
  Si  Si5  1  0.50000000  0.50000000  0.00000000  1
  Si  Si6  1  0.00000000  0.80558000  0.45552000  1
  Si  Si7  1  0.50000000  0.00337300  0.30427700  1
  Si  Si8  1  0.00000000  0.75149000  0.85461800  1
  Si  Si9  1  0.50000000  0.00000000  0.00000000  1
  Si  Si10  1  0.00000000  0.19442000  0.54448000  1
  Si  Si11  1  0.50000000  0.99662700  0.69572300  1
