# generated using pymatgen
data_MgSi
_symmetry_space_group_name_H-M   'P 1'
_cell_length_a   4.42870000
_cell_length_b   5.53886873
_cell_length_c   9.86318090
_cell_angle_alpha   99.77194894
_cell_angle_beta   93.90321337
_cell_angle_gamma   110.03469419
_symmetry_Int_Tables_number   1
_chemical_formula_structural   MgSi
_chemical_formula_sum   'Mg6 Si6'
_cell_volume   221.91336565
_cell_formula_units_Z   6
loop_
 _symmetry_equiv_pos_site_id
 _symmetry_equiv_pos_as_xyz
  1  'x, y, z'
loop_
 _atom_site_type_symbol
 _atom_site_label
 _atom_site_symmetry_multiplicity
 _atom_site_fract_x
 _atom_site_fract_y
 _atom_site_fract_z
 _atom_site_occupancy
  Mg  Mg0  1  0.62299200  0.20192900  0.14392900  1
  Mg  Mg1  1  0.05563300  0.19101800  0.67027600  1
  Mg  Mg2  1  0.23693800  0.41083800  0.37786200  1
  Mg  Mg3  1  0.94436700  0.80898200  0.32972400  1
  Mg  Mg4  1  0.76306200  0.58916200  0.62213800  1
  Mg  Mg5  1  0.37700800  0.79807100  0.85607100  1
  Si  Si6  1  0.31420700  0.59772800  0.13654800  1
  Si  Si7  1  0.37674700  0.85825100  0.57792700  1
  Si  Si8  1  0.68579300  0.40227200  0.86345200  1
  Si  Si9  1  0.10735600  0.20698800  0.95211700  1
  Si  Si10  1  0.89264400  0.79301200  0.04788300  1
  Si  Si11  1  0.62325300  0.14174900  0.42207300  1
