# generated using pymatgen
data_Mg4Si3
_symmetry_space_group_name_H-M   'P 1'
_cell_length_a   5.48757600
_cell_length_b   6.93672235
_cell_length_c   8.22634691
_cell_angle_alpha   108.01834886
_cell_angle_beta   103.93902669
_cell_angle_gamma   103.50987357
_symmetry_Int_Tables_number   1
_chemical_formula_structural   Mg4Si3
_chemical_formula_sum   'Mg8 Si6'
_cell_volume   272.43452840
_cell_formula_units_Z   2
loop_
 _symmetry_equiv_pos_site_id
 _symmetry_equiv_pos_as_xyz
  1  'x, y, z'
loop_
 _atom_site_type_symbol
 _atom_site_label
 _atom_site_symmetry_multiplicity
 _atom_site_fract_x
 _atom_site_fract_y
 _atom_site_fract_z
 _atom_site_occupancy
  Mg  Mg0  1  0.09856400  0.22933000  0.73573700  1
  Mg  Mg1  1  0.46368000  0.06499600  0.06487700  1
  Mg  Mg2  1  0.98321900  0.43589900  0.42246900  1
  Mg  Mg3  1  0.57677200  0.41780800  0.61235800  1
  Mg  Mg4  1  0.58262300  0.60627800  0.12283200  1
  Mg  Mg5  1  0.39669600  0.90426600  0.60319000  1
  Mg  Mg6  1  0.09889500  0.00109100  0.29734900  1
  Mg  Mg7  1  0.85530800  0.88606900  0.87844100  1
  Si  Si8  1  0.28862500  0.65163500  0.79723100  1
  Si  Si9  1  0.71904900  0.27536600  0.90421700  1
  Si  Si10  1  0.14240300  0.31257800  0.13559800  1
  Si  Si11  1  0.84129400  0.80608700  0.51574200  1
  Si  Si12  1  0.06472400  0.61830200  0.02427300  1
  Si  Si13  1  0.63837800  0.04043400  0.38573400  1
