# generated using pymatgen
data_Mg4Si3
_symmetry_space_group_name_H-M   'P 1'
_cell_length_a   6.84032600
_cell_length_b   6.86784095
_cell_length_c   7.20657300
_cell_angle_alpha   107.70815458
_cell_angle_beta   84.71504589
_cell_angle_gamma   117.72283089
_symmetry_Int_Tables_number   1
_chemical_formula_structural   Mg4Si3
_chemical_formula_sum   'Mg8 Si6'
_cell_volume   284.99946018
_cell_formula_units_Z   2
loop_
 _symmetry_equiv_pos_site_id
 _symmetry_equiv_pos_as_xyz
  1  'x, y, z'
loop_
 _atom_site_type_symbol
 _atom_site_label
 _atom_site_symmetry_multiplicity
 _atom_site_fract_x
 _atom_site_fract_y
 _atom_site_fract_z
 _atom_site_occupancy
  Mg  Mg0  1  0.22695400  0.23675400  0.01948200  1
  Mg  Mg1  1  0.14418400  0.24430700  0.62333400  1
  Mg  Mg2  1  0.23049200  0.70844400  0.97102000  1
  Mg  Mg3  1  0.21322800  0.59070900  0.37962100  1
  Mg  Mg4  1  0.77304600  0.76324600  0.98051800  1
  Mg  Mg5  1  0.85581600  0.75569300  0.37666600  1
  Mg  Mg6  1  0.78677200  0.40929100  0.62037900  1
  Mg  Mg7  1  0.76950800  0.29155600  0.02898000  1
  Si  Si8  1  0.50288700  0.01067700  0.32321200  1
  Si  Si9  1  0.52057100  0.64185500  0.66302300  1
  Si  Si10  1  0.10471800  0.86891300  0.70639300  1
  Si  Si11  1  0.89528200  0.13108700  0.29360700  1
  Si  Si12  1  0.49711300  0.98932300  0.67678800  1
  Si  Si13  1  0.47942900  0.35814500  0.33697700  1
