# generated using pymatgen
data_Mg2Si
_symmetry_space_group_name_H-M   'P 1'
_cell_length_a   2.97787400
_cell_length_b   5.03567701
_cell_length_c   7.74252266
_cell_angle_alpha   92.62344524
_cell_angle_beta   100.95140255
_cell_angle_gamma   90.00300378
_symmetry_Int_Tables_number   1
_chemical_formula_structural   Mg2Si
_chemical_formula_sum   'Mg4 Si2'
_cell_volume   113.86545785
_cell_formula_units_Z   2
loop_
 _symmetry_equiv_pos_site_id
 _symmetry_equiv_pos_as_xyz
  1  'x, y, z'
loop_
 _atom_site_type_symbol
 _atom_site_label
 _atom_site_symmetry_multiplicity
 _atom_site_fract_x
 _atom_site_fract_y
 _atom_site_fract_z
 _atom_site_occupancy
  Mg  Mg0  1  0.76866300  0.75151500  0.54025800  1
  Mg  Mg1  1  0.56469400  0.25503800  0.11384500  1
  Mg  Mg2  1  0.23133700  0.24848500  0.45974200  1
  Mg  Mg3  1  0.43530600  0.74496200  0.88615500  1
  Si  Si4  1  0.88379200  0.24333400  0.77736800  1
  Si  Si5  1  0.11620800  0.75666600  0.22263200  1
