# generated using pymatgen
data_NdRe2
_symmetry_space_group_name_H-M   'P 1'
_cell_length_a   5.52756860
_cell_length_b   5.52756860
_cell_length_c   8.99541400
_cell_angle_alpha   90.00000000
_cell_angle_beta   90.00000000
_cell_angle_gamma   120.00000716
_symmetry_Int_Tables_number   1
_chemical_formula_structural   NdRe2
_chemical_formula_sum   'Nd4 Re8'
_cell_volume   238.02361028
_cell_formula_units_Z   4
loop_
 _symmetry_equiv_pos_site_id
 _symmetry_equiv_pos_as_xyz
  1  'x, y, z'
loop_
 _atom_site_type_symbol
 _atom_site_label
 _atom_site_symmetry_multiplicity
 _atom_site_fract_x
 _atom_site_fract_y
 _atom_site_fract_z
 _atom_site_occupancy
  Nd  Nd0  1  0.33333300  0.66666700  0.43782000  1
  Nd  Nd1  1  0.66666700  0.33333300  0.56218000  1
  Nd  Nd2  1  0.66666700  0.33333300  0.93782000  1
  Nd  Nd3  1  0.33333300  0.66666700  0.06218000  1
  Re  Re4  1  0.00000000  0.00000000  0.50000000  1
  Re  Re5  1  0.00000000  0.00000000  0.00000000  1
  Re  Re6  1  0.82963400  0.17036600  0.25000000  1
  Re  Re7  1  0.82963400  0.65926800  0.25000000  1
  Re  Re8  1  0.34073200  0.17036600  0.25000000  1
  Re  Re9  1  0.17036600  0.82963400  0.75000000  1
  Re  Re10  1  0.17036600  0.34073200  0.75000000  1
  Re  Re11  1  0.65926800  0.82963400  0.75000000  1
