# generated using pymatgen
data_Mg7Si4
_symmetry_space_group_name_H-M   'P 1'
_cell_length_a   6.27781568
_cell_length_b   4.23075324
_cell_length_c   16.67824551
_cell_angle_alpha   96.46903987
_cell_angle_beta   98.23213955
_cell_angle_gamma   89.23376905
_symmetry_Int_Tables_number   1
_chemical_formula_structural   Mg7Si4
_chemical_formula_sum   'Mg14 Si8'
_cell_volume   435.61488317
_cell_formula_units_Z   2
loop_
 _symmetry_equiv_pos_site_id
 _symmetry_equiv_pos_as_xyz
  1  'x, y, z'
loop_
 _atom_site_type_symbol
 _atom_site_label
 _atom_site_symmetry_multiplicity
 _atom_site_fract_x
 _atom_site_fract_y
 _atom_site_fract_z
 _atom_site_occupancy
  Mg  Mg0  1  0.12740900  0.53273400  0.13324300  1
  Mg  Mg1  1  0.87106700  0.07827800  0.22833700  1
  Mg  Mg2  1  0.89620200  0.70287700  0.46977000  1
  Mg  Mg3  1  0.58704500  0.61384800  0.29607300  1
  Mg  Mg4  1  0.60942900  0.52100000  0.11052300  1
  Mg  Mg5  1  0.46385400  0.79632400  0.66616800  1
  Mg  Mg6  1  0.96917400  0.79410700  0.68213000  1
  Mg  Mg7  1  0.39717000  0.69995700  0.46522200  1
  Mg  Mg8  1  0.33009000  0.97172900  0.01652000  1
  Mg  Mg9  1  0.83271800  0.97809200  0.02136500  1
  Mg  Mg10  1  0.05197600  0.43178100  0.92625100  1
  Mg  Mg11  1  0.54513000  0.43411200  0.90864600  1
  Mg  Mg12  1  0.18436000  0.25744500  0.57421200  1
  Mg  Mg13  1  0.68462300  0.25451900  0.57320500  1
  Si  Si14  1  0.82574800  0.89379000  0.84195800  1
  Si  Si15  1  0.42256100  0.05877300  0.18905800  1
  Si  Si16  1  0.07524000  0.62973900  0.32789700  1
  Si  Si17  1  0.28995700  0.33815800  0.74871500  1
  Si  Si18  1  0.22253400  0.88607200  0.84043500  1
  Si  Si19  1  0.28284100  0.12368600  0.32111400  1
  Si  Si20  1  0.63403700  0.17121700  0.40625200  1
  Si  Si21  1  0.68940600  0.33171800  0.74920400  1
