# generated using pymatgen
data_Mg5Si6
_symmetry_space_group_name_H-M   'P 1'
_cell_length_a   14.57863280
_cell_length_b   14.57863280
_cell_length_c   7.10863149
_cell_angle_alpha   84.98040527
_cell_angle_beta   84.98040527
_cell_angle_gamma   15.61695837
_symmetry_Int_Tables_number   1
_chemical_formula_structural   Mg5Si6
_chemical_formula_sum   'Mg10 Si12'
_cell_volume   405.13730250
_cell_formula_units_Z   2
loop_
 _symmetry_equiv_pos_site_id
 _symmetry_equiv_pos_as_xyz
  1  'x, y, z'
loop_
 _atom_site_type_symbol
 _atom_site_label
 _atom_site_symmetry_multiplicity
 _atom_site_fract_x
 _atom_site_fract_y
 _atom_site_fract_z
 _atom_site_occupancy
  Mg  Mg0  1  0.07844800  0.07844800  0.74352700  1
  Mg  Mg1  1  0.83212800  0.83212800  0.03168700  1
  Mg  Mg2  1  0.96166300  0.96166300  0.27152300  1
  Mg  Mg3  1  0.24794200  0.24794200  0.86092300  1
  Mg  Mg4  1  0.65621800  0.65621800  0.90369000  1
  Mg  Mg5  1  0.53743200  0.53743200  0.07669400  1
  Mg  Mg6  1  0.35464400  0.35464400  0.73436000  1
  Mg  Mg7  1  0.28945300  0.28945300  0.34224600  1
  Mg  Mg8  1  0.61597000  0.61597000  0.41310200  1
  Mg  Mg9  1  0.49846000  0.49846000  0.59227300  1
  Si  Si10  1  0.04850400  0.04850400  0.37396500  1
  Si  Si11  1  0.10609900  0.10609900  0.11161300  1
  Si  Si12  1  0.79741300  0.79741300  0.64946400  1
  Si  Si13  1  0.85763500  0.85763500  0.38525900  1
  Si  Si14  1  0.40963900  0.40963900  0.42252600  1
  Si  Si15  1  0.17315700  0.17315700  0.59262000  1
  Si  Si16  1  0.73230300  0.73230300  0.16618800  1
  Si  Si17  1  0.42806400  0.42806400  0.98892300  1
  Si  Si18  1  0.98351600  0.98351600  0.89750100  1
  Si  Si19  1  0.18189200  0.18189200  0.22365700  1
  Si  Si20  1  0.72263700  0.72263700  0.53324200  1
  Si  Si21  1  0.92283400  0.92283400  0.68501800  1
