# generated using pymatgen
data_Mg5Si9
_symmetry_space_group_name_H-M   'P 1'
_cell_length_a   7.25641000
_cell_length_b   7.54350689
_cell_length_c   10.51400315
_cell_angle_alpha   95.65288735
_cell_angle_beta   104.28753594
_cell_angle_gamma   112.20259578
_symmetry_Int_Tables_number   1
_chemical_formula_structural   Mg5Si9
_chemical_formula_sum   'Mg10 Si18'
_cell_volume   504.43782060
_cell_formula_units_Z   2
loop_
 _symmetry_equiv_pos_site_id
 _symmetry_equiv_pos_as_xyz
  1  'x, y, z'
loop_
 _atom_site_type_symbol
 _atom_site_label
 _atom_site_symmetry_multiplicity
 _atom_site_fract_x
 _atom_site_fract_y
 _atom_site_fract_z
 _atom_site_occupancy
  Mg  Mg0  1  0.55669700  0.96453200  0.58877900  1
  Mg  Mg1  1  0.87939600  0.09515500  0.43143200  1
  Mg  Mg2  1  0.16075100  0.57755900  0.54524500  1
  Mg  Mg3  1  0.69413400  0.39793000  0.33490900  1
  Mg  Mg4  1  0.78575800  0.67859300  0.57835000  1
  Mg  Mg5  1  0.38581300  0.29458100  0.49481400  1
  Mg  Mg6  1  0.69499300  0.08782900  0.13566900  1
  Mg  Mg7  1  0.58110000  0.27387100  0.81464500  1
  Mg  Mg8  1  0.88612300  0.54212300  0.11811600  1
  Mg  Mg9  1  0.01261200  0.28900500  0.95001100  1
  Si  Si10  1  0.18003600  0.13468500  0.17505900  1
  Si  Si11  1  0.41814400  0.52911000  0.95776700  1
  Si  Si12  1  0.03245300  0.80194100  0.38074800  1
  Si  Si13  1  0.16058700  0.31204900  0.72728400  1
  Si  Si14  1  0.10849800  0.38080900  0.28991300  1
  Si  Si15  1  0.01230100  0.96453700  0.78912000  1
  Si  Si16  1  0.27097600  0.72133000  0.07334300  1
  Si  Si17  1  0.91731000  0.63705200  0.86956300  1
  Si  Si18  1  0.69915700  0.76170400  0.21835000  1
  Si  Si19  1  0.19041300  0.00773200  0.61414500  1
  Si  Si20  1  0.60713600  0.93212100  0.85529100  1
  Si  Si21  1  0.86231300  0.87244600  0.02343300  1
  Si  Si22  1  0.33426600  0.93406000  0.29548000  1
  Si  Si23  1  0.50437800  0.59204700  0.74650400  1
  Si  Si24  1  0.31924900  0.94630900  0.92687000  1
  Si  Si25  1  0.44471100  0.27171200  0.06724900  1
  Si  Si26  1  0.83482700  0.34477100  0.62930000  1
  Si  Si27  1  0.46543400  0.65431100  0.36835000  1
