# generated using pymatgen
data_Nb5B6
_symmetry_space_group_name_H-M   'P 1'
_cell_length_a   11.57300551
_cell_length_b   11.57300551
_cell_length_c   3.32028200
_cell_angle_alpha   90.00000000
_cell_angle_beta   90.00000000
_cell_angle_gamma   164.26659887
_symmetry_Int_Tables_number   1
_chemical_formula_structural   Nb5B6
_chemical_formula_sum   'Nb5 B6'
_cell_volume   120.58561301
_cell_formula_units_Z   1
loop_
 _symmetry_equiv_pos_site_id
 _symmetry_equiv_pos_as_xyz
  1  'x, y, z'
loop_
 _atom_site_type_symbol
 _atom_site_label
 _atom_site_symmetry_multiplicity
 _atom_site_fract_x
 _atom_site_fract_y
 _atom_site_fract_z
 _atom_site_occupancy
  Nb  Nb0  1  0.00000000  0.00000000  0.00000000  1
  Nb  Nb1  1  0.61420600  0.38579400  0.00000000  1
  Nb  Nb2  1  0.38579400  0.61420600  0.00000000  1
  Nb  Nb3  1  0.80565900  0.19434100  0.50000000  1
  Nb  Nb4  1  0.19434100  0.80565900  0.50000000  1
  B  B5  1  0.91842100  0.08157900  0.50000000  1
  B  B6  1  0.08157900  0.91842100  0.50000000  1
  B  B7  1  0.72778800  0.27221200  0.00000000  1
  B  B8  1  0.27221200  0.72778800  0.00000000  1
  B  B9  1  0.53975700  0.46024300  0.50000000  1
  B  B10  1  0.46024300  0.53975700  0.50000000  1
