# generated using pymatgen
data_Mg5Si9
_symmetry_space_group_name_H-M   'P 1'
_cell_length_a   6.64558000
_cell_length_b   6.76077642
_cell_length_c   13.27574949
_cell_angle_alpha   85.92195451
_cell_angle_beta   102.17818344
_cell_angle_gamma   113.86744302
_symmetry_Int_Tables_number   1
_chemical_formula_structural   Mg5Si9
_chemical_formula_sum   'Mg10 Si18'
_cell_volume   533.11958011
_cell_formula_units_Z   2
loop_
 _symmetry_equiv_pos_site_id
 _symmetry_equiv_pos_as_xyz
  1  'x, y, z'
loop_
 _atom_site_type_symbol
 _atom_site_label
 _atom_site_symmetry_multiplicity
 _atom_site_fract_x
 _atom_site_fract_y
 _atom_site_fract_z
 _atom_site_occupancy
  Mg  Mg0  1  0.65724600  0.00337600  0.68244200  1
  Mg  Mg1  1  0.68566200  0.02599100  0.41020500  1
  Mg  Mg2  1  0.23630200  0.70556000  0.52909900  1
  Mg  Mg3  1  0.74834400  0.47007800  0.36582800  1
  Mg  Mg4  1  0.79896200  0.71450600  0.55878600  1
  Mg  Mg5  1  0.22008300  0.23044000  0.49381900  1
  Mg  Mg6  1  0.36363200  0.06178800  0.08413700  1
  Mg  Mg7  1  0.54769800  0.13210400  0.87175900  1
  Mg  Mg8  1  0.98336400  0.56765600  0.05090500  1
  Mg  Mg9  1  0.06662500  0.27017700  0.88439700  1
  Si  Si10  1  0.24182100  0.34832000  0.19008600  1
  Si  Si11  1  0.53503700  0.50708900  0.95424900  1
  Si  Si12  1  0.98928000  0.89284400  0.36418200  1
  Si  Si13  1  0.16973200  0.29548500  0.69591700  1
  Si  Si14  1  0.82670600  0.28458300  0.21091400  1
  Si  Si15  1  0.07156000  0.74365500  0.80871900  1
  Si  Si16  1  0.34116100  0.73664200  0.23561100  1
  Si  Si17  1  0.78540500  0.42057500  0.72821600  1
  Si  Si18  1  0.72906300  0.86937500  0.20225300  1
  Si  Si19  1  0.22511200  0.97246000  0.67426000  1
  Si  Si20  1  0.77255200  0.80571200  0.86397900  1
  Si  Si21  1  0.90281600  0.11308700  0.06598800  1
  Si  Si22  1  0.32253800  0.07961700  0.30174500  1
  Si  Si23  1  0.52762300  0.58357600  0.70432000  1
  Si  Si24  1  0.33612700  0.73742100  0.95912400  1
  Si  Si25  1  0.61657000  0.49824000  0.13836400  1
  Si  Si26  1  0.86898400  0.33232000  0.56850100  1
  Si  Si27  1  0.42958400  0.59729100  0.40194800  1
