# generated using pymatgen
data_LaSm(CoO3)2
_symmetry_space_group_name_H-M   'P 1'
_cell_length_a   7.57148000
_cell_length_b   7.57148000
_cell_length_c   7.57266500
_cell_angle_alpha   90.00000000
_cell_angle_beta   90.00000000
_cell_angle_gamma   90.00000000
_symmetry_Int_Tables_number   1
_chemical_formula_structural   LaSm(CoO3)2
_chemical_formula_sum   'La4 Sm4 Co8 O24'
_cell_volume   434.12050936
_cell_formula_units_Z   4
loop_
 _symmetry_equiv_pos_site_id
 _symmetry_equiv_pos_as_xyz
  1  'x, y, z'
loop_
 _atom_site_type_symbol
 _atom_site_label
 _atom_site_symmetry_multiplicity
 _atom_site_fract_x
 _atom_site_fract_y
 _atom_site_fract_z
 _atom_site_occupancy
  La  La0  1  0.50000000  0.00000000  0.00000000  1
  La  La1  1  0.50000000  0.50000000  0.00000000  1
  La  La2  1  0.00000000  0.50000000  0.00000000  1
  La  La3  1  0.00000000  0.00000000  0.50000000  1
  Sm  Sm4  1  0.00000000  0.00000000  0.00000000  1
  Sm  Sm5  1  0.50000000  0.00000000  0.50000000  1
  Sm  Sm6  1  0.50000000  0.50000000  0.50000000  1
  Sm  Sm7  1  0.00000000  0.50000000  0.50000000  1
  Co  Co8  1  0.25000300  0.74999700  0.74967200  1
  Co  Co9  1  0.25000300  0.25000300  0.74967200  1
  Co  Co10  1  0.74999700  0.74999700  0.74967200  1
  Co  Co11  1  0.74999700  0.25000300  0.74967200  1
  Co  Co12  1  0.25000300  0.74999700  0.25032800  1
  Co  Co13  1  0.25000300  0.25000300  0.25032800  1
  Co  Co14  1  0.74999700  0.74999700  0.25032800  1
  Co  Co15  1  0.74999700  0.25000300  0.25032800  1
  O  O16  1  0.24780300  0.75219700  0.00000000  1
  O  O17  1  0.24780300  0.24780300  0.00000000  1
  O  O18  1  0.75219700  0.75219700  0.00000000  1
  O  O19  1  0.75219700  0.24780300  0.00000000  1
  O  O20  1  0.25212000  0.74788000  0.50000000  1
  O  O21  1  0.25212000  0.25212000  0.50000000  1
  O  O22  1  0.74788000  0.74788000  0.50000000  1
  O  O23  1  0.74788000  0.25212000  0.50000000  1
  O  O24  1  0.50000000  0.74999100  0.74551600  1
  O  O25  1  0.50000000  0.25000900  0.74551600  1
  O  O26  1  0.00000000  0.74997300  0.74987400  1
  O  O27  1  0.00000000  0.25002700  0.74987400  1
  O  O28  1  0.50000000  0.74999100  0.25448400  1
  O  O29  1  0.50000000  0.25000900  0.25448400  1
  O  O30  1  0.00000000  0.74997300  0.25012600  1
  O  O31  1  0.00000000  0.25002700  0.25012600  1
  O  O32  1  0.25002700  0.00000000  0.74987400  1
  O  O33  1  0.25000900  0.50000000  0.74551600  1
  O  O34  1  0.74997300  0.00000000  0.74987400  1
  O  O35  1  0.74999100  0.50000000  0.74551600  1
  O  O36  1  0.25002700  0.00000000  0.25012600  1
  O  O37  1  0.25000900  0.50000000  0.25448400  1
  O  O38  1  0.74997300  0.00000000  0.25012600  1
  O  O39  1  0.74999100  0.50000000  0.25448400  1
