# generated using pymatgen
data_Na2Ta2O5
_symmetry_space_group_name_H-M   'P 1'
_cell_length_a   8.86224400
_cell_length_b   8.86224400
_cell_length_c   8.86224400
_cell_angle_alpha   143.07050281
_cell_angle_beta   142.81816130
_cell_angle_gamma   53.40912834
_symmetry_Int_Tables_number   1
_chemical_formula_structural   Na2Ta2O5
_chemical_formula_sum   'Na4 Ta4 O10'
_cell_volume   251.13861280
_cell_formula_units_Z   2
loop_
 _symmetry_equiv_pos_site_id
 _symmetry_equiv_pos_as_xyz
  1  'x, y, z'
loop_
 _atom_site_type_symbol
 _atom_site_label
 _atom_site_symmetry_multiplicity
 _atom_site_fract_x
 _atom_site_fract_y
 _atom_site_fract_z
 _atom_site_occupancy
  Na  Na0  1  0.89610200  0.37962700  0.51319500  1
  Na  Na1  1  0.10389800  0.61709400  0.48352500  1
  Na  Na2  1  0.36643200  0.87962700  0.48352500  1
  Na  Na3  1  0.63356800  0.11709400  0.51319500  1
  Ta  Ta4  1  0.00000000  0.99606100  0.99606100  1
  Ta  Ta5  1  0.50000000  0.49606100  0.99606100  1
  Ta  Ta6  1  0.74078900  0.73206600  0.97285500  1
  Ta  Ta7  1  0.25921100  0.23206600  0.99127800  1
  O  O8  1  0.25502900  0.25158400  0.49478100  1
  O  O9  1  0.74497100  0.23975100  0.99655400  1
  O  O10  1  0.25680300  0.75158400  0.99655400  1
  O  O11  1  0.74319700  0.73975100  0.49478100  1
  O  O12  1  0.90087700  0.86202300  0.01780200  1
  O  O13  1  0.09912300  0.11692500  0.96114600  1
  O  O14  1  0.34422100  0.36202300  0.96114600  1
  O  O15  1  0.65577900  0.61692500  0.01780200  1
  O  O16  1  0.51274800  0.46886900  0.48161700  1
  O  O17  1  0.48725200  0.96886900  0.95612100  1
