# generated using pymatgen
data_La5Sm3Cr7FeO24
_symmetry_space_group_name_H-M   'P 1'
_cell_length_a   7.84495942
_cell_length_b   7.84495942
_cell_length_c   7.84436803
_cell_angle_alpha   89.99621929
_cell_angle_beta   89.99621929
_cell_angle_gamma   89.99663283
_symmetry_Int_Tables_number   1
_chemical_formula_structural   La5Sm3Cr7FeO24
_chemical_formula_sum   'La5 Sm3 Cr7 Fe1 O24'
_cell_volume   482.76898469
_cell_formula_units_Z   1
loop_
 _symmetry_equiv_pos_site_id
 _symmetry_equiv_pos_as_xyz
  1  'x, y, z'
loop_
 _atom_site_type_symbol
 _atom_site_label
 _atom_site_symmetry_multiplicity
 _atom_site_fract_x
 _atom_site_fract_y
 _atom_site_fract_z
 _atom_site_occupancy
  La  La0  1  0.25020200  0.74979200  0.74980000  1
  La  La1  1  0.74979800  0.74979800  0.74979000  1
  La  La2  1  0.25020800  0.25020800  0.74979300  1
  La  La3  1  0.74979200  0.25020200  0.74980000  1
  La  La4  1  0.25021400  0.25021400  0.25021700  1
  Sm  Sm5  1  0.25020500  0.74979600  0.25020000  1
  Sm  Sm6  1  0.74979200  0.74979200  0.25019700  1
  Sm  Sm7  1  0.74979600  0.25020500  0.25020000  1
  Cr  Cr8  1  0.50018800  0.99979700  0.00058500  1
  Cr  Cr9  1  0.99979700  0.50018800  0.00058500  1
  Cr  Cr10  1  0.50020700  0.50020700  0.00060100  1
  Cr  Cr11  1  0.99979900  0.99979900  0.49943100  1
  Cr  Cr12  1  0.50020400  0.99979300  0.49939400  1
  Cr  Cr13  1  0.99979300  0.50020400  0.49939400  1
  Cr  Cr14  1  0.50020400  0.50020400  0.49939300  1
  Fe  Fe15  1  0.99973500  0.99973500  0.00079000  1
  O  O16  1  0.99998100  0.99998100  0.74963600  1
  O  O17  1  0.50000600  0.99998200  0.74982600  1
  O  O18  1  0.99998200  0.50000600  0.74982600  1
  O  O19  1  0.50001200  0.50001200  0.74993100  1
  O  O20  1  0.99902100  0.99902100  0.25052500  1
  O  O21  1  0.50102500  0.99898000  0.25015500  1
  O  O22  1  0.99898000  0.50102500  0.25015500  1
  O  O23  1  0.50102200  0.50102200  0.25006500  1
  O  O24  1  0.99998600  0.74952000  0.00198800  1
  O  O25  1  0.50000600  0.74984000  0.00207300  1
  O  O26  1  0.99900900  0.25041700  0.00102400  1
  O  O27  1  0.50103900  0.25016000  0.00106500  1
  O  O28  1  0.99999000  0.74983800  0.49791600  1
  O  O29  1  0.50000700  0.74993200  0.49791800  1
  O  O30  1  0.99896600  0.25016000  0.49893600  1
  O  O31  1  0.50103900  0.25005800  0.49892900  1
  O  O32  1  0.25041700  0.99900900  0.00102400  1
  O  O33  1  0.74952000  0.99998600  0.00198800  1
  O  O34  1  0.25016000  0.50103900  0.00106500  1
  O  O35  1  0.74984000  0.50000600  0.00207300  1
  O  O36  1  0.25016000  0.99896600  0.49893600  1
  O  O37  1  0.74983800  0.99999000  0.49791600  1
  O  O38  1  0.25005800  0.50103900  0.49892900  1
  O  O39  1  0.74993200  0.50000700  0.49791800  1
