# generated using pymatgen
data_Na2V2O5
_symmetry_space_group_name_H-M   'P 1'
_cell_length_a   5.40470700
_cell_length_b   5.63581700
_cell_length_c   8.21806913
_cell_angle_alpha   69.94481420
_cell_angle_beta   70.80333177
_cell_angle_gamma   89.99733248
_symmetry_Int_Tables_number   1
_chemical_formula_structural   Na2V2O5
_chemical_formula_sum   'Na4 V4 O10'
_cell_volume   220.26843337
_cell_formula_units_Z   2
loop_
 _symmetry_equiv_pos_site_id
 _symmetry_equiv_pos_as_xyz
  1  'x, y, z'
loop_
 _atom_site_type_symbol
 _atom_site_label
 _atom_site_symmetry_multiplicity
 _atom_site_fract_x
 _atom_site_fract_y
 _atom_site_fract_z
 _atom_site_occupancy
  Na  Na0  1  0.39011700  0.92222000  0.21467400  1
  Na  Na1  1  0.60475700  0.07774400  0.78532300  1
  Na  Na2  1  0.89014300  0.36308400  0.21467700  1
  Na  Na3  1  0.10487600  0.63699400  0.78530100  1
  V  V4  1  0.70633600  0.67903300  0.49991800  1
  V  V5  1  0.20626700  0.32092100  0.50007400  1
  V  V6  1  0.49327300  0.50001800  0.99998300  1
  V  V7  1  0.99303800  0.99997500  0.00000000  1
  O  O8  1  0.36279900  0.61819100  0.50003900  1
  O  O9  1  0.86285400  0.38173400  0.49997200  1
  O  O10  1  0.29308200  0.26347400  0.97565600  1
  O  O11  1  0.26841700  0.73684500  0.02436700  1
  O  O12  1  0.79292500  0.26100900  0.97566700  1
  O  O13  1  0.76826000  0.73872400  0.02436100  1
  O  O14  1  0.88188200  0.91787500  0.28174400  1
  O  O15  1  0.16355700  0.08212300  0.71826800  1
  O  O16  1  0.38158300  0.29990700  0.28229300  1
  O  O17  1  0.66383800  0.70012800  0.71768300  1
