# generated using pymatgen
data_K5Na3Ta4Nb4O24
_symmetry_space_group_name_H-M   'P 1'
_cell_length_a   8.04647990
_cell_length_b   8.04647990
_cell_length_c   8.04587300
_cell_angle_alpha   89.99981369
_cell_angle_beta   89.99981369
_cell_angle_gamma   90.00027189
_symmetry_Int_Tables_number   1
_chemical_formula_structural   K5Na3Ta4Nb4O24
_chemical_formula_sum   'K5 Na3 Ta4 Nb4 O24'
_cell_volume   520.93679575
_cell_formula_units_Z   1
loop_
 _symmetry_equiv_pos_site_id
 _symmetry_equiv_pos_as_xyz
  1  'x, y, z'
loop_
 _atom_site_type_symbol
 _atom_site_label
 _atom_site_symmetry_multiplicity
 _atom_site_fract_x
 _atom_site_fract_y
 _atom_site_fract_z
 _atom_site_occupancy
  K  K0  1  0.74991400  0.74991400  0.25008900  1
  K  K1  1  0.25008400  0.74991000  0.25009400  1
  K  K2  1  0.74991000  0.25008400  0.25009400  1
  K  K3  1  0.25008700  0.25008700  0.25009700  1
  K  K4  1  0.25008700  0.25008700  0.74991400  1
  Na  Na5  1  0.74998700  0.74998700  0.74998700  1
  Na  Na6  1  0.25001500  0.74998600  0.74998700  1
  Na  Na7  1  0.74998600  0.25001500  0.74998700  1
  Ta  Ta8  1  0.99976100  0.99976100  0.99928200  1
  Ta  Ta9  1  0.99975500  0.99975500  0.50072600  1
  Ta  Ta10  1  0.50024300  0.99975500  0.99926400  1
  Ta  Ta11  1  0.99975500  0.50024300  0.99926400  1
  Nb  Nb12  1  0.50023100  0.99976600  0.50069200  1
  Nb  Nb13  1  0.99976600  0.50023100  0.50069200  1
  Nb  Nb14  1  0.50023200  0.50023200  0.99929600  1
  Nb  Nb15  1  0.50024000  0.50024000  0.50071900  1
  O  O16  1  0.99993200  0.75015500  0.99852600  1
  O  O17  1  0.99993800  0.75106900  0.50146700  1
  O  O18  1  0.50006600  0.75106900  0.99853000  1
  O  O19  1  0.50006300  0.75015100  0.50145500  1
  O  O20  1  0.99929100  0.24984200  0.99915300  1
  O  O21  1  0.99929000  0.24891900  0.50084000  1
  O  O22  1  0.50070800  0.24891800  0.99916100  1
  O  O23  1  0.50070400  0.24984400  0.50082900  1
  O  O24  1  0.75015500  0.99993200  0.99852600  1
  O  O25  1  0.75106900  0.99993800  0.50146700  1
  O  O26  1  0.24984200  0.99929100  0.99915300  1
  O  O27  1  0.24891900  0.99929000  0.50084000  1
  O  O28  1  0.75106900  0.50006600  0.99853000  1
  O  O29  1  0.75015100  0.50006300  0.50145500  1
  O  O30  1  0.24891800  0.50070800  0.99916100  1
  O  O31  1  0.24984400  0.50070400  0.50082900  1
  O  O32  1  0.99993000  0.99993000  0.24983300  1
  O  O33  1  0.99930400  0.99930400  0.75015000  1
  O  O34  1  0.50006800  0.99993100  0.24890800  1
  O  O35  1  0.50069500  0.99930500  0.75105500  1
  O  O36  1  0.99993100  0.50006800  0.24890800  1
  O  O37  1  0.99930500  0.50069500  0.75105500  1
  O  O38  1  0.50006500  0.50006500  0.24983600  1
  O  O39  1  0.50069000  0.50069000  0.75014700  1
