# generated using pymatgen
data_Sr3CaTi2Mn2O12
_symmetry_space_group_name_H-M   'P 1'
_cell_length_a   7.79204238
_cell_length_b   7.79204238
_cell_length_c   7.78354200
_cell_angle_alpha   90.00000000
_cell_angle_beta   90.00000000
_cell_angle_gamma   90.00574018
_symmetry_Int_Tables_number   1
_chemical_formula_structural   Sr3CaTi2Mn2O12
_chemical_formula_sum   'Sr6 Ca2 Ti4 Mn4 O24'
_cell_volume   472.58494579
_cell_formula_units_Z   2
loop_
 _symmetry_equiv_pos_site_id
 _symmetry_equiv_pos_as_xyz
  1  'x, y, z'
loop_
 _atom_site_type_symbol
 _atom_site_label
 _atom_site_symmetry_multiplicity
 _atom_site_fract_x
 _atom_site_fract_y
 _atom_site_fract_z
 _atom_site_occupancy
  Sr  Sr0  1  0.24710300  0.75289700  0.75288900  1
  Sr  Sr1  1  0.75293200  0.75293200  0.75266100  1
  Sr  Sr2  1  0.75303700  0.75303700  0.24722000  1
  Sr  Sr3  1  0.24706800  0.24706800  0.75266100  1
  Sr  Sr4  1  0.75289700  0.24710300  0.75288900  1
  Sr  Sr5  1  0.24696300  0.24696300  0.24722000  1
  Ca  Ca6  1  0.24659200  0.75340800  0.24650600  1
  Ca  Ca7  1  0.75340800  0.24659200  0.24650600  1
  Ti  Ti8  1  0.50000000  0.00000000  0.49828600  1
  Ti  Ti9  1  0.50000000  0.50000000  0.00130500  1
  Ti  Ti10  1  0.00000000  0.50000000  0.49828600  1
  Ti  Ti11  1  0.50000000  0.50000000  0.49865900  1
  Mn  Mn12  1  0.00000000  0.00000000  0.00130500  1
  Mn  Mn13  1  0.50000000  0.00000000  0.00107200  1
  Mn  Mn14  1  0.00000000  0.00000000  0.49863900  1
  Mn  Mn15  1  0.00000000  0.50000000  0.00107200  1
  O  O16  1  0.00260900  0.74935400  0.00298400  1
  O  O17  1  0.49846700  0.75271600  0.00240200  1
  O  O18  1  0.00155100  0.75272100  0.49748900  1
  O  O19  1  0.49886400  0.75056100  0.49784000  1
  O  O20  1  0.99739100  0.25064600  0.00298400  1
  O  O21  1  0.50153300  0.24728400  0.00240200  1
  O  O22  1  0.99844900  0.24727900  0.49748900  1
  O  O23  1  0.50113600  0.24943900  0.49784000  1
  O  O24  1  0.00000000  0.00000000  0.74916600  1
  O  O25  1  0.50000000  0.00000000  0.75265000  1
  O  O26  1  0.00000000  0.00000000  0.25087100  1
  O  O27  1  0.50000000  0.00000000  0.24726400  1
  O  O28  1  0.00000000  0.50000000  0.75265000  1
  O  O29  1  0.50000000  0.50000000  0.75061600  1
  O  O30  1  0.00000000  0.50000000  0.24726400  1
  O  O31  1  0.50000000  0.50000000  0.24948700  1
  O  O32  1  0.25064600  0.99739100  0.00298400  1
  O  O33  1  0.74935400  0.00260900  0.00298400  1
  O  O34  1  0.24727900  0.99844900  0.49748900  1
  O  O35  1  0.75272100  0.00155100  0.49748900  1
  O  O36  1  0.24728400  0.50153300  0.00240200  1
  O  O37  1  0.75271600  0.49846700  0.00240200  1
  O  O38  1  0.24943900  0.50113600  0.49784000  1
  O  O39  1  0.75056100  0.49886400  0.49784000  1
