# generated using pymatgen
data_La7SmV8O24
_symmetry_space_group_name_H-M   'P 1'
_cell_length_a   7.90418200
_cell_length_b   7.90418200
_cell_length_c   7.90418200
_cell_angle_alpha   90.00000000
_cell_angle_beta   90.00000000
_cell_angle_gamma   90.00000000
_symmetry_Int_Tables_number   1
_chemical_formula_structural   La7SmV8O24
_chemical_formula_sum   'La7 Sm1 V8 O24'
_cell_volume   493.82241043
_cell_formula_units_Z   1
loop_
 _symmetry_equiv_pos_site_id
 _symmetry_equiv_pos_as_xyz
  1  'x, y, z'
loop_
 _atom_site_type_symbol
 _atom_site_label
 _atom_site_symmetry_multiplicity
 _atom_site_fract_x
 _atom_site_fract_y
 _atom_site_fract_z
 _atom_site_occupancy
  La  La0  1  0.50000000  0.00000000  0.00000000  1
  La  La1  1  0.50000000  0.00000000  0.50000000  1
  La  La2  1  0.50000000  0.50000000  0.00000000  1
  La  La3  1  0.50000000  0.50000000  0.50000000  1
  La  La4  1  0.00000000  0.00000000  0.50000000  1
  La  La5  1  0.00000000  0.50000000  0.00000000  1
  La  La6  1  0.00000000  0.50000000  0.50000000  1
  Sm  Sm7  1  0.00000000  0.00000000  0.00000000  1
  V  V8  1  0.24994700  0.75005300  0.75005300  1
  V  V9  1  0.24994700  0.75005300  0.24994700  1
  V  V10  1  0.24994700  0.24994700  0.75005300  1
  V  V11  1  0.24994700  0.24994700  0.24994700  1
  V  V12  1  0.75005300  0.75005300  0.75005300  1
  V  V13  1  0.75005300  0.75005300  0.24994700  1
  V  V14  1  0.75005300  0.24994700  0.75005300  1
  V  V15  1  0.75005300  0.24994700  0.24994700  1
  O  O16  1  0.50000000  0.75002700  0.75002700  1
  O  O17  1  0.50000000  0.75002700  0.24997300  1
  O  O18  1  0.50000000  0.24997300  0.75002700  1
  O  O19  1  0.50000000  0.24997300  0.24997300  1
  O  O20  1  0.00000000  0.75068900  0.75068900  1
  O  O21  1  0.00000000  0.75068900  0.24931100  1
  O  O22  1  0.00000000  0.24931100  0.75068900  1
  O  O23  1  0.00000000  0.24931100  0.24931100  1
  O  O24  1  0.24931100  0.00000000  0.75068900  1
  O  O25  1  0.24931100  0.00000000  0.24931100  1
  O  O26  1  0.24997300  0.50000000  0.75002700  1
  O  O27  1  0.24997300  0.50000000  0.24997300  1
  O  O28  1  0.75068900  0.00000000  0.75068900  1
  O  O29  1  0.75068900  0.00000000  0.24931100  1
  O  O30  1  0.75002700  0.50000000  0.75002700  1
  O  O31  1  0.75002700  0.50000000  0.24997300  1
  O  O32  1  0.24931100  0.75068900  0.00000000  1
  O  O33  1  0.24997300  0.75002700  0.50000000  1
  O  O34  1  0.24931100  0.24931100  0.00000000  1
  O  O35  1  0.24997300  0.24997300  0.50000000  1
  O  O36  1  0.75068900  0.75068900  0.00000000  1
  O  O37  1  0.75002700  0.75002700  0.50000000  1
  O  O38  1  0.75068900  0.24931100  0.00000000  1
  O  O39  1  0.75002700  0.24997300  0.50000000  1
