# generated using pymatgen
data_La3SmV3CrO10
_symmetry_space_group_name_H-M   'P 1'
_cell_length_a   11.04198749
_cell_length_b   11.45369812
_cell_length_c   17.89396671
_cell_angle_alpha   108.32530861
_cell_angle_beta   107.93704696
_cell_angle_gamma   89.73844158
_symmetry_Int_Tables_number   1
_chemical_formula_structural   La3SmV3CrO10
_chemical_formula_sum   'La24 Sm8 V24 Cr8 O80'
_cell_volume   2033.19907921
_cell_formula_units_Z   8
loop_
 _symmetry_equiv_pos_site_id
 _symmetry_equiv_pos_as_xyz
  1  'x, y, z'
loop_
 _atom_site_type_symbol
 _atom_site_label
 _atom_site_symmetry_multiplicity
 _atom_site_fract_x
 _atom_site_fract_y
 _atom_site_fract_z
 _atom_site_occupancy
  La  La0  1  0.31243700  0.06350000  0.62380400  1
  La  La1  1  0.30613900  0.56362600  0.62365300  1
  La  La2  1  0.80838300  0.06499100  0.61925300  1
  La  La3  1  0.81398000  0.56057000  0.61990800  1
  La  La4  1  0.20478500  0.43761600  0.39126100  1
  La  La5  1  0.18581200  0.43628200  0.87758200  1
  La  La6  1  0.20244900  0.93693000  0.39017900  1
  La  La7  1  0.69372300  0.43703800  0.38195800  1
  La  La8  1  0.69509700  0.93634700  0.38337700  1
  La  La9  1  0.68145400  0.94303200  0.87529500  1
  La  La10  1  0.06383600  0.29894400  0.10910800  1
  La  La11  1  0.06376600  0.31090000  0.62281800  1
  La  La12  1  0.06447800  0.81477300  0.62439700  1
  La  La13  1  0.55744500  0.30470200  0.11575100  1
  La  La14  1  0.56020800  0.31757500  0.62665800  1
  La  La15  1  0.55578200  0.81108600  0.11922700  1
  La  La16  1  0.55930000  0.81150300  0.62219400  1
  La  La17  1  0.44826600  0.19423700  0.38797300  1
  La  La18  1  0.43506400  0.18658400  0.87896200  1
  La  La19  1  0.44944600  0.69610300  0.38875600  1
  La  La20  1  0.42801400  0.68099200  0.87645600  1
  La  La21  1  0.94359500  0.19551100  0.38653700  1
  La  La22  1  0.93873700  0.18968200  0.87765800  1
  La  La23  1  0.94380000  0.69622900  0.38660400  1
  Sm  Sm24  1  0.29833500  0.06067600  0.10629900  1
  Sm  Sm25  1  0.30081500  0.55917000  0.10707700  1
  Sm  Sm26  1  0.80083000  0.05898100  0.10432100  1
  Sm  Sm27  1  0.80773700  0.56136300  0.10852500  1
  Sm  Sm28  1  0.19005500  0.93872900  0.88161800  1
  Sm  Sm29  1  0.69439200  0.43528900  0.88326900  1
  Sm  Sm30  1  0.05835000  0.79748800  0.11036300  1
  Sm  Sm31  1  0.94454700  0.69213500  0.88280200  1
  V  V32  1  0.00168300  0.99910000  0.49782400  1
  V  V33  1  0.00116100  0.49911500  0.49742900  1
  V  V34  1  0.50486600  0.50076800  0.50264600  1
  V  V35  1  0.25681500  0.25102800  0.00105300  1
  V  V36  1  0.25184900  0.24895400  0.49805700  1
  V  V37  1  0.25114300  0.74859100  0.49725700  1
  V  V38  1  0.75244800  0.24864000  0.49877000  1
  V  V39  1  0.75319900  0.74783500  0.49960200  1
  V  V40  1  0.11071200  0.09411200  0.24772500  1
  V  V41  1  0.11832300  0.13009400  0.75024100  1
  V  V42  1  0.11104900  0.59752600  0.24617200  1
  V  V43  1  0.11642000  0.63585400  0.75248600  1
  V  V44  1  0.59468600  0.11631500  0.24797200  1
  V  V45  1  0.61797700  0.13029800  0.75031400  1
  V  V46  1  0.59560300  0.61649800  0.24560400  1
  V  V47  1  0.61573600  0.62701000  0.75506000  1
  V  V48  1  0.36901400  0.38923100  0.25097200  1
  V  V49  1  0.36844200  0.36907400  0.75306800  1
  V  V50  1  0.36621000  0.88491500  0.24868200  1
  V  V51  1  0.36554500  0.86758500  0.75320400  1
  V  V52  1  0.86564300  0.40007300  0.24695300  1
  V  V53  1  0.86779800  0.37682300  0.75304400  1
  V  V54  1  0.86615200  0.90147800  0.24552100  1
  V  V55  1  0.87826500  0.88086800  0.75345900  1
  Cr  Cr56  1  0.00495700  0.99480100  0.99948600  1
  Cr  Cr57  1  0.00588100  0.50366500  0.00174500  1
  Cr  Cr58  1  0.50345200  0.99481200  0.00134500  1
  Cr  Cr59  1  0.50257500  0.00117800  0.50046000  1
  Cr  Cr60  1  0.50918000  0.50165300  0.00245200  1
  Cr  Cr61  1  0.25408200  0.75197000  0.00220500  1
  Cr  Cr62  1  0.75719800  0.25098700  0.00257000  1
  Cr  Cr63  1  0.75400800  0.75030600  0.99829400  1
  O  O64  1  0.11083900  0.10722800  0.47005700  1
  O  O65  1  0.11437600  0.10707500  0.97464500  1
  O  O66  1  0.11069200  0.60688800  0.46986500  1
  O  O67  1  0.11461800  0.62070600  0.97688900  1
  O  O68  1  0.61386900  0.10339800  0.47099200  1
  O  O69  1  0.61267300  0.10798400  0.97901800  1
  O  O70  1  0.61483600  0.60418800  0.47277800  1
  O  O71  1  0.61716200  0.60801400  0.96970500  1
  O  O72  1  0.14260300  0.39451500  0.02646100  1
  O  O73  1  0.13732000  0.39054400  0.52278300  1
  O  O74  1  0.14105100  0.88378400  0.02695200  1
  O  O75  1  0.13721600  0.89007000  0.52144000  1
  O  O76  1  0.64421100  0.39110600  0.02875300  1
  O  O77  1  0.63653600  0.38792900  0.52611400  1
  O  O78  1  0.64259600  0.88543400  0.02940200  1
  O  O79  1  0.63391300  0.88699900  0.52537100  1
  O  O80  1  0.36724800  0.10848500  0.47239500  1
  O  O81  1  0.36141200  0.09780000  0.97624000  1
  O  O82  1  0.37058100  0.61120300  0.47620200  1
  O  O83  1  0.36627100  0.61247500  0.98105100  1
  O  O84  1  0.86440900  0.10541000  0.47198300  1
  O  O85  1  0.86619300  0.10364500  0.97885800  1
  O  O86  1  0.86350600  0.60398700  0.47025200  1
  O  O87  1  0.86636300  0.60988500  0.97455700  1
  O  O88  1  0.39759900  0.40095400  0.03357800  1
  O  O89  1  0.38882300  0.39622100  0.52725000  1
  O  O90  1  0.38862400  0.89081900  0.03120900  1
  O  O91  1  0.38828600  0.89570400  0.52533500  1
  O  O92  1  0.89523100  0.40081700  0.02866900  1
  O  O93  1  0.89040200  0.39097200  0.52302400  1
  O  O94  1  0.89616500  0.89280700  0.03205000  1
  O  O95  1  0.89078300  0.89110500  0.52412200  1
  O  O96  1  0.09010100  0.10060100  0.12864600  1
  O  O97  1  0.06969800  0.10622500  0.62349100  1
  O  O98  1  0.08695700  0.60544400  0.12824400  1
  O  O99  1  0.06457500  0.60806100  0.62422400  1
  O  O100  1  0.58414900  0.10157000  0.12700600  1
  O  O101  1  0.56664300  0.10817700  0.62260800  1
  O  O102  1  0.59348000  0.61054500  0.12710200  1
  O  O103  1  0.57543800  0.60862100  0.62954800  1
  O  O104  1  0.43356700  0.39290600  0.37302900  1
  O  O105  1  0.45370400  0.39486500  0.88038800  1
  O  O106  1  0.43521000  0.89474100  0.37318700  1
  O  O107  1  0.44921000  0.88832700  0.87972800  1
  O  O108  1  0.93997700  0.39045700  0.36518500  1
  O  O109  1  0.94947500  0.39755900  0.87967800  1
  O  O110  1  0.93745800  0.89098500  0.36522800  1
  O  O111  1  0.96424100  0.89177100  0.87767500  1
  O  O112  1  0.31920900  0.26994800  0.13013800  1
  O  O113  1  0.31682100  0.26973100  0.62647200  1
  O  O114  1  0.31554900  0.76826100  0.12567100  1
  O  O115  1  0.31292200  0.77096700  0.62631400  1
  O  O116  1  0.83355200  0.27076900  0.13109500  1
  O  O117  1  0.82135400  0.27440800  0.62761000  1
  O  O118  1  0.86454700  0.76893700  0.14306600  1
  O  O119  1  0.81938100  0.76978200  0.62952100  1
  O  O120  1  0.19373900  0.21739400  0.36315600  1
  O  O121  1  0.20232200  0.23280400  0.87472200  1
  O  O122  1  0.19692800  0.71801900  0.36335600  1
  O  O123  1  0.20419000  0.73513100  0.88020800  1
  O  O124  1  0.69573500  0.22283600  0.36664900  1
  O  O125  1  0.70368700  0.23133700  0.87762600  1
  O  O126  1  0.69285500  0.72078100  0.36679500  1
  O  O127  1  0.73110600  0.73754100  0.86167500  1
  O  O128  1  0.40248300  0.06445300  0.24126600  1
  O  O129  1  0.44989900  0.03958100  0.75419900  1
  O  O130  1  0.40383900  0.56923600  0.24234400  1
  O  O131  1  0.44411300  0.53855200  0.74773800  1
  O  O132  1  0.91654300  0.07812900  0.24163200  1
  O  O133  1  0.94323400  0.05108400  0.74954100  1
  O  O134  1  0.91961500  0.57352600  0.24294800  1
  O  O135  1  0.94158600  0.55682000  0.75688400  1
  O  O136  1  0.16778100  0.42220000  0.24900700  1
  O  O137  1  0.19644300  0.46160400  0.75212600  1
  O  O138  1  0.16678500  0.91661900  0.24459700  1
  O  O139  1  0.19545400  0.95750300  0.75774300  1
  O  O140  1  0.68105300  0.44700800  0.24770600  1
  O  O141  1  0.69410300  0.45719600  0.75900500  1
  O  O142  1  0.68312200  0.94959100  0.25099000  1
  O  O143  1  0.69862900  0.95550400  0.74992300  1
