# generated using pymatgen
data_Ca2Ti2O5
_symmetry_space_group_name_H-M   'P 1'
_cell_length_a   8.60415568
_cell_length_b   8.60415568
_cell_length_c   8.60415568
_cell_angle_alpha   142.76361081
_cell_angle_beta   141.64252826
_cell_angle_gamma   54.52834975
_symmetry_Int_Tables_number   1
_chemical_formula_structural   Ca2Ti2O5
_chemical_formula_sum   'Ca4 Ti4 O10'
_cell_volume   237.54239298
_cell_formula_units_Z   2
loop_
 _symmetry_equiv_pos_site_id
 _symmetry_equiv_pos_as_xyz
  1  'x, y, z'
loop_
 _atom_site_type_symbol
 _atom_site_label
 _atom_site_symmetry_multiplicity
 _atom_site_fract_x
 _atom_site_fract_y
 _atom_site_fract_z
 _atom_site_occupancy
  Ca  Ca0  1  0.91851400  0.39512900  0.52985400  1
  Ca  Ca1  1  0.08148600  0.61134000  0.47661400  1
  Ca  Ca2  1  0.36527400  0.89512900  0.47661400  1
  Ca  Ca3  1  0.63472600  0.11134000  0.52985400  1
  Ti  Ti4  1  0.00000000  0.01136300  0.01136300  1
  Ti  Ti5  1  0.50000000  0.51136300  0.01136300  1
  Ti  Ti6  1  0.69920200  0.71476700  0.91396900  1
  Ti  Ti7  1  0.30079800  0.21476700  0.01556400  1
  O  O8  1  0.26330900  0.27193800  0.51160200  1
  O  O9  1  0.73669100  0.24829300  0.00862900  1
  O  O10  1  0.26033600  0.77193800  0.00862900  1
  O  O11  1  0.73966400  0.74829300  0.51160200  1
  O  O12  1  0.92331900  0.88807800  0.08008700  1
  O  O13  1  0.07668100  0.15676800  0.96476000  1
  O  O14  1  0.30799100  0.38807800  0.96476000  1
  O  O15  1  0.69200900  0.65676800  0.08008700  1
  O  O16  1  0.61880800  0.36632400  0.48513200  1
  O  O17  1  0.38119200  0.86632400  0.74751600  1
