# generated using pymatgen
data_Mg2Fe2O5
_symmetry_space_group_name_H-M   'P 1'
_cell_length_a   7.85746448
_cell_length_b   7.85746448
_cell_length_c   7.85746448
_cell_angle_alpha   140.42303509
_cell_angle_beta   139.67164991
_cell_angle_gamma   57.78365492
_symmetry_Int_Tables_number   1
_chemical_formula_structural   Mg2Fe2O5
_chemical_formula_sum   'Mg4 Fe4 O10'
_cell_volume   198.26991421
_cell_formula_units_Z   2
loop_
 _symmetry_equiv_pos_site_id
 _symmetry_equiv_pos_as_xyz
  1  'x, y, z'
loop_
 _atom_site_type_symbol
 _atom_site_label
 _atom_site_symmetry_multiplicity
 _atom_site_fract_x
 _atom_site_fract_y
 _atom_site_fract_z
 _atom_site_occupancy
  Mg  Mg0  1  0.34072900  0.89314200  0.46920600  1
  Mg  Mg1  1  0.57606400  0.10685800  0.44758600  1
  Mg  Mg2  1  0.84072900  0.37152300  0.44758600  1
  Mg  Mg3  1  0.07606400  0.62847700  0.46920600  1
  Fe  Fe4  1  0.01303900  0.00000000  0.01303900  1
  Fe  Fe5  1  0.51303900  0.50000000  0.01303900  1
  Fe  Fe6  1  0.69316400  0.71673800  0.90990200  1
  Fe  Fe7  1  0.19316400  0.28326200  0.97642600  1
  O  O8  1  0.31196300  0.29855800  0.52606600  1
  O  O9  1  0.22750800  0.70144200  0.01340600  1
  O  O10  1  0.81196300  0.28589700  0.01340600  1
  O  O11  1  0.72750800  0.71410300  0.52606600  1
  O  O12  1  0.94053500  0.99458200  0.22075100  1
  O  O13  1  0.22616900  0.00541800  0.94595300  1
  O  O14  1  0.44053500  0.21978400  0.94595300  1
  O  O15  1  0.72616900  0.78021600  0.22075100  1
  O  O16  1  0.33482900  0.62263800  0.45746800  1
  O  O17  1  0.83482900  0.37736200  0.71219100  1
