# generated using pymatgen
data_La3SmCr2(FeO5)2
_symmetry_space_group_name_H-M   'P 1'
_cell_length_a   11.18561122
_cell_length_b   11.55816745
_cell_length_c   18.04511610
_cell_angle_alpha   108.77484471
_cell_angle_beta   108.12345347
_cell_angle_gamma   89.99888436
_symmetry_Int_Tables_number   1
_chemical_formula_structural   La3SmCr2(FeO5)2
_chemical_formula_sum   'La24 Sm8 Cr16 Fe16 O80'
_cell_volume   2086.21773416
_cell_formula_units_Z   8
loop_
 _symmetry_equiv_pos_site_id
 _symmetry_equiv_pos_as_xyz
  1  'x, y, z'
loop_
 _atom_site_type_symbol
 _atom_site_label
 _atom_site_symmetry_multiplicity
 _atom_site_fract_x
 _atom_site_fract_y
 _atom_site_fract_z
 _atom_site_occupancy
  La  La0  1  0.30174400  0.06289300  0.61322500  1
  La  La1  1  0.30154100  0.56434900  0.61396000  1
  La  La2  1  0.80203600  0.06507100  0.61417700  1
  La  La3  1  0.80248500  0.56416800  0.61642500  1
  La  La4  1  0.18809300  0.43498600  0.38588800  1
  La  La5  1  0.18467900  0.43856500  0.88639700  1
  La  La6  1  0.18626000  0.93493600  0.38359800  1
  La  La7  1  0.68806600  0.43635700  0.38679300  1
  La  La8  1  0.68797300  0.93583800  0.38617800  1
  La  La9  1  0.68776800  0.93630400  0.88672200  1
  La  La10  1  0.05047300  0.30036600  0.11444500  1
  La  La11  1  0.05188700  0.29967600  0.61362700  1
  La  La12  1  0.05179500  0.80093500  0.61514300  1
  La  La13  1  0.55200800  0.29908200  0.11422800  1
  La  La14  1  0.55168600  0.30157600  0.61527900  1
  La  La15  1  0.54932400  0.80039200  0.11444800  1
  La  La16  1  0.55182000  0.80001500  0.61395900  1
  La  La17  1  0.43591100  0.19826100  0.38384500  1
  La  La18  1  0.43859100  0.20080900  0.88627500  1
  La  La19  1  0.43588500  0.69900500  0.38362300  1
  La  La20  1  0.43542000  0.69856000  0.88587000  1
  La  La21  1  0.93556400  0.19804400  0.38334000  1
  La  La22  1  0.93656600  0.19868700  0.88611800  1
  La  La23  1  0.93594700  0.69822100  0.38368100  1
  Sm  Sm24  1  0.29741300  0.06324200  0.11262600  1
  Sm  Sm25  1  0.29739900  0.56385700  0.11288300  1
  Sm  Sm26  1  0.79816400  0.06323200  0.11216300  1
  Sm  Sm27  1  0.79958800  0.56499300  0.11234300  1
  Sm  Sm28  1  0.18662500  0.93612800  0.88894900  1
  Sm  Sm29  1  0.68795600  0.43653300  0.89004300  1
  Sm  Sm30  1  0.04918600  0.79661000  0.11149300  1
  Sm  Sm31  1  0.93831500  0.70242500  0.88812200  1
  Cr  Cr32  1  0.99876800  0.00001400  0.00216800  1
  Cr  Cr33  1  0.99891700  0.99936400  0.49954600  1
  Cr  Cr34  1  0.99680300  0.50171100  0.00019400  1
  Cr  Cr35  1  0.99883800  0.50001400  0.49977700  1
  Cr  Cr36  1  0.49695200  0.00077300  0.00044300  1
  Cr  Cr37  1  0.49855500  0.00004100  0.49927800  1
  Cr  Cr38  1  0.49808500  0.50116000  0.00142300  1
  Cr  Cr39  1  0.49904800  0.50002100  0.49991400  1
  Cr  Cr40  1  0.24854700  0.25001200  0.00050700  1
  Cr  Cr41  1  0.24837800  0.24943800  0.49924200  1
  Cr  Cr42  1  0.24732900  0.75253200  0.00189400  1
  Cr  Cr43  1  0.24835600  0.74976500  0.49927500  1
  Cr  Cr44  1  0.74910100  0.25183700  0.00179600  1
  Cr  Cr45  1  0.74842700  0.25044800  0.50004200  1
  Cr  Cr46  1  0.74888900  0.75025400  0.00049300  1
  Cr  Cr47  1  0.74902700  0.75015600  0.49986400  1
  Fe  Fe48  1  0.10923900  0.10128700  0.24585300  1
  Fe  Fe49  1  0.11371800  0.10503400  0.75246200  1
  Fe  Fe50  1  0.10994000  0.60540100  0.24666900  1
  Fe  Fe51  1  0.11125800  0.60846100  0.75243700  1
  Fe  Fe52  1  0.61037100  0.10337000  0.24753000  1
  Fe  Fe53  1  0.61352100  0.10750700  0.75146900  1
  Fe  Fe54  1  0.61047200  0.60378900  0.24675300  1
  Fe  Fe55  1  0.61544500  0.60407200  0.75370600  1
  Fe  Fe56  1  0.36087700  0.39256400  0.24685600  1
  Fe  Fe57  1  0.36482700  0.39558800  0.75150300  1
  Fe  Fe58  1  0.35691800  0.89304200  0.24661800  1
  Fe  Fe59  1  0.36036800  0.89563200  0.75213500  1
  Fe  Fe60  1  0.86064800  0.39349300  0.24749000  1
  Fe  Fe61  1  0.85968100  0.39743100  0.75299400  1
  Fe  Fe62  1  0.86155800  0.89248300  0.24573600  1
  Fe  Fe63  1  0.86565400  0.89355300  0.75276200  1
  O  O64  1  0.11065800  0.11631500  0.47651800  1
  O  O65  1  0.11194000  0.11302300  0.97560900  1
  O  O66  1  0.11102700  0.61633800  0.47658200  1
  O  O67  1  0.10535100  0.62099800  0.97561900  1
  O  O68  1  0.61067100  0.11723500  0.47667700  1
  O  O69  1  0.61091100  0.11853500  0.97896600  1
  O  O70  1  0.61092200  0.61740200  0.47746000  1
  O  O71  1  0.61174000  0.61399500  0.97524700  1
  O  O72  1  0.13445900  0.38536500  0.02508800  1
  O  O73  1  0.13410600  0.38326300  0.52224000  1
  O  O74  1  0.13359800  0.88443900  0.02809400  1
  O  O75  1  0.13374400  0.88287000  0.52200100  1
  O  O76  1  0.63472900  0.38581800  0.02354100  1
  O  O77  1  0.63474200  0.38447400  0.52351300  1
  O  O78  1  0.63484700  0.88469100  0.02482800  1
  O  O79  1  0.63451300  0.88394800  0.52219100  1
  O  O80  1  0.36080800  0.11000200  0.47628800  1
  O  O81  1  0.35665800  0.10659800  0.97302700  1
  O  O82  1  0.36174600  0.61090100  0.47721600  1
  O  O83  1  0.35988600  0.61118300  0.97875400  1
  O  O84  1  0.86223300  0.11169000  0.47854900  1
  O  O85  1  0.86117800  0.11060700  0.97898700  1
  O  O86  1  0.86200800  0.61125000  0.47692200  1
  O  O87  1  0.85737100  0.60808900  0.97198700  1
  O  O88  1  0.38397700  0.39494000  0.02828500  1
  O  O89  1  0.38359300  0.38850400  0.52125800  1
  O  O90  1  0.38005900  0.89614900  0.02601200  1
  O  O91  1  0.38411600  0.88840200  0.52137600  1
  O  O92  1  0.88116600  0.39665900  0.02624400  1
  O  O93  1  0.88375800  0.38995100  0.52244200  1
  O  O94  1  0.88615800  0.89303100  0.02949800  1
  O  O95  1  0.88426100  0.88902500  0.52224300  1
  O  O96  1  0.11470300  0.12222000  0.14405200  1
  O  O97  1  0.10307400  0.11764600  0.64482500  1
  O  O98  1  0.11248900  0.62278300  0.14275000  1
  O  O99  1  0.10178000  0.61885800  0.64436300  1
  O  O100  1  0.61398200  0.11841000  0.14398900  1
  O  O101  1  0.60313000  0.11961700  0.64381300  1
  O  O102  1  0.61675500  0.62156600  0.14416400  1
  O  O103  1  0.60284800  0.61936500  0.64552800  1
  O  O104  1  0.45721100  0.38084700  0.35505500  1
  O  O105  1  0.46890600  0.38203300  0.85656200  1
  O  O106  1  0.45693700  0.88186900  0.35452300  1
  O  O107  1  0.46455700  0.87885900  0.85685400  1
  O  O108  1  0.95786300  0.38047100  0.35503800  1
  O  O109  1  0.96238300  0.37860800  0.85753400  1
  O  O110  1  0.95768000  0.87986300  0.35458200  1
  O  O111  1  0.96939800  0.87804700  0.85789000  1
  O  O112  1  0.35826000  0.26724000  0.14320300  1
  O  O113  1  0.35246500  0.27493300  0.64331400  1
  O  O114  1  0.35745100  0.76716800  0.14317200  1
  O  O115  1  0.35117800  0.77692400  0.64413400  1
  O  O116  1  0.85681400  0.26852400  0.14355800  1
  O  O117  1  0.85262200  0.27934600  0.64545100  1
  O  O118  1  0.86595000  0.76762600  0.14307900  1
  O  O119  1  0.85336800  0.77416500  0.64416400  1
  O  O120  1  0.20651400  0.22082700  0.35414500  1
  O  O121  1  0.21408300  0.22967800  0.85673200  1
  O  O122  1  0.20849500  0.72413600  0.35500100  1
  O  O123  1  0.21302600  0.72987000  0.85827000  1
  O  O124  1  0.70765600  0.22335200  0.35571100  1
  O  O125  1  0.71157900  0.22872000  0.85812500  1
  O  O126  1  0.70673500  0.72363400  0.35533800  1
  O  O127  1  0.72370800  0.72882300  0.85621900  1
  O  O128  1  0.41780800  0.06636000  0.24445800  1
  O  O129  1  0.42295100  0.06859700  0.75006900  1
  O  O130  1  0.41801700  0.56718800  0.24360200  1
  O  O131  1  0.42430600  0.56979800  0.74969000  1
  O  O132  1  0.91719000  0.06703400  0.24362400  1
  O  O133  1  0.92282400  0.06822400  0.75007800  1
  O  O134  1  0.91797500  0.56699400  0.24324100  1
  O  O135  1  0.92322600  0.57424800  0.75659100  1
  O  O136  1  0.17327600  0.43269300  0.25061700  1
  O  O137  1  0.17423100  0.43301800  0.74978100  1
  O  O138  1  0.16583100  0.92415400  0.24331700  1
  O  O139  1  0.17253000  0.93098600  0.75697300  1
  O  O140  1  0.67279600  0.43101000  0.25059100  1
  O  O141  1  0.67180600  0.43082700  0.75718800  1
  O  O142  1  0.67484200  0.93054800  0.25058500  1
  O  O143  1  0.67517500  0.93224800  0.75050500  1
