# generated using pymatgen
data_K2Nb2O5
_symmetry_space_group_name_H-M   'P 1'
_cell_length_a   9.05015606
_cell_length_b   9.05015606
_cell_length_c   9.05015606
_cell_angle_alpha   142.36233047
_cell_angle_beta   141.99204011
_cell_angle_gamma   54.56257074
_symmetry_Int_Tables_number   1
_chemical_formula_structural   K2Nb2O5
_chemical_formula_sum   'K4 Nb4 O10'
_cell_volume   276.80813906
_cell_formula_units_Z   2
loop_
 _symmetry_equiv_pos_site_id
 _symmetry_equiv_pos_as_xyz
  1  'x, y, z'
loop_
 _atom_site_type_symbol
 _atom_site_label
 _atom_site_symmetry_multiplicity
 _atom_site_fract_x
 _atom_site_fract_y
 _atom_site_fract_z
 _atom_site_occupancy
  K  K0  1  0.38764000  0.86577000  0.47618800  1
  K  K1  1  0.61041800  0.13423000  0.52187100  1
  K  K2  1  0.88764000  0.41145300  0.52187100  1
  K  K3  1  0.11041800  0.58854700  0.47618800  1
  Nb  Nb4  1  0.99401200  0.00000000  0.99401200  1
  Nb  Nb5  1  0.49401200  0.50000000  0.99401200  1
  Nb  Nb6  1  0.76524200  0.82855000  0.09379200  1
  Nb  Nb7  1  0.26524200  0.17145000  0.93669200  1
  O  O8  1  0.75019600  0.75277200  0.49879700  1
  O  O9  1  0.74602500  0.24722800  0.99742400  1
  O  O10  1  0.25019600  0.75139900  0.99742400  1
  O  O11  1  0.24602500  0.24860100  0.49879700  1
  O  O12  1  0.86341400  0.86451000  0.99205900  1
  O  O13  1  0.12754900  0.13549000  0.99890300  1
  O  O14  1  0.36341400  0.37135500  0.99890300  1
  O  O15  1  0.62754900  0.62864500  0.99205900  1
  O  O16  1  0.09150500  0.88791400  0.47941900  1
  O  O17  1  0.59150500  0.11208600  0.20359100  1
