# generated using pymatgen
data_SrCaMn2O6
_symmetry_space_group_name_H-M   'P 1'
_cell_length_a   7.70267400
_cell_length_b   7.70267400
_cell_length_c   7.70125100
_cell_angle_alpha   90.00000000
_cell_angle_beta   90.00000000
_cell_angle_gamma   90.00000000
_symmetry_Int_Tables_number   1
_chemical_formula_structural   SrCaMn2O6
_chemical_formula_sum   'Sr4 Ca4 Mn8 O24'
_cell_volume   456.92436129
_cell_formula_units_Z   4
loop_
 _symmetry_equiv_pos_site_id
 _symmetry_equiv_pos_as_xyz
  1  'x, y, z'
loop_
 _atom_site_type_symbol
 _atom_site_label
 _atom_site_symmetry_multiplicity
 _atom_site_fract_x
 _atom_site_fract_y
 _atom_site_fract_z
 _atom_site_occupancy
  Sr  Sr0  1  0.50000000  0.00000000  0.50000000  1
  Sr  Sr1  1  0.00000000  0.00000000  0.50000000  1
  Sr  Sr2  1  0.00000000  0.50000000  0.50000000  1
  Sr  Sr3  1  0.50000000  0.50000000  0.00000000  1
  Ca  Ca4  1  0.50000000  0.00000000  0.00000000  1
  Ca  Ca5  1  0.00000000  0.00000000  0.00000000  1
  Ca  Ca6  1  0.50000000  0.50000000  0.50000000  1
  Ca  Ca7  1  0.00000000  0.50000000  0.00000000  1
  Mn  Mn8  1  0.74996500  0.25003500  0.75088500  1
  Mn  Mn9  1  0.25003500  0.25003500  0.75088500  1
  Mn  Mn10  1  0.74996500  0.25003500  0.24911500  1
  Mn  Mn11  1  0.25003500  0.25003500  0.24911500  1
  Mn  Mn12  1  0.74996500  0.74996500  0.75088500  1
  Mn  Mn13  1  0.25003500  0.74996500  0.75088500  1
  Mn  Mn14  1  0.74996500  0.74996500  0.24911500  1
  Mn  Mn15  1  0.25003500  0.74996500  0.24911500  1
  O  O16  1  0.74998800  0.00000000  0.75437100  1
  O  O17  1  0.25001200  0.00000000  0.75437100  1
  O  O18  1  0.74998800  0.00000000  0.24562900  1
  O  O19  1  0.25001200  0.00000000  0.24562900  1
  O  O20  1  0.75002000  0.50000000  0.75038300  1
  O  O21  1  0.24998000  0.50000000  0.75038300  1
  O  O22  1  0.75002000  0.50000000  0.24961700  1
  O  O23  1  0.24998000  0.50000000  0.24961700  1
  O  O24  1  0.74798300  0.25201700  0.50000000  1
  O  O25  1  0.25201700  0.25201700  0.50000000  1
  O  O26  1  0.75198300  0.24801700  0.00000000  1
  O  O27  1  0.24801700  0.24801700  0.00000000  1
  O  O28  1  0.74798300  0.74798300  0.50000000  1
  O  O29  1  0.25201700  0.74798300  0.50000000  1
  O  O30  1  0.75198300  0.75198300  0.00000000  1
  O  O31  1  0.24801700  0.75198300  0.00000000  1
  O  O32  1  0.50000000  0.24998000  0.75038300  1
  O  O33  1  0.00000000  0.25001200  0.75437100  1
  O  O34  1  0.50000000  0.24998000  0.24961700  1
  O  O35  1  0.00000000  0.25001200  0.24562900  1
  O  O36  1  0.50000000  0.75002000  0.75038300  1
  O  O37  1  0.00000000  0.74998800  0.75437100  1
  O  O38  1  0.50000000  0.75002000  0.24961700  1
  O  O39  1  0.00000000  0.74998800  0.24562900  1
