# generated using pymatgen
data_La3SmV3CrO12
_symmetry_space_group_name_H-M   'P 1'
_cell_length_a   7.79579300
_cell_length_b   7.91443500
_cell_length_c   7.94944000
_cell_angle_alpha   90.00000000
_cell_angle_beta   90.00000000
_cell_angle_gamma   90.00000000
_symmetry_Int_Tables_number   1
_chemical_formula_structural   La3SmV3CrO12
_chemical_formula_sum   'La6 Sm2 V6 Cr2 O24'
_cell_volume   490.47485932
_cell_formula_units_Z   2
loop_
 _symmetry_equiv_pos_site_id
 _symmetry_equiv_pos_as_xyz
  1  'x, y, z'
loop_
 _atom_site_type_symbol
 _atom_site_label
 _atom_site_symmetry_multiplicity
 _atom_site_fract_x
 _atom_site_fract_y
 _atom_site_fract_z
 _atom_site_occupancy
  La  La0  1  0.50000000  0.74609100  0.00000000  1
  La  La1  1  0.00000000  0.74609100  0.00000000  1
  La  La2  1  0.50000000  0.25179800  0.00000000  1
  La  La3  1  0.00000000  0.25179800  0.00000000  1
  La  La4  1  0.50000000  0.25396900  0.50000000  1
  La  La5  1  0.00000000  0.25396900  0.50000000  1
  Sm  Sm6  1  0.50000000  0.74738000  0.50000000  1
  Sm  Sm7  1  0.00000000  0.74738000  0.50000000  1
  V  V8  1  0.75000000  0.99964100  0.74953400  1
  V  V9  1  0.25000000  0.99919100  0.74911400  1
  V  V10  1  0.75000000  0.50082600  0.74925600  1
  V  V11  1  0.75000000  0.99919100  0.25088600  1
  V  V12  1  0.25000000  0.99964100  0.25046600  1
  V  V13  1  0.25000000  0.50082600  0.25074400  1
  Cr  Cr14  1  0.25000000  0.50060200  0.74945300  1
  Cr  Cr15  1  0.75000000  0.50060200  0.25054700  1
  O  O16  1  0.75000000  0.99954200  0.00181000  1
  O  O17  1  0.25000000  0.99954200  0.99819000  1
  O  O18  1  0.75000000  0.49935900  0.00301300  1
  O  O19  1  0.25000000  0.49935900  0.99698700  1
  O  O20  1  0.75000000  0.99708600  0.49859500  1
  O  O21  1  0.25000000  0.99708600  0.50140500  1
  O  O22  1  0.75000000  0.50419600  0.49689400  1
  O  O23  1  0.25000000  0.50419600  0.50310600  1
  O  O24  1  0.75000000  0.74942800  0.74657500  1
  O  O25  1  0.25000000  0.74668700  0.74648800  1
  O  O26  1  0.75000000  0.25097000  0.74990700  1
  O  O27  1  0.25000000  0.25324800  0.75012400  1
  O  O28  1  0.75000000  0.74668700  0.25351200  1
  O  O29  1  0.25000000  0.74942800  0.25342500  1
  O  O30  1  0.75000000  0.25324800  0.24987600  1
  O  O31  1  0.25000000  0.25097000  0.25009300  1
  O  O32  1  0.50032700  0.99840100  0.74842100  1
  O  O33  1  0.99967300  0.99840100  0.74842100  1
  O  O34  1  0.49999200  0.50159200  0.74836700  1
  O  O35  1  0.00000800  0.50159200  0.74836700  1
  O  O36  1  0.49967300  0.99840100  0.25157900  1
  O  O37  1  0.00032700  0.99840100  0.25157900  1
  O  O38  1  0.50000800  0.50159200  0.25163300  1
  O  O39  1  0.99999200  0.50159200  0.25163300  1
