# generated using pymatgen
data_LaSm(NiO3)2
_symmetry_space_group_name_H-M   'P 1'
_cell_length_a   7.65112800
_cell_length_b   7.65112800
_cell_length_c   7.65253800
_cell_angle_alpha   90.00000000
_cell_angle_beta   90.00000000
_cell_angle_gamma   90.00000000
_symmetry_Int_Tables_number   1
_chemical_formula_structural   LaSm(NiO3)2
_chemical_formula_sum   'La4 Sm4 Ni8 O24'
_cell_volume   447.97773540
_cell_formula_units_Z   4
loop_
 _symmetry_equiv_pos_site_id
 _symmetry_equiv_pos_as_xyz
  1  'x, y, z'
loop_
 _atom_site_type_symbol
 _atom_site_label
 _atom_site_symmetry_multiplicity
 _atom_site_fract_x
 _atom_site_fract_y
 _atom_site_fract_z
 _atom_site_occupancy
  La  La0  1  0.50000000  0.00000000  0.00000000  1
  La  La1  1  0.50000000  0.50000000  0.00000000  1
  La  La2  1  0.00000000  0.50000000  0.00000000  1
  La  La3  1  0.00000000  0.00000000  0.50000000  1
  Sm  Sm4  1  0.00000000  0.00000000  0.00000000  1
  Sm  Sm5  1  0.50000000  0.00000000  0.50000000  1
  Sm  Sm6  1  0.50000000  0.50000000  0.50000000  1
  Sm  Sm7  1  0.00000000  0.50000000  0.50000000  1
  Ni  Ni8  1  0.24999600  0.75000400  0.74897000  1
  Ni  Ni9  1  0.24999600  0.24999600  0.74897000  1
  Ni  Ni10  1  0.75000400  0.75000400  0.74897000  1
  Ni  Ni11  1  0.75000400  0.24999600  0.74897000  1
  Ni  Ni12  1  0.24999600  0.75000400  0.25103000  1
  Ni  Ni13  1  0.24999600  0.24999600  0.25103000  1
  Ni  Ni14  1  0.75000400  0.75000400  0.25103000  1
  Ni  Ni15  1  0.75000400  0.24999600  0.25103000  1
  O  O16  1  0.24757600  0.75242400  0.00000000  1
  O  O17  1  0.24757600  0.24757600  0.00000000  1
  O  O18  1  0.75242400  0.75242400  0.00000000  1
  O  O19  1  0.75242400  0.24757600  0.00000000  1
  O  O20  1  0.25197300  0.74802700  0.50000000  1
  O  O21  1  0.25197300  0.25197300  0.50000000  1
  O  O22  1  0.74802700  0.74802700  0.50000000  1
  O  O23  1  0.74802700  0.25197300  0.50000000  1
  O  O24  1  0.50000000  0.74999000  0.74437300  1
  O  O25  1  0.50000000  0.25001000  0.74437300  1
  O  O26  1  0.00000000  0.74982500  0.74867800  1
  O  O27  1  0.00000000  0.25017500  0.74867800  1
  O  O28  1  0.50000000  0.74999000  0.25562700  1
  O  O29  1  0.50000000  0.25001000  0.25562700  1
  O  O30  1  0.00000000  0.74982500  0.25132200  1
  O  O31  1  0.00000000  0.25017500  0.25132200  1
  O  O32  1  0.25017500  0.00000000  0.74867800  1
  O  O33  1  0.25001000  0.50000000  0.74437300  1
  O  O34  1  0.74982500  0.00000000  0.74867800  1
  O  O35  1  0.74999000  0.50000000  0.74437300  1
  O  O36  1  0.25017500  0.00000000  0.25132200  1
  O  O37  1  0.25001000  0.50000000  0.25562700  1
  O  O38  1  0.74982500  0.00000000  0.25132200  1
  O  O39  1  0.74999000  0.50000000  0.25562700  1
