# generated using pymatgen
data_BaSr7Ti7MnO24
_symmetry_space_group_name_H-M   'P 1'
_cell_length_a   7.89242404
_cell_length_b   7.89242404
_cell_length_c   7.89242466
_cell_angle_alpha   90.01662437
_cell_angle_beta   90.01662437
_cell_angle_gamma   90.01662165
_symmetry_Int_Tables_number   1
_chemical_formula_structural   BaSr7Ti7MnO24
_chemical_formula_sum   'Ba1 Sr7 Ti7 Mn1 O24'
_cell_volume   491.62188967
_cell_formula_units_Z   1
loop_
 _symmetry_equiv_pos_site_id
 _symmetry_equiv_pos_as_xyz
  1  'x, y, z'
loop_
 _atom_site_type_symbol
 _atom_site_label
 _atom_site_symmetry_multiplicity
 _atom_site_fract_x
 _atom_site_fract_y
 _atom_site_fract_z
 _atom_site_occupancy
  Ba  Ba0  1  0.24864900  0.24864900  0.24864900  1
  Sr  Sr1  1  0.24858800  0.24858800  0.75130700  1
  Sr  Sr2  1  0.75142300  0.24856600  0.75142300  1
  Sr  Sr3  1  0.75130700  0.24858800  0.24858800  1
  Sr  Sr4  1  0.24856600  0.75142300  0.75142300  1
  Sr  Sr5  1  0.75145600  0.75145600  0.75145600  1
  Sr  Sr6  1  0.24858800  0.75130700  0.24858800  1
  Sr  Sr7  1  0.75142300  0.75142300  0.24856600  1
  Ti  Ti8  1  0.50175300  0.99872600  0.99872600  1
  Ti  Ti9  1  0.99872600  0.99872600  0.50175300  1
  Ti  Ti10  1  0.50128000  0.99870700  0.50128000  1
  Ti  Ti11  1  0.99872600  0.50175300  0.99872600  1
  Ti  Ti12  1  0.50128000  0.50128000  0.99870700  1
  Ti  Ti13  1  0.99870700  0.50128000  0.50128000  1
  Ti  Ti14  1  0.50126700  0.50126700  0.50126700  1
  Mn  Mn15  1  0.99893600  0.99893600  0.99893600  1
  O  O16  1  0.99577400  0.24707900  0.99577400  1
  O  O17  1  0.50380100  0.24956800  0.99619100  1
  O  O18  1  0.99619100  0.24956800  0.50380100  1
  O  O19  1  0.50379900  0.24949400  0.50379900  1
  O  O20  1  0.99931800  0.75310000  0.99931800  1
  O  O21  1  0.50081300  0.75032500  0.99914200  1
  O  O22  1  0.99914200  0.75032500  0.50081300  1
  O  O23  1  0.50083900  0.75051000  0.50083900  1
  O  O24  1  0.99931800  0.99931800  0.75310000  1
  O  O25  1  0.50081300  0.99914200  0.75032500  1
  O  O26  1  0.99577400  0.99577400  0.24707900  1
  O  O27  1  0.50380100  0.99619100  0.24956800  1
  O  O28  1  0.99914200  0.50081300  0.75032500  1
  O  O29  1  0.50083900  0.50083900  0.75051000  1
  O  O30  1  0.99619100  0.50380100  0.24956800  1
  O  O31  1  0.50379900  0.50379900  0.24949400  1
  O  O32  1  0.24707900  0.99577400  0.99577400  1
  O  O33  1  0.75310000  0.99931800  0.99931800  1
  O  O34  1  0.24956800  0.99619100  0.50380100  1
  O  O35  1  0.75032500  0.99914200  0.50081300  1
  O  O36  1  0.24956800  0.50380100  0.99619100  1
  O  O37  1  0.75032500  0.50081300  0.99914200  1
  O  O38  1  0.24949400  0.50379900  0.50379900  1
  O  O39  1  0.75051000  0.50083900  0.50083900  1
