# generated using pymatgen
data_K5Na3Nb6(WO12)2
_symmetry_space_group_name_H-M   'P 1'
_cell_length_a   8.05916058
_cell_length_b   8.05916058
_cell_length_c   8.07839800
_cell_angle_alpha   90.00000000
_cell_angle_beta   90.00000000
_cell_angle_gamma   90.36932182
_symmetry_Int_Tables_number   1
_chemical_formula_structural   K5Na3Nb6(WO12)2
_chemical_formula_sum   'K5 Na3 Nb6 W2 O24'
_cell_volume   524.68160933
_cell_formula_units_Z   1
loop_
 _symmetry_equiv_pos_site_id
 _symmetry_equiv_pos_as_xyz
  1  'x, y, z'
loop_
 _atom_site_type_symbol
 _atom_site_label
 _atom_site_symmetry_multiplicity
 _atom_site_fract_x
 _atom_site_fract_y
 _atom_site_fract_z
 _atom_site_occupancy
  K  K0  1  0.24954800  0.24954800  0.00000000  1
  K  K1  1  0.74883000  0.25106300  0.00000000  1
  K  K2  1  0.25106300  0.74883000  0.00000000  1
  K  K3  1  0.74957800  0.74957800  0.00000000  1
  K  K4  1  0.75041400  0.75041400  0.50000000  1
  Na  Na5  1  0.25066800  0.25066800  0.50000000  1
  Na  Na6  1  0.74890800  0.25124000  0.50000000  1
  Na  Na7  1  0.25124000  0.74890800  0.50000000  1
  Nb  Nb8  1  0.49907700  0.00063300  0.74811900  1
  Nb  Nb9  1  0.49907700  0.00063300  0.25188100  1
  Nb  Nb10  1  0.00063300  0.49907700  0.74811900  1
  Nb  Nb11  1  0.00063300  0.49907700  0.25188100  1
  Nb  Nb12  1  0.49929500  0.49929500  0.74799000  1
  Nb  Nb13  1  0.49929500  0.49929500  0.25201000  1
  W  W14  1  0.00044300  0.00044300  0.74837900  1
  W  W15  1  0.00044300  0.00044300  0.25162100  1
  O  O16  1  0.99806100  0.24798400  0.74572300  1
  O  O17  1  0.99806100  0.24798400  0.25427700  1
  O  O18  1  0.49921900  0.25022900  0.74627700  1
  O  O19  1  0.49921900  0.25022900  0.25372300  1
  O  O20  1  0.00394900  0.75223300  0.74833800  1
  O  O21  1  0.00394900  0.75223300  0.25166200  1
  O  O22  1  0.49874800  0.74979600  0.74765100  1
  O  O23  1  0.49874800  0.74979600  0.25234900  1
  O  O24  1  0.24798400  0.99806100  0.74572300  1
  O  O25  1  0.24798400  0.99806100  0.25427700  1
  O  O26  1  0.75223300  0.00394900  0.74833800  1
  O  O27  1  0.75223300  0.00394900  0.25166200  1
  O  O28  1  0.25022900  0.49921900  0.74627700  1
  O  O29  1  0.25022900  0.49921900  0.25372300  1
  O  O30  1  0.74979600  0.49874800  0.74765100  1
  O  O31  1  0.74979600  0.49874800  0.25234900  1
  O  O32  1  0.99832500  0.99832500  0.00000000  1
  O  O33  1  0.00400100  0.00400100  0.50000000  1
  O  O34  1  0.49952400  0.99994300  0.00000000  1
  O  O35  1  0.49867300  0.00204900  0.50000000  1
  O  O36  1  0.99994300  0.49952400  0.00000000  1
  O  O37  1  0.00204900  0.49867300  0.50000000  1
  O  O38  1  0.49956700  0.49956700  0.00000000  1
  O  O39  1  0.49833600  0.49833600  0.50000000  1
