# generated using pymatgen
data_La4Sm4Co7CuO20
_symmetry_space_group_name_H-M   'P 1'
_cell_length_a   10.82239652
_cell_length_b   11.51862516
_cell_length_c   17.49296261
_cell_angle_alpha   109.20455406
_cell_angle_beta   107.98168716
_cell_angle_gamma   90.01339500
_symmetry_Int_Tables_number   1
_chemical_formula_structural   La4Sm4Co7CuO20
_chemical_formula_sum   'La16 Sm16 Co28 Cu4 O80'
_cell_volume   1946.10223057
_cell_formula_units_Z   4
loop_
 _symmetry_equiv_pos_site_id
 _symmetry_equiv_pos_as_xyz
  1  'x, y, z'
loop_
 _atom_site_type_symbol
 _atom_site_label
 _atom_site_symmetry_multiplicity
 _atom_site_fract_x
 _atom_site_fract_y
 _atom_site_fract_z
 _atom_site_occupancy
  La  La0  1  0.30794200  0.06613200  0.60978600  1
  La  La1  1  0.30976100  0.56769800  0.61283500  1
  La  La2  1  0.80654500  0.06626400  0.61027700  1
  La  La3  1  0.80723200  0.56759300  0.61310500  1
  La  La4  1  0.19626200  0.43292600  0.38671900  1
  La  La5  1  0.19034600  0.43633300  0.89123700  1
  La  La6  1  0.69424400  0.43302100  0.38675800  1
  La  La7  1  0.69079700  0.93111100  0.38569100  1
  La  La8  1  0.05807700  0.29438200  0.61097200  1
  La  La9  1  0.05571800  0.79643900  0.61250800  1
  La  La10  1  0.55884100  0.29607200  0.61256600  1
  La  La11  1  0.44374100  0.20290600  0.38577900  1
  La  La12  1  0.44738300  0.20489000  0.89051300  1
  La  La13  1  0.94566300  0.20408300  0.38585600  1
  La  La14  1  0.94425800  0.20446400  0.88984700  1
  La  La15  1  0.94511400  0.70511400  0.38660400  1
  Sm  Sm16  1  0.29755100  0.06924900  0.10807900  1
  Sm  Sm17  1  0.29905700  0.57046700  0.11199200  1
  Sm  Sm18  1  0.79703200  0.06744000  0.10646800  1
  Sm  Sm19  1  0.80234200  0.56905000  0.10922200  1
  Sm  Sm20  1  0.19623000  0.93001200  0.38814900  1
  Sm  Sm21  1  0.19031900  0.93091000  0.89306400  1
  Sm  Sm22  1  0.69556000  0.43477200  0.89262400  1
  Sm  Sm23  1  0.68967400  0.92817200  0.88978000  1
  Sm  Sm24  1  0.05273300  0.28941800  0.10959200  1
  Sm  Sm25  1  0.04932000  0.79118100  0.11086300  1
  Sm  Sm26  1  0.55162100  0.28977400  0.10922300  1
  Sm  Sm27  1  0.54991800  0.79150600  0.10794400  1
  Sm  Sm28  1  0.55458200  0.79217300  0.60946700  1
  Sm  Sm29  1  0.44384700  0.70855900  0.38991400  1
  Sm  Sm30  1  0.44449700  0.71139300  0.89258700  1
  Sm  Sm31  1  0.94045200  0.71346600  0.89313800  1
  Co  Co32  1  0.00482100  0.99883300  0.49775700  1
  Co  Co33  1  0.00511600  0.50004300  0.49947000  1
  Co  Co34  1  0.50472400  0.99872900  0.49926100  1
  Co  Co35  1  0.50553000  0.50117800  0.00238300  1
  Co  Co36  1  0.50472200  0.50024700  0.49848300  1
  Co  Co37  1  0.25576400  0.25237000  0.00240100  1
  Co  Co38  1  0.25537600  0.24867500  0.49851100  1
  Co  Co39  1  0.25450300  0.75172900  0.00242300  1
  Co  Co40  1  0.25551300  0.74931600  0.49925700  1
  Co  Co41  1  0.75605000  0.25087600  0.00201600  1
  Co  Co42  1  0.75457100  0.24990800  0.49898100  1
  Co  Co43  1  0.75354600  0.74915700  0.49869700  1
  Co  Co44  1  0.10632900  0.09087700  0.24934100  1
  Co  Co45  1  0.10998200  0.09263300  0.75302700  1
  Co  Co46  1  0.10859400  0.59471900  0.24950000  1
  Co  Co47  1  0.10918400  0.59813000  0.75397800  1
  Co  Co48  1  0.60537200  0.09124400  0.24786300  1
  Co  Co49  1  0.60875100  0.09225000  0.75189400  1
  Co  Co50  1  0.60200100  0.59231500  0.24547200  1
  Co  Co51  1  0.60741500  0.59610200  0.75098200  1
  Co  Co52  1  0.35513600  0.40725600  0.24663400  1
  Co  Co53  1  0.36182100  0.40922200  0.75358900  1
  Co  Co54  1  0.35249400  0.90327500  0.24670600  1
  Co  Co55  1  0.35928100  0.90429800  0.75014300  1
  Co  Co56  1  0.85413900  0.40376200  0.24474100  1
  Co  Co57  1  0.85584100  0.40947000  0.75074700  1
  Co  Co58  1  0.85805400  0.90665300  0.24860800  1
  Co  Co59  1  0.85399800  0.90341200  0.75004400  1
  Cu  Cu60  1  0.00120700  0.99988000  0.00273600  1
  Cu  Cu61  1  0.00276100  0.50178900  0.00241800  1
  Cu  Cu62  1  0.50201900  0.00050100  0.00229900  1
  Cu  Cu63  1  0.75230100  0.75029100  0.00195900  1
  O  O64  1  0.11965700  0.11450100  0.47898100  1
  O  O65  1  0.12005400  0.12039900  0.98738600  1
  O  O66  1  0.11945500  0.61838900  0.48185700  1
  O  O67  1  0.11344800  0.62268900  0.98485700  1
  O  O68  1  0.61781300  0.11725300  0.48128600  1
  O  O69  1  0.61897300  0.11745500  0.98557800  1
  O  O70  1  0.61477800  0.62072000  0.47938600  1
  O  O71  1  0.61738800  0.61897100  0.97852600  1
  O  O72  1  0.13543300  0.38425800  0.02299100  1
  O  O73  1  0.13738400  0.38166500  0.51778500  1
  O  O74  1  0.13309000  0.88157400  0.01913800  1
  O  O75  1  0.13746700  0.88094300  0.51580600  1
  O  O76  1  0.63899600  0.38289900  0.02302800  1
  O  O77  1  0.63752500  0.38363000  0.51806700  1
  O  O78  1  0.63279900  0.87837900  0.01616700  1
  O  O79  1  0.63419100  0.87835100  0.51839700  1
  O  O80  1  0.36442400  0.10730500  0.47788000  1
  O  O81  1  0.36484800  0.11021500  0.98366600  1
  O  O82  1  0.37090700  0.61625800  0.47995000  1
  O  O83  1  0.36997500  0.61696700  0.98362600  1
  O  O84  1  0.86855300  0.11234500  0.48105800  1
  O  O85  1  0.86393700  0.10772200  0.98223700  1
  O  O86  1  0.86880300  0.61405800  0.48152000  1
  O  O87  1  0.86685400  0.61305400  0.98505600  1
  O  O88  1  0.38773400  0.39178500  0.02508700  1
  O  O89  1  0.38740700  0.38661600  0.51814400  1
  O  O90  1  0.38557600  0.88941000  0.01966200  1
  O  O91  1  0.38893700  0.88225300  0.51647200  1
  O  O92  1  0.88512000  0.39155000  0.01956800  1
  O  O93  1  0.88729800  0.38715300  0.51801200  1
  O  O94  1  0.88070500  0.88407700  0.01611700  1
  O  O95  1  0.88600500  0.88444800  0.51563500  1
  O  O96  1  0.11321600  0.12385100  0.15030700  1
  O  O97  1  0.09110000  0.10958000  0.64236100  1
  O  O98  1  0.11382000  0.62699100  0.15020700  1
  O  O99  1  0.09043300  0.61400400  0.64295000  1
  O  O100  1  0.61390900  0.12378900  0.14934500  1
  O  O101  1  0.58950700  0.11138800  0.64175700  1
  O  O102  1  0.60270100  0.61777500  0.14071200  1
  O  O103  1  0.58678600  0.61299300  0.63971900  1
  O  O104  1  0.44589700  0.38777000  0.35687100  1
  O  O105  1  0.46131900  0.38815800  0.86096400  1
  O  O106  1  0.44645600  0.88672300  0.35788800  1
  O  O107  1  0.46516600  0.87649300  0.85130500  1
  O  O108  1  0.94600700  0.38902700  0.35632800  1
  O  O109  1  0.95195100  0.37822200  0.85229300  1
  O  O110  1  0.95739200  0.88956300  0.35782700  1
  O  O111  1  0.96448200  0.87852200  0.85151800  1
  O  O112  1  0.35302600  0.27664600  0.14189500  1
  O  O113  1  0.34106000  0.28198200  0.64216000  1
  O  O114  1  0.35238000  0.77684100  0.14061400  1
  O  O115  1  0.34760500  0.78092800  0.63956000  1
  O  O116  1  0.85282500  0.27502400  0.13919700  1
  O  O117  1  0.83631700  0.28181100  0.64025400  1
  O  O118  1  0.86110700  0.77521800  0.14827800  1
  O  O119  1  0.83650100  0.77926700  0.63880700  1
  O  O120  1  0.19708200  0.22054000  0.35901200  1
  O  O121  1  0.20191600  0.22297500  0.86137300  1
  O  O122  1  0.20571100  0.72091100  0.35929900  1
  O  O123  1  0.21321500  0.72386300  0.86148000  1
  O  O124  1  0.69614700  0.21880600  0.35892200  1
  O  O125  1  0.69928300  0.22388700  0.86091100  1
  O  O126  1  0.69617000  0.71835500  0.35648400  1
  O  O127  1  0.71513700  0.72423600  0.85142200  1
  O  O128  1  0.41423400  0.06639400  0.24380500  1
  O  O129  1  0.41901100  0.07036700  0.75071400  1
  O  O130  1  0.41452800  0.57526100  0.24970400  1
  O  O131  1  0.42105800  0.57566100  0.75619400  1
  O  O132  1  0.91408600  0.06936900  0.24300500  1
  O  O133  1  0.91894400  0.06753600  0.74979000  1
  O  O134  1  0.91636500  0.56781300  0.24427000  1
  O  O135  1  0.92230700  0.57606900  0.75694100  1
  O  O136  1  0.16435000  0.42595900  0.24379900  1
  O  O137  1  0.17147800  0.43222000  0.75114000  1
  O  O138  1  0.16498100  0.92487500  0.24972700  1
  O  O139  1  0.17382900  0.93017100  0.75685500  1
  O  O140  1  0.66375600  0.42685900  0.24365900  1
  O  O141  1  0.66790500  0.43200600  0.75571500  1
  O  O142  1  0.66492400  0.92375100  0.24390200  1
  O  O143  1  0.66551300  0.92614900  0.75035500  1
