# generated using pymatgen
data_La7SmMn3(FeO4)5
_symmetry_space_group_name_H-M   'P 1'
_cell_length_a   11.04495273
_cell_length_b   11.84746589
_cell_length_c   17.83433504
_cell_angle_alpha   109.36055276
_cell_angle_beta   108.05780408
_cell_angle_gamma   90.02845882
_symmetry_Int_Tables_number   1
_chemical_formula_structural   La7SmMn3(FeO4)5
_chemical_formula_sum   'La28 Sm4 Mn12 Fe20 O80'
_cell_volume   2079.37363335
_cell_formula_units_Z   4
loop_
 _symmetry_equiv_pos_site_id
 _symmetry_equiv_pos_as_xyz
  1  'x, y, z'
loop_
 _atom_site_type_symbol
 _atom_site_label
 _atom_site_symmetry_multiplicity
 _atom_site_fract_x
 _atom_site_fract_y
 _atom_site_fract_z
 _atom_site_occupancy
  La  La0  1  0.29978300  0.06378600  0.11160900  1
  La  La1  1  0.30260400  0.06480600  0.60847600  1
  La  La2  1  0.30344600  0.56550500  0.60939100  1
  La  La3  1  0.80339700  0.06523600  0.61104900  1
  La  La4  1  0.80385300  0.56646100  0.11002400  1
  La  La5  1  0.80358600  0.56584300  0.60978300  1
  La  La6  1  0.19246700  0.43379600  0.38872500  1
  La  La7  1  0.19223000  0.43477500  0.89179700  1
  La  La8  1  0.19248900  0.93399300  0.38647200  1
  La  La9  1  0.19663100  0.93582000  0.89072800  1
  La  La10  1  0.69294900  0.43372000  0.38959500  1
  La  La11  1  0.69460500  0.93492900  0.39017600  1
  La  La12  1  0.69510200  0.93501700  0.89027900  1
  La  La13  1  0.05044400  0.29492900  0.11065800  1
  La  La14  1  0.05258300  0.29402600  0.60967500  1
  La  La15  1  0.05329300  0.79443600  0.60882300  1
  La  La16  1  0.55303500  0.29252100  0.10974200  1
  La  La17  1  0.55369100  0.29483600  0.61115500  1
  La  La18  1  0.54993100  0.79559100  0.11014200  1
  La  La19  1  0.55571900  0.79383500  0.61087700  1
  La  La20  1  0.44314900  0.20372100  0.38888800  1
  La  La21  1  0.44609100  0.20694100  0.89006200  1
  La  La22  1  0.44300500  0.70573700  0.38972100  1
  La  La23  1  0.44451800  0.70526200  0.89012100  1
  La  La24  1  0.94311600  0.20426600  0.38725000  1
  La  La25  1  0.94049000  0.20434200  0.88971300  1
  La  La26  1  0.94384600  0.70530600  0.38786900  1
  La  La27  1  0.94467200  0.70619500  0.89263900  1
  Sm  Sm28  1  0.29799900  0.56762400  0.10783600  1
  Sm  Sm29  1  0.80148200  0.06637700  0.10893900  1
  Sm  Sm30  1  0.69246700  0.43381200  0.89245800  1
  Sm  Sm31  1  0.05407700  0.79427200  0.11097300  1
  Mn  Mn32  1  0.10900500  0.09730300  0.75081500  1
  Mn  Mn33  1  0.10957700  0.59685800  0.75056300  1
  Mn  Mn34  1  0.60995700  0.09520200  0.24899100  1
  Mn  Mn35  1  0.61050500  0.09780500  0.75028900  1
  Mn  Mn36  1  0.60555600  0.59679500  0.24800700  1
  Mn  Mn37  1  0.61149700  0.59630100  0.75202100  1
  Mn  Mn38  1  0.35706700  0.40509500  0.24819400  1
  Mn  Mn39  1  0.36129000  0.40291900  0.75067800  1
  Mn  Mn40  1  0.36086200  0.90303900  0.75012300  1
  Mn  Mn41  1  0.85957400  0.40268000  0.24912300  1
  Mn  Mn42  1  0.85796300  0.40336300  0.75186300  1
  Mn  Mn43  1  0.86120700  0.90349500  0.24701600  1
  Fe  Fe44  1  0.00572800  0.99967300  0.00187100  1
  Fe  Fe45  1  0.00559200  0.99991600  0.49928900  1
  Fe  Fe46  1  0.00517700  0.50081100  0.00138500  1
  Fe  Fe47  1  0.00551600  0.49983100  0.49971100  1
  Fe  Fe48  1  0.50714700  0.00057800  0.00108000  1
  Fe  Fe49  1  0.50490700  0.00004900  0.49947300  1
  Fe  Fe50  1  0.50594700  0.50122000  0.00088000  1
  Fe  Fe51  1  0.50542300  0.49922900  0.49946900  1
  Fe  Fe52  1  0.25642600  0.25163400  0.00212000  1
  Fe  Fe53  1  0.25491400  0.24960500  0.49949200  1
  Fe  Fe54  1  0.25541700  0.75126100  0.00092300  1
  Fe  Fe55  1  0.25558400  0.74943800  0.49925600  1
  Fe  Fe56  1  0.75526900  0.24952100  0.00048200  1
  Fe  Fe57  1  0.75560900  0.25004800  0.49992900  1
  Fe  Fe58  1  0.75756200  0.75060400  0.00138900  1
  Fe  Fe59  1  0.75511200  0.74990300  0.49901800  1
  Fe  Fe60  1  0.10797500  0.09960600  0.24775200  1
  Fe  Fe61  1  0.11362100  0.60301800  0.24842900  1
  Fe  Fe62  1  0.35835100  0.89567100  0.24868100  1
  Fe  Fe63  1  0.86294900  0.89724200  0.75090500  1
  O  O64  1  0.11561000  0.11631800  0.47695400  1
  O  O65  1  0.11503000  0.11604100  0.97822900  1
  O  O66  1  0.11594000  0.61734500  0.47748600  1
  O  O67  1  0.11713200  0.61903300  0.98366900  1
  O  O68  1  0.61511600  0.11709300  0.47693200  1
  O  O69  1  0.61575500  0.11652500  0.97823300  1
  O  O70  1  0.61564600  0.61718100  0.47819800  1
  O  O71  1  0.61557500  0.61449400  0.97498600  1
  O  O72  1  0.14129000  0.38605300  0.02706000  1
  O  O73  1  0.13768100  0.38259200  0.52192200  1
  O  O74  1  0.13623400  0.87912600  0.02463100  1
  O  O75  1  0.13701100  0.88220800  0.52140100  1
  O  O76  1  0.63584300  0.38077700  0.02030800  1
  O  O77  1  0.63840000  0.38306000  0.52305300  1
  O  O78  1  0.64181500  0.88488200  0.02561000  1
  O  O79  1  0.63605000  0.88147900  0.51964000  1
  O  O80  1  0.36526500  0.11005300  0.47764600  1
  O  O81  1  0.36609300  0.11292600  0.97743300  1
  O  O82  1  0.36533200  0.60896400  0.47626600  1
  O  O83  1  0.36580100  0.61322800  0.98111900  1
  O  O84  1  0.86601200  0.11123700  0.47758600  1
  O  O85  1  0.86453400  0.11063400  0.98034400  1
  O  O86  1  0.86661100  0.61225800  0.47940200  1
  O  O87  1  0.86161600  0.60667400  0.97376300  1
  O  O88  1  0.38658400  0.39687700  0.02633100  1
  O  O89  1  0.38681800  0.38756900  0.52019500  1
  O  O90  1  0.38735500  0.89205800  0.02220700  1
  O  O91  1  0.38705400  0.88670100  0.51972600  1
  O  O92  1  0.88519800  0.38989700  0.02025500  1
  O  O93  1  0.88753200  0.39013400  0.52250900  1
  O  O94  1  0.89202800  0.89228800  0.02851200  1
  O  O95  1  0.88715800  0.89026200  0.52148800  1
  O  O96  1  0.09370600  0.11599800  0.13980300  1
  O  O97  1  0.09466800  0.11600200  0.63936700  1
  O  O98  1  0.09943600  0.61702400  0.13973000  1
  O  O99  1  0.09417100  0.61682700  0.63951800  1
  O  O100  1  0.60468100  0.11587100  0.13977700  1
  O  O101  1  0.59419100  0.11540300  0.63832400  1
  O  O102  1  0.59846700  0.61898000  0.13914500  1
  O  O103  1  0.59520500  0.61475100  0.64008100  1
  O  O104  1  0.45421700  0.38313000  0.35915300  1
  O  O105  1  0.46420100  0.38512600  0.86109700  1
  O  O106  1  0.44860500  0.88577400  0.35959200  1
  O  O107  1  0.45505800  0.88344100  0.86143800  1
  O  O108  1  0.95500700  0.38412000  0.36077500  1
  O  O109  1  0.95905700  0.38353100  0.86197400  1
  O  O110  1  0.95561700  0.88422200  0.35917700  1
  O  O111  1  0.95279400  0.88662700  0.86154400  1
  O  O112  1  0.34703800  0.26938800  0.14035000  1
  O  O113  1  0.34564800  0.27319100  0.63906400  1
  O  O114  1  0.34198700  0.77345400  0.13989100  1
  O  O115  1  0.34574700  0.77314200  0.63872700  1
  O  O116  1  0.84400100  0.27091100  0.13867900  1
  O  O117  1  0.84284500  0.27320600  0.64015900  1
  O  O118  1  0.85740200  0.77054100  0.13926100  1
  O  O119  1  0.84071400  0.77684700  0.63980800  1
  O  O120  1  0.19871700  0.22138600  0.35854200  1
  O  O121  1  0.20753800  0.22851000  0.86151700  1
  O  O122  1  0.20106500  0.72480200  0.35939300  1
  O  O123  1  0.20528800  0.72707200  0.86190800  1
  O  O124  1  0.70518100  0.22655500  0.36028700  1
  O  O125  1  0.70580400  0.22893600  0.86137300  1
  O  O126  1  0.70271500  0.72619900  0.35988500  1
  O  O127  1  0.70683600  0.72935300  0.86180000  1
  O  O128  1  0.41764500  0.06863500  0.25008200  1
  O  O129  1  0.41741100  0.07312400  0.74974500  1
  O  O130  1  0.41032500  0.57480600  0.24466500  1
  O  O131  1  0.41683700  0.57341300  0.74985900  1
  O  O132  1  0.91139300  0.07322700  0.24469400  1
  O  O133  1  0.91642000  0.07081500  0.75064500  1
  O  O134  1  0.91929700  0.57132600  0.24931700  1
  O  O135  1  0.91622500  0.57324300  0.75098000  1
  O  O136  1  0.16503800  0.42909700  0.24977000  1
  O  O137  1  0.16835300  0.42717400  0.75088500  1
  O  O138  1  0.16160900  0.92568700  0.24465500  1
  O  O139  1  0.16800000  0.92698600  0.75019700  1
  O  O140  1  0.66619700  0.42802300  0.24973400  1
  O  O141  1  0.66643700  0.42644800  0.75574400  1
  O  O142  1  0.66893300  0.92568500  0.24982600  1
  O  O143  1  0.66811800  0.92859100  0.75010400  1
