# generated using pymatgen
data_Sm2Fe2O5
_symmetry_space_group_name_H-M   'P 1'
_cell_length_a   8.68197216
_cell_length_b   8.68197216
_cell_length_c   8.68197216
_cell_angle_alpha   143.09214156
_cell_angle_beta   140.80580300
_cell_angle_gamma   54.92761934
_symmetry_Int_Tables_number   1
_chemical_formula_structural   Sm2Fe2O5
_chemical_formula_sum   'Sm4 Fe4 O10'
_cell_volume   246.59609873
_cell_formula_units_Z   2
loop_
 _symmetry_equiv_pos_site_id
 _symmetry_equiv_pos_as_xyz
  1  'x, y, z'
loop_
 _atom_site_type_symbol
 _atom_site_label
 _atom_site_symmetry_multiplicity
 _atom_site_fract_x
 _atom_site_fract_y
 _atom_site_fract_z
 _atom_site_occupancy
  Sm  Sm0  1  0.90037000  0.37393900  0.50019900  1
  Sm  Sm1  1  0.09963000  0.59982900  0.47356900  1
  Sm  Sm2  1  0.37374000  0.87393900  0.47356900  1
  Sm  Sm3  1  0.62626000  0.09982900  0.50019900  1
  Fe  Fe4  1  0.00000000  0.00655800  0.00655800  1
  Fe  Fe5  1  0.50000000  0.50655800  0.00655800  1
  Fe  Fe6  1  0.71465000  0.72464400  0.93929400  1
  Fe  Fe7  1  0.28535000  0.22464400  0.00999400  1
  O  O8  1  0.29151600  0.27461900  0.50493600  1
  O  O9  1  0.70848400  0.21342000  0.98310300  1
  O  O10  1  0.26968300  0.77461900  0.98310300  1
  O  O11  1  0.73031700  0.71342000  0.50493600  1
  O  O12  1  0.96547000  0.92748500  0.17364800  1
  O  O13  1  0.03453000  0.20817700  0.96201500  1
  O  O14  1  0.25383700  0.42748500  0.96201500  1
  O  O15  1  0.74616300  0.70817700  0.17364800  1
  O  O16  1  0.63783800  0.33532800  0.47316600  1
  O  O17  1  0.36216200  0.83532800  0.69749100  1
