# generated using pymatgen
data_Sr7CaTi7MnO24
_symmetry_space_group_name_H-M   'P 1'
_cell_length_a   7.84161978
_cell_length_b   7.84161978
_cell_length_c   7.84161921
_cell_angle_alpha   89.99061158
_cell_angle_beta   89.99061158
_cell_angle_gamma   89.99060719
_symmetry_Int_Tables_number   1
_chemical_formula_structural   Sr7CaTi7MnO24
_chemical_formula_sum   'Sr7 Ca1 Ti7 Mn1 O24'
_cell_volume   482.18899295
_cell_formula_units_Z   1
loop_
 _symmetry_equiv_pos_site_id
 _symmetry_equiv_pos_as_xyz
  1  'x, y, z'
loop_
 _atom_site_type_symbol
 _atom_site_label
 _atom_site_symmetry_multiplicity
 _atom_site_fract_x
 _atom_site_fract_y
 _atom_site_fract_z
 _atom_site_occupancy
  Sr  Sr0  1  0.24882000  0.24882000  0.75123700  1
  Sr  Sr1  1  0.75116500  0.24884200  0.75116500  1
  Sr  Sr2  1  0.75123700  0.24882000  0.24882000  1
  Sr  Sr3  1  0.24884200  0.75116500  0.75116500  1
  Sr  Sr4  1  0.75113700  0.75113700  0.75113700  1
  Sr  Sr5  1  0.24882000  0.75123700  0.24882000  1
  Sr  Sr6  1  0.75116500  0.75116500  0.24884200  1
  Ca  Ca7  1  0.24886800  0.24886800  0.24886800  1
  Ti  Ti8  1  0.49919200  0.00058600  0.00058600  1
  Ti  Ti9  1  0.00058600  0.00058600  0.49919200  1
  Ti  Ti10  1  0.49942100  0.00054100  0.49942100  1
  Ti  Ti11  1  0.00058600  0.49919200  0.00058600  1
  Ti  Ti12  1  0.49942100  0.49942100  0.00054100  1
  Ti  Ti13  1  0.00054100  0.49942100  0.49942100  1
  Ti  Ti14  1  0.49946200  0.49946200  0.49946200  1
  Mn  Mn15  1  0.00050000  0.00050000  0.00050000  1
  O  O16  1  0.00181200  0.24735600  0.00181200  1
  O  O17  1  0.49839700  0.24914100  0.00163000  1
  O  O18  1  0.00163000  0.24914100  0.49839700  1
  O  O19  1  0.49835200  0.24973900  0.49835200  1
  O  O20  1  0.00020200  0.75251200  0.00020200  1
  O  O21  1  0.49976300  0.75088800  0.00025200  1
  O  O22  1  0.00025200  0.75088800  0.49976300  1
  O  O23  1  0.49974800  0.75025900  0.49974800  1
  O  O24  1  0.00020200  0.00020200  0.75251200  1
  O  O25  1  0.49976300  0.00025200  0.75088800  1
  O  O26  1  0.00181200  0.00181200  0.24735600  1
  O  O27  1  0.49839700  0.00163000  0.24914100  1
  O  O28  1  0.00025200  0.49976300  0.75088800  1
  O  O29  1  0.49974800  0.49974800  0.75025900  1
  O  O30  1  0.00163000  0.49839700  0.24914100  1
  O  O31  1  0.49835200  0.49835200  0.24973900  1
  O  O32  1  0.24735600  0.00181200  0.00181200  1
  O  O33  1  0.75251200  0.00020200  0.00020200  1
  O  O34  1  0.24914100  0.00163000  0.49839700  1
  O  O35  1  0.75088800  0.00025200  0.49976300  1
  O  O36  1  0.24914100  0.49839700  0.00163000  1
  O  O37  1  0.75088800  0.49976300  0.00025200  1
  O  O38  1  0.24973900  0.49835200  0.49835200  1
  O  O39  1  0.75025900  0.49974800  0.49974800  1
