# generated using pymatgen
data_K5Na3Ta8O24
_symmetry_space_group_name_H-M   'P 1'
_cell_length_a   8.03092300
_cell_length_b   8.03092300
_cell_length_c   8.02972500
_cell_angle_alpha   90.00000000
_cell_angle_beta   90.00000000
_cell_angle_gamma   90.00000000
_symmetry_Int_Tables_number   1
_chemical_formula_structural   K5Na3Ta8O24
_chemical_formula_sum   'K5 Na3 Ta8 O24'
_cell_volume   517.88292926
_cell_formula_units_Z   1
loop_
 _symmetry_equiv_pos_site_id
 _symmetry_equiv_pos_as_xyz
  1  'x, y, z'
loop_
 _atom_site_type_symbol
 _atom_site_label
 _atom_site_symmetry_multiplicity
 _atom_site_fract_x
 _atom_site_fract_y
 _atom_site_fract_z
 _atom_site_occupancy
  K  K0  1  0.00000000  0.00000000  0.00000000  1
  K  K1  1  0.50000000  0.00000000  0.00000000  1
  K  K2  1  0.00000000  0.50000000  0.00000000  1
  K  K3  1  0.50000000  0.50000000  0.00000000  1
  K  K4  1  0.50000000  0.50000000  0.50000000  1
  Na  Na5  1  0.00000000  0.00000000  0.50000000  1
  Na  Na6  1  0.50000000  0.00000000  0.50000000  1
  Na  Na7  1  0.00000000  0.50000000  0.50000000  1
  Ta  Ta8  1  0.75038000  0.75038000  0.74885900  1
  Ta  Ta9  1  0.75038000  0.75038000  0.25114100  1
  Ta  Ta10  1  0.24962000  0.75038000  0.74885900  1
  Ta  Ta11  1  0.24962000  0.75038000  0.25114100  1
  Ta  Ta12  1  0.75038000  0.24962000  0.74885900  1
  Ta  Ta13  1  0.75038000  0.24962000  0.25114100  1
  Ta  Ta14  1  0.24962000  0.24962000  0.74885900  1
  Ta  Ta15  1  0.24962000  0.24962000  0.25114100  1
  O  O16  1  0.75014100  0.00000000  0.74791600  1
  O  O17  1  0.75014100  0.00000000  0.25208400  1
  O  O18  1  0.24985900  0.00000000  0.74791600  1
  O  O19  1  0.24985900  0.00000000  0.25208400  1
  O  O20  1  0.75098700  0.50000000  0.74873500  1
  O  O21  1  0.75098700  0.50000000  0.25126500  1
  O  O22  1  0.24901300  0.50000000  0.74873500  1
  O  O23  1  0.24901300  0.50000000  0.25126500  1
  O  O24  1  0.00000000  0.75014100  0.74791600  1
  O  O25  1  0.00000000  0.75014100  0.25208400  1
  O  O26  1  0.50000000  0.75098700  0.74873500  1
  O  O27  1  0.50000000  0.75098700  0.25126500  1
  O  O28  1  0.00000000  0.24985900  0.74791600  1
  O  O29  1  0.00000000  0.24985900  0.25208400  1
  O  O30  1  0.50000000  0.24901300  0.74873500  1
  O  O31  1  0.50000000  0.24901300  0.25126500  1
  O  O32  1  0.75014200  0.75014200  0.00000000  1
  O  O33  1  0.75096200  0.75096200  0.50000000  1
  O  O34  1  0.24985800  0.75014200  0.00000000  1
  O  O35  1  0.24903800  0.75096200  0.50000000  1
  O  O36  1  0.75014200  0.24985800  0.00000000  1
  O  O37  1  0.75096200  0.24903800  0.50000000  1
  O  O38  1  0.24985800  0.24985800  0.00000000  1
  O  O39  1  0.24903800  0.24903800  0.50000000  1
