# generated using pymatgen
data_Mg2Ti2O5
_symmetry_space_group_name_H-M   'P 1'
_cell_length_a   7.76880683
_cell_length_b   7.76880683
_cell_length_c   7.76880683
_cell_angle_alpha   139.01534546
_cell_angle_beta   138.02615314
_cell_angle_gamma   60.11006523
_symmetry_Int_Tables_number   1
_chemical_formula_structural   Mg2Ti2O5
_chemical_formula_sum   'Mg4 Ti4 O10'
_cell_volume   203.54154276
_cell_formula_units_Z   2
loop_
 _symmetry_equiv_pos_site_id
 _symmetry_equiv_pos_as_xyz
  1  'x, y, z'
loop_
 _atom_site_type_symbol
 _atom_site_label
 _atom_site_symmetry_multiplicity
 _atom_site_fract_x
 _atom_site_fract_y
 _atom_site_fract_z
 _atom_site_occupancy
  Mg  Mg0  1  0.43323100  0.85541100  0.52809900  1
  Mg  Mg1  1  0.67268800  0.14458900  0.57782000  1
  Mg  Mg2  1  0.93323100  0.40513100  0.57782000  1
  Mg  Mg3  1  0.17268800  0.59486900  0.52809900  1
  Ti  Ti4  1  0.98066600  0.00000000  0.98066600  1
  Ti  Ti5  1  0.48066600  0.50000000  0.98066600  1
  Ti  Ti6  1  0.82363200  0.78747700  0.11110900  1
  Ti  Ti7  1  0.32363200  0.21252300  0.03615500  1
  O  O8  1  0.74929600  0.79402700  0.46592100  1
  O  O9  1  0.67189300  0.20597300  0.95526800  1
  O  O10  1  0.24929600  0.78337500  0.95526800  1
  O  O11  1  0.17189300  0.21662500  0.46592100  1
  O  O12  1  0.77063600  0.72006200  0.77531600  1
  O  O13  1  0.05525500  0.27993800  0.05057400  1
  O  O14  1  0.27063600  0.49532000  0.05057400  1
  O  O15  1  0.55525500  0.50468000  0.77531600  1
  O  O16  1  0.17870400  0.87765100  0.55635500  1
  O  O17  1  0.67870400  0.12234900  0.30105300  1
