# generated using pymatgen
data_La5Sm3Cr8O24
_symmetry_space_group_name_H-M   'P 1'
_cell_length_a   7.84144100
_cell_length_b   7.84144100
_cell_length_c   7.84139500
_cell_angle_alpha   90.00000000
_cell_angle_beta   90.00000000
_cell_angle_gamma   90.00000000
_symmetry_Int_Tables_number   1
_chemical_formula_structural   La5Sm3Cr8O24
_chemical_formula_sum   'La5 Sm3 Cr8 O24'
_cell_volume   482.15324017
_cell_formula_units_Z   1
loop_
 _symmetry_equiv_pos_site_id
 _symmetry_equiv_pos_as_xyz
  1  'x, y, z'
loop_
 _atom_site_type_symbol
 _atom_site_label
 _atom_site_symmetry_multiplicity
 _atom_site_fract_x
 _atom_site_fract_y
 _atom_site_fract_z
 _atom_site_occupancy
  La  La0  1  0.00000000  0.50000000  0.00000000  1
  La  La1  1  0.50000000  0.50000000  0.00000000  1
  La  La2  1  0.00000000  0.00000000  0.00000000  1
  La  La3  1  0.50000000  0.00000000  0.00000000  1
  La  La4  1  0.00000000  0.00000000  0.50000000  1
  Sm  Sm5  1  0.00000000  0.50000000  0.50000000  1
  Sm  Sm6  1  0.50000000  0.50000000  0.50000000  1
  Sm  Sm7  1  0.50000000  0.00000000  0.50000000  1
  Cr  Cr8  1  0.74979000  0.25021000  0.74935200  1
  Cr  Cr9  1  0.25021000  0.25021000  0.74935200  1
  Cr  Cr10  1  0.74979000  0.74979000  0.74935200  1
  Cr  Cr11  1  0.25021000  0.74979000  0.74935200  1
  Cr  Cr12  1  0.74979000  0.25021000  0.25064800  1
  Cr  Cr13  1  0.25021000  0.25021000  0.25064800  1
  Cr  Cr14  1  0.74979000  0.74979000  0.25064800  1
  Cr  Cr15  1  0.25021000  0.74979000  0.25064800  1
  O  O16  1  0.74998300  0.25001700  0.00000000  1
  O  O17  1  0.25001700  0.25001700  0.00000000  1
  O  O18  1  0.74998300  0.74998300  0.00000000  1
  O  O19  1  0.25001700  0.74998300  0.00000000  1
  O  O20  1  0.74890900  0.25109100  0.50000000  1
  O  O21  1  0.25109100  0.25109100  0.50000000  1
  O  O22  1  0.74890900  0.74890900  0.50000000  1
  O  O23  1  0.25109100  0.74890900  0.50000000  1
  O  O24  1  0.74997800  0.50000000  0.74779600  1
  O  O25  1  0.25002200  0.50000000  0.74779600  1
  O  O26  1  0.74889500  0.00000000  0.74887000  1
  O  O27  1  0.25110500  0.00000000  0.74887000  1
  O  O28  1  0.74997800  0.50000000  0.25220400  1
  O  O29  1  0.25002200  0.50000000  0.25220400  1
  O  O30  1  0.74889500  0.00000000  0.25113000  1
  O  O31  1  0.25110500  0.00000000  0.25113000  1
  O  O32  1  0.00000000  0.25110500  0.74887000  1
  O  O33  1  0.50000000  0.25002200  0.74779600  1
  O  O34  1  0.00000000  0.74889500  0.74887000  1
  O  O35  1  0.50000000  0.74997800  0.74779600  1
  O  O36  1  0.00000000  0.25110500  0.25113000  1
  O  O37  1  0.50000000  0.25002200  0.25220400  1
  O  O38  1  0.00000000  0.74889500  0.25113000  1
  O  O39  1  0.50000000  0.74997800  0.25220400  1
