# generated using pymatgen
data_La7SmTiV7O20
_symmetry_space_group_name_H-M   'P 1'
_cell_length_a   11.04113834
_cell_length_b   11.46979650
_cell_length_c   18.05148665
_cell_angle_alpha   108.64443885
_cell_angle_beta   107.90779956
_cell_angle_gamma   90.15536239
_symmetry_Int_Tables_number   1
_chemical_formula_structural   La7SmTiV7O20
_chemical_formula_sum   'La28 Sm4 Ti4 V28 O80'
_cell_volume   2048.14717333
_cell_formula_units_Z   4
loop_
 _symmetry_equiv_pos_site_id
 _symmetry_equiv_pos_as_xyz
  1  'x, y, z'
loop_
 _atom_site_type_symbol
 _atom_site_label
 _atom_site_symmetry_multiplicity
 _atom_site_fract_x
 _atom_site_fract_y
 _atom_site_fract_z
 _atom_site_occupancy
  La  La0  1  0.31202600  0.06554500  0.11904100  1
  La  La1  1  0.31412600  0.05205800  0.61498000  1
  La  La2  1  0.31118100  0.56429900  0.61888800  1
  La  La3  1  0.80914900  0.05917600  0.62548900  1
  La  La4  1  0.80065600  0.56092900  0.11528300  1
  La  La5  1  0.81592500  0.55976900  0.62062700  1
  La  La6  1  0.19958700  0.44094600  0.38688700  1
  La  La7  1  0.18624400  0.43437900  0.87709600  1
  La  La8  1  0.19146900  0.94074800  0.37937100  1
  La  La9  1  0.19248400  0.93914400  0.87596700  1
  La  La10  1  0.69368700  0.43690700  0.38553700  1
  La  La11  1  0.70499300  0.94657100  0.38833400  1
  La  La12  1  0.69304000  0.93447300  0.87911300  1
  La  La13  1  0.06456100  0.30557800  0.11457100  1
  La  La14  1  0.05289700  0.30886300  0.62330200  1
  La  La15  1  0.06385700  0.81046900  0.62322600  1
  La  La16  1  0.55329300  0.30873600  0.11783200  1
  La  La17  1  0.56700600  0.30638100  0.61415800  1
  La  La18  1  0.56034500  0.80779500  0.11522900  1
  La  La19  1  0.56621300  0.80258600  0.62069700  1
  La  La20  1  0.44875200  0.19708800  0.37989300  1
  La  La21  1  0.45326300  0.19962600  0.88647100  1
  La  La22  1  0.44598700  0.69640100  0.38766100  1
  La  La23  1  0.43075300  0.68800900  0.87955400  1
  La  La24  1  0.94518300  0.19551000  0.38069300  1
  La  La25  1  0.93057200  0.18644400  0.87489900  1
  La  La26  1  0.94864000  0.69787800  0.38938800  1
  La  La27  1  0.94679100  0.68200800  0.87612000  1
  Sm  Sm28  1  0.31011900  0.56041500  0.10619800  1
  Sm  Sm29  1  0.81623500  0.06635900  0.11638200  1
  Sm  Sm30  1  0.69678200  0.44139900  0.88644200  1
  Sm  Sm31  1  0.05715200  0.79887900  0.11190500  1
  Ti  Ti32  1  0.00384700  0.99687700  0.00023800  1
  Ti  Ti33  1  0.00309400  0.49937000  0.00052600  1
  Ti  Ti34  1  0.50555700  0.00093400  0.00033200  1
  Ti  Ti35  1  0.75416900  0.75212800  0.00059100  1
  V  V36  1  0.00618800  0.00144800  0.50176000  1
  V  V37  1  0.00553700  0.49803700  0.49910900  1
  V  V38  1  0.50236600  0.99827000  0.49642000  1
  V  V39  1  0.50615400  0.50004300  0.99897100  1
  V  V40  1  0.50398500  0.50039400  0.49991300  1
  V  V41  1  0.25209400  0.24846400  0.99739400  1
  V  V42  1  0.25298500  0.24765600  0.50026900  1
  V  V43  1  0.25384400  0.75344600  0.00309700  1
  V  V44  1  0.25482300  0.74973700  0.49867800  1
  V  V45  1  0.75970600  0.24934600  0.00287000  1
  V  V46  1  0.75406400  0.24931200  0.49975800  1
  V  V47  1  0.75430200  0.75038500  0.49959000  1
  V  V48  1  0.12306200  0.11532300  0.24860000  1
  V  V49  1  0.10431600  0.12546400  0.75002500  1
  V  V50  1  0.09888500  0.61765600  0.24749400  1
  V  V51  1  0.11549500  0.62566500  0.75029200  1
  V  V52  1  0.62426300  0.12072100  0.24679000  1
  V  V53  1  0.62560900  0.12205200  0.74967600  1
  V  V54  1  0.60100600  0.61191200  0.25253500  1
  V  V55  1  0.62129200  0.62508500  0.75378500  1
  V  V56  1  0.35548500  0.38790400  0.24919600  1
  V  V57  1  0.37214900  0.38850200  0.74527700  1
  V  V58  1  0.36646600  0.89353400  0.25036700  1
  V  V59  1  0.37100200  0.88016300  0.75200000  1
  V  V60  1  0.85092500  0.38447000  0.24802600  1
  V  V61  1  0.86283000  0.35993700  0.75243200  1
  V  V62  1  0.87285300  0.88392700  0.24959500  1
  V  V63  1  0.86774500  0.86081900  0.75316400  1
  O  O64  1  0.11873100  0.11050600  0.47131700  1
  O  O65  1  0.11231800  0.10500400  0.97527500  1
  O  O66  1  0.11990300  0.61309000  0.47227600  1
  O  O67  1  0.11439000  0.61491200  0.98321200  1
  O  O68  1  0.61559900  0.11679900  0.47218600  1
  O  O69  1  0.61792700  0.10744900  0.97601700  1
  O  O70  1  0.61687400  0.61639600  0.47256700  1
  O  O71  1  0.62216100  0.62009500  0.97834500  1
  O  O72  1  0.13345800  0.38843600  0.01414500  1
  O  O73  1  0.14420500  0.38112000  0.53213800  1
  O  O74  1  0.13799700  0.89264200  0.03308200  1
  O  O75  1  0.13742000  0.87645200  0.51888600  1
  O  O76  1  0.64322600  0.38508100  0.03301200  1
  O  O77  1  0.64199300  0.38308100  0.52200200  1
  O  O78  1  0.64157600  0.88759600  0.01719300  1
  O  O79  1  0.64083400  0.88173000  0.52495800  1
  O  O80  1  0.36047000  0.11203800  0.46603800  1
  O  O81  1  0.37640600  0.11362100  0.98590900  1
  O  O82  1  0.36672800  0.61725500  0.47684900  1
  O  O83  1  0.35726300  0.60455700  0.96716500  1
  O  O84  1  0.87044400  0.12109200  0.47847500  1
  O  O85  1  0.86765900  0.10264000  0.97550800  1
  O  O86  1  0.86398900  0.61443000  0.47224200  1
  O  O87  1  0.87184700  0.61846100  0.98927300  1
  O  O88  1  0.39169500  0.39323500  0.03048700  1
  O  O89  1  0.38633000  0.38280400  0.52234500  1
  O  O90  1  0.39417500  0.89250200  0.02368600  1
  O  O91  1  0.39117500  0.88233200  0.52375000  1
  O  O92  1  0.89406600  0.39777900  0.02798000  1
  O  O93  1  0.88891700  0.38648300  0.52688300  1
  O  O94  1  0.89234700  0.88841400  0.02753300  1
  O  O95  1  0.89032400  0.88813300  0.52896600  1
  O  O96  1  0.05493000  0.10124300  0.12182500  1
  O  O97  1  0.09188400  0.10711700  0.63111000  1
  O  O98  1  0.08590600  0.60277300  0.12624600  1
  O  O99  1  0.06729500  0.60743000  0.62632100  1
  O  O100  1  0.58044500  0.09411800  0.12070300  1
  O  O101  1  0.56567100  0.10570800  0.62612200  1
  O  O102  1  0.56995800  0.61129200  0.13201200  1
  O  O103  1  0.56800700  0.60158700  0.62856500  1
  O  O104  1  0.43961000  0.39883900  0.37066700  1
  O  O105  1  0.47094900  0.39436100  0.86724200  1
  O  O106  1  0.44548200  0.89042200  0.36527700  1
  O  O107  1  0.43648500  0.90135900  0.87900800  1
  O  O108  1  0.94851800  0.39357600  0.36856100  1
  O  O109  1  0.92790200  0.41159200  0.88204100  1
  O  O110  1  0.93027300  0.89655600  0.36981800  1
  O  O111  1  0.93950500  0.89303700  0.88189400  1
  O  O112  1  0.30307900  0.27406600  0.12593200  1
  O  O113  1  0.33645300  0.26636100  0.63066000  1
  O  O114  1  0.33664300  0.77023800  0.13109400  1
  O  O115  1  0.31695600  0.77455500  0.62608800  1
  O  O116  1  0.84494800  0.27112900  0.13228900  1
  O  O117  1  0.80793800  0.26690700  0.62488700  1
  O  O118  1  0.81286200  0.77916200  0.12275000  1
  O  O119  1  0.81418300  0.76685200  0.62521900  1
  O  O120  1  0.17492400  0.22705200  0.36989900  1
  O  O121  1  0.22129300  0.22777000  0.87020500  1
  O  O122  1  0.20028700  0.72807000  0.36859300  1
  O  O123  1  0.17911000  0.73375500  0.87571600  1
  O  O124  1  0.69362900  0.22560500  0.37297300  1
  O  O125  1  0.69671700  0.23504400  0.87504100  1
  O  O126  1  0.69429900  0.72995500  0.36915100  1
  O  O127  1  0.70492400  0.72393800  0.88072700  1
  O  O128  1  0.44283400  0.05622400  0.24704500  1
  O  O129  1  0.44058400  0.06529100  0.75242700  1
  O  O130  1  0.40811400  0.57152400  0.24128200  1
  O  O131  1  0.44087700  0.56118600  0.75289900  1
  O  O132  1  0.93441300  0.05535300  0.24178100  1
  O  O133  1  0.94441100  0.03307800  0.75602300  1
  O  O134  1  0.91573800  0.56553700  0.25016100  1
  O  O135  1  0.94337700  0.53319600  0.74983600  1
  O  O136  1  0.16659000  0.44231200  0.25019200  1
  O  O137  1  0.19938700  0.45378000  0.75313900  1
  O  O138  1  0.17848900  0.93270200  0.23607100  1
  O  O139  1  0.19512900  0.95655000  0.75012700  1
  O  O140  1  0.67340500  0.44681700  0.25153500  1
  O  O141  1  0.67689500  0.43847900  0.75622300  1
  O  O142  1  0.68286200  0.93466500  0.25011000  1
  O  O143  1  0.69631500  0.95132100  0.75280700  1
