# generated using pymatgen
data_LaSmCo2O5
_symmetry_space_group_name_H-M   'P 1'
_cell_length_a   10.83864724
_cell_length_b   11.55099621
_cell_length_c   17.41990923
_cell_angle_alpha   109.39895954
_cell_angle_beta   108.12266068
_cell_angle_gamma   90.02367556
_symmetry_Int_Tables_number   1
_chemical_formula_structural   LaSmCo2O5
_chemical_formula_sum   'La16 Sm16 Co32 O80'
_cell_volume   1941.92981622
_cell_formula_units_Z   16
loop_
 _symmetry_equiv_pos_site_id
 _symmetry_equiv_pos_as_xyz
  1  'x, y, z'
loop_
 _atom_site_type_symbol
 _atom_site_label
 _atom_site_symmetry_multiplicity
 _atom_site_fract_x
 _atom_site_fract_y
 _atom_site_fract_z
 _atom_site_occupancy
  La  La0  1  0.30699900  0.06519500  0.60938500  1
  La  La1  1  0.30878600  0.56816900  0.61220000  1
  La  La2  1  0.80564300  0.06587700  0.61012900  1
  La  La3  1  0.80610900  0.56776600  0.61258900  1
  La  La4  1  0.19535500  0.43328800  0.38737300  1
  La  La5  1  0.19398600  0.43701500  0.89106200  1
  La  La6  1  0.69421800  0.43320500  0.38758400  1
  La  La7  1  0.69094900  0.93146500  0.38619400  1
  La  La8  1  0.05682600  0.29380200  0.61042400  1
  La  La9  1  0.05492200  0.79558400  0.61170900  1
  La  La10  1  0.55783400  0.29555700  0.61233900  1
  La  La11  1  0.44354700  0.20376200  0.38662800  1
  La  La12  1  0.44701300  0.20593600  0.89009900  1
  La  La13  1  0.94505900  0.20413500  0.38637900  1
  La  La14  1  0.94403500  0.20521000  0.89011600  1
  La  La15  1  0.94510600  0.70603800  0.38738100  1
  Sm  Sm16  1  0.30103300  0.06809300  0.10795600  1
  Sm  Sm17  1  0.30237500  0.56874500  0.11177400  1
  Sm  Sm18  1  0.80036200  0.06585500  0.10683300  1
  Sm  Sm19  1  0.80146900  0.56834100  0.10858700  1
  Sm  Sm20  1  0.19535600  0.92994100  0.38852500  1
  Sm  Sm21  1  0.19357600  0.93196400  0.89289600  1
  Sm  Sm22  1  0.69518100  0.43548700  0.89222700  1
  Sm  Sm23  1  0.69255000  0.93024900  0.89059400  1
  Sm  Sm24  1  0.05161500  0.29101000  0.10918100  1
  Sm  Sm25  1  0.04955300  0.79201100  0.10969500  1
  Sm  Sm26  1  0.55152100  0.29144700  0.10880700  1
  Sm  Sm27  1  0.55134400  0.79047700  0.10790400  1
  Sm  Sm28  1  0.55401900  0.79117300  0.60895500  1
  Sm  Sm29  1  0.44367900  0.70933000  0.39077900  1
  Sm  Sm30  1  0.44577500  0.71029000  0.89328500  1
  Sm  Sm31  1  0.94155400  0.71116200  0.89405100  1
  Co  Co32  1  0.00483400  0.99954300  0.00147300  1
  Co  Co33  1  0.00448100  0.99932900  0.49795500  1
  Co  Co34  1  0.00573700  0.50167900  0.00222200  1
  Co  Co35  1  0.00498600  0.49974600  0.49961600  1
  Co  Co36  1  0.50606200  0.99962000  0.00131500  1
  Co  Co37  1  0.50462100  0.99913300  0.49947600  1
  Co  Co38  1  0.50642100  0.50130800  0.00184400  1
  Co  Co39  1  0.50442700  0.50000400  0.49872600  1
  Co  Co40  1  0.25630700  0.25185400  0.00216100  1
  Co  Co41  1  0.25489800  0.24842200  0.49839400  1
  Co  Co42  1  0.25563200  0.75160800  0.00219600  1
  Co  Co43  1  0.25510400  0.74943900  0.49934400  1
  Co  Co44  1  0.75612700  0.25099900  0.00168700  1
  Co  Co45  1  0.75437900  0.25002300  0.49928400  1
  Co  Co46  1  0.75418400  0.74948700  0.00070600  1
  Co  Co47  1  0.75383200  0.74941800  0.49907700  1
  Co  Co48  1  0.10502200  0.08966200  0.24668700  1
  Co  Co49  1  0.10966100  0.09258500  0.75258900  1
  Co  Co50  1  0.10687200  0.59353400  0.24667800  1
  Co  Co51  1  0.10865100  0.59792000  0.75336600  1
  Co  Co52  1  0.60443200  0.09066200  0.24551700  1
  Co  Co53  1  0.60875000  0.09162900  0.75166800  1
  Co  Co54  1  0.60264300  0.59226400  0.24646100  1
  Co  Co55  1  0.60889800  0.59775500  0.75337900  1
  Co  Co56  1  0.35523000  0.40709500  0.24694100  1
  Co  Co57  1  0.36109300  0.40973800  0.75260300  1
  Co  Co58  1  0.35321400  0.90343600  0.24714100  1
  Co  Co59  1  0.36026200  0.90493300  0.75270300  1
  Co  Co60  1  0.85491400  0.40481800  0.24551600  1
  Co  Co61  1  0.85714400  0.41050900  0.75348400  1
  Co  Co62  1  0.85668500  0.90443300  0.24607400  1
  Co  Co63  1  0.85555700  0.90465000  0.75257200  1
  O  O64  1  0.11896100  0.11464000  0.47869300  1
  O  O65  1  0.11949600  0.11804000  0.98345000  1
  O  O66  1  0.11901600  0.61882900  0.48213800  1
  O  O67  1  0.11457900  0.62282400  0.98204800  1
  O  O68  1  0.61790700  0.11823700  0.48186200  1
  O  O69  1  0.61945500  0.11711200  0.98247500  1
  O  O70  1  0.61474400  0.62131700  0.48079400  1
  O  O71  1  0.61873800  0.62049800  0.97937800  1
  O  O72  1  0.13866500  0.38402600  0.02549500  1
  O  O73  1  0.13667900  0.38078500  0.51730700  1
  O  O74  1  0.13591600  0.88193200  0.02136700  1
  O  O75  1  0.13656400  0.88085400  0.51519900  1
  O  O76  1  0.63830900  0.38342500  0.02281000  1
  O  O77  1  0.63681100  0.38268400  0.51807700  1
  O  O78  1  0.63757300  0.87698200  0.01971600  1
  O  O79  1  0.63361500  0.87828400  0.51903600  1
  O  O80  1  0.36406000  0.10745700  0.47778700  1
  O  O81  1  0.36535700  0.10934500  0.98167700  1
  O  O82  1  0.37079400  0.61629100  0.48082800  1
  O  O83  1  0.37101400  0.61593800  0.98294000  1
  O  O84  1  0.86817300  0.11309000  0.48136600  1
  O  O85  1  0.86439900  0.10780000  0.98069400  1
  O  O86  1  0.86820200  0.61341100  0.48198200  1
  O  O87  1  0.86412200  0.61317500  0.98054200  1
  O  O88  1  0.38879900  0.39241800  0.02513400  1
  O  O89  1  0.38651000  0.38668700  0.51779600  1
  O  O90  1  0.38693300  0.88960500  0.02089400  1
  O  O91  1  0.38776700  0.88285900  0.51620100  1
  O  O92  1  0.88627500  0.39155000  0.02223900  1
  O  O93  1  0.88648900  0.38645900  0.51774600  1
  O  O94  1  0.88408300  0.88607400  0.02017600  1
  O  O95  1  0.88580700  0.88568400  0.51634300  1
  O  O96  1  0.10217200  0.11587000  0.14170600  1
  O  O97  1  0.09152700  0.11039300  0.64229200  1
  O  O98  1  0.10183600  0.61785400  0.14089000  1
  O  O99  1  0.09079800  0.61401700  0.64250500  1
  O  O100  1  0.60170800  0.11582200  0.14047800  1
  O  O101  1  0.59031300  0.11223900  0.64214500  1
  O  O102  1  0.60114600  0.61710900  0.14112600  1
  O  O103  1  0.58947300  0.61460900  0.64206900  1
  O  O104  1  0.44688800  0.38740200  0.35694500  1
  O  O105  1  0.45944600  0.38820700  0.86027000  1
  O  O106  1  0.44808000  0.88607600  0.35784200  1
  O  O107  1  0.46212800  0.88488500  0.86021100  1
  O  O108  1  0.94704500  0.38853900  0.35663900  1
  O  O109  1  0.95141600  0.38753500  0.86116300  1
  O  O110  1  0.95629000  0.88796900  0.35600500  1
  O  O111  1  0.96019500  0.88560500  0.85998700  1
  O  O112  1  0.35299900  0.27552100  0.14214000  1
  O  O113  1  0.34148300  0.28064500  0.64185600  1
  O  O114  1  0.35146400  0.77478200  0.14155000  1
  O  O115  1  0.34880100  0.78126000  0.64184200  1
  O  O116  1  0.85201200  0.27376400  0.14041400  1
  O  O117  1  0.83930400  0.28200300  0.64315000  1
  O  O118  1  0.85365800  0.77423700  0.14212600  1
  O  O119  1  0.83951300  0.77987000  0.64150500  1
  O  O120  1  0.19693900  0.22023800  0.35659500  1
  O  O121  1  0.20160100  0.22486400  0.86031200  1
  O  O122  1  0.20511600  0.72037800  0.35676400  1
  O  O123  1  0.21216000  0.72507700  0.86034600  1
  O  O124  1  0.69628300  0.21864100  0.35674700  1
  O  O125  1  0.70045600  0.22527400  0.85961600  1
  O  O126  1  0.69759100  0.71922200  0.35698800  1
  O  O127  1  0.71162800  0.72583000  0.85812700  1
  O  O128  1  0.41453000  0.06618600  0.24371500  1
  O  O129  1  0.42011500  0.06805900  0.75073700  1
  O  O130  1  0.41473500  0.57438900  0.24977100  1
  O  O131  1  0.42197400  0.57624300  0.75636800  1
  O  O132  1  0.91447300  0.06793300  0.24293700  1
  O  O133  1  0.92000500  0.06689900  0.75050800  1
  O  O134  1  0.91669100  0.56836100  0.24420600  1
  O  O135  1  0.92230000  0.57582900  0.75728500  1
  O  O136  1  0.16474900  0.42668800  0.24373800  1
  O  O137  1  0.17173300  0.43309500  0.75099000  1
  O  O138  1  0.16486500  0.92509800  0.24903800  1
  O  O139  1  0.17368200  0.93055900  0.75675300  1
  O  O140  1  0.66460100  0.42673900  0.24379700  1
  O  O141  1  0.66942300  0.43358900  0.75579800  1
  O  O142  1  0.66617700  0.92563300  0.24406500  1
  O  O143  1  0.66626600  0.92583500  0.75125700  1
