# generated using pymatgen
data_La4Sm4Co7AgO20
_symmetry_space_group_name_H-M   'P 1'
_cell_length_a   10.78209241
_cell_length_b   11.43529721
_cell_length_c   17.66035454
_cell_angle_alpha   108.91079619
_cell_angle_beta   107.74314288
_cell_angle_gamma   89.99743854
_symmetry_Int_Tables_number   1
_chemical_formula_structural   La4Sm4Co7AgO20
_chemical_formula_sum   'La16 Sm16 Co28 Ag4 O80'
_cell_volume   1950.13042623
_cell_formula_units_Z   4
loop_
 _symmetry_equiv_pos_site_id
 _symmetry_equiv_pos_as_xyz
  1  'x, y, z'
loop_
 _atom_site_type_symbol
 _atom_site_label
 _atom_site_symmetry_multiplicity
 _atom_site_fract_x
 _atom_site_fract_y
 _atom_site_fract_z
 _atom_site_occupancy
  La  La0  1  0.30920900  0.06228900  0.61123800  1
  La  La1  1  0.31047300  0.56541700  0.61585000  1
  La  La2  1  0.80502300  0.06583100  0.60983900  1
  La  La3  1  0.80877600  0.56684500  0.61396500  1
  La  La4  1  0.19676300  0.43335900  0.38654600  1
  La  La5  1  0.19419900  0.43779400  0.88740300  1
  La  La6  1  0.69659500  0.43305000  0.38696600  1
  La  La7  1  0.69225200  0.93267000  0.38455000  1
  La  La8  1  0.05827600  0.29618200  0.61150000  1
  La  La9  1  0.05739500  0.80189200  0.61420800  1
  La  La10  1  0.55891700  0.29702900  0.61317300  1
  La  La11  1  0.44493100  0.20368800  0.38595800  1
  La  La12  1  0.44523200  0.19953700  0.88802500  1
  La  La13  1  0.94485600  0.20092300  0.38489000  1
  La  La14  1  0.94499000  0.20556200  0.89030700  1
  La  La15  1  0.94474400  0.70213300  0.38623800  1
  Sm  Sm16  1  0.30123200  0.06896200  0.10896300  1
  Sm  Sm17  1  0.30197500  0.56678400  0.11070100  1
  Sm  Sm18  1  0.80385100  0.06719100  0.11023900  1
  Sm  Sm19  1  0.80458600  0.56372400  0.11045400  1
  Sm  Sm20  1  0.19644000  0.93038100  0.38691600  1
  Sm  Sm21  1  0.19215000  0.93680600  0.89138200  1
  Sm  Sm22  1  0.69383900  0.43422200  0.89053500  1
  Sm  Sm23  1  0.69293700  0.93396700  0.89037200  1
  Sm  Sm24  1  0.05309700  0.29297900  0.11008400  1
  Sm  Sm25  1  0.05583900  0.79354300  0.11113600  1
  Sm  Sm26  1  0.55329100  0.29348400  0.10997100  1
  Sm  Sm27  1  0.55336700  0.79336600  0.11061500  1
  Sm  Sm28  1  0.55675100  0.79181200  0.61032100  1
  Sm  Sm29  1  0.44603700  0.70805300  0.38869600  1
  Sm  Sm30  1  0.44538500  0.70566300  0.89119700  1
  Sm  Sm31  1  0.94226300  0.70840800  0.89137300  1
  Co  Co32  1  0.00599300  0.00040300  0.00229000  1
  Co  Co33  1  0.00776200  0.99961700  0.50073700  1
  Co  Co34  1  0.00453800  0.50155700  0.00055300  1
  Co  Co35  1  0.00415100  0.49889400  0.49533100  1
  Co  Co36  1  0.50922500  0.00101800  0.00700600  1
  Co  Co37  1  0.50337200  0.99746200  0.49692500  1
  Co  Co38  1  0.50963400  0.50255500  0.00602400  1
  Co  Co39  1  0.50408500  0.50050500  0.49735800  1
  Co  Co40  1  0.25740000  0.25308100  0.00358500  1
  Co  Co41  1  0.25409300  0.24548300  0.49407900  1
  Co  Co42  1  0.25962200  0.75575900  0.00697800  1
  Co  Co43  1  0.25445100  0.74604600  0.49510200  1
  Co  Co44  1  0.75678000  0.25170200  0.00339100  1
  Co  Co45  1  0.75437500  0.25000000  0.49927100  1
  Co  Co46  1  0.75580800  0.74870400  0.99884700  1
  Co  Co47  1  0.75422600  0.74945700  0.49914800  1
  Co  Co48  1  0.10699300  0.09245300  0.24638600  1
  Co  Co49  1  0.10367100  0.09966100  0.75295100  1
  Co  Co50  1  0.10765300  0.59424600  0.24665300  1
  Co  Co51  1  0.59846900  0.09345400  0.24564900  1
  Co  Co52  1  0.61224800  0.09495700  0.75150300  1
  Co  Co53  1  0.60271000  0.59341700  0.24675400  1
  Co  Co54  1  0.61764900  0.60025900  0.75350000  1
  Co  Co55  1  0.35585800  0.40685500  0.24702200  1
  Co  Co56  1  0.35839900  0.90480900  0.24758900  1
  Co  Co57  1  0.85481200  0.40189800  0.24536200  1
  Co  Co58  1  0.85925400  0.40846200  0.75336500  1
  Co  Co59  1  0.86124900  0.90505600  0.75264500  1
  Ag  Ag60  1  0.11952600  0.62029300  0.75284800  1
  Ag  Ag61  1  0.37158900  0.38427200  0.75162000  1
  Ag  Ag62  1  0.36426200  0.88258300  0.75189500  1
  Ag  Ag63  1  0.86477600  0.88451300  0.24689300  1
  O  O64  1  0.12162100  0.11343700  0.47868400  1
  O  O65  1  0.12137300  0.11913100  0.98646500  1
  O  O66  1  0.11753900  0.61386400  0.47294000  1
  O  O67  1  0.11803400  0.62625600  0.98568900  1
  O  O68  1  0.61950400  0.11780500  0.48364100  1
  O  O69  1  0.62298000  0.12082600  0.98783900  1
  O  O70  1  0.61775700  0.62175400  0.48282000  1
  O  O71  1  0.61896800  0.61869500  0.98077100  1
  O  O72  1  0.13864400  0.38434100  0.02418600  1
  O  O73  1  0.13417700  0.37611000  0.50914500  1
  O  O74  1  0.13906200  0.88572300  0.02258400  1
  O  O75  1  0.14095700  0.87992900  0.51839700  1
  O  O76  1  0.64313100  0.38500100  0.02762500  1
  O  O77  1  0.63511500  0.38208700  0.51471700  1
  O  O78  1  0.64351400  0.88254100  0.02685900  1
  O  O79  1  0.63211600  0.87637300  0.51527100  1
  O  O80  1  0.36544000  0.10548800  0.47462700  1
  O  O81  1  0.36813500  0.11074200  0.98612700  1
  O  O82  1  0.37160900  0.61372400  0.47433500  1
  O  O83  1  0.37541500  0.61959500  0.99072100  1
  O  O84  1  0.87045500  0.11454200  0.48485600  1
  O  O85  1  0.86765100  0.11053000  0.98391600  1
  O  O86  1  0.86800300  0.61559600  0.48063700  1
  O  O87  1  0.86357900  0.60735100  0.97287000  1
  O  O88  1  0.39190400  0.39185700  0.02749000  1
  O  O89  1  0.38497700  0.38482300  0.51172200  1
  O  O90  1  0.39469900  0.89429200  0.03238400  1
  O  O91  1  0.38646500  0.87950400  0.50980400  1
  O  O92  1  0.88727800  0.38881000  0.02051900  1
  O  O93  1  0.88449300  0.38486700  0.51362400  1
  O  O94  1  0.88767700  0.88672900  0.01752200  1
  O  O95  1  0.88609800  0.88358100  0.51671700  1
  O  O96  1  0.09855900  0.11344200  0.13910900  1
  O  O97  1  0.08802100  0.10461000  0.64002500  1
  O  O98  1  0.09655900  0.61363100  0.13885000  1
  O  O99  1  0.08493500  0.60598200  0.62304600  1
  O  O100  1  0.60252300  0.11659600  0.14206200  1
  O  O101  1  0.58823600  0.10704200  0.63848400  1
  O  O102  1  0.60155900  0.61393000  0.14109400  1
  O  O103  1  0.58741500  0.61018600  0.63811700  1
  O  O104  1  0.44832200  0.39102500  0.35707600  1
  O  O105  1  0.46765200  0.39489500  0.87944300  1
  O  O106  1  0.44756000  0.88919800  0.35886400  1
  O  O107  1  0.47355700  0.89383400  0.87955700  1
  O  O108  1  0.94081200  0.39172000  0.35761300  1
  O  O109  1  0.95019500  0.39050200  0.86329100  1
  O  O110  1  0.96723600  0.89395500  0.37370600  1
  O  O111  1  0.95882600  0.89141600  0.86324900  1
  O  O112  1  0.34941000  0.27870500  0.14089900  1
  O  O113  1  0.33407700  0.27096800  0.62215500  1
  O  O114  1  0.34241500  0.77461900  0.14081100  1
  O  O115  1  0.34653500  0.76853300  0.62415500  1
  O  O116  1  0.85101100  0.27779400  0.13855700  1
  O  O117  1  0.83071000  0.28374400  0.63979400  1
  O  O118  1  0.84879900  0.76175600  0.12308100  1
  O  O119  1  0.83349800  0.78190700  0.63967100  1
  O  O120  1  0.20012700  0.21734700  0.35739800  1
  O  O121  1  0.20045900  0.22144100  0.86437900  1
  O  O122  1  0.20391200  0.71930500  0.35536800  1
  O  O123  1  0.22411200  0.73781800  0.87975800  1
  O  O124  1  0.69370800  0.21573200  0.35802700  1
  O  O125  1  0.70266500  0.22289600  0.86315800  1
  O  O126  1  0.69212500  0.71718700  0.35830600  1
  O  O127  1  0.71050400  0.72913800  0.86333800  1
  O  O128  1  0.40809000  0.07289200  0.24409300  1
  O  O129  1  0.42673900  0.08721700  0.75054300  1
  O  O130  1  0.41409400  0.57522500  0.24846200  1
  O  O131  1  0.43261800  0.59484400  0.75669300  1
  O  O132  1  0.92039900  0.08921700  0.24455400  1
  O  O133  1  0.91212800  0.07433400  0.75052900  1
  O  O134  1  0.91793500  0.56681900  0.24414000  1
  O  O135  1  0.88678600  0.58082700  0.75558800  1
  O  O136  1  0.16504400  0.42525500  0.24302700  1
  O  O137  1  0.13514600  0.41029700  0.74957300  1
  O  O138  1  0.16799000  0.92524100  0.24846000  1
  O  O139  1  0.14250300  0.93277900  0.75664800  1
  O  O140  1  0.66481100  0.42597900  0.24411800  1
  O  O141  1  0.66785100  0.42867600  0.75540400  1
  O  O142  1  0.63489600  0.92464800  0.24565500  1
  O  O143  1  0.67026700  0.92601000  0.75169400  1
