# generated using pymatgen
data_Ba2Fe2O5
_symmetry_space_group_name_H-M   'P 1'
_cell_length_a   9.18571531
_cell_length_b   9.18571531
_cell_length_c   9.18571531
_cell_angle_alpha   143.14522731
_cell_angle_beta   142.42971423
_cell_angle_gamma   53.64658053
_symmetry_Int_Tables_number   1
_chemical_formula_structural   Ba2Fe2O5
_chemical_formula_sum   'Ba4 Fe4 O10'
_cell_volume   281.62475345
_cell_formula_units_Z   2
loop_
 _symmetry_equiv_pos_site_id
 _symmetry_equiv_pos_as_xyz
  1  'x, y, z'
loop_
 _atom_site_type_symbol
 _atom_site_label
 _atom_site_symmetry_multiplicity
 _atom_site_fract_x
 _atom_site_fract_y
 _atom_site_fract_z
 _atom_site_occupancy
  Ba  Ba0  1  0.87812600  0.38752300  0.48996600  1
  Ba  Ba1  1  0.12187400  0.61184000  0.50939700  1
  Ba  Ba2  1  0.39755800  0.88752300  0.50939700  1
  Ba  Ba3  1  0.60244200  0.11184000  0.48996600  1
  Fe  Fe4  1  0.00000000  0.99685400  0.99685400  1
  Fe  Fe5  1  0.50000000  0.49685400  0.99685400  1
  Fe  Fe6  1  0.81917800  0.77546400  0.09464200  1
  Fe  Fe7  1  0.18082200  0.27546400  0.95628600  1
  O  O8  1  0.75157400  0.75270900  0.49565800  1
  O  O9  1  0.24842600  0.74408300  0.00113400  1
  O  O10  1  0.75705100  0.25270900  0.00113400  1
  O  O11  1  0.24294900  0.24408300  0.49565800  1
  O  O12  1  0.82252800  0.84663700  0.95008900  1
  O  O13  1  0.17747200  0.12756100  0.02410900  1
  O  O14  1  0.39654900  0.34663700  0.02410900  1
  O  O15  1  0.60345100  0.62756100  0.95008900  1
  O  O16  1  0.90935500  0.09332900  0.50268300  1
  O  O17  1  0.09064500  0.59332900  0.18397400  1
