# generated using pymatgen
data_Sr6Ca2Fe7CoO20
_symmetry_space_group_name_H-M   'P 1'
_cell_length_a   11.06490803
_cell_length_b   11.46105282
_cell_length_c   17.48151697
_cell_angle_alpha   109.07314819
_cell_angle_beta   108.59679525
_cell_angle_gamma   89.88518095
_symmetry_Int_Tables_number   1
_chemical_formula_structural   Sr6Ca2Fe7CoO20
_chemical_formula_sum   'Sr24 Ca8 Fe28 Co4 O80'
_cell_volume   1972.85414677
_cell_formula_units_Z   4
loop_
 _symmetry_equiv_pos_site_id
 _symmetry_equiv_pos_as_xyz
  1  'x, y, z'
loop_
 _atom_site_type_symbol
 _atom_site_label
 _atom_site_symmetry_multiplicity
 _atom_site_fract_x
 _atom_site_fract_y
 _atom_site_fract_z
 _atom_site_occupancy
  Sr  Sr0  1  0.30650400  0.06427500  0.61000500  1
  Sr  Sr1  1  0.30615100  0.56418000  0.61038600  1
  Sr  Sr2  1  0.80729800  0.06478900  0.61041400  1
  Sr  Sr3  1  0.80793500  0.56444500  0.61147800  1
  Sr  Sr4  1  0.19525800  0.43433100  0.38834800  1
  Sr  Sr5  1  0.19552600  0.43757400  0.89400500  1
  Sr  Sr6  1  0.19511800  0.93513000  0.38750600  1
  Sr  Sr7  1  0.69532700  0.43561900  0.38754100  1
  Sr  Sr8  1  0.70197300  0.43785900  0.89400800  1
  Sr  Sr9  1  0.69516500  0.93376400  0.38818000  1
  Sr  Sr10  1  0.70062100  0.93615000  0.89591700  1
  Sr  Sr11  1  0.05649200  0.29020900  0.10963500  1
  Sr  Sr12  1  0.05833400  0.29558300  0.61050500  1
  Sr  Sr13  1  0.05814400  0.79744500  0.61159700  1
  Sr  Sr14  1  0.55497500  0.29512600  0.60919800  1
  Sr  Sr15  1  0.55807000  0.79777300  0.10778100  1
  Sr  Sr16  1  0.55579200  0.79656700  0.61016600  1
  Sr  Sr17  1  0.44554300  0.20257200  0.38611200  1
  Sr  Sr18  1  0.44927400  0.20491100  0.89420200  1
  Sr  Sr19  1  0.44534600  0.70241600  0.38649500  1
  Sr  Sr20  1  0.45263600  0.71137100  0.89585000  1
  Sr  Sr21  1  0.94335200  0.20336900  0.38638800  1
  Sr  Sr22  1  0.94879300  0.20459900  0.89412400  1
  Sr  Sr23  1  0.94406900  0.70204300  0.38658100  1
  Ca  Ca24  1  0.30141600  0.06354300  0.10257600  1
  Ca  Ca25  1  0.29657700  0.56868400  0.10468200  1
  Ca  Ca26  1  0.79966400  0.06035200  0.10245000  1
  Ca  Ca27  1  0.80510600  0.57164200  0.10414900  1
  Ca  Ca28  1  0.20085800  0.93592100  0.89888200  1
  Ca  Ca29  1  0.04699200  0.78975100  0.10391900  1
  Ca  Ca30  1  0.55248500  0.28180200  0.10368900  1
  Ca  Ca31  1  0.94581100  0.71546300  0.89786900  1
  Fe  Fe32  1  0.00302100  0.99886300  0.49803300  1
  Fe  Fe33  1  0.00307300  0.50031200  0.49977400  1
  Fe  Fe34  1  0.50323800  0.99963400  0.49878800  1
  Fe  Fe35  1  0.50897700  0.50309800  0.00637200  1
  Fe  Fe36  1  0.50414500  0.50027500  0.49976600  1
  Fe  Fe37  1  0.25822000  0.25014500  0.00430800  1
  Fe  Fe38  1  0.25233800  0.24852700  0.49776400  1
  Fe  Fe39  1  0.25410600  0.75321100  0.00195000  1
  Fe  Fe40  1  0.25221100  0.74921500  0.49815400  1
  Fe  Fe41  1  0.75740200  0.25233700  0.00593900  1
  Fe  Fe42  1  0.75404000  0.25035700  0.49995900  1
  Fe  Fe43  1  0.75427200  0.74971100  0.50055300  1
  Fe  Fe44  1  0.10359400  0.08482800  0.24484400  1
  Fe  Fe45  1  0.11030200  0.08944200  0.75478900  1
  Fe  Fe46  1  0.10357700  0.59069000  0.24576500  1
  Fe  Fe47  1  0.10804600  0.59762100  0.75528400  1
  Fe  Fe48  1  0.60229300  0.08947300  0.24395300  1
  Fe  Fe49  1  0.60963200  0.09064400  0.75292800  1
  Fe  Fe50  1  0.60281700  0.58363900  0.24305200  1
  Fe  Fe51  1  0.61001100  0.59152600  0.75098400  1
  Fe  Fe52  1  0.35714800  0.40852400  0.24512500  1
  Fe  Fe53  1  0.35938800  0.41264800  0.75340000  1
  Fe  Fe54  1  0.35003900  0.90679100  0.24332400  1
  Fe  Fe55  1  0.35837700  0.91134400  0.75604600  1
  Fe  Fe56  1  0.85020700  0.40661800  0.24299900  1
  Fe  Fe57  1  0.85984400  0.41425900  0.75292100  1
  Fe  Fe58  1  0.85830000  0.91032000  0.24714300  1
  Fe  Fe59  1  0.86047800  0.90657700  0.75162900  1
  Co  Co60  1  0.00834400  0.00005700  0.00395200  1
  Co  Co61  1  0.00640000  0.50424300  0.00413300  1
  Co  Co62  1  0.50675500  0.00272500  0.00282800  1
  Co  Co63  1  0.75751500  0.75163900  0.00073600  1
  O  O64  1  0.12358900  0.12225800  0.49149000  1
  O  O65  1  0.12651100  0.11441100  0.98931400  1
  O  O66  1  0.12352700  0.62190800  0.49160600  1
  O  O67  1  0.12272200  0.62691500  0.99075500  1
  O  O68  1  0.62359900  0.12195700  0.49071800  1
  O  O69  1  0.62563200  0.12366600  0.99527800  1
  O  O70  1  0.62340000  0.62192700  0.49066100  1
  O  O71  1  0.62777200  0.61975100  0.99309700  1
  O  O72  1  0.13672500  0.38246600  0.01424800  1
  O  O73  1  0.13109000  0.37775300  0.50688400  1
  O  O74  1  0.13266000  0.88279700  0.01210800  1
  O  O75  1  0.13232800  0.87724300  0.50819900  1
  O  O76  1  0.63767600  0.38034400  0.01633200  1
  O  O77  1  0.63206100  0.37789500  0.50742200  1
  O  O78  1  0.63587600  0.88747300  0.01440300  1
  O  O79  1  0.63114600  0.87700200  0.50634800  1
  O  O80  1  0.37366700  0.11916200  0.49088800  1
  O  O81  1  0.37585700  0.11705700  0.99237500  1
  O  O82  1  0.37310500  0.61976000  0.49097400  1
  O  O83  1  0.37413600  0.61828600  0.99263500  1
  O  O84  1  0.87343400  0.11948800  0.49084100  1
  O  O85  1  0.87942200  0.11305800  0.99302500  1
  O  O86  1  0.87381500  0.61935300  0.49075900  1
  O  O87  1  0.88275000  0.62023000  0.99241700  1
  O  O88  1  0.38850300  0.38388100  0.01766600  1
  O  O89  1  0.38124100  0.37963300  0.50641200  1
  O  O90  1  0.38238800  0.88878500  0.01223900  1
  O  O91  1  0.38171900  0.87928100  0.50719500  1
  O  O92  1  0.88509000  0.38398000  0.01459800  1
  O  O93  1  0.88154600  0.37981700  0.50631500  1
  O  O94  1  0.89466600  0.88768700  0.01816700  1
  O  O95  1  0.88130600  0.87906300  0.50642100  1
  O  O96  1  0.09893200  0.10102500  0.14274800  1
  O  O97  1  0.08404900  0.09307100  0.64257400  1
  O  O98  1  0.09100300  0.60565600  0.14040200  1
  O  O99  1  0.07799500  0.59546500  0.64111800  1
  O  O100  1  0.58239800  0.09691700  0.13500900  1
  O  O101  1  0.58230200  0.09501700  0.64077200  1
  O  O102  1  0.59352000  0.60166900  0.13948300  1
  O  O103  1  0.58100400  0.59452900  0.63838800  1
  O  O104  1  0.44166500  0.40685500  0.35781300  1
  O  O105  1  0.44495100  0.40364600  0.86250800  1
  O  O106  1  0.43726300  0.90619000  0.35669900  1
  O  O107  1  0.44685100  0.91152800  0.86733100  1
  O  O108  1  0.93743300  0.40729300  0.35638200  1
  O  O109  1  0.94202200  0.39901900  0.85972400  1
  O  O110  1  0.94286600  0.90754700  0.36004300  1
  O  O111  1  0.94599300  0.88988700  0.85672700  1
  O  O112  1  0.33598400  0.28216700  0.13976800  1
  O  O113  1  0.33089900  0.29643600  0.64116800  1
  O  O114  1  0.33310900  0.78411800  0.13777800  1
  O  O115  1  0.33044300  0.79572100  0.64364000  1
  O  O116  1  0.83546100  0.27990700  0.13938800  1
  O  O117  1  0.83443800  0.29901900  0.64035300  1
  O  O118  1  0.84367200  0.78456000  0.14480900  1
  O  O119  1  0.83047100  0.79415000  0.63778500  1
  O  O120  1  0.18867100  0.20003500  0.35836500  1
  O  O121  1  0.19457900  0.20934400  0.86369000  1
  O  O122  1  0.18609600  0.70393400  0.35905500  1
  O  O123  1  0.19770800  0.71648200  0.86324700  1
  O  O124  1  0.68559900  0.20465900  0.35640400  1
  O  O125  1  0.69410900  0.20606000  0.86374900  1
  O  O126  1  0.68755000  0.69859100  0.35584000  1
  O  O127  1  0.69880800  0.70794000  0.85847900  1
  O  O128  1  0.42561300  0.05619800  0.23909900  1
  O  O129  1  0.43564000  0.05965400  0.75177800  1
  O  O130  1  0.42518500  0.55912400  0.23853700  1
  O  O131  1  0.43741200  0.56304900  0.75277000  1
  O  O132  1  0.92598900  0.06092400  0.23997200  1
  O  O133  1  0.93624800  0.05948900  0.75210100  1
  O  O134  1  0.92588400  0.55639000  0.23861500  1
  O  O135  1  0.93652400  0.57133400  0.76032700  1
  O  O136  1  0.18541000  0.44212500  0.24797800  1
  O  O137  1  0.18562000  0.44525100  0.75286200  1
  O  O138  1  0.17402600  0.92822200  0.24065600  1
  O  O139  1  0.18588600  0.93860200  0.76019400  1
  O  O140  1  0.67293600  0.42706700  0.23912600  1
  O  O141  1  0.68499900  0.43855100  0.75025300  1
  O  O142  1  0.68546300  0.94257800  0.24851300  1
  O  O143  1  0.68764900  0.94016800  0.75235800  1
