# generated using pymatgen
data_La7SmV7CrO20
_symmetry_space_group_name_H-M   'P 1'
_cell_length_a   11.04444958
_cell_length_b   11.50713253
_cell_length_c   17.95422213
_cell_angle_alpha   108.25865357
_cell_angle_beta   108.01311626
_cell_angle_gamma   90.21186440
_symmetry_Int_Tables_number   1
_chemical_formula_structural   La7SmV7CrO20
_chemical_formula_sum   'La28 Sm4 V28 Cr4 O80'
_cell_volume   2047.88602971
_cell_formula_units_Z   4
loop_
 _symmetry_equiv_pos_site_id
 _symmetry_equiv_pos_as_xyz
  1  'x, y, z'
loop_
 _atom_site_type_symbol
 _atom_site_label
 _atom_site_symmetry_multiplicity
 _atom_site_fract_x
 _atom_site_fract_y
 _atom_site_fract_z
 _atom_site_occupancy
  La  La0  1  0.30529379  0.06187250  0.11557518  1
  La  La1  1  0.30899769  0.06314033  0.61875401  1
  La  La2  1  0.31229942  0.56714397  0.62111458  1
  La  La3  1  0.81347266  0.05903957  0.61322047  1
  La  La4  1  0.80916929  0.56203519  0.11763588  1
  La  La5  1  0.81175180  0.56854369  0.61882648  1
  La  La6  1  0.19857289  0.43801792  0.38948168  1
  La  La7  1  0.19934410  0.44360994  0.89117784  1
  La  La8  1  0.19741766  0.93761443  0.38667568  1
  La  La9  1  0.19485276  0.93523123  0.88086825  1
  La  La10  1  0.69815255  0.43777928  0.38917071  1
  La  La11  1  0.69250321  0.93531123  0.38492070  1
  La  La12  1  0.69117694  0.93454391  0.87908722  1
  La  La13  1  0.05996791  0.30549758  0.11327704  1
  La  La14  1  0.06081778  0.30709220  0.61411789  1
  La  La15  1  0.06113471  0.80439225  0.61866086  1
  La  La16  1  0.55486248  0.30675918  0.10957240  1
  La  La17  1  0.55739121  0.30893344  0.61477305  1
  La  La18  1  0.55198677  0.80068527  0.11217422  1
  La  La19  1  0.55966910  0.80326724  0.61843615  1
  La  La20  1  0.44387536  0.19414379  0.38283795  1
  La  La21  1  0.44455665  0.19612086  0.88472305  1
  La  La22  1  0.44249027  0.69445311  0.38147768  1
  La  La23  1  0.44009445  0.69012354  0.88103945  1
  La  La24  1  0.94728030  0.19268620  0.38427612  1
  La  La25  1  0.94974193  0.19341291  0.88770019  1
  La  La26  1  0.94681229  0.69735868  0.38339829  1
  La  La27  1  0.94601010  0.69418143  0.88066577  1
  Sm  Sm28  1  0.31027873  0.56465201  0.11335831  1
  Sm  Sm29  1  0.81148518  0.06274070  0.10685320  1
  Sm  Sm30  1  0.69740281  0.44163124  0.89450765  1
  Sm  Sm31  1  0.05993156  0.79809954  0.10878202  1
  V  V32  1  0.00424659  0.99914817  0.49838767  1
  V  V33  1  0.00333217  0.49879291  0.49759081  1
  V  V34  1  0.50525798  0.00156153  0.50156913  1
  V  V35  1  0.50868871  0.50152449  0.99978412  1
  V  V36  1  0.50454189  0.49998443  0.49921779  1
  V  V37  1  0.25483866  0.24993246  0.00198798  1
  V  V38  1  0.25480136  0.24989417  0.49981808  1
  V  V39  1  0.25565170  0.75434629  0.00169256  1
  V  V40  1  0.25377380  0.75003873  0.49889203  1
  V  V41  1  0.75957801  0.24909587  0.00057084  1
  V  V42  1  0.75543174  0.24935387  0.50019481  1
  V  V43  1  0.75348764  0.74916164  0.49890978  1
  V  V44  1  0.11379392  0.10814832  0.24766141  1
  V  V45  1  0.12130194  0.11891365  0.75091231  1
  V  V46  1  0.12557843  0.61021075  0.24651709  1
  V  V47  1  0.11479295  0.62004762  0.74931290  1
  V  V48  1  0.61537442  0.10273850  0.24552464  1
  V  V49  1  0.61544279  0.11197437  0.75200893  1
  V  V50  1  0.61516020  0.62147799  0.24897295  1
  V  V51  1  0.61754257  0.61864376  0.75415916  1
  V  V52  1  0.35489378  0.38982650  0.24882677  1
  V  V53  1  0.35561727  0.38252633  0.75228708  1
  V  V54  1  0.34949836  0.88235470  0.25003050  1
  V  V55  1  0.36811748  0.87793491  0.75285967  1
  V  V56  1  0.85695669  0.39483448  0.24833809  1
  V  V57  1  0.85587939  0.39204537  0.75204112  1
  V  V58  1  0.85590916  0.88944356  0.24495405  1
  V  V59  1  0.87029905  0.88293844  0.75231336  1
  Cr  Cr60  1  0.00415312  0.99740849  0.00115493  1
  Cr  Cr61  1  0.00491097  0.50218231  0.00024695  1
  Cr  Cr62  1  0.50970569  0.00073308  0.00203824  1
  Cr  Cr63  1  0.75945914  0.75271023  0.00205455  1
  O  O64  1  0.11622963  0.11082907  0.47699577  1
  O  O65  1  0.11422343  0.10821454  0.97706295  1
  O  O66  1  0.11333462  0.60798398  0.47207109  1
  O  O67  1  0.11461278  0.61325476  0.97722455  1
  O  O68  1  0.61577930  0.10978140  0.47554861  1
  O  O69  1  0.61723354  0.10866837  0.97410064  1
  O  O70  1  0.61533987  0.60970548  0.47568514  1
  O  O71  1  0.62336065  0.62249328  0.97814481  1
  O  O72  1  0.14071497  0.39377358  0.02624537  1
  O  O73  1  0.13895180  0.38930235  0.52210560  1
  O  O74  1  0.13918340  0.89072789  0.03093525  1
  O  O75  1  0.13912649  0.89031008  0.52337512  1
  O  O76  1  0.64473751  0.38545734  0.02649318  1
  O  O77  1  0.63946690  0.38912451  0.52317639  1
  O  O78  1  0.64867605  0.88913913  0.02813935  1
  O  O79  1  0.63934049  0.89045939  0.52407096  1
  O  O80  1  0.36882319  0.10906017  0.47538422  1
  O  O81  1  0.37218849  0.10878234  0.97775788  1
  O  O82  1  0.36818936  0.60829511  0.47358684  1
  O  O83  1  0.36666434  0.61258857  0.97528192  1
  O  O84  1  0.86655456  0.10585771  0.47401104  1
  O  O85  1  0.86529218  0.10081305  0.97681090  1
  O  O86  1  0.86727825  0.60723121  0.47291514  1
  O  O87  1  0.86751953  0.61267737  0.97637790  1
  O  O88  1  0.38627781  0.39525609  0.02492680  1
  O  O89  1  0.38925574  0.39235055  0.52094388  1
  O  O90  1  0.39686429  0.89910656  0.03057608  1
  O  O91  1  0.39169231  0.89501123  0.52574198  1
  O  O92  1  0.89021963  0.39805747  0.02414100  1
  O  O93  1  0.89053050  0.39244798  0.52264780  1
  O  O94  1  0.89566932  0.88898051  0.02940952  1
  O  O95  1  0.88965387  0.89009791  0.51959346  1
  O  O96  1  0.06537013  0.10533513  0.12470069  1
  O  O97  1  0.06632709  0.10694332  0.62564110  1
  O  O98  1  0.07923867  0.60583242  0.12442471  1
  O  O99  1  0.07025198  0.60285486  0.62388848  1
  O  O100  1  0.59378284  0.10844021  0.12870142  1
  O  O101  1  0.57735610  0.11242347  0.63077620  1
  O  O102  1  0.56949101  0.60330257  0.13010107  1
  O  O103  1  0.57165838  0.60145565  0.62758831  1
  O  O104  1  0.44727575  0.39363828  0.36985098  1
  O  O105  1  0.46843941  0.39609991  0.87019377  1
  O  O106  1  0.44498967  0.89549216  0.37255693  1
  O  O107  1  0.44735332  0.89498787  0.87898656  1
  O  O108  1  0.94213655  0.38922038  0.36727770  1
  O  O109  1  0.94803747  0.39514269  0.87362900  1
  O  O110  1  0.94928576  0.89668750  0.36763140  1
  O  O111  1  0.94715092  0.89657083  0.87784204  1
  O  O112  1  0.33213765  0.27480009  0.13188293  1
  O  O113  1  0.33290995  0.27559593  0.63024287  1
  O  O114  1  0.32764408  0.77267202  0.13047456  1
  O  O115  1  0.32454766  0.77350552  0.62771608  1
  O  O116  1  0.83842297  0.27540628  0.13315662  1
  O  O117  1  0.82925136  0.27618160  0.63404471  1
  O  O118  1  0.83998321  0.77218474  0.12787345  1
  O  O119  1  0.82558730  0.77661044  0.62770474  1
  O  O120  1  0.18535451  0.22102332  0.36813364  1
  O  O121  1  0.19065254  0.22782002  0.87235268  1
  O  O122  1  0.19065919  0.72594367  0.36849618  1
  O  O123  1  0.19137479  0.72867816  0.87326112  1
  O  O124  1  0.69602333  0.22187821  0.36644952  1
  O  O125  1  0.70252363  0.22963639  0.86909360  1
  O  O126  1  0.68786781  0.72127156  0.36852676  1
  O  O127  1  0.70311841  0.73064346  0.87842764  1
  O  O128  1  0.43158435  0.05867277  0.25060731  1
  O  O129  1  0.43451067  0.05864746  0.75226521  1
  O  O130  1  0.43018302  0.55796853  0.24384863  1
  O  O131  1  0.43292012  0.55116995  0.75011985  1
  O  O132  1  0.90952395  0.07106015  0.24297792  1
  O  O133  1  0.92731168  0.07041903  0.75138544  1
  O  O134  1  0.93767465  0.56107938  0.25070302  1
  O  O135  1  0.93176830  0.55289991  0.74903185  1
  O  O136  1  0.16885840  0.43169444  0.25121510  1
  O  O137  1  0.17048017  0.43625093  0.75037823  1
  O  O138  1  0.15427434  0.92451437  0.24275026  1
  O  O139  1  0.18491081  0.94575890  0.74770118  1
  O  O140  1  0.67021295  0.42972728  0.25040983  1
  O  O141  1  0.67293899  0.42812895  0.75888318  1
  O  O142  1  0.67257228  0.93294885  0.24942393  1
  O  O143  1  0.68627516  0.94489921  0.74722015  1
