# generated using pymatgen
data_Ba4Sr4Co3(CuO4)5
_symmetry_space_group_name_H-M   'P 1'
_cell_length_a   11.28660032
_cell_length_b   11.24360642
_cell_length_c   17.92472156
_cell_angle_alpha   107.96897989
_cell_angle_beta   108.20460132
_cell_angle_gamma   90.46605523
_symmetry_Int_Tables_number   1
_chemical_formula_structural   Ba4Sr4Co3(CuO4)5
_chemical_formula_sum   'Ba16 Sr16 Co12 Cu20 O80'
_cell_volume   2041.63768996
_cell_formula_units_Z   4
loop_
 _symmetry_equiv_pos_site_id
 _symmetry_equiv_pos_as_xyz
  1  'x, y, z'
loop_
 _atom_site_type_symbol
 _atom_site_label
 _atom_site_symmetry_multiplicity
 _atom_site_fract_x
 _atom_site_fract_y
 _atom_site_fract_z
 _atom_site_occupancy
  Ba  Ba0  1  0.30909578  0.05367617  0.11871764  1
  Ba  Ba1  1  0.30028983  0.06095745  0.62082258  1
  Ba  Ba2  1  0.30658009  0.55229967  0.11930791  1
  Ba  Ba3  1  0.80445333  0.05737804  0.12038842  1
  Ba  Ba4  1  0.80595166  0.55173466  0.11857170  1
  Ba  Ba5  1  0.18456870  0.94956167  0.38492965  1
  Ba  Ba6  1  0.18354234  0.94568090  0.87581933  1
  Ba  Ba7  1  0.68348143  0.43779388  0.87304849  1
  Ba  Ba8  1  0.05621101  0.31627564  0.12113418  1
  Ba  Ba9  1  0.05873758  0.81182689  0.11764701  1
  Ba  Ba10  1  0.55730519  0.31360889  0.12196389  1
  Ba  Ba11  1  0.55394167  0.81305503  0.11954772  1
  Ba  Ba12  1  0.43737092  0.68837639  0.38077548  1
  Ba  Ba13  1  0.43465993  0.68527683  0.87412127  1
  Ba  Ba14  1  0.93918644  0.68730326  0.38346041  1
  Ba  Ba15  1  0.92855477  0.68756151  0.87198587  1
  Sr  Sr16  1  0.30666587  0.54509810  0.60973039  1
  Sr  Sr17  1  0.80588444  0.06231722  0.61198627  1
  Sr  Sr18  1  0.80287702  0.55909822  0.61180941  1
  Sr  Sr19  1  0.19293863  0.44238100  0.39006694  1
  Sr  Sr20  1  0.18616143  0.43155561  0.88349880  1
  Sr  Sr21  1  0.69448684  0.44996570  0.39110832  1
  Sr  Sr22  1  0.69419899  0.95259597  0.39089322  1
  Sr  Sr23  1  0.68910924  0.94160605  0.88279255  1
  Sr  Sr24  1  0.05369666  0.30695711  0.61058546  1
  Sr  Sr25  1  0.05191387  0.80000067  0.61009565  1
  Sr  Sr26  1  0.55494330  0.31190248  0.61325309  1
  Sr  Sr27  1  0.55183718  0.80002478  0.60945284  1
  Sr  Sr28  1  0.43928214  0.19413741  0.39028791  1
  Sr  Sr29  1  0.43042062  0.18959303  0.88582347  1
  Sr  Sr30  1  0.94548858  0.19147687  0.39209473  1
  Sr  Sr31  1  0.94644788  0.19618910  0.88740332  1
  Co  Co32  1  0.98997530  0.00204358  0.99377695  1
  Co  Co33  1  0.99670019  0.49132245  0.99054594  1
  Co  Co34  1  0.48656987  0.99631355  0.98574595  1
  Co  Co35  1  0.50147020  0.00654922  0.50525653  1
  Co  Co36  1  0.48860115  0.49132101  0.98791472  1
  Co  Co37  1  0.49908268  0.49716436  0.50101813  1
  Co  Co38  1  0.23560083  0.73782244  0.98197201  1
  Co  Co39  1  0.24935616  0.75466070  0.50778338  1
  Co  Co40  1  0.73750132  0.23855727  0.98307125  1
  Co  Co41  1  0.75227625  0.25232407  0.50126414  1
  Co  Co42  1  0.74433084  0.74895391  0.99645656  1
  Co  Co43  1  0.75301211  0.75350381  0.50485925  1
  Cu  Cu44  1  0.99702648  0.00259613  0.50459000  1
  Cu  Cu45  1  0.00234564  0.49911245  0.50267299  1
  Cu  Cu46  1  0.24465876  0.24623939  0.99561414  1
  Cu  Cu47  1  0.24976223  0.25116374  0.50339553  1
  Cu  Cu48  1  0.11894155  0.11079243  0.25005182  1
  Cu  Cu49  1  0.10570164  0.10005512  0.74403620  1
  Cu  Cu50  1  0.12324198  0.60619208  0.25377346  1
  Cu  Cu51  1  0.11710892  0.59405900  0.74342648  1
  Cu  Cu52  1  0.62572781  0.11654634  0.26055694  1
  Cu  Cu53  1  0.61934647  0.09578908  0.74783507  1
  Cu  Cu54  1  0.62459284  0.61174420  0.25661047  1
  Cu  Cu55  1  0.61596593  0.60649670  0.74348394  1
  Cu  Cu56  1  0.37454867  0.38904676  0.25669531  1
  Cu  Cu57  1  0.36410974  0.39183533  0.74873487  1
  Cu  Cu58  1  0.37669664  0.90341959  0.26093344  1
  Cu  Cu59  1  0.36994026  0.89781818  0.74614998  1
  Cu  Cu60  1  0.87434231  0.39235462  0.26124103  1
  Cu  Cu61  1  0.86867461  0.38972145  0.74359274  1
  Cu  Cu62  1  0.86739426  0.89847518  0.25388390  1
  Cu  Cu63  1  0.85828624  0.90615379  0.74767874  1
  O  O64  1  0.12033795  0.13175105  0.49873804  1
  O  O65  1  0.10858549  0.11472912  0.99498292  1
  O  O66  1  0.13766781  0.62715192  0.49896269  1
  O  O67  1  0.10484877  0.61159763  0.98948052  1
  O  O68  1  0.62609271  0.13968476  0.49638349  1
  O  O69  1  0.60984903  0.10772044  0.98894305  1
  O  O70  1  0.63090540  0.63652320  0.49834902  1
  O  O71  1  0.60626972  0.61062181  0.99324066  1
  O  O72  1  0.12354183  0.36953258  0.99727664  1
  O  O73  1  0.12662665  0.37435844  0.50464820  1
  O  O74  1  0.13260649  0.86037439  0.99704979  1
  O  O75  1  0.11962144  0.87609909  0.51076952  1
  O  O76  1  0.62844705  0.35644353  0.99531981  1
  O  O77  1  0.62076687  0.39220969  0.50756300  1
  O  O78  1  0.63319953  0.86214863  0.99824260  1
  O  O79  1  0.61936833  0.89445307  0.51111175  1
  O  O80  1  0.38147636  0.12045731  0.50070054  1
  O  O81  1  0.36728871  0.12442397  0.99314655  1
  O  O82  1  0.38297524  0.60661074  0.49507281  1
  O  O83  1  0.35166890  0.62510797  0.98961523  1
  O  O84  1  0.86888848  0.12123551  0.49497640  1
  O  O85  1  0.85888439  0.13318819  0.99487473  1
  O  O86  1  0.87303115  0.62177296  0.49969660  1
  O  O87  1  0.85398453  0.63373400  0.99244956  1
  O  O88  1  0.37918342  0.38204492  0.99902987  1
  O  O89  1  0.37796118  0.37238738  0.50615236  1
  O  O90  1  0.38314239  0.88133480  0.99699232  1
  O  O91  1  0.36953340  0.86832522  0.50900168  1
  O  O92  1  0.87865736  0.38637276  0.99683713  1
  O  O93  1  0.86855564  0.37559100  0.50949953  1
  O  O94  1  0.87781644  0.88571738  0.99811960  1
  O  O95  1  0.86338880  0.87468688  0.50769367  1
  O  O96  1  0.06477762  0.08250110  0.13640363  1
  O  O97  1  0.05311948  0.09090183  0.63387056  1
  O  O98  1  0.07161614  0.58554927  0.14160693  1
  O  O99  1  0.08283584  0.58406862  0.63363240  1
  O  O100  1  0.57412546  0.09007829  0.14875367  1
  O  O101  1  0.57802520  0.09777970  0.63987067  1
  O  O102  1  0.57523621  0.58633693  0.14451103  1
  O  O103  1  0.57281445  0.58927449  0.63302965  1
  O  O104  1  0.44509153  0.40627863  0.36737203  1
  O  O105  1  0.42860811  0.40403298  0.86082837  1
  O  O106  1  0.44104845  0.92639995  0.37292126  1
  O  O107  1  0.43209138  0.91565817  0.85974633  1
  O  O108  1  0.94311848  0.40979880  0.37264996  1
  O  O109  1  0.93609149  0.40786382  0.85581440  1
  O  O110  1  0.92567135  0.91620073  0.36518659  1
  O  O111  1  0.92530657  0.92848155  0.86224599  1
  O  O112  1  0.31694309  0.30434466  0.14465642  1
  O  O113  1  0.31590001  0.30994260  0.63698592  1
  O  O114  1  0.32890817  0.80428933  0.15249677  1
  O  O115  1  0.33316878  0.78789612  0.63780430  1
  O  O116  1  0.81912756  0.30505353  0.15057137  1
  O  O117  1  0.81875732  0.29528617  0.63355634  1
  O  O118  1  0.82009595  0.80561846  0.14096457  1
  O  O119  1  0.83148312  0.80092706  0.63947513  1
  O  O120  1  0.18826989  0.20530359  0.35950409  1
  O  O121  1  0.18160085  0.19234475  0.85628047  1
  O  O122  1  0.18081901  0.70088576  0.36383984  1
  O  O123  1  0.17650916  0.69266042  0.85548960  1
  O  O124  1  0.69471510  0.21524916  0.37022437  1
  O  O125  1  0.69977943  0.19121894  0.85938842  1
  O  O126  1  0.67903390  0.71338399  0.36599666  1
  O  O127  1  0.67450553  0.70108992  0.85521614  1
  O  O128  1  0.48386842  0.03920630  0.26510702  1
  O  O129  1  0.47093994  0.04453654  0.75973410  1
  O  O130  1  0.49098487  0.50717905  0.25250644  1
  O  O131  1  0.47235155  0.51393372  0.73930120  1
  O  O132  1  0.98335134  0.03212978  0.26246960  1
  O  O133  1  0.94808592  0.05802906  0.74990008  1
  O  O134  1  0.98910003  0.50694497  0.25245152  1
  O  O135  1  0.96361635  0.52319101  0.73457026  1
  O  O136  1  0.24137722  0.48512687  0.26356654  1
  O  O137  1  0.21261781  0.45402470  0.75049920  1
  O  O138  1  0.23407664  0.98819113  0.25173295  1
  O  O139  1  0.21299467  0.96929519  0.73369838  1
  O  O140  1  0.74211568  0.49023694  0.26696141  1
  O  O141  1  0.72511399  0.47577102  0.73964896  1
  O  O142  1  0.72773341  0.98179622  0.26041160  1
  O  O143  1  0.69613281  0.93790374  0.74388085  1
