# generated using pymatgen
data_NdGe5
_symmetry_space_group_name_H-M   'P 1'
_cell_length_a   6.23239458
_cell_length_b   6.23239458
_cell_length_c   6.23239458
_cell_angle_alpha   142.20497826
_cell_angle_beta   119.74018277
_cell_angle_gamma   73.36486368
_symmetry_Int_Tables_number   1
_chemical_formula_structural   NdGe5
_chemical_formula_sum   'Nd1 Ge5'
_cell_volume   126.24877588
_cell_formula_units_Z   1
loop_
 _symmetry_equiv_pos_site_id
 _symmetry_equiv_pos_as_xyz
  1  'x, y, z'
loop_
 _atom_site_type_symbol
 _atom_site_label
 _atom_site_symmetry_multiplicity
 _atom_site_fract_x
 _atom_site_fract_y
 _atom_site_fract_z
 _atom_site_occupancy
  Nd  Nd0  1  0.00000000  0.00000000  0.00000000  1
  Ge  Ge1  1  0.53522800  0.32923400  0.20599400  1
  Ge  Ge2  1  0.46477200  0.67076600  0.79400600  1
  Ge  Ge3  1  0.87675900  0.67076600  0.20599400  1
  Ge  Ge4  1  0.12324100  0.32923400  0.79400600  1
  Ge  Ge5  1  0.50000000  0.00000000  0.50000000  1
