# generated using pymatgen
data_BaAg2
_symmetry_space_group_name_H-M   'P 1'
_cell_length_a   6.44840606
_cell_length_b   6.44840606
_cell_length_c   6.44840606
_cell_angle_alpha   133.76883656
_cell_angle_beta   100.32372483
_cell_angle_gamma   97.41411499
_symmetry_Int_Tables_number   1
_chemical_formula_structural   BaAg2
_chemical_formula_sum   'Ba2 Ag4'
_cell_volume   178.00761579
_cell_formula_units_Z   2
loop_
 _symmetry_equiv_pos_site_id
 _symmetry_equiv_pos_as_xyz
  1  'x, y, z'
loop_
 _atom_site_type_symbol
 _atom_site_label
 _atom_site_symmetry_multiplicity
 _atom_site_fract_x
 _atom_site_fract_y
 _atom_site_fract_z
 _atom_site_occupancy
  Ba  Ba0  1  0.21072700  0.96072700  0.25000000  1
  Ba  Ba1  1  0.78927300  0.03927300  0.75000000  1
  Ag  Ag2  1  0.21779600  0.66426800  0.55352800  1
  Ag  Ag3  1  0.78220400  0.33573200  0.44647200  1
  Ag  Ag4  1  0.38926000  0.33573200  0.05352800  1
  Ag  Ag5  1  0.61074000  0.66426800  0.94647200  1
