# generated using pymatgen
data_ReN2
_symmetry_space_group_name_H-M   'P 1'
_cell_length_a   3.70258944
_cell_length_b   3.70258944
_cell_length_c   5.78152329
_cell_angle_alpha   84.43476931
_cell_angle_beta   84.43476931
_cell_angle_gamma   44.98306222
_symmetry_Int_Tables_number   1
_chemical_formula_structural   ReN2
_chemical_formula_sum   'Re2 N4'
_cell_volume   55.71913230
_cell_formula_units_Z   2
loop_
 _symmetry_equiv_pos_site_id
 _symmetry_equiv_pos_as_xyz
  1  'x, y, z'
loop_
 _atom_site_type_symbol
 _atom_site_label
 _atom_site_symmetry_multiplicity
 _atom_site_fract_x
 _atom_site_fract_y
 _atom_site_fract_z
 _atom_site_occupancy
  Re  Re0  1  0.67465200  0.67465200  0.76896400  1
  Re  Re1  1  0.32534800  0.32534800  0.23103600  1
  N  N2  1  0.37249300  0.37249300  0.86450500  1
  N  N3  1  0.62750700  0.62750700  0.13549500  1
  N  N4  1  0.90283000  0.90283000  0.47105900  1
  N  N5  1  0.09717000  0.09717000  0.52894100  1
