# generated using pymatgen
data_SrCa7Mn6(FeO12)2
_symmetry_space_group_name_H-M   'P 1'
_cell_length_a   7.67731996
_cell_length_b   7.67731996
_cell_length_c   7.63125900
_cell_angle_alpha   90.00000000
_cell_angle_beta   90.00000000
_cell_angle_gamma   90.00582595
_symmetry_Int_Tables_number   1
_chemical_formula_structural   SrCa7Mn6(FeO12)2
_chemical_formula_sum   'Sr1 Ca7 Mn6 Fe2 O24'
_cell_volume   449.79587971
_cell_formula_units_Z   1
loop_
 _symmetry_equiv_pos_site_id
 _symmetry_equiv_pos_as_xyz
  1  'x, y, z'
loop_
 _atom_site_type_symbol
 _atom_site_label
 _atom_site_symmetry_multiplicity
 _atom_site_fract_x
 _atom_site_fract_y
 _atom_site_fract_z
 _atom_site_occupancy
  Sr  Sr0  1  0.74991600  0.74991600  0.00000000  1
  Ca  Ca1  1  0.74974500  0.25027200  0.50000000  1
  Ca  Ca2  1  0.74971400  0.25019800  0.00000000  1
  Ca  Ca3  1  0.25020300  0.25020300  0.50000000  1
  Ca  Ca4  1  0.25026300  0.25026300  0.00000000  1
  Ca  Ca5  1  0.74975100  0.74975100  0.50000000  1
  Ca  Ca6  1  0.25027200  0.74974500  0.50000000  1
  Ca  Ca7  1  0.25019800  0.74971400  0.00000000  1
  Mn  Mn8  1  0.49952100  0.00059500  0.74945100  1
  Mn  Mn9  1  0.49952100  0.00059500  0.25054900  1
  Mn  Mn10  1  0.00059500  0.49952100  0.74945100  1
  Mn  Mn11  1  0.00059500  0.49952100  0.25054900  1
  Mn  Mn12  1  0.49949300  0.49949300  0.74946700  1
  Mn  Mn13  1  0.49949300  0.49949300  0.25053300  1
  Fe  Fe14  1  0.00060900  0.00060900  0.74947000  1
  Fe  Fe15  1  0.00060900  0.00060900  0.25053000  1
  O  O16  1  0.00044100  0.25361500  0.74954600  1
  O  O17  1  0.00044100  0.25361500  0.25045400  1
  O  O18  1  0.49972600  0.25058300  0.74970600  1
  O  O19  1  0.49972600  0.25058300  0.25029400  1
  O  O20  1  0.00246900  0.74637300  0.74758700  1
  O  O21  1  0.00246900  0.74637300  0.25241300  1
  O  O22  1  0.49726200  0.74941100  0.74733100  1
  O  O23  1  0.49726200  0.74941100  0.25266900  1
  O  O24  1  0.74637300  0.00246900  0.74758700  1
  O  O25  1  0.74637300  0.00246900  0.25241300  1
  O  O26  1  0.25361500  0.00044100  0.74954600  1
  O  O27  1  0.25361500  0.00044100  0.25045400  1
  O  O28  1  0.74941100  0.49726200  0.74733100  1
  O  O29  1  0.74941100  0.49726200  0.25266900  1
  O  O30  1  0.25058300  0.49972600  0.74970600  1
  O  O31  1  0.25058300  0.49972600  0.25029400  1
  O  O32  1  0.00044600  0.00044600  0.50000000  1
  O  O33  1  0.00230900  0.00230900  0.00000000  1
  O  O34  1  0.49957100  0.00024400  0.50000000  1
  O  O35  1  0.49745000  0.00262000  0.00000000  1
  O  O36  1  0.00024400  0.49957100  0.50000000  1
  O  O37  1  0.00262000  0.49745000  0.00000000  1
  O  O38  1  0.49973200  0.49973200  0.50000000  1
  O  O39  1  0.49736800  0.49736800  0.00000000  1
