# generated using pymatgen
data_ErSe2
_symmetry_space_group_name_H-M   'P 1'
_cell_length_a   7.51561642
_cell_length_b   7.51561642
_cell_length_c   7.51561642
_cell_angle_alpha   148.73721580
_cell_angle_beta   135.80502320
_cell_angle_gamma   55.12640630
_symmetry_Int_Tables_number   1
_chemical_formula_structural   ErSe2
_chemical_formula_sum   'Er2 Se4'
_cell_volume   152.58332345
_cell_formula_units_Z   2
loop_
 _symmetry_equiv_pos_site_id
 _symmetry_equiv_pos_as_xyz
  1  'x, y, z'
loop_
 _atom_site_type_symbol
 _atom_site_label
 _atom_site_symmetry_multiplicity
 _atom_site_fract_x
 _atom_site_fract_y
 _atom_site_fract_z
 _atom_site_occupancy
  Er  Er0  1  0.84998200  0.84998200  0.00000000  1
  Er  Er1  1  0.15001800  0.15001800  0.00000000  1
  Se  Se2  1  0.70679800  0.20679800  0.50000000  1
  Se  Se3  1  0.29320200  0.79320200  0.50000000  1
  Se  Se4  1  0.78556900  0.50000000  0.28556900  1
  Se  Se5  1  0.21443100  0.50000000  0.71443100  1
