# generated using pymatgen
data_BC5
_symmetry_space_group_name_H-M   'P 1'
_cell_length_a   4.46928750
_cell_length_b   4.46928750
_cell_length_c   4.46928750
_cell_angle_alpha   147.44755289
_cell_angle_beta   130.61216583
_cell_angle_gamma   60.40706263
_symmetry_Int_Tables_number   1
_chemical_formula_structural   BC5
_chemical_formula_sum   'B1 C5'
_cell_volume   36.13459138
_cell_formula_units_Z   1
loop_
 _symmetry_equiv_pos_site_id
 _symmetry_equiv_pos_as_xyz
  1  'x, y, z'
loop_
 _atom_site_type_symbol
 _atom_site_label
 _atom_site_symmetry_multiplicity
 _atom_site_fract_x
 _atom_site_fract_y
 _atom_site_fract_z
 _atom_site_occupancy
  B  B0  1  0.47582400  0.50000000  0.97582400  1
  C  C1  1  0.88879800  0.67238400  0.21641400  1
  C  C2  1  0.54403000  0.32761600  0.21641400  1
  C  C3  1  0.12669900  0.16844200  0.95825700  1
  C  C4  1  0.78981500  0.83155800  0.95825700  1
  C  C5  1  0.17473500  0.00000000  0.17473500  1
