# generated using pymatgen
data_Ti3Se4
_symmetry_space_group_name_H-M   'P 1'
_cell_length_a   7.03907478
_cell_length_b   7.03907478
_cell_length_c   6.51646170
_cell_angle_alpha   62.93815213
_cell_angle_beta   62.93815213
_cell_angle_gamma   29.08360221
_symmetry_Int_Tables_number   1
_chemical_formula_structural   Ti3Se4
_chemical_formula_sum   'Ti3 Se4'
_cell_volume   138.53188823
_cell_formula_units_Z   1
loop_
 _symmetry_equiv_pos_site_id
 _symmetry_equiv_pos_as_xyz
  1  'x, y, z'
loop_
 _atom_site_type_symbol
 _atom_site_label
 _atom_site_symmetry_multiplicity
 _atom_site_fract_x
 _atom_site_fract_y
 _atom_site_fract_z
 _atom_site_occupancy
  Ti  Ti0  1  0.00000000  0.00000000  0.00000000  1
  Ti  Ti1  1  0.25135000  0.25135000  0.70286400  1
  Ti  Ti2  1  0.74865000  0.74865000  0.29713600  1
  Se  Se3  1  0.36584200  0.36584200  0.96550400  1
  Se  Se4  1  0.63415800  0.63415800  0.03449600  1
  Se  Se5  1  0.11006000  0.11006000  0.55366100  1
  Se  Se6  1  0.88994000  0.88994000  0.44633900  1
