# generated using pymatgen
data_WBr4
_symmetry_space_group_name_H-M   'P 1'
_cell_length_a   7.61740223
_cell_length_b   7.61740223
_cell_length_c   9.15529666
_cell_angle_alpha   54.81480235
_cell_angle_beta   54.81480235
_cell_angle_gamma   53.74496167
_symmetry_Int_Tables_number   1
_chemical_formula_structural   WBr4
_chemical_formula_sum   'W2 Br8'
_cell_volume   327.00941245
_cell_formula_units_Z   2
loop_
 _symmetry_equiv_pos_site_id
 _symmetry_equiv_pos_as_xyz
  1  'x, y, z'
loop_
 _atom_site_type_symbol
 _atom_site_label
 _atom_site_symmetry_multiplicity
 _atom_site_fract_x
 _atom_site_fract_y
 _atom_site_fract_z
 _atom_site_occupancy
  W  W0  1  0.69947300  0.30052700  0.00000000  1
  W  W1  1  0.30052700  0.69947300  0.00000000  1
  Br  Br2  1  0.76026100  0.28654600  0.71108900  1
  Br  Br3  1  0.71345400  0.23973900  0.28891100  1
  Br  Br4  1  0.23973900  0.71345400  0.28891100  1
  Br  Br5  1  0.28654600  0.76026100  0.71108900  1
  Br  Br6  1  0.70244400  0.70244400  0.82862800  1
  Br  Br7  1  0.29755600  0.29755600  0.17137200  1
  Br  Br8  1  0.83299500  0.83299500  0.14173700  1
  Br  Br9  1  0.16700500  0.16700500  0.85826300  1
