# generated using pymatgen
data_Ce2BiN
_symmetry_space_group_name_H-M   'P 1'
_cell_length_a   4.68460100
_cell_length_b   4.68460100
_cell_length_c   9.20080200
_cell_angle_alpha   90.00000000
_cell_angle_beta   90.00000000
_cell_angle_gamma   90.00000000
_symmetry_Int_Tables_number   1
_chemical_formula_structural   Ce2BiN
_chemical_formula_sum   'Ce4 Bi2 N2'
_cell_volume   201.91607635
_cell_formula_units_Z   2
loop_
 _symmetry_equiv_pos_site_id
 _symmetry_equiv_pos_as_xyz
  1  'x, y, z'
loop_
 _atom_site_type_symbol
 _atom_site_label
 _atom_site_symmetry_multiplicity
 _atom_site_fract_x
 _atom_site_fract_y
 _atom_site_fract_z
 _atom_site_occupancy
  Ce  Ce0  1  0.75000000  0.25000000  0.00000000  1
  Ce  Ce1  1  0.25000000  0.75000000  0.00000000  1
  Ce  Ce2  1  0.75000000  0.75000000  0.67076700  1
  Ce  Ce3  1  0.25000000  0.25000000  0.32923300  1
  Bi  Bi4  1  0.75000000  0.75000000  0.30203700  1
  Bi  Bi5  1  0.25000000  0.25000000  0.69796300  1
  N  N6  1  0.75000000  0.75000000  0.91193900  1
  N  N7  1  0.25000000  0.25000000  0.08806100  1
