# generated using pymatgen
data_CeAsO3
_symmetry_space_group_name_H-M   'P 1'
_cell_length_a   5.32935200
_cell_length_b   4.40953700
_cell_length_c   6.18593989
_cell_angle_alpha   74.67431941
_cell_angle_beta   90.00000000
_cell_angle_gamma   90.00000000
_symmetry_Int_Tables_number   1
_chemical_formula_structural   CeAsO3
_chemical_formula_sum   'Ce2 As2 O6'
_cell_volume   140.19995684
_cell_formula_units_Z   2
loop_
 _symmetry_equiv_pos_site_id
 _symmetry_equiv_pos_as_xyz
  1  'x, y, z'
loop_
 _atom_site_type_symbol
 _atom_site_label
 _atom_site_symmetry_multiplicity
 _atom_site_fract_x
 _atom_site_fract_y
 _atom_site_fract_z
 _atom_site_occupancy
  Ce  Ce0  1  0.75000000  0.66304700  0.70201000  1
  Ce  Ce1  1  0.25000000  0.33695300  0.29799000  1
  As  As2  1  0.75000000  0.92055200  0.14141700  1
  As  As3  1  0.25000000  0.07944800  0.85858300  1
  O  O4  1  0.75000000  0.33631500  0.11549500  1
  O  O5  1  0.25000000  0.66368500  0.88450500  1
  O  O6  1  0.50090300  0.80516400  0.34454700  1
  O  O7  1  0.00090300  0.19483600  0.65545300  1
  O  O8  1  0.49909700  0.19483600  0.65545300  1
  O  O9  1  0.99909700  0.80516400  0.34454700  1
