# generated using pymatgen
data_ZrNiP2
_symmetry_space_group_name_H-M   'P 1'
_cell_length_a   3.60761700
_cell_length_b   3.60761700
_cell_length_c   8.96856100
_cell_angle_alpha   90.00000000
_cell_angle_beta   90.00000000
_cell_angle_gamma   90.00000000
_symmetry_Int_Tables_number   1
_chemical_formula_structural   ZrNiP2
_chemical_formula_sum   'Zr2 Ni2 P4'
_cell_volume   116.72492831
_cell_formula_units_Z   2
loop_
 _symmetry_equiv_pos_site_id
 _symmetry_equiv_pos_as_xyz
  1  'x, y, z'
loop_
 _atom_site_type_symbol
 _atom_site_label
 _atom_site_symmetry_multiplicity
 _atom_site_fract_x
 _atom_site_fract_y
 _atom_site_fract_z
 _atom_site_occupancy
  Zr  Zr0  1  0.00000000  0.50000000  0.77036500  1
  Zr  Zr1  1  0.50000000  0.00000000  0.22963500  1
  Ni  Ni2  1  0.50000000  0.50000000  0.50000000  1
  Ni  Ni3  1  0.00000000  0.00000000  0.50000000  1
  P  P4  1  0.50000000  0.50000000  0.00000000  1
  P  P5  1  0.00000000  0.00000000  0.00000000  1
  P  P6  1  0.00000000  0.50000000  0.34493300  1
  P  P7  1  0.50000000  0.00000000  0.65506700  1
