# generated using pymatgen
data_ErAlPd
_symmetry_space_group_name_H-M   'P 1'
_cell_length_a   7.21537744
_cell_length_b   7.21537744
_cell_length_c   3.93300200
_cell_angle_alpha   90.00000000
_cell_angle_beta   90.00000000
_cell_angle_gamma   119.99999487
_symmetry_Int_Tables_number   1
_chemical_formula_structural   ErAlPd
_chemical_formula_sum   'Er3 Al3 Pd3'
_cell_volume   177.32620913
_cell_formula_units_Z   3
loop_
 _symmetry_equiv_pos_site_id
 _symmetry_equiv_pos_as_xyz
  1  'x, y, z'
loop_
 _atom_site_type_symbol
 _atom_site_label
 _atom_site_symmetry_multiplicity
 _atom_site_fract_x
 _atom_site_fract_y
 _atom_site_fract_z
 _atom_site_occupancy
  Er  Er0  1  0.41775200  0.00000000  0.50000000  1
  Er  Er1  1  0.00000000  0.41775200  0.50000000  1
  Er  Er2  1  0.58224800  0.58224800  0.50000000  1
  Al  Al3  1  0.75948600  0.00000000  0.00000000  1
  Al  Al4  1  0.00000000  0.75948600  0.00000000  1
  Al  Al5  1  0.24051400  0.24051400  0.00000000  1
  Pd  Pd6  1  0.33333300  0.66666700  0.00000000  1
  Pd  Pd7  1  0.66666700  0.33333300  0.00000000  1
  Pd  Pd8  1  0.00000000  0.00000000  0.50000000  1
