# generated using pymatgen
data_Si(NF3)2
_symmetry_space_group_name_H-M   'P 1'
_cell_length_a   5.06733402
_cell_length_b   5.06733402
_cell_length_c   4.97465900
_cell_angle_alpha   90.00000000
_cell_angle_beta   90.00000000
_cell_angle_gamma   120.00000030
_symmetry_Int_Tables_number   1
_chemical_formula_structural   Si(NF3)2
_chemical_formula_sum   'Si1 N2 F6'
_cell_volume   110.62493076
_cell_formula_units_Z   1
loop_
 _symmetry_equiv_pos_site_id
 _symmetry_equiv_pos_as_xyz
  1  'x, y, z'
loop_
 _atom_site_type_symbol
 _atom_site_label
 _atom_site_symmetry_multiplicity
 _atom_site_fract_x
 _atom_site_fract_y
 _atom_site_fract_z
 _atom_site_occupancy
  Si  Si0  1  0.00000000  0.00000000  0.00000000  1
  N  N1  1  0.66666700  0.33333300  0.25765100  1
  N  N2  1  0.33333300  0.66666700  0.74234900  1
  F  F3  1  0.31626200  0.15813100  0.79670400  1
  F  F4  1  0.84186900  0.68373800  0.79670400  1
  F  F5  1  0.84186900  0.15813100  0.79670400  1
  F  F6  1  0.68373800  0.84186900  0.20329600  1
  F  F7  1  0.15813100  0.31626200  0.20329600  1
  F  F8  1  0.15813100  0.84186900  0.20329600  1
