# generated using pymatgen
data_DyNiGe2
_symmetry_space_group_name_H-M   'P 1'
_cell_length_a   8.47374803
_cell_length_b   8.47374803
_cell_length_c   4.22612000
_cell_angle_alpha   90.00000000
_cell_angle_beta   90.00000000
_cell_angle_gamma   151.87876153
_symmetry_Int_Tables_number   1
_chemical_formula_structural   DyNiGe2
_chemical_formula_sum   'Dy2 Ni2 Ge4'
_cell_volume   143.02967175
_cell_formula_units_Z   2
loop_
 _symmetry_equiv_pos_site_id
 _symmetry_equiv_pos_as_xyz
  1  'x, y, z'
loop_
 _atom_site_type_symbol
 _atom_site_label
 _atom_site_symmetry_multiplicity
 _atom_site_fract_x
 _atom_site_fract_y
 _atom_site_fract_z
 _atom_site_occupancy
  Dy  Dy0  1  0.89101700  0.10898300  0.25000000  1
  Dy  Dy1  1  0.10898300  0.89101700  0.75000000  1
  Ni  Ni2  1  0.67944000  0.32056000  0.25000000  1
  Ni  Ni3  1  0.32056000  0.67944000  0.75000000  1
  Ge  Ge4  1  0.54027900  0.45972100  0.25000000  1
  Ge  Ge5  1  0.45972100  0.54027900  0.75000000  1
  Ge  Ge6  1  0.25103000  0.74897000  0.25000000  1
  Ge  Ge7  1  0.74897000  0.25103000  0.75000000  1
