# generated using pymatgen
data_Pt(I3N)2
_symmetry_space_group_name_H-M   'P 1'
_cell_length_a   7.85645838
_cell_length_b   7.85645838
_cell_length_c   7.85645838
_cell_angle_alpha   60.00000000
_cell_angle_beta   60.00000000
_cell_angle_gamma   60.00000000
_symmetry_Int_Tables_number   1
_chemical_formula_structural   Pt(I3N)2
_chemical_formula_sum   'Pt1 I6 N2'
_cell_volume   342.89838954
_cell_formula_units_Z   1
loop_
 _symmetry_equiv_pos_site_id
 _symmetry_equiv_pos_as_xyz
  1  'x, y, z'
loop_
 _atom_site_type_symbol
 _atom_site_label
 _atom_site_symmetry_multiplicity
 _atom_site_fract_x
 _atom_site_fract_y
 _atom_site_fract_z
 _atom_site_occupancy
  Pt  Pt0  1  0.00000000  0.00000000  0.00000000  1
  I  I1  1  0.75998300  0.24001700  0.24001700  1
  I  I2  1  0.75998300  0.75998300  0.24001700  1
  I  I3  1  0.24001700  0.75998300  0.24001700  1
  I  I4  1  0.24001700  0.24001700  0.75998300  1
  I  I5  1  0.75998300  0.24001700  0.75998300  1
  I  I6  1  0.24001700  0.75998300  0.75998300  1
  N  N7  1  0.75000000  0.75000000  0.75000000  1
  N  N8  1  0.25000000  0.25000000  0.25000000  1
