# generated using pymatgen
data_Ho2InNi2
_symmetry_space_group_name_H-M   'P 1'
_cell_length_a   7.41026900
_cell_length_b   7.41026900
_cell_length_c   3.63039300
_cell_angle_alpha   90.00000000
_cell_angle_beta   90.00000000
_cell_angle_gamma   90.00000000
_symmetry_Int_Tables_number   1
_chemical_formula_structural   Ho2InNi2
_chemical_formula_sum   'Ho4 In2 Ni4'
_cell_volume   199.35245500
_cell_formula_units_Z   2
loop_
 _symmetry_equiv_pos_site_id
 _symmetry_equiv_pos_as_xyz
  1  'x, y, z'
loop_
 _atom_site_type_symbol
 _atom_site_label
 _atom_site_symmetry_multiplicity
 _atom_site_fract_x
 _atom_site_fract_y
 _atom_site_fract_z
 _atom_site_occupancy
  Ho  Ho0  1  0.67307700  0.17307700  0.50000000  1
  Ho  Ho1  1  0.32692300  0.82692300  0.50000000  1
  Ho  Ho2  1  0.17307700  0.32692300  0.50000000  1
  Ho  Ho3  1  0.82692300  0.67307700  0.50000000  1
  In  In4  1  0.50000000  0.50000000  0.00000000  1
  In  In5  1  0.00000000  0.00000000  0.00000000  1
  Ni  Ni6  1  0.11932400  0.61932400  0.00000000  1
  Ni  Ni7  1  0.88067600  0.38067600  0.00000000  1
  Ni  Ni8  1  0.61932400  0.88067600  0.00000000  1
  Ni  Ni9  1  0.38067600  0.11932400  0.00000000  1
