# generated using pymatgen
data_Tc(Br3O)2
_symmetry_space_group_name_H-M   'P 1'
_cell_length_a   7.03620320
_cell_length_b   7.03620320
_cell_length_c   7.03620320
_cell_angle_alpha   60.00000000
_cell_angle_beta   60.00000000
_cell_angle_gamma   60.00000000
_symmetry_Int_Tables_number   1
_chemical_formula_structural   Tc(Br3O)2
_chemical_formula_sum   'Tc1 Br6 O2'
_cell_volume   246.32025315
_cell_formula_units_Z   1
loop_
 _symmetry_equiv_pos_site_id
 _symmetry_equiv_pos_as_xyz
  1  'x, y, z'
loop_
 _atom_site_type_symbol
 _atom_site_label
 _atom_site_symmetry_multiplicity
 _atom_site_fract_x
 _atom_site_fract_y
 _atom_site_fract_z
 _atom_site_occupancy
  Tc  Tc0  1  0.00000000  0.00000000  0.00000000  1
  Br  Br1  1  0.75271400  0.75271400  0.24728600  1
  Br  Br2  1  0.24728600  0.75271400  0.24728600  1
  Br  Br3  1  0.75271400  0.24728600  0.24728600  1
  Br  Br4  1  0.24728600  0.24728600  0.75271400  1
  Br  Br5  1  0.75271400  0.24728600  0.75271400  1
  Br  Br6  1  0.24728600  0.75271400  0.75271400  1
  O  O7  1  0.75000000  0.75000000  0.75000000  1
  O  O8  1  0.25000000  0.25000000  0.25000000  1
