# generated using pymatgen
data_TaS2N
_symmetry_space_group_name_H-M   'P 1'
_cell_length_a   3.35444288
_cell_length_b   3.35444288
_cell_length_c   17.47530600
_cell_angle_alpha   90.00000000
_cell_angle_beta   90.00000000
_cell_angle_gamma   120.00001729
_symmetry_Int_Tables_number   1
_chemical_formula_structural   TaS2N
_chemical_formula_sum   'Ta2 S4 N2'
_cell_volume   170.29274515
_cell_formula_units_Z   2
loop_
 _symmetry_equiv_pos_site_id
 _symmetry_equiv_pos_as_xyz
  1  'x, y, z'
loop_
 _atom_site_type_symbol
 _atom_site_label
 _atom_site_symmetry_multiplicity
 _atom_site_fract_x
 _atom_site_fract_y
 _atom_site_fract_z
 _atom_site_occupancy
  Ta  Ta0  1  0.00000000  0.00000000  0.24996700  1
  Ta  Ta1  1  0.00000000  0.00000000  0.74996700  1
  S  S2  1  0.33333300  0.66666700  0.34010900  1
  S  S3  1  0.66666700  0.33333300  0.84010900  1
  S  S4  1  0.33333300  0.66666700  0.16054200  1
  S  S5  1  0.66666700  0.33333300  0.66054200  1
  N  N6  1  0.66666700  0.33333300  0.49938200  1
  N  N7  1  0.33333300  0.66666700  0.99938200  1
