# generated using pymatgen
data_Ir(NCl)4
_symmetry_space_group_name_H-M   'P 1'
_cell_length_a   5.63676700
_cell_length_b   6.14157173
_cell_length_c   7.40365433
_cell_angle_alpha   111.99842810
_cell_angle_beta   108.22489089
_cell_angle_gamma   92.78439835
_symmetry_Int_Tables_number   1
_chemical_formula_structural   Ir(NCl)4
_chemical_formula_sum   'Ir1 N4 Cl4'
_cell_volume   221.69001626
_cell_formula_units_Z   1
loop_
 _symmetry_equiv_pos_site_id
 _symmetry_equiv_pos_as_xyz
  1  'x, y, z'
loop_
 _atom_site_type_symbol
 _atom_site_label
 _atom_site_symmetry_multiplicity
 _atom_site_fract_x
 _atom_site_fract_y
 _atom_site_fract_z
 _atom_site_occupancy
  Ir  Ir0  1  0.56037900  0.36272100  0.72542300  1
  N  N1  1  0.53131400  0.26497900  0.42700000  1
  N  N2  1  0.72901100  0.58967300  0.27719800  1
  N  N3  1  0.79236900  0.29264000  0.90079200  1
  N  N4  1  0.42476600  0.59753700  0.84428200  1
  Cl  Cl5  1  0.23130200  0.04513000  0.61358300  1
  Cl  Cl6  1  0.89884200  0.69928300  0.82015800  1
  Cl  Cl7  1  0.47888400  0.67158700  0.31846800  1
  Cl  Cl8  1  0.75123200  0.29485000  0.34439500  1
