# generated using pymatgen
data_MgSeO9
_symmetry_space_group_name_H-M   'P 1'
_cell_length_a   5.39026732
_cell_length_b   5.39026732
_cell_length_c   5.39026753
_cell_angle_alpha   95.53852808
_cell_angle_beta   95.53852808
_cell_angle_gamma   95.53853125
_symmetry_Int_Tables_number   1
_chemical_formula_structural   MgSeO9
_chemical_formula_sum   'Mg1 Se1 O9'
_cell_volume   154.26740916
_cell_formula_units_Z   1
loop_
 _symmetry_equiv_pos_site_id
 _symmetry_equiv_pos_as_xyz
  1  'x, y, z'
loop_
 _atom_site_type_symbol
 _atom_site_label
 _atom_site_symmetry_multiplicity
 _atom_site_fract_x
 _atom_site_fract_y
 _atom_site_fract_z
 _atom_site_occupancy
  Mg  Mg0  1  0.99771500  0.99771500  0.99771500  1
  Se  Se1  1  0.50593200  0.50593200  0.50593200  1
  O  O2  1  0.23536000  0.61795100  0.52844900  1
  O  O3  1  0.52844900  0.23536000  0.61795100  1
  O  O4  1  0.61795100  0.52844900  0.23536000  1
  O  O5  1  0.58926400  0.91987700  0.98064100  1
  O  O6  1  0.98064100  0.58926400  0.91987700  1
  O  O7  1  0.91987700  0.98064100  0.58926400  1
  O  O8  1  0.04047500  0.04516700  0.41093800  1
  O  O9  1  0.41093800  0.04047500  0.04516700  1
  O  O10  1  0.04516600  0.41093800  0.04047500  1
