# generated using pymatgen
data_PbSe
_symmetry_space_group_name_H-M   'P 1'
_cell_length_a   4.41518400
_cell_length_b   4.45645100
_cell_length_c   13.21981800
_cell_angle_alpha   90.00000000
_cell_angle_beta   90.00000000
_cell_angle_gamma   90.00000000
_symmetry_Int_Tables_number   1
_chemical_formula_structural   PbSe
_chemical_formula_sum   'Pb4 Se4'
_cell_volume   260.11381519
_cell_formula_units_Z   4
loop_
 _symmetry_equiv_pos_site_id
 _symmetry_equiv_pos_as_xyz
  1  'x, y, z'
loop_
 _atom_site_type_symbol
 _atom_site_label
 _atom_site_symmetry_multiplicity
 _atom_site_fract_x
 _atom_site_fract_y
 _atom_site_fract_z
 _atom_site_occupancy
  Pb  Pb0  1  0.91028600  0.75000000  0.14041900  1
  Pb  Pb1  1  0.58971400  0.75000000  0.64041900  1
  Pb  Pb2  1  0.08971400  0.25000000  0.85958100  1
  Pb  Pb3  1  0.41028600  0.25000000  0.35958100  1
  Se  Se4  1  0.95175400  0.75000000  0.35769400  1
  Se  Se5  1  0.54824600  0.75000000  0.85769400  1
  Se  Se6  1  0.04824600  0.25000000  0.64230600  1
  Se  Se7  1  0.45175400  0.25000000  0.14230600  1
