# generated using pymatgen
data_Sm(CrB3)2
_symmetry_space_group_name_H-M   'P 1'
_cell_length_a   5.51799147
_cell_length_b   5.51799147
_cell_length_c   5.51799147
_cell_angle_alpha   147.39189716
_cell_angle_beta   107.45659287
_cell_angle_gamma   81.81560382
_symmetry_Int_Tables_number   1
_chemical_formula_structural   Sm(CrB3)2
_chemical_formula_sum   'Sm1 Cr2 B6'
_cell_volume   84.35767260
_cell_formula_units_Z   1
loop_
 _symmetry_equiv_pos_site_id
 _symmetry_equiv_pos_as_xyz
  1  'x, y, z'
loop_
 _atom_site_type_symbol
 _atom_site_label
 _atom_site_symmetry_multiplicity
 _atom_site_fract_x
 _atom_site_fract_y
 _atom_site_fract_z
 _atom_site_occupancy
  Sm  Sm0  1  0.50000000  0.00000000  0.50000000  1
  Cr  Cr1  1  0.84648200  0.84648200  0.00000000  1
  Cr  Cr2  1  0.15351800  0.15351800  0.00000000  1
  B  B3  1  0.85914400  0.50000000  0.35914400  1
  B  B4  1  0.14085600  0.50000000  0.64085600  1
  B  B5  1  0.96026500  0.69700600  0.26325900  1
  B  B6  1  0.56625200  0.30299300  0.26325900  1
  B  B7  1  0.43374800  0.69700600  0.73674100  1
  B  B8  1  0.03973500  0.30299300  0.73674100  1
