# generated using pymatgen
data_MnGeRh
_symmetry_space_group_name_H-M   'P 1'
_cell_length_a   6.57277738
_cell_length_b   6.57277738
_cell_length_c   3.62250200
_cell_angle_alpha   90.00000000
_cell_angle_beta   90.00000000
_cell_angle_gamma   119.99999371
_symmetry_Int_Tables_number   1
_chemical_formula_structural   MnGeRh
_chemical_formula_sum   'Mn3 Ge3 Rh3'
_cell_volume   135.53053056
_cell_formula_units_Z   3
loop_
 _symmetry_equiv_pos_site_id
 _symmetry_equiv_pos_as_xyz
  1  'x, y, z'
loop_
 _atom_site_type_symbol
 _atom_site_label
 _atom_site_symmetry_multiplicity
 _atom_site_fract_x
 _atom_site_fract_y
 _atom_site_fract_z
 _atom_site_occupancy
  Mn  Mn0  1  0.40880000  0.40880000  0.50000000  1
  Mn  Mn1  1  0.59120000  0.00000000  0.50000000  1
  Mn  Mn2  1  0.00000000  0.59120000  0.50000000  1
  Ge  Ge3  1  0.66666700  0.33333300  0.00000000  1
  Ge  Ge4  1  0.33333300  0.66666700  0.00000000  1
  Ge  Ge5  1  0.00000000  0.00000000  0.50000000  1
  Rh  Rh6  1  0.74172900  0.74172900  0.00000000  1
  Rh  Rh7  1  0.25827100  0.00000000  0.00000000  1
  Rh  Rh8  1  0.00000000  0.25827100  0.00000000  1
