# generated using pymatgen
data_K2PtO6
_symmetry_space_group_name_H-M   'P 1'
_cell_length_a   5.69012566
_cell_length_b   5.69012566
_cell_length_c   5.69012615
_cell_angle_alpha   70.03307117
_cell_angle_beta   70.03307117
_cell_angle_gamma   70.03306987
_symmetry_Int_Tables_number   1
_chemical_formula_structural   K2PtO6
_chemical_formula_sum   'K2 Pt1 O6'
_cell_volume   157.38828351
_cell_formula_units_Z   1
loop_
 _symmetry_equiv_pos_site_id
 _symmetry_equiv_pos_as_xyz
  1  'x, y, z'
loop_
 _atom_site_type_symbol
 _atom_site_label
 _atom_site_symmetry_multiplicity
 _atom_site_fract_x
 _atom_site_fract_y
 _atom_site_fract_z
 _atom_site_occupancy
  K  K0  1  0.72017800  0.72017800  0.72017800  1
  K  K1  1  0.27982200  0.27982200  0.27982200  1
  Pt  Pt2  1  0.00000000  0.00000000  0.00000000  1
  O  O3  1  0.18193400  0.83784000  0.72379200  1
  O  O4  1  0.83784000  0.72379200  0.18193400  1
  O  O5  1  0.72379200  0.18193400  0.83784000  1
  O  O6  1  0.81806600  0.16216000  0.27620800  1
  O  O7  1  0.16216000  0.27620800  0.81806600  1
  O  O8  1  0.27620800  0.81806600  0.16216000  1
