# generated using pymatgen
data_V3AsN
_symmetry_space_group_name_H-M   'P 1'
_cell_length_a   5.34599991
_cell_length_b   5.34599991
_cell_length_c   7.55141600
_cell_angle_alpha   90.00000000
_cell_angle_beta   90.00000000
_cell_angle_gamma   146.11087009
_symmetry_Int_Tables_number   1
_chemical_formula_structural   V3AsN
_chemical_formula_sum   'V6 As2 N2'
_cell_volume   120.33706630
_cell_formula_units_Z   2
loop_
 _symmetry_equiv_pos_site_id
 _symmetry_equiv_pos_as_xyz
  1  'x, y, z'
loop_
 _atom_site_type_symbol
 _atom_site_label
 _atom_site_symmetry_multiplicity
 _atom_site_fract_x
 _atom_site_fract_y
 _atom_site_fract_z
 _atom_site_occupancy
  V  V0  1  0.95652000  0.04348000  0.25000000  1
  V  V1  1  0.04348000  0.95652000  0.75000000  1
  V  V2  1  0.62440100  0.37559900  0.45174400  1
  V  V3  1  0.37559900  0.62440100  0.54825600  1
  V  V4  1  0.62440100  0.37559900  0.04825600  1
  V  V5  1  0.37559900  0.62440100  0.95174400  1
  As  As6  1  0.25775200  0.74224800  0.25000000  1
  As  As7  1  0.74224800  0.25775200  0.75000000  1
  N  N8  1  0.00000000  0.00000000  0.50000000  1
  N  N9  1  0.00000000  0.00000000  0.00000000  1
