# generated using pymatgen
data_EuGa
_symmetry_space_group_name_H-M   'P 1'
_cell_length_a   5.85653200
_cell_length_b   6.26082301
_cell_length_c   6.49976072
_cell_angle_alpha   68.13632344
_cell_angle_beta   78.48763853
_cell_angle_gamma   85.11066594
_symmetry_Int_Tables_number   1
_chemical_formula_structural   EuGa
_chemical_formula_sum   'Eu4 Ga4'
_cell_volume   216.71732010
_cell_formula_units_Z   4
loop_
 _symmetry_equiv_pos_site_id
 _symmetry_equiv_pos_as_xyz
  1  'x, y, z'
loop_
 _atom_site_type_symbol
 _atom_site_label
 _atom_site_symmetry_multiplicity
 _atom_site_fract_x
 _atom_site_fract_y
 _atom_site_fract_z
 _atom_site_occupancy
  Eu  Eu0  1  0.67237900  0.29939200  0.35330000  1
  Eu  Eu1  1  0.76709300  0.85108800  0.92581600  1
  Eu  Eu2  1  0.32762100  0.70060800  0.64670000  1
  Eu  Eu3  1  0.23290700  0.14891200  0.07418400  1
  Ga  Ga4  1  0.13488600  0.23864300  0.56682300  1
  Ga  Ga5  1  0.21375600  0.60871100  0.19100000  1
  Ga  Ga6  1  0.86511400  0.76135700  0.43317700  1
  Ga  Ga7  1  0.78624400  0.39128900  0.80900000  1
