# generated using pymatgen
data_W2N3
_symmetry_space_group_name_H-M   'P 1'
_cell_length_a   2.91939815
_cell_length_b   2.91939815
_cell_length_c   15.83540100
_cell_angle_alpha   90.00000000
_cell_angle_beta   90.00000000
_cell_angle_gamma   120.00000330
_symmetry_Int_Tables_number   1
_chemical_formula_structural   W2N3
_chemical_formula_sum   'W4 N6'
_cell_volume   116.88165123
_cell_formula_units_Z   2
loop_
 _symmetry_equiv_pos_site_id
 _symmetry_equiv_pos_as_xyz
  1  'x, y, z'
loop_
 _atom_site_type_symbol
 _atom_site_label
 _atom_site_symmetry_multiplicity
 _atom_site_fract_x
 _atom_site_fract_y
 _atom_site_fract_z
 _atom_site_occupancy
  W  W0  1  0.33333300  0.66666700  0.65716300  1
  W  W1  1  0.66666700  0.33333300  0.34283700  1
  W  W2  1  0.66666700  0.33333300  0.15716300  1
  W  W3  1  0.33333300  0.66666700  0.84283700  1
  N  N4  1  0.33333300  0.66666700  0.41352500  1
  N  N5  1  0.66666700  0.33333300  0.58647500  1
  N  N6  1  0.66666700  0.33333300  0.91352500  1
  N  N7  1  0.33333300  0.66666700  0.08647500  1
  N  N8  1  0.33333300  0.66666700  0.25000000  1
  N  N9  1  0.66666700  0.33333300  0.75000000  1
