# generated using pymatgen
data_BaZrSe3
_symmetry_space_group_name_H-M   'P 1'
_cell_length_a   7.26262050
_cell_length_b   7.26262050
_cell_length_c   6.44910600
_cell_angle_alpha   90.00000000
_cell_angle_beta   90.00000000
_cell_angle_gamma   120.00000459
_symmetry_Int_Tables_number   1
_chemical_formula_structural   BaZrSe3
_chemical_formula_sum   'Ba2 Zr2 Se6'
_cell_volume   294.58920587
_cell_formula_units_Z   2
loop_
 _symmetry_equiv_pos_site_id
 _symmetry_equiv_pos_as_xyz
  1  'x, y, z'
loop_
 _atom_site_type_symbol
 _atom_site_label
 _atom_site_symmetry_multiplicity
 _atom_site_fract_x
 _atom_site_fract_y
 _atom_site_fract_z
 _atom_site_occupancy
  Ba  Ba0  1  0.33333300  0.66666700  0.75000000  1
  Ba  Ba1  1  0.66666700  0.33333300  0.25000000  1
  Zr  Zr2  1  0.00000000  0.00000000  0.50000000  1
  Zr  Zr3  1  0.00000000  0.00000000  0.00000000  1
  Se  Se4  1  0.17257300  0.82742700  0.25000000  1
  Se  Se5  1  0.17257300  0.34514700  0.25000000  1
  Se  Se6  1  0.65485300  0.82742700  0.25000000  1
  Se  Se7  1  0.82742700  0.17257300  0.75000000  1
  Se  Se8  1  0.82742700  0.65485300  0.75000000  1
  Se  Se9  1  0.34514700  0.17257300  0.75000000  1
