# generated using pymatgen
data_Dy(GePt)2
_symmetry_space_group_name_H-M   'P 1'
_cell_length_a   4.17877300
_cell_length_b   4.17877300
_cell_length_c   10.69957000
_cell_angle_alpha   90.00000000
_cell_angle_beta   90.00000000
_cell_angle_gamma   90.00000000
_symmetry_Int_Tables_number   1
_chemical_formula_structural   Dy(GePt)2
_chemical_formula_sum   'Dy2 Ge4 Pt4'
_cell_volume   186.83742978
_cell_formula_units_Z   2
loop_
 _symmetry_equiv_pos_site_id
 _symmetry_equiv_pos_as_xyz
  1  'x, y, z'
loop_
 _atom_site_type_symbol
 _atom_site_label
 _atom_site_symmetry_multiplicity
 _atom_site_fract_x
 _atom_site_fract_y
 _atom_site_fract_z
 _atom_site_occupancy
  Dy  Dy0  1  0.50000000  0.00000000  0.24233900  1
  Dy  Dy1  1  0.00000000  0.50000000  0.75766100  1
  Ge  Ge2  1  0.50000000  0.00000000  0.86203400  1
  Ge  Ge3  1  0.00000000  0.50000000  0.13796600  1
  Ge  Ge4  1  0.00000000  0.00000000  0.50000000  1
  Ge  Ge5  1  0.50000000  0.50000000  0.50000000  1
  Pt  Pt6  1  0.50000000  0.00000000  0.63485200  1
  Pt  Pt7  1  0.00000000  0.50000000  0.36514800  1
  Pt  Pt8  1  0.00000000  0.00000000  0.00000000  1
  Pt  Pt9  1  0.50000000  0.50000000  0.00000000  1
