# generated using pymatgen
data_SrTcO3
_symmetry_space_group_name_H-M   'P 1'
_cell_length_a   5.62448040
_cell_length_b   5.62448040
_cell_length_c   5.62448040
_cell_angle_alpha   120.16976303
_cell_angle_beta   119.92845063
_cell_angle_gamma   89.91509273
_symmetry_Int_Tables_number   1
_chemical_formula_structural   SrTcO3
_chemical_formula_sum   'Sr2 Tc2 O6'
_cell_volume   125.72070916
_cell_formula_units_Z   2
loop_
 _symmetry_equiv_pos_site_id
 _symmetry_equiv_pos_as_xyz
  1  'x, y, z'
loop_
 _atom_site_type_symbol
 _atom_site_label
 _atom_site_symmetry_multiplicity
 _atom_site_fract_x
 _atom_site_fract_y
 _atom_site_fract_z
 _atom_site_occupancy
  Sr  Sr0  1  0.25002600  0.75000000  0.50002600  1
  Sr  Sr1  1  0.74997400  0.25000000  0.49997400  1
  Tc  Tc2  1  0.50000000  0.50000000  0.00000000  1
  Tc  Tc3  1  0.00000000  0.00000000  0.00000000  1
  O  O4  1  0.71460600  0.75000000  0.96460600  1
  O  O5  1  0.28539400  0.25000000  0.03539400  1
  O  O6  1  0.23313800  0.23313800  0.50000000  1
  O  O7  1  0.76686200  0.26686200  0.00000000  1
  O  O8  1  0.23313800  0.73313800  0.00000000  1
  O  O9  1  0.76686200  0.76686200  0.50000000  1
