# generated using pymatgen
data_UAlCo
_symmetry_space_group_name_H-M   'P 1'
_cell_length_a   6.56299937
_cell_length_b   6.56299937
_cell_length_c   4.03584900
_cell_angle_alpha   90.00000000
_cell_angle_beta   90.00000000
_cell_angle_gamma   119.99999367
_symmetry_Int_Tables_number   1
_chemical_formula_structural   UAlCo
_chemical_formula_sum   'U3 Al3 Co3'
_cell_volume   150.54637191
_cell_formula_units_Z   3
loop_
 _symmetry_equiv_pos_site_id
 _symmetry_equiv_pos_as_xyz
  1  'x, y, z'
loop_
 _atom_site_type_symbol
 _atom_site_label
 _atom_site_symmetry_multiplicity
 _atom_site_fract_x
 _atom_site_fract_y
 _atom_site_fract_z
 _atom_site_occupancy
  U  U0  1  0.42353500  0.42353500  0.50000000  1
  U  U1  1  0.57646500  0.00000000  0.50000000  1
  U  U2  1  0.00000000  0.57646500  0.50000000  1
  Al  Al3  1  0.76432600  0.76432600  0.00000000  1
  Al  Al4  1  0.23567400  0.00000000  0.00000000  1
  Al  Al5  1  0.00000000  0.23567400  0.00000000  1
  Co  Co6  1  0.66666700  0.33333300  0.00000000  1
  Co  Co7  1  0.33333300  0.66666700  0.00000000  1
  Co  Co8  1  0.00000000  0.00000000  0.50000000  1
