# generated using pymatgen
data_ThTaN3
_symmetry_space_group_name_H-M   'P 1'
_cell_length_a   5.52298785
_cell_length_b   5.52298785
_cell_length_c   7.68509400
_cell_angle_alpha   90.00000000
_cell_angle_beta   90.00000000
_cell_angle_gamma   145.94096826
_symmetry_Int_Tables_number   1
_chemical_formula_structural   ThTaN3
_chemical_formula_sum   'Th2 Ta2 N6'
_cell_volume   131.28697753
_cell_formula_units_Z   2
loop_
 _symmetry_equiv_pos_site_id
 _symmetry_equiv_pos_as_xyz
  1  'x, y, z'
loop_
 _atom_site_type_symbol
 _atom_site_label
 _atom_site_symmetry_multiplicity
 _atom_site_fract_x
 _atom_site_fract_y
 _atom_site_fract_z
 _atom_site_occupancy
  Th  Th0  1  0.73800800  0.26199200  0.25000000  1
  Th  Th1  1  0.26199200  0.73800800  0.75000000  1
  Ta  Ta2  1  0.00000000  0.00000000  0.50000000  1
  Ta  Ta3  1  0.00000000  0.00000000  0.00000000  1
  N  N4  1  0.07175700  0.92824300  0.25000000  1
  N  N5  1  0.92824300  0.07175700  0.75000000  1
  N  N6  1  0.37082500  0.62917500  0.44367200  1
  N  N7  1  0.62917500  0.37082500  0.55632800  1
  N  N8  1  0.37082500  0.62917500  0.05632800  1
  N  N9  1  0.62917500  0.37082500  0.94367200  1
