# generated using pymatgen
data_CoO4
_symmetry_space_group_name_H-M   'P 1'
_cell_length_a   6.47665500
_cell_length_b   5.50021300
_cell_length_c   5.51610044
_cell_angle_alpha   89.41102550
_cell_angle_beta   90.00000000
_cell_angle_gamma   90.00000000
_symmetry_Int_Tables_number   1
_chemical_formula_structural   CoO4
_chemical_formula_sum   'Co2 O8'
_cell_volume   196.48956487
_cell_formula_units_Z   2
loop_
 _symmetry_equiv_pos_site_id
 _symmetry_equiv_pos_as_xyz
  1  'x, y, z'
loop_
 _atom_site_type_symbol
 _atom_site_label
 _atom_site_symmetry_multiplicity
 _atom_site_fract_x
 _atom_site_fract_y
 _atom_site_fract_z
 _atom_site_occupancy
  Co  Co0  1  0.25000000  0.67538900  0.66796500  1
  Co  Co1  1  0.75000000  0.32461100  0.33203500  1
  O  O2  1  0.45536200  0.80829200  0.76206500  1
  O  O3  1  0.95536200  0.19170800  0.23793500  1
  O  O4  1  0.54463800  0.19170800  0.23793500  1
  O  O5  1  0.04463800  0.80829200  0.76206500  1
  O  O6  1  0.25000000  0.67900000  0.37210400  1
  O  O7  1  0.75000000  0.32100000  0.62789600  1
  O  O8  1  0.25000000  0.39657900  0.75647800  1
  O  O9  1  0.75000000  0.60342100  0.24352200  1
