# generated using pymatgen
data_VIr
_symmetry_space_group_name_H-M   'P 1'
_cell_length_a   6.65149973
_cell_length_b   6.65149973
_cell_length_c   2.78487000
_cell_angle_alpha   90.00000000
_cell_angle_beta   90.00000000
_cell_angle_gamma   115.08261218
_symmetry_Int_Tables_number   1
_chemical_formula_structural   VIr
_chemical_formula_sum   'V4 Ir4'
_cell_volume   111.59050601
_cell_formula_units_Z   4
loop_
 _symmetry_equiv_pos_site_id
 _symmetry_equiv_pos_as_xyz
  1  'x, y, z'
loop_
 _atom_site_type_symbol
 _atom_site_label
 _atom_site_symmetry_multiplicity
 _atom_site_fract_x
 _atom_site_fract_y
 _atom_site_fract_z
 _atom_site_occupancy
  V  V0  1  0.22654100  0.77345900  0.50000000  1
  V  V1  1  0.50000000  0.50000000  0.50000000  1
  V  V2  1  0.00000000  0.00000000  0.50000000  1
  V  V3  1  0.77345900  0.22654100  0.50000000  1
  Ir  Ir4  1  0.85762200  0.60272700  0.00000000  1
  Ir  Ir5  1  0.39727300  0.14237800  0.00000000  1
  Ir  Ir6  1  0.14237800  0.39727300  0.00000000  1
  Ir  Ir7  1  0.60272700  0.85762200  0.00000000  1
