# generated using pymatgen
data_Tb(BC)2
_symmetry_space_group_name_H-M   'P 1'
_cell_length_a   3.80137400
_cell_length_b   3.80137400
_cell_length_c   7.25555900
_cell_angle_alpha   90.00000000
_cell_angle_beta   90.00000000
_cell_angle_gamma   90.00000000
_symmetry_Int_Tables_number   1
_chemical_formula_structural   Tb(BC)2
_chemical_formula_sum   'Tb2 B4 C4'
_cell_volume   104.84605111
_cell_formula_units_Z   2
loop_
 _symmetry_equiv_pos_site_id
 _symmetry_equiv_pos_as_xyz
  1  'x, y, z'
loop_
 _atom_site_type_symbol
 _atom_site_label
 _atom_site_symmetry_multiplicity
 _atom_site_fract_x
 _atom_site_fract_y
 _atom_site_fract_z
 _atom_site_occupancy
  Tb  Tb0  1  0.00000000  0.00000000  0.75000000  1
  Tb  Tb1  1  0.00000000  0.00000000  0.25000000  1
  B  B2  1  0.21548600  0.50000000  0.00000000  1
  B  B3  1  0.78451400  0.50000000  0.00000000  1
  B  B4  1  0.50000000  0.21548600  0.50000000  1
  B  B5  1  0.50000000  0.78451400  0.50000000  1
  C  C6  1  0.50000000  0.18755700  0.00000000  1
  C  C7  1  0.50000000  0.81244300  0.00000000  1
  C  C8  1  0.81244300  0.50000000  0.50000000  1
  C  C9  1  0.18755700  0.50000000  0.50000000  1
