# generated using pymatgen
data_Cr(ClO)2
_symmetry_space_group_name_H-M   'P 1'
_cell_length_a   5.41308500
_cell_length_b   6.98378500
_cell_length_c   7.73745751
_cell_angle_alpha   73.96563468
_cell_angle_beta   90.00000000
_cell_angle_gamma   90.00000000
_symmetry_Int_Tables_number   1
_chemical_formula_structural   Cr(ClO)2
_chemical_formula_sum   'Cr2 Cl4 O4'
_cell_volume   281.12589059
_cell_formula_units_Z   2
loop_
 _symmetry_equiv_pos_site_id
 _symmetry_equiv_pos_as_xyz
  1  'x, y, z'
loop_
 _atom_site_type_symbol
 _atom_site_label
 _atom_site_symmetry_multiplicity
 _atom_site_fract_x
 _atom_site_fract_y
 _atom_site_fract_z
 _atom_site_occupancy
  Cr  Cr0  1  0.82416200  0.33632000  0.27506000  1
  Cr  Cr1  1  0.32416200  0.66368000  0.72494000  1
  Cl  Cl2  1  0.94475100  0.15512100  0.11185600  1
  Cl  Cl3  1  0.44475100  0.84487900  0.88814400  1
  Cl  Cl4  1  0.93599700  0.22252500  0.54753200  1
  Cl  Cl5  1  0.43599700  0.77747500  0.45246800  1
  O  O6  1  0.93535400  0.55387500  0.19855100  1
  O  O7  1  0.43535400  0.44612500  0.80144900  1
  O  O8  1  0.53082600  0.34671800  0.26814600  1
  O  O9  1  0.03082600  0.65328200  0.73185400  1
