# generated using pymatgen
data_Ba2CeNbO6
_symmetry_space_group_name_H-M   'P 1'
_cell_length_a   6.10344267
_cell_length_b   6.10344267
_cell_length_c   6.16449630
_cell_angle_alpha   59.91162973
_cell_angle_beta   59.91162973
_cell_angle_gamma   60.03301319
_symmetry_Int_Tables_number   1
_chemical_formula_structural   Ba2CeNbO6
_chemical_formula_sum   'Ba2 Ce1 Nb1 O6'
_cell_volume   162.20300578
_cell_formula_units_Z   1
loop_
 _symmetry_equiv_pos_site_id
 _symmetry_equiv_pos_as_xyz
  1  'x, y, z'
loop_
 _atom_site_type_symbol
 _atom_site_label
 _atom_site_symmetry_multiplicity
 _atom_site_fract_x
 _atom_site_fract_y
 _atom_site_fract_z
 _atom_site_occupancy
  Ba  Ba0  1  0.75124500  0.75124500  0.74516500  1
  Ba  Ba1  1  0.24875500  0.24875500  0.25483500  1
  Ce  Ce2  1  0.00000000  0.00000000  0.00000000  1
  Nb  Nb3  1  0.50000000  0.50000000  0.50000000  1
  O  O4  1  0.73480400  0.73480400  0.21226800  1
  O  O5  1  0.26519600  0.26519600  0.78773200  1
  O  O6  1  0.29120700  0.76508500  0.70583600  1
  O  O7  1  0.23491500  0.70879300  0.29416400  1
  O  O8  1  0.70879300  0.23491500  0.29416400  1
  O  O9  1  0.76508500  0.29120700  0.70583600  1
