# generated using pymatgen
data_TmSb(PbO3)2
_symmetry_space_group_name_H-M   'P 1'
_cell_length_a   5.86582045
_cell_length_b   5.86582045
_cell_length_c   5.94055746
_cell_angle_alpha   60.09626368
_cell_angle_beta   60.09626368
_cell_angle_gamma   60.33331595
_symmetry_Int_Tables_number   1
_chemical_formula_structural   TmSb(PbO3)2
_chemical_formula_sum   'Tm1 Sb1 Pb2 O6'
_cell_volume   145.10600273
_cell_formula_units_Z   1
loop_
 _symmetry_equiv_pos_site_id
 _symmetry_equiv_pos_as_xyz
  1  'x, y, z'
loop_
 _atom_site_type_symbol
 _atom_site_label
 _atom_site_symmetry_multiplicity
 _atom_site_fract_x
 _atom_site_fract_y
 _atom_site_fract_z
 _atom_site_occupancy
  Tm  Tm0  1  0.00000000  0.00000000  0.00000000  1
  Sb  Sb1  1  0.50000000  0.50000000  0.50000000  1
  Pb  Pb2  1  0.75321900  0.75321900  0.73243700  1
  Pb  Pb3  1  0.24678100  0.24678100  0.26756300  1
  O  O4  1  0.26324700  0.26324700  0.80781900  1
  O  O5  1  0.73675300  0.73675300  0.19218100  1
  O  O6  1  0.30079300  0.78245600  0.69383700  1
  O  O7  1  0.78245600  0.30079300  0.69383700  1
  O  O8  1  0.69920700  0.21754400  0.30616300  1
  O  O9  1  0.21754400  0.69920700  0.30616300  1
