# generated using pymatgen
data_YInCo2
_symmetry_space_group_name_H-M   'P 1'
_cell_length_a   4.00304100
_cell_length_b   4.98909500
_cell_length_c   7.12130500
_cell_angle_alpha   90.00000000
_cell_angle_beta   90.00000000
_cell_angle_gamma   90.00000000
_symmetry_Int_Tables_number   1
_chemical_formula_structural   YInCo2
_chemical_formula_sum   'Y2 In2 Co4'
_cell_volume   142.22351196
_cell_formula_units_Z   2
loop_
 _symmetry_equiv_pos_site_id
 _symmetry_equiv_pos_as_xyz
  1  'x, y, z'
loop_
 _atom_site_type_symbol
 _atom_site_label
 _atom_site_symmetry_multiplicity
 _atom_site_fract_x
 _atom_site_fract_y
 _atom_site_fract_z
 _atom_site_occupancy
  Y  Y0  1  0.50000000  0.75000000  0.71919900  1
  Y  Y1  1  0.50000000  0.25000000  0.28080100  1
  In  In2  1  0.00000000  0.75000000  0.34856900  1
  In  In3  1  0.00000000  0.25000000  0.65143100  1
  Co  Co4  1  0.00000000  0.00000000  0.00000000  1
  Co  Co5  1  0.00000000  0.50000000  0.00000000  1
  Co  Co6  1  0.50000000  0.75000000  0.09189200  1
  Co  Co7  1  0.50000000  0.25000000  0.90810800  1
