# generated using pymatgen
data_OsIN5Cl2O
_symmetry_space_group_name_H-M   'P 1'
_cell_length_a   6.43434018
_cell_length_b   6.43434018
_cell_length_c   6.43434018
_cell_angle_alpha   121.59510363
_cell_angle_beta   121.59510363
_cell_angle_gamma   87.25871287
_symmetry_Int_Tables_number   1
_chemical_formula_structural   OsIN5Cl2O
_chemical_formula_sum   'Os1 I1 N5 Cl2 O1'
_cell_volume   183.59375413
_cell_formula_units_Z   1
loop_
 _symmetry_equiv_pos_site_id
 _symmetry_equiv_pos_as_xyz
  1  'x, y, z'
loop_
 _atom_site_type_symbol
 _atom_site_label
 _atom_site_symmetry_multiplicity
 _atom_site_fract_x
 _atom_site_fract_y
 _atom_site_fract_z
 _atom_site_occupancy
  Os  Os0  1  0.03512800  0.03512800  0.00000000  1
  I  I1  1  0.73850600  0.73850600  0.00000000  1
  N  N2  1  0.23556500  0.23556500  0.00000000  1
  N  N3  1  0.78990500  0.22288600  0.00000000  1
  N  N4  1  0.22288600  0.78990500  0.00000000  1
  N  N5  1  0.22288600  0.22288600  0.43298100  1
  N  N6  1  0.78990500  0.78990500  0.56701900  1
  Cl  Cl7  1  0.76820300  0.26820300  0.50000000  1
  Cl  Cl8  1  0.26820300  0.76820300  0.50000000  1
  O  O9  1  0.35941000  0.35941000  0.00000000  1
