# generated using pymatgen
data_BaMnBi2
_symmetry_space_group_name_H-M   'P 1'
_cell_length_a   12.31361485
_cell_length_b   12.31361485
_cell_length_c   12.31361485
_cell_angle_alpha   157.69990587
_cell_angle_beta   157.69990587
_cell_angle_gamma   31.74281680
_symmetry_Int_Tables_number   1
_chemical_formula_structural   BaMnBi2
_chemical_formula_sum   'Ba2 Mn2 Bi4'
_cell_volume   268.63056621
_cell_formula_units_Z   2
loop_
 _symmetry_equiv_pos_site_id
 _symmetry_equiv_pos_as_xyz
  1  'x, y, z'
loop_
 _atom_site_type_symbol
 _atom_site_label
 _atom_site_symmetry_multiplicity
 _atom_site_fract_x
 _atom_site_fract_y
 _atom_site_fract_z
 _atom_site_occupancy
  Ba  Ba0  1  0.88086100  0.88086100  0.00000000  1
  Ba  Ba1  1  0.11913900  0.11913900  0.00000000  1
  Mn  Mn2  1  0.75000000  0.25000000  0.50000000  1
  Mn  Mn3  1  0.25000000  0.75000000  0.50000000  1
  Bi  Bi4  1  0.00000000  0.50000000  0.50000000  1
  Bi  Bi5  1  0.50000000  0.00000000  0.50000000  1
  Bi  Bi6  1  0.68362200  0.68362200  0.00000000  1
  Bi  Bi7  1  0.31637800  0.31637800  0.00000000  1
