# generated using pymatgen
data_K2SnO6
_symmetry_space_group_name_H-M   'P 1'
_cell_length_a   5.67731073
_cell_length_b   5.67731073
_cell_length_c   5.67731113
_cell_angle_alpha   77.92479453
_cell_angle_beta   77.92479453
_cell_angle_gamma   77.92479408
_symmetry_Int_Tables_number   1
_chemical_formula_structural   K2SnO6
_chemical_formula_sum   'K2 Sn1 O6'
_cell_volume   172.34360028
_cell_formula_units_Z   1
loop_
 _symmetry_equiv_pos_site_id
 _symmetry_equiv_pos_as_xyz
  1  'x, y, z'
loop_
 _atom_site_type_symbol
 _atom_site_label
 _atom_site_symmetry_multiplicity
 _atom_site_fract_x
 _atom_site_fract_y
 _atom_site_fract_z
 _atom_site_occupancy
  K  K0  1  0.68580600  0.68580600  0.68580600  1
  K  K1  1  0.31419400  0.31419400  0.31419400  1
  Sn  Sn2  1  0.00000000  0.00000000  0.00000000  1
  O  O3  1  0.19792200  0.90877600  0.67521300  1
  O  O4  1  0.90877600  0.67521300  0.19792200  1
  O  O5  1  0.67521300  0.19792200  0.90877600  1
  O  O6  1  0.80207800  0.09122400  0.32478700  1
  O  O7  1  0.09122400  0.32478700  0.80207800  1
  O  O8  1  0.32478700  0.80207800  0.09122400  1
