# generated using pymatgen
data_Ti2CdO6
_symmetry_space_group_name_H-M   'P 1'
_cell_length_a   5.21630779
_cell_length_b   5.21630779
_cell_length_c   4.65951100
_cell_angle_alpha   90.00000000
_cell_angle_beta   90.00000000
_cell_angle_gamma   119.99999734
_symmetry_Int_Tables_number   1
_chemical_formula_structural   Ti2CdO6
_chemical_formula_sum   'Ti2 Cd1 O6'
_cell_volume   109.79875181
_cell_formula_units_Z   1
loop_
 _symmetry_equiv_pos_site_id
 _symmetry_equiv_pos_as_xyz
  1  'x, y, z'
loop_
 _atom_site_type_symbol
 _atom_site_label
 _atom_site_symmetry_multiplicity
 _atom_site_fract_x
 _atom_site_fract_y
 _atom_site_fract_z
 _atom_site_occupancy
  Ti  Ti0  1  0.66666700  0.33333300  0.50000000  1
  Ti  Ti1  1  0.33333300  0.66666700  0.50000000  1
  Cd  Cd2  1  0.00000000  0.00000000  0.00000000  1
  O  O3  1  0.63539500  0.63539500  0.72477800  1
  O  O4  1  0.00000000  0.36460500  0.72477800  1
  O  O5  1  0.36460500  0.00000000  0.72477800  1
  O  O6  1  0.36460500  0.36460500  0.27522200  1
  O  O7  1  0.00000000  0.63539500  0.27522200  1
  O  O8  1  0.63539500  0.00000000  0.27522200  1
