# generated using pymatgen
data_MoOs(PbO3)2
_symmetry_space_group_name_H-M   'P 1'
_cell_length_a   5.76529191
_cell_length_b   5.76529191
_cell_length_c   5.76529191
_cell_angle_alpha   90.01908452
_cell_angle_beta   119.98898216
_cell_angle_gamma   119.98898216
_symmetry_Int_Tables_number   1
_chemical_formula_structural   MoOs(PbO3)2
_chemical_formula_sum   'Mo1 Os1 Pb2 O6'
_cell_volume   135.52555633
_cell_formula_units_Z   1
loop_
 _symmetry_equiv_pos_site_id
 _symmetry_equiv_pos_as_xyz
  1  'x, y, z'
loop_
 _atom_site_type_symbol
 _atom_site_label
 _atom_site_symmetry_multiplicity
 _atom_site_fract_x
 _atom_site_fract_y
 _atom_site_fract_z
 _atom_site_occupancy
  Mo  Mo0  1  0.00000000  0.00000000  0.00000000  1
  Os  Os1  1  0.00000000  0.50000000  0.50000000  1
  Pb  Pb2  1  0.50000000  0.25000000  0.75000000  1
  Pb  Pb3  1  0.50000000  0.75000000  0.25000000  1
  O  O4  1  0.00000000  0.25805500  0.25805500  1
  O  O5  1  0.00000000  0.74194500  0.74194500  1
  O  O6  1  0.00000000  0.25807500  0.74192500  1
  O  O7  1  0.00000000  0.74192500  0.25807500  1
  O  O8  1  0.48385100  0.74192500  0.74192500  1
  O  O9  1  0.51614900  0.25807500  0.25807500  1
