# generated using pymatgen
data_ThAgPO
_symmetry_space_group_name_H-M   'P 1'
_cell_length_a   3.99342900
_cell_length_b   3.99342900
_cell_length_c   8.81065600
_cell_angle_alpha   90.00000000
_cell_angle_beta   90.00000000
_cell_angle_gamma   90.00000000
_symmetry_Int_Tables_number   1
_chemical_formula_structural   ThAgPO
_chemical_formula_sum   'Th2 Ag2 P2 O2'
_cell_volume   140.50771786
_cell_formula_units_Z   2
loop_
 _symmetry_equiv_pos_site_id
 _symmetry_equiv_pos_as_xyz
  1  'x, y, z'
loop_
 _atom_site_type_symbol
 _atom_site_label
 _atom_site_symmetry_multiplicity
 _atom_site_fract_x
 _atom_site_fract_y
 _atom_site_fract_z
 _atom_site_occupancy
  Th  Th0  1  0.00000000  0.50000000  0.84610600  1
  Th  Th1  1  0.50000000  0.00000000  0.15389400  1
  Ag  Ag2  1  0.00000000  0.00000000  0.50000000  1
  Ag  Ag3  1  0.50000000  0.50000000  0.50000000  1
  P  P4  1  0.00000000  0.50000000  0.29768300  1
  P  P5  1  0.50000000  0.00000000  0.70231700  1
  O  O6  1  0.00000000  0.00000000  0.00000000  1
  O  O7  1  0.50000000  0.50000000  0.00000000  1
