# generated using pymatgen
data_NaN
_symmetry_space_group_name_H-M   'P 1'
_cell_length_a   6.61334364
_cell_length_b   6.33935078
_cell_length_c   5.88085747
_cell_angle_alpha   65.40256796
_cell_angle_beta   60.64324253
_cell_angle_gamma   53.95418951
_symmetry_Int_Tables_number   1
_chemical_formula_structural   NaN
_chemical_formula_sum   'Na4 N4'
_cell_volume   170.86913718
_cell_formula_units_Z   4
loop_
 _symmetry_equiv_pos_site_id
 _symmetry_equiv_pos_as_xyz
  1  'x, y, z'
loop_
 _atom_site_type_symbol
 _atom_site_label
 _atom_site_symmetry_multiplicity
 _atom_site_fract_x
 _atom_site_fract_y
 _atom_site_fract_z
 _atom_site_occupancy
  Na  Na0  1  0.24863000  0.24863000  0.75137000  1
  Na  Na1  1  0.75137000  0.75137000  0.24863000  1
  Na  Na2  1  0.00137000  0.00137000  0.49863000  1
  Na  Na3  1  0.49863000  0.49863000  0.00137000  1
  N  N4  1  0.56871500  0.43128500  0.56871500  1
  N  N5  1  0.43128500  0.56871500  0.43128500  1
  N  N6  1  0.68128500  0.81871500  0.68128500  1
  N  N7  1  0.81871500  0.68128500  0.81871500  1
