# generated using pymatgen
data_MoW3(SeS3)2
_symmetry_space_group_name_H-M   'P 1'
_cell_length_a   3.22294950
_cell_length_b   3.22294950
_cell_length_c   36.03304200
_cell_angle_alpha   90.00000000
_cell_angle_beta   90.00000000
_cell_angle_gamma   119.99998978
_symmetry_Int_Tables_number   1
_chemical_formula_structural   MoW3(SeS3)2
_chemical_formula_sum   'Mo1 W3 Se2 S6'
_cell_volume   324.14446206
_cell_formula_units_Z   1
loop_
 _symmetry_equiv_pos_site_id
 _symmetry_equiv_pos_as_xyz
  1  'x, y, z'
loop_
 _atom_site_type_symbol
 _atom_site_label
 _atom_site_symmetry_multiplicity
 _atom_site_fract_x
 _atom_site_fract_y
 _atom_site_fract_z
 _atom_site_occupancy
  Mo  Mo0  1  0.00000000  0.00000000  0.09391500  1
  W  W1  1  0.00000000  0.00000000  0.46967300  1
  W  W2  1  0.33333300  0.66666700  0.28179200  1
  W  W3  1  0.33333300  0.66666700  0.65756900  1
  Se  Se4  1  0.33333300  0.66666700  0.42188200  1
  Se  Se5  1  0.33333300  0.66666700  0.51741400  1
  S  S6  1  0.00000000  0.00000000  0.32507100  1
  S  S7  1  0.00000000  0.00000000  0.70086900  1
  S  S8  1  0.33333300  0.66666700  0.05075700  1
  S  S9  1  0.33333300  0.66666700  0.13706300  1
  S  S10  1  0.00000000  0.00000000  0.23848200  1
  S  S11  1  0.00000000  0.00000000  0.61426000  1
