# generated using pymatgen
data_Mo3W(Se3S)2
_symmetry_space_group_name_H-M   'P 1'
_cell_length_a   3.29131354
_cell_length_b   3.29131354
_cell_length_c   36.85691400
_cell_angle_alpha   90.00000000
_cell_angle_beta   90.00000000
_cell_angle_gamma   119.99999067
_symmetry_Int_Tables_number   1
_chemical_formula_structural   Mo3W(Se3S)2
_chemical_formula_sum   'Mo3 W1 Se6 S2'
_cell_volume   345.77067165
_cell_formula_units_Z   1
loop_
 _symmetry_equiv_pos_site_id
 _symmetry_equiv_pos_as_xyz
  1  'x, y, z'
loop_
 _atom_site_type_symbol
 _atom_site_label
 _atom_site_symmetry_multiplicity
 _atom_site_fract_x
 _atom_site_fract_y
 _atom_site_fract_z
 _atom_site_occupancy
  Mo  Mo0  1  0.00000000  0.00000000  0.09391100  1
  Mo  Mo1  1  0.33333300  0.66666700  0.28180000  1
  Mo  Mo2  1  0.33333300  0.66666700  0.65756800  1
  W  W3  1  0.00000000  0.00000000  0.46963500  1
  Se  Se4  1  0.00000000  0.00000000  0.70325200  1
  Se  Se5  1  0.33333300  0.66666700  0.04821100  1
  Se  Se6  1  0.33333300  0.66666700  0.42369400  1
  Se  Se7  1  0.33333300  0.66666700  0.13961500  1
  Se  Se8  1  0.33333300  0.66666700  0.51559500  1
  Se  Se9  1  0.00000000  0.00000000  0.61186900  1
  S  S10  1  0.00000000  0.00000000  0.32337600  1
  S  S11  1  0.00000000  0.00000000  0.24022300  1
