# generated using pymatgen
data_CuN
_symmetry_space_group_name_H-M   'P 1'
_cell_length_a   2.98367646
_cell_length_b   2.98367646
_cell_length_c   6.10653873
_cell_angle_alpha   77.91800918
_cell_angle_beta   77.91800918
_cell_angle_gamma   56.65624064
_symmetry_Int_Tables_number   1
_chemical_formula_structural   CuN
_chemical_formula_sum   'Cu2 N2'
_cell_volume   44.11108851
_cell_formula_units_Z   2
loop_
 _symmetry_equiv_pos_site_id
 _symmetry_equiv_pos_as_xyz
  1  'x, y, z'
loop_
 _atom_site_type_symbol
 _atom_site_label
 _atom_site_symmetry_multiplicity
 _atom_site_fract_x
 _atom_site_fract_y
 _atom_site_fract_z
 _atom_site_occupancy
  Cu  Cu0  1  0.38347600  0.38347600  0.33920900  1
  Cu  Cu1  1  0.61652400  0.61652400  0.66079100  1
  N  N2  1  0.97366800  0.97366800  0.09965700  1
  N  N3  1  0.02633200  0.02633200  0.90034300  1
