# generated using pymatgen
data_Ti3N4
_symmetry_space_group_name_H-M   'P 1'
_cell_length_a   3.01233800
_cell_length_b   9.37639000
_cell_length_c   10.03035300
_cell_angle_alpha   90.00000000
_cell_angle_beta   90.00000000
_cell_angle_gamma   90.00000000
_symmetry_Int_Tables_number   1
_chemical_formula_structural   Ti3N4
_chemical_formula_sum   'Ti12 N16'
_cell_volume   283.30587511
_cell_formula_units_Z   4
loop_
 _symmetry_equiv_pos_site_id
 _symmetry_equiv_pos_as_xyz
  1  'x, y, z'
loop_
 _atom_site_type_symbol
 _atom_site_label
 _atom_site_symmetry_multiplicity
 _atom_site_fract_x
 _atom_site_fract_y
 _atom_site_fract_z
 _atom_site_occupancy
  Ti  Ti0  1  0.25000000  0.92988000  0.12501300  1
  Ti  Ti1  1  0.25000000  0.42988000  0.37498700  1
  Ti  Ti2  1  0.75000000  0.07012000  0.87498700  1
  Ti  Ti3  1  0.75000000  0.57012000  0.62501300  1
  Ti  Ti4  1  0.25000000  0.89069800  0.59301900  1
  Ti  Ti5  1  0.25000000  0.39069800  0.90698100  1
  Ti  Ti6  1  0.75000000  0.10930200  0.40698100  1
  Ti  Ti7  1  0.75000000  0.60930200  0.09301900  1
  Ti  Ti8  1  0.25000000  0.77718600  0.85631200  1
  Ti  Ti9  1  0.25000000  0.27718600  0.64368800  1
  Ti  Ti10  1  0.75000000  0.22281400  0.14368800  1
  Ti  Ti11  1  0.75000000  0.72281400  0.35631200  1
  N  N12  1  0.25000000  0.73959400  0.21413800  1
  N  N13  1  0.25000000  0.23959400  0.28586200  1
  N  N14  1  0.75000000  0.26040600  0.78586200  1
  N  N15  1  0.75000000  0.76040600  0.71413800  1
  N  N16  1  0.25000000  0.64144300  0.48408100  1
  N  N17  1  0.25000000  0.14144300  0.01591900  1
  N  N18  1  0.75000000  0.35855700  0.51591900  1
  N  N19  1  0.75000000  0.85855700  0.98408100  1
  N  N20  1  0.25000000  0.49136400  0.72569600  1
  N  N21  1  0.25000000  0.99136400  0.77430400  1
  N  N22  1  0.75000000  0.50863600  0.27430400  1
  N  N23  1  0.75000000  0.00863600  0.22569600  1
  N  N24  1  0.25000000  0.10399300  0.53283100  1
  N  N25  1  0.25000000  0.60399300  0.96716900  1
  N  N26  1  0.75000000  0.89600700  0.46716900  1
  N  N27  1  0.75000000  0.39600700  0.03283100  1
