# generated using pymatgen
data_CeSe2
_symmetry_space_group_name_H-M   'P 1'
_cell_length_a   7.47247892
_cell_length_b   7.47247892
_cell_length_c   7.47247892
_cell_angle_alpha   126.42009901
_cell_angle_beta   113.49135564
_cell_angle_gamma   90.44049962
_symmetry_Int_Tables_number   1
_chemical_formula_structural   CeSe2
_chemical_formula_sum   'Ce2 Se4'
_cell_volume   290.55865100
_cell_formula_units_Z   2
loop_
 _symmetry_equiv_pos_site_id
 _symmetry_equiv_pos_as_xyz
  1  'x, y, z'
loop_
 _atom_site_type_symbol
 _atom_site_label
 _atom_site_symmetry_multiplicity
 _atom_site_fract_x
 _atom_site_fract_y
 _atom_site_fract_z
 _atom_site_occupancy
  Ce  Ce0  1  0.25000000  0.00000000  0.25000000  1
  Ce  Ce1  1  0.75000000  0.00000000  0.75000000  1
  Se  Se2  1  0.11696000  0.31637900  0.19941900  1
  Se  Se3  1  0.88304000  0.68362100  0.80058100  1
  Se  Se4  1  0.38304000  0.08245900  0.69941900  1
  Se  Se5  1  0.61696000  0.91754100  0.30058100  1
