# generated using pymatgen
data_CaMn4O8
_symmetry_space_group_name_H-M   'P 1'
_cell_length_a   5.81000100
_cell_length_b   6.46595976
_cell_length_c   9.40720800
_cell_angle_alpha   90.00064003
_cell_angle_beta   90.00127769
_cell_angle_gamma   63.32100191
_symmetry_Int_Tables_number   1
_chemical_formula_structural   CaMn4O8
_chemical_formula_sum   'Ca2 Mn8 O16'
_cell_volume   315.77810904
_cell_formula_units_Z   2
loop_
 _symmetry_equiv_pos_site_id
 _symmetry_equiv_pos_as_xyz
  1  'x, y, z'
loop_
 _atom_site_type_symbol
 _atom_site_label
 _atom_site_symmetry_multiplicity
 _atom_site_fract_x
 _atom_site_fract_y
 _atom_site_fract_z
 _atom_site_occupancy
  Ca  Ca0  1  0.38309500  0.98443800  0.54702200  1
  Ca  Ca1  1  0.11707200  0.51556100  0.04701600  1
  Mn  Mn2  1  0.08766700  0.57465600  0.36612800  1
  Mn  Mn3  1  0.59597100  0.55800400  0.35779100  1
  Mn  Mn4  1  0.90401900  0.94200700  0.85779700  1
  Mn  Mn5  1  0.41233400  0.92534400  0.86613500  1
  Mn  Mn6  1  0.11709800  0.01290400  0.14804200  1
  Mn  Mn7  1  0.62007000  0.01295500  0.14803100  1
  Mn  Mn8  1  0.87992100  0.48699700  0.64804000  1
  Mn  Mn9  1  0.38282400  0.48715900  0.64801900  1
  O  O10  1  0.95935400  0.83128100  0.22958900  1
  O  O11  1  0.43819400  0.87368000  0.25273400  1
  O  O12  1  0.09074400  0.08725900  0.76186100  1
  O  O13  1  0.57210100  0.08726200  0.76186600  1
  O  O14  1  0.92790700  0.41272100  0.26185100  1
  O  O15  1  0.40925700  0.41274200  0.26184800  1
  O  O16  1  0.06176800  0.62632900  0.75273300  1
  O  O17  1  0.54063500  0.66872700  0.72959100  1
  O  O18  1  0.30607200  0.13798600  0.02903600  1
  O  O19  1  0.80053800  0.14912100  0.02954700  1
  O  O20  1  0.73625100  0.78534300  0.96313600  1
  O  O21  1  0.22835500  0.78531700  0.96312400  1
  O  O22  1  0.19390600  0.36202000  0.52902800  1
  O  O23  1  0.69940200  0.35088300  0.52953900  1
  O  O24  1  0.76379400  0.71461900  0.46311800  1
  O  O25  1  0.27165000  0.71470400  0.46311700  1
