# generated using pymatgen
data_MgMn4O8
_symmetry_space_group_name_H-M   'P 1'
_cell_length_a   6.08580700
_cell_length_b   6.09148400
_cell_length_c   10.09103691
_cell_angle_alpha   53.98235187
_cell_angle_beta   90.00000000
_cell_angle_gamma   90.00000000
_symmetry_Int_Tables_number   1
_chemical_formula_structural   MgMn4O8
_chemical_formula_sum   'Mg2 Mn8 O16'
_cell_volume   302.57810679
_cell_formula_units_Z   2
loop_
 _symmetry_equiv_pos_site_id
 _symmetry_equiv_pos_as_xyz
  1  'x, y, z'
loop_
 _atom_site_type_symbol
 _atom_site_label
 _atom_site_symmetry_multiplicity
 _atom_site_fract_x
 _atom_site_fract_y
 _atom_site_fract_z
 _atom_site_occupancy
  Mg  Mg0  1  0.24926800  0.12878900  0.12526800  1
  Mg  Mg1  1  0.75073200  0.12878900  0.62526800  1
  Mn  Mn2  1  0.49514600  0.50188900  0.74974700  1
  Mn  Mn3  1  0.99903400  0.50517600  0.24506100  1
  Mn  Mn4  1  0.00096600  0.50517600  0.74506100  1
  Mn  Mn5  1  0.50485400  0.50188900  0.24974700  1
  Mn  Mn6  1  0.23843900  0.99616200  0.50200500  1
  Mn  Mn7  1  0.76156100  0.99616200  0.00200500  1
  Mn  Mn8  1  0.24353600  0.50148400  0.50331600  1
  Mn  Mn9  1  0.75646400  0.50148400  0.00331600  1
  O  O10  1  0.22198600  0.73746000  0.73278200  1
  O  O11  1  0.77801400  0.73746000  0.23278200  1
  O  O12  1  0.23094500  0.29807700  0.73738300  1
  O  O13  1  0.76905500  0.29807700  0.23738300  1
  O  O14  1  0.45812700  0.71744800  0.51579900  1
  O  O15  1  0.97917700  0.70995500  0.01410600  1
  O  O16  1  0.02082300  0.70995500  0.51410600  1
  O  O17  1  0.54187300  0.71744800  0.01579900  1
  O  O18  1  0.24171300  0.71611400  0.25867500  1
  O  O19  1  0.75828700  0.71611400  0.75867500  1
  O  O20  1  0.23707000  0.26059200  0.26429900  1
  O  O21  1  0.76293000  0.26059200  0.76429900  1
  O  O22  1  0.47241300  0.27628300  0.49013500  1
  O  O23  1  0.97745700  0.27573600  0.98670300  1
  O  O24  1  0.02254300  0.27573600  0.48670300  1
  O  O25  1  0.52758700  0.27628300  0.99013500  1
