# generated using pymatgen
data_CeSe2
_symmetry_space_group_name_H-M   'P 1'
_cell_length_a   8.28423500
_cell_length_b   8.75416140
_cell_length_c   9.54647311
_cell_angle_alpha   101.45789289
_cell_angle_beta   86.06889308
_cell_angle_gamma   115.98215493
_symmetry_Int_Tables_number   1
_chemical_formula_structural   CeSe2
_chemical_formula_sum   'Ce4 Se8'
_cell_volume   609.81502294
_cell_formula_units_Z   4
loop_
 _symmetry_equiv_pos_site_id
 _symmetry_equiv_pos_as_xyz
  1  'x, y, z'
loop_
 _atom_site_type_symbol
 _atom_site_label
 _atom_site_symmetry_multiplicity
 _atom_site_fract_x
 _atom_site_fract_y
 _atom_site_fract_z
 _atom_site_occupancy
  Ce  Ce0  1  0.36626600  0.21084100  0.91922800  1
  Ce  Ce1  1  0.26373100  0.72491500  0.09774800  1
  Ce  Ce2  1  0.92421400  0.93788600  0.51465200  1
  Ce  Ce3  1  0.32573700  0.51682600  0.61616200  1
  Se  Se4  1  0.37529700  0.48165200  0.12252200  1
  Se  Se5  1  0.06710000  0.25229500  0.43875800  1
  Se  Se6  1  0.04448900  0.98867300  0.78596400  1
  Se  Se7  1  0.55676500  0.80541300  0.51224200  1
  Se  Se8  1  0.02317000  0.73393900  0.30716900  1
  Se  Se9  1  0.53546900  0.38639000  0.70728800  1
  Se  Se10  1  0.11906300  0.59275500  0.82924100  1
  Se  Se11  1  0.50607900  0.04231500  0.05018500  1
