# generated using pymatgen
data_CeSe2
_symmetry_space_group_name_H-M   'P 1'
_cell_length_a   7.39216853
_cell_length_b   7.39216853
_cell_length_c   7.39216853
_cell_angle_alpha   126.09497811
_cell_angle_beta   126.09497811
_cell_angle_gamma   79.73209376
_symmetry_Int_Tables_number   1
_chemical_formula_structural   CeSe2
_chemical_formula_sum   'Ce2 Se4'
_cell_volume   254.77607851
_cell_formula_units_Z   2
loop_
 _symmetry_equiv_pos_site_id
 _symmetry_equiv_pos_as_xyz
  1  'x, y, z'
loop_
 _atom_site_type_symbol
 _atom_site_label
 _atom_site_symmetry_multiplicity
 _atom_site_fract_x
 _atom_site_fract_y
 _atom_site_fract_z
 _atom_site_occupancy
  Ce  Ce0  1  0.00000000  0.00000000  0.00000000  1
  Ce  Ce1  1  0.75000000  0.25000000  0.50000000  1
  Se  Se2  1  0.87500000  0.36820200  0.99320200  1
  Se  Se3  1  0.37500000  0.88179800  0.00679800  1
  Se  Se4  1  0.11820200  0.12500000  0.49320200  1
  Se  Se5  1  0.63179800  0.62500000  0.50679800  1
