# generated using pymatgen
data_Rb2MgSi5O12
_symmetry_space_group_name_H-M   'P 1'
_cell_length_a   13.63482148
_cell_length_b   13.65839755
_cell_length_c   13.80791487
_cell_angle_alpha   90.00000000
_cell_angle_beta   90.00000000
_cell_angle_gamma   90.00000000
_symmetry_Int_Tables_number   1
_chemical_formula_structural   Rb2MgSi5O12
_chemical_formula_sum   'Rb16 Mg8 Si40 O96'
_cell_volume   2571.44539445
_cell_formula_units_Z   8
loop_
 _symmetry_equiv_pos_site_id
 _symmetry_equiv_pos_as_xyz
  1  'x, y, z'
loop_
 _atom_site_type_symbol
 _atom_site_label
 _atom_site_symmetry_multiplicity
 _atom_site_fract_x
 _atom_site_fract_y
 _atom_site_fract_z
 _atom_site_occupancy
  Rb  Rb0  1  0.64667498  0.15297885  0.35422711  1
  Rb  Rb1  1  0.14667498  0.34702115  0.64577289  1
  Rb  Rb2  1  0.35332502  0.65297885  0.14577289  1
  Rb  Rb3  1  0.85332502  0.84702115  0.85422711  1
  Rb  Rb4  1  0.35332502  0.84702115  0.64577289  1
  Rb  Rb5  1  0.85332502  0.65297885  0.35422711  1
  Rb  Rb6  1  0.64667498  0.34702115  0.85422711  1
  Rb  Rb7  1  0.14667498  0.15297885  0.14577289  1
  Rb  Rb8  1  0.89969137  0.38920864  0.10886963  1
  Rb  Rb9  1  0.39969137  0.11079136  0.89113037  1
  Rb  Rb10  1  0.10030863  0.88920864  0.39113037  1
  Rb  Rb11  1  0.60030863  0.61079136  0.60886963  1
  Rb  Rb12  1  0.10030863  0.61079136  0.89113037  1
  Rb  Rb13  1  0.60030863  0.88920864  0.10886963  1
  Rb  Rb14  1  0.89969137  0.11079136  0.60886963  1
  Rb  Rb15  1  0.39969137  0.38920864  0.39113037  1
  Mg  Mg16  1  0.86861198  0.82860642  0.56493872  1
  Mg  Mg17  1  0.36861198  0.67139358  0.43506128  1
  Mg  Mg18  1  0.13138802  0.32860642  0.93506128  1
  Mg  Mg19  1  0.63138802  0.17139358  0.06493872  1
  Mg  Mg20  1  0.13138802  0.17139358  0.43506128  1
  Mg  Mg21  1  0.63138802  0.32860642  0.56493872  1
  Mg  Mg22  1  0.86861198  0.67139358  0.06493872  1
  Mg  Mg23  1  0.36861198  0.82860642  0.93506128  1
  Si  Si24  1  0.60707882  0.65684294  0.89962131  1
  Si  Si25  1  0.10707882  0.84315706  0.10037869  1
  Si  Si26  1  0.39292118  0.15684294  0.60037869  1
  Si  Si27  1  0.89292118  0.34315706  0.39962131  1
  Si  Si28  1  0.39292118  0.34315706  0.10037869  1
  Si  Si29  1  0.89292118  0.15684294  0.89962131  1
  Si  Si30  1  0.60707882  0.84315706  0.39962131  1
  Si  Si31  1  0.10707882  0.65684294  0.60037869  1
  Si  Si32  1  0.10407003  0.11069635  0.86013286  1
  Si  Si33  1  0.60407003  0.38930365  0.13986714  1
  Si  Si34  1  0.89592997  0.61069635  0.63986714  1
  Si  Si35  1  0.39592997  0.88930365  0.36013286  1
  Si  Si36  1  0.89592997  0.88930365  0.13986714  1
  Si  Si37  1  0.39592997  0.61069635  0.86013286  1
  Si  Si38  1  0.10407003  0.38930365  0.36013286  1
  Si  Si39  1  0.60407003  0.11069635  0.63986714  1
  Si  Si40  1  0.14116020  0.61540682  0.38400810  1
  Si  Si41  1  0.64116020  0.88459318  0.61599190  1
  Si  Si42  1  0.85883980  0.11540682  0.11599190  1
  Si  Si43  1  0.35883980  0.38459318  0.88400810  1
  Si  Si44  1  0.85883980  0.38459318  0.61599190  1
  Si  Si45  1  0.35883980  0.11540682  0.38400810  1
  Si  Si46  1  0.14116020  0.88459318  0.88400810  1
  Si  Si47  1  0.64116020  0.61540682  0.11599190  1
  Si  Si48  1  0.42600871  0.37324544  0.67833286  1
  Si  Si49  1  0.92600871  0.12675456  0.32166714  1
  Si  Si50  1  0.57399129  0.87324544  0.82166714  1
  Si  Si51  1  0.07399129  0.62675456  0.17833286  1
  Si  Si52  1  0.57399129  0.62675456  0.32166714  1
  Si  Si53  1  0.07399129  0.87324544  0.67833286  1
  Si  Si54  1  0.42600871  0.12675456  0.17833286  1
  Si  Si55  1  0.92600871  0.37324544  0.82166714  1
  Si  Si56  1  0.32225093  0.92200110  0.14985898  1
  Si  Si57  1  0.82225093  0.57799890  0.85014102  1
  Si  Si58  1  0.67774907  0.42200110  0.35014102  1
  Si  Si59  1  0.17774907  0.07799890  0.64985898  1
  Si  Si60  1  0.67774907  0.07799890  0.85014102  1
  Si  Si61  1  0.17774907  0.42200110  0.14985898  1
  Si  Si62  1  0.32225093  0.57799890  0.64985898  1
  Si  Si63  1  0.82225093  0.92200110  0.35014102  1
  O  O64  1  0.98308527  0.39361188  0.33836373  1
  O  O65  1  0.48308527  0.10638812  0.66163627  1
  O  O66  1  0.01691473  0.89361188  0.16163627  1
  O  O67  1  0.51691473  0.60638812  0.83836373  1
  O  O68  1  0.01691473  0.60638812  0.66163627  1
  O  O69  1  0.51691473  0.89361188  0.33836373  1
  O  O70  1  0.98308527  0.10638812  0.83836373  1
  O  O71  1  0.48308527  0.39361188  0.16163627  1
  O  O72  1  0.64327722  0.49657001  0.10586108  1
  O  O73  1  0.14327722  0.00342999  0.89413892  1
  O  O74  1  0.35672278  0.99657001  0.39413892  1
  O  O75  1  0.85672278  0.50342999  0.60586108  1
  O  O76  1  0.35672278  0.50342999  0.89413892  1
  O  O77  1  0.85672278  0.99657001  0.10586108  1
  O  O78  1  0.64327722  0.00342999  0.60586108  1
  O  O79  1  0.14327722  0.49657001  0.39413892  1
  O  O80  1  0.91354577  0.15608385  0.01622416  1
  O  O81  1  0.41354577  0.34391615  0.98377584  1
  O  O82  1  0.08645423  0.65608385  0.48377584  1
  O  O83  1  0.58645423  0.84391615  0.51622416  1
  O  O84  1  0.08645423  0.84391615  0.98377584  1
  O  O85  1  0.58645423  0.65608385  0.01622416  1
  O  O86  1  0.91354577  0.34391615  0.51622416  1
  O  O87  1  0.41354577  0.15608385  0.48377584  1
  O  O88  1  0.25329018  0.34004226  0.86613381  1
  O  O89  1  0.75329018  0.15995774  0.13386619  1
  O  O90  1  0.74670982  0.84004226  0.63386619  1
  O  O91  1  0.24670982  0.65995774  0.36613381  1
  O  O92  1  0.74670982  0.65995774  0.13386619  1
  O  O93  1  0.24670982  0.84004226  0.86613381  1
  O  O94  1  0.25329018  0.15995774  0.36613381  1
  O  O95  1  0.75329018  0.34004226  0.63386619  1
  O  O96  1  0.12310500  0.72784663  0.13078123  1
  O  O97  1  0.62310500  0.77215337  0.86921877  1
  O  O98  1  0.87689500  0.22784663  0.36921877  1
  O  O99  1  0.37689500  0.27215337  0.63078123  1
  O  O100  1  0.87689500  0.27215337  0.86921877  1
  O  O101  1  0.37689500  0.22784663  0.13078123  1
  O  O102  1  0.12310500  0.77215337  0.63078123  1
  O  O103  1  0.62310500  0.72784663  0.36921877  1
  O  O104  1  0.84393816  0.63289811  0.74581152  1
  O  O105  1  0.34393816  0.86710189  0.25418848  1
  O  O106  1  0.15606184  0.13289811  0.75418848  1
  O  O107  1  0.65606184  0.36710189  0.24581152  1
  O  O108  1  0.15606184  0.36710189  0.25418848  1
  O  O109  1  0.65606184  0.13289811  0.74581152  1
  O  O110  1  0.84393816  0.86710189  0.24581152  1
  O  O111  1  0.34393816  0.63289811  0.75418848  1
  O  O112  1  0.47011640  0.90168319  0.86600639  1
  O  O113  1  0.97011640  0.59831681  0.13399361  1
  O  O114  1  0.52988360  0.40168319  0.63399361  1
  O  O115  1  0.02988360  0.09831681  0.36600639  1
  O  O116  1  0.52988360  0.09831681  0.13399361  1
  O  O117  1  0.02988360  0.40168319  0.86600639  1
  O  O118  1  0.47011640  0.59831681  0.36600639  1
  O  O119  1  0.97011640  0.90168319  0.63399361  1
  O  O120  1  0.15991323  0.95793765  0.66036680  1
  O  O121  1  0.65991323  0.54206235  0.33963320  1
  O  O122  1  0.84008677  0.45793765  0.83963320  1
  O  O123  1  0.34008677  0.04206235  0.16036680  1
  O  O124  1  0.84008677  0.04206235  0.33963320  1
  O  O125  1  0.34008677  0.45793765  0.66036680  1
  O  O126  1  0.15991323  0.54206235  0.16036680  1
  O  O127  1  0.65991323  0.95793765  0.83963320  1
  O  O128  1  0.38719747  0.62724242  0.56752832  1
  O  O129  1  0.88719747  0.87275758  0.43247168  1
  O  O130  1  0.61280253  0.12724242  0.93247168  1
  O  O131  1  0.11280253  0.37275758  0.06752832  1
  O  O132  1  0.61280253  0.37275758  0.43247168  1
  O  O133  1  0.11280253  0.12724242  0.56752832  1
  O  O134  1  0.38719747  0.87275758  0.06752832  1
  O  O135  1  0.88719747  0.62724242  0.93247168  1
  O  O136  1  0.70277126  0.90947895  0.37033715  1
  O  O137  1  0.20277126  0.59052105  0.62966285  1
  O  O138  1  0.29722874  0.40947895  0.12966285  1
  O  O139  1  0.79722874  0.09052105  0.87033715  1
  O  O140  1  0.29722874  0.09052105  0.62966285  1
  O  O141  1  0.79722874  0.40947895  0.37033715  1
  O  O142  1  0.70277126  0.59052105  0.87033715  1
  O  O143  1  0.20277126  0.90947895  0.12966285  1
  O  O144  1  0.62785176  0.18790695  0.55776786  1
  O  O145  1  0.12785176  0.31209305  0.44223214  1
  O  O146  1  0.37214824  0.68790695  0.94223214  1
  O  O147  1  0.87214824  0.81209305  0.05776786  1
  O  O148  1  0.37214824  0.81209305  0.44223214  1
  O  O149  1  0.87214824  0.68790695  0.55776786  1
  O  O150  1  0.62785176  0.31209305  0.05776786  1
  O  O151  1  0.12785176  0.18790695  0.94223214  1
  O  O152  1  0.43657780  0.14643595  0.29648536  1
  O  O153  1  0.93657780  0.35356405  0.70351464  1
  O  O154  1  0.56342220  0.64643595  0.20351464  1
  O  O155  1  0.06342220  0.85356405  0.79648536  1
  O  O156  1  0.56342220  0.85356405  0.70351464  1
  O  O157  1  0.06342220  0.64643595  0.29648536  1
  O  O158  1  0.43657780  0.35356405  0.79648536  1
  O  O159  1  0.93657780  0.14643595  0.20351464  1
