# generated using pymatgen
data_CeSe2
_symmetry_space_group_name_H-M   'P 1'
_cell_length_a   11.70611516
_cell_length_b   11.70611516
_cell_length_c   11.70611516
_cell_angle_alpha   138.36621697
_cell_angle_beta   109.66484525
_cell_angle_gamma   85.18584455
_symmetry_Int_Tables_number   1
_chemical_formula_structural   CeSe2
_chemical_formula_sum   'Ce4 Se8'
_cell_volume   966.89343450
_cell_formula_units_Z   4
loop_
 _symmetry_equiv_pos_site_id
 _symmetry_equiv_pos_as_xyz
  1  'x, y, z'
loop_
 _atom_site_type_symbol
 _atom_site_label
 _atom_site_symmetry_multiplicity
 _atom_site_fract_x
 _atom_site_fract_y
 _atom_site_fract_z
 _atom_site_occupancy
  Ce  Ce0  1  0.04182300  0.89823600  0.14435300  1
  Ce  Ce1  1  0.95817700  0.10252900  0.85641200  1
  Ce  Ce2  1  0.74611700  0.60252900  0.14435300  1
  Ce  Ce3  1  0.25388300  0.39823600  0.85641200  1
  Se  Se4  1  0.22863800  0.10532100  0.49346500  1
  Se  Se5  1  0.77136200  0.26482800  0.87668300  1
  Se  Se6  1  0.88814400  0.76482800  0.49346500  1
  Se  Se7  1  0.11185600  0.60532100  0.87668300  1
  Se  Se8  1  0.82640000  0.79161400  0.11801400  1
  Se  Se9  1  0.17360000  0.29161400  0.96521500  1
  Se  Se10  1  0.00000000  0.09289200  0.09289200  1
  Se  Se11  1  0.50000000  0.59289200  0.09289200  1
