# generated using pymatgen
data_CeSe2
_symmetry_space_group_name_H-M   'P 1'
_cell_length_a   8.90871500
_cell_length_b   7.51800500
_cell_length_c   8.33677903
_cell_angle_alpha   74.21318646
_cell_angle_beta   90.00000000
_cell_angle_gamma   90.00000000
_symmetry_Int_Tables_number   1
_chemical_formula_structural   CeSe2
_chemical_formula_sum   'Ce4 Se8'
_cell_volume   537.30107733
_cell_formula_units_Z   4
loop_
 _symmetry_equiv_pos_site_id
 _symmetry_equiv_pos_as_xyz
  1  'x, y, z'
loop_
 _atom_site_type_symbol
 _atom_site_label
 _atom_site_symmetry_multiplicity
 _atom_site_fract_x
 _atom_site_fract_y
 _atom_site_fract_z
 _atom_site_occupancy
  Ce  Ce0  1  0.50000000  0.01218000  0.00899400  1
  Ce  Ce1  1  0.50000000  0.53852500  0.47422200  1
  Ce  Ce2  1  0.00000000  0.96627700  0.77036300  1
  Ce  Ce3  1  0.00000000  0.54289900  0.43071000  1
  Se  Se4  1  0.00000000  0.33494500  0.75550000  1
  Se  Se5  1  0.73830700  0.42591500  0.31962800  1
  Se  Se6  1  0.26169300  0.42591500  0.31962800  1
  Se  Se7  1  0.50000000  0.91679200  0.35217100  1
  Se  Se8  1  0.25615100  0.82244600  0.93793600  1
  Se  Se9  1  0.74384900  0.82244600  0.93793600  1
  Se  Se10  1  0.00000000  0.89497200  0.46516500  1
  Se  Se11  1  0.50000000  0.36878900  0.81072700  1
