# generated using pymatgen
data_CeSe2
_symmetry_space_group_name_H-M   'P 1'
_cell_length_a   8.83725500
_cell_length_b   9.16919567
_cell_length_c   9.39208517
_cell_angle_alpha   86.40756313
_cell_angle_beta   83.48180239
_cell_angle_gamma   64.66762049
_symmetry_Int_Tables_number   1
_chemical_formula_structural   CeSe2
_chemical_formula_sum   'Ce4 Se8'
_cell_volume   683.33352908
_cell_formula_units_Z   4
loop_
 _symmetry_equiv_pos_site_id
 _symmetry_equiv_pos_as_xyz
  1  'x, y, z'
loop_
 _atom_site_type_symbol
 _atom_site_label
 _atom_site_symmetry_multiplicity
 _atom_site_fract_x
 _atom_site_fract_y
 _atom_site_fract_z
 _atom_site_occupancy
  Ce  Ce0  1  0.83416400  0.71896100  0.18384600  1
  Ce  Ce1  1  0.31550800  0.19894300  0.07114000  1
  Ce  Ce2  1  0.70253100  0.98022200  0.67790200  1
  Ce  Ce3  1  0.81185800  0.21326200  0.27558100  1
  Se  Se4  1  0.86540500  0.83924300  0.90995300  1
  Se  Se5  1  0.37499800  0.14930900  0.78414100  1
  Se  Se6  1  0.81257000  0.74652700  0.47828500  1
  Se  Se7  1  0.13407500  0.03305000  0.17300100  1
  Se  Se8  1  0.16625600  0.50366500  0.16316700  1
  Se  Se9  1  0.60270600  0.06773400  0.22287700  1
  Se  Se10  1  0.80755300  0.20623400  0.56456400  1
  Se  Se11  1  0.69985500  0.50647100  0.14816400  1
