# generated using pymatgen
data_CeSe2
_symmetry_space_group_name_H-M   'P 1'
_cell_length_a   7.88724688
_cell_length_b   7.88724688
_cell_length_c   7.88724688
_cell_angle_alpha   138.67159665
_cell_angle_beta   138.67159665
_cell_angle_gamma   59.87595842
_symmetry_Int_Tables_number   1
_chemical_formula_structural   CeSe2
_chemical_formula_sum   'Ce2 Se4'
_cell_volume   211.79586357
_cell_formula_units_Z   2
loop_
 _symmetry_equiv_pos_site_id
 _symmetry_equiv_pos_as_xyz
  1  'x, y, z'
loop_
 _atom_site_type_symbol
 _atom_site_label
 _atom_site_symmetry_multiplicity
 _atom_site_fract_x
 _atom_site_fract_y
 _atom_site_fract_z
 _atom_site_occupancy
  Ce  Ce0  1  0.75000000  0.25000000  0.50000000  1
  Ce  Ce1  1  0.00000000  0.00000000  0.00000000  1
  Se  Se2  1  0.95839100  0.45839100  0.50000000  1
  Se  Se3  1  0.79160900  0.79160900  0.00000000  1
  Se  Se4  1  0.54160900  0.04160900  0.50000000  1
  Se  Se5  1  0.20839100  0.20839100  0.00000000  1
