# generated using pymatgen
data_CeSe2
_symmetry_space_group_name_H-M   'P 1'
_cell_length_a   14.15955700
_cell_length_b   8.70857100
_cell_length_c   8.71736189
_cell_angle_alpha   60.20360423
_cell_angle_beta   90.00000000
_cell_angle_gamma   90.00000000
_symmetry_Int_Tables_number   1
_chemical_formula_structural   CeSe2
_chemical_formula_sum   'Ce4 Se8'
_cell_volume   932.82384639
_cell_formula_units_Z   4
loop_
 _symmetry_equiv_pos_site_id
 _symmetry_equiv_pos_as_xyz
  1  'x, y, z'
loop_
 _atom_site_type_symbol
 _atom_site_label
 _atom_site_symmetry_multiplicity
 _atom_site_fract_x
 _atom_site_fract_y
 _atom_site_fract_z
 _atom_site_occupancy
  Ce  Ce0  1  0.81306500  0.61793500  0.65418900  1
  Ce  Ce1  1  0.31306500  0.38206500  0.34581100  1
  Ce  Ce2  1  0.19003600  0.71272500  0.67951600  1
  Ce  Ce3  1  0.69003600  0.28727500  0.32048400  1
  Se  Se4  1  0.50181700  0.33331200  0.33351000  1
  Se  Se5  1  0.00181700  0.66668800  0.66649000  1
  Se  Se6  1  0.21899900  0.55604700  0.03301400  1
  Se  Se7  1  0.71899900  0.44395300  0.96698600  1
  Se  Se8  1  0.72795500  0.93730100  0.46590400  1
  Se  Se9  1  0.22795500  0.06269900  0.53409600  1
  Se  Se10  1  0.28942700  0.56723300  0.51713500  1
  Se  Se11  1  0.78942700  0.43276700  0.48286500  1
