# generated using pymatgen
data_CeSe2
_symmetry_space_group_name_H-M   'P 1'
_cell_length_a   20.48012670
_cell_length_b   20.48012670
_cell_length_c   20.48012670
_cell_angle_alpha   135.84474852
_cell_angle_beta   135.84474852
_cell_angle_gamma   64.22044794
_symmetry_Int_Tables_number   1
_chemical_formula_structural   CeSe2
_chemical_formula_sum   'Ce16 Se32'
_cell_volume   4111.62046488
_cell_formula_units_Z   16
loop_
 _symmetry_equiv_pos_site_id
 _symmetry_equiv_pos_as_xyz
  1  'x, y, z'
loop_
 _atom_site_type_symbol
 _atom_site_label
 _atom_site_symmetry_multiplicity
 _atom_site_fract_x
 _atom_site_fract_y
 _atom_site_fract_z
 _atom_site_occupancy
  Ce  Ce0  1  0.47745300  0.48174500  0.34223300  1
  Ce  Ce1  1  0.13951200  0.13522000  0.65776700  1
  Ce  Ce2  1  0.61048800  0.11478000  0.84223300  1
  Ce  Ce3  1  0.27254700  0.76825500  0.15776700  1
  Ce  Ce4  1  0.47745300  0.13522000  0.99570800  1
  Ce  Ce5  1  0.13951200  0.48174500  0.00429200  1
  Ce  Ce6  1  0.61048800  0.76825500  0.49570800  1
  Ce  Ce7  1  0.27254700  0.11478000  0.50429200  1
  Ce  Ce8  1  0.51825500  0.52254700  0.65776700  1
  Ce  Ce9  1  0.86478000  0.86048800  0.34223300  1
  Ce  Ce10  1  0.88522000  0.38951200  0.15776700  1
  Ce  Ce11  1  0.23174500  0.72745300  0.84223300  1
  Ce  Ce12  1  0.51825500  0.86048800  0.99570800  1
  Ce  Ce13  1  0.86478000  0.52254700  0.00429200  1
  Ce  Ce14  1  0.88522000  0.72745300  0.49570800  1
  Ce  Ce15  1  0.23174500  0.38951200  0.50429200  1
  Se  Se16  1  0.97914800  0.02085200  0.50000000  1
  Se  Se17  1  0.52085200  0.47914800  0.50000000  1
  Se  Se18  1  0.22914800  0.77085200  0.00000000  1
  Se  Se19  1  0.77085200  0.22914800  0.00000000  1
  Se  Se20  1  0.97914800  0.47914800  0.95829700  1
  Se  Se21  1  0.52085200  0.02085200  0.04170300  1
  Se  Se22  1  0.22914800  0.22914800  0.45829700  1
  Se  Se23  1  0.77085200  0.77085200  0.54170300  1
  Se  Se24  1  0.24192000  0.93306800  0.30885200  1
  Se  Se25  1  0.62421600  0.93306800  0.69114800  1
  Se  Se26  1  0.12578400  0.31693200  0.80885200  1
  Se  Se27  1  0.50808000  0.31693200  0.19114800  1
  Se  Se28  1  0.06693200  0.75808000  0.69114800  1
  Se  Se29  1  0.06693200  0.37578400  0.30885200  1
  Se  Se30  1  0.68306800  0.87421600  0.19114800  1
  Se  Se31  1  0.68306800  0.49192000  0.80885200  1
  Se  Se32  1  0.45675500  0.74345100  0.28669600  1
  Se  Se33  1  0.45675500  0.17005800  0.71330400  1
  Se  Se34  1  0.29324500  0.07994200  0.78669600  1
  Se  Se35  1  0.29324500  0.50654900  0.21330400  1
  Se  Se36  1  0.25654900  0.54324500  0.71330400  1
  Se  Se37  1  0.82994200  0.54324500  0.28669600  1
  Se  Se38  1  0.92005800  0.70675500  0.21330400  1
  Se  Se39  1  0.49345100  0.70675500  0.78669600  1
  Se  Se40  1  0.15366600  0.12500000  0.52866600  1
  Se  Se41  1  0.59633400  0.62500000  0.47133400  1
  Se  Se42  1  0.15366600  0.62500000  0.02866600  1
  Se  Se43  1  0.59633400  0.12500000  0.97133400  1
  Se  Se44  1  0.87500000  0.84633400  0.47133400  1
  Se  Se45  1  0.37500000  0.40366600  0.52866600  1
  Se  Se46  1  0.37500000  0.84633400  0.97133400  1
  Se  Se47  1  0.87500000  0.40366600  0.02866600  1
