# generated using pymatgen
data_CeSe2
_symmetry_space_group_name_H-M   'P 1'
_cell_length_a   8.51829500
_cell_length_b   16.36168804
_cell_length_c   39.57912464
_cell_angle_alpha   81.78826066
_cell_angle_beta   83.82238350
_cell_angle_gamma   74.91140911
_symmetry_Int_Tables_number   1
_chemical_formula_structural   CeSe2
_chemical_formula_sum   'Ce24 Se48'
_cell_volume   5257.16658350
_cell_formula_units_Z   24
loop_
 _symmetry_equiv_pos_site_id
 _symmetry_equiv_pos_as_xyz
  1  'x, y, z'
loop_
 _atom_site_type_symbol
 _atom_site_label
 _atom_site_symmetry_multiplicity
 _atom_site_fract_x
 _atom_site_fract_y
 _atom_site_fract_z
 _atom_site_occupancy
  Ce  Ce0  1  0.00807803  0.96351363  0.93589219  1
  Ce  Ce1  1  0.09251616  0.46351363  0.43589219  1
  Ce  Ce2  1  0.75485803  0.83031962  0.76364072  1
  Ce  Ce3  1  0.65118163  0.33031962  0.26364072  1
  Ce  Ce4  1  0.87018825  0.28306059  0.87726541  1
  Ce  Ce5  1  0.96948574  0.78306059  0.37726541  1
  Ce  Ce6  1  0.52936941  0.14610284  0.70407985  1
  Ce  Ce7  1  0.62044790  0.64610284  0.20407985  1
  Ce  Ce8  1  0.37491658  0.34849564  0.80272837  1
  Ce  Ce9  1  0.47385941  0.84849564  0.30272837  1
  Ce  Ce10  1  0.82117068  0.50965774  0.96119408  1
  Ce  Ce11  1  0.70797750  0.00965774  0.46119408  1
  Ce  Ce12  1  0.35420325  0.66221438  0.73430968  1
  Ce  Ce13  1  0.24927270  0.16221438  0.23430968  1
  Ce  Ce14  1  0.60565782  0.81268652  0.89678585  1
  Ce  Ce15  1  0.68486981  0.31268652  0.39678585  1
  Ce  Ce16  1  0.38930842  0.69645567  0.59790593  1
  Ce  Ce17  1  0.31632998  0.19645567  0.09790593  1
  Ce  Ce18  1  0.98291903  0.53852908  0.56416873  1
  Ce  Ce19  1  0.91438316  0.03852908  0.06416873  1
  Ce  Ce20  1  0.16568639  0.01167058  0.53939225  1
  Ce  Ce21  1  0.28325078  0.51167058  0.03939225  1
  Ce  Ce22  1  0.02459330  0.23130921  0.63001360  1
  Ce  Ce23  1  0.11408390  0.73130921  0.13001360  1
  Se  Se24  1  0.22820591  0.16894601  0.68144952  1
  Se  Se25  1  0.92139856  0.66894601  0.18144952  1
  Se  Se26  1  0.72751098  0.20535499  0.65327617  1
  Se  Se27  1  0.41385786  0.70535499  0.15327617  1
  Se  Se28  1  0.59003913  0.52166660  0.01469424  1
  Se  Se29  1  0.87360003  0.02166660  0.51469424  1
  Se  Se30  1  0.10622100  0.51335086  0.98562997  1
  Se  Se31  1  0.39479817  0.01335086  0.48562997  1
  Se  Se32  1  0.06621261  0.34223304  0.82619007  1
  Se  Se33  1  0.76536428  0.84223304  0.32619007  1
  Se  Se34  1  0.56338216  0.31781300  0.85637556  1
  Se  Se35  1  0.26242927  0.81781300  0.35637556  1
  Se  Se36  1  0.71384169  0.66435438  0.57875936  1
  Se  Se37  1  0.04304457  0.16435438  0.07875936  1
  Se  Se38  1  0.24538527  0.60415610  0.56448550  1
  Se  Se39  1  0.58597314  0.10415610  0.06448550  1
  Se  Se40  1  0.62713073  0.70719677  0.74626606  1
  Se  Se41  1  0.91940644  0.20719677  0.24626606  1
  Se  Se42  1  0.08578830  0.77286467  0.75951971  1
  Se  Se43  1  0.38182732  0.27286467  0.25951971  1
  Se  Se44  1  0.27976328  0.84671775  0.91531861  1
  Se  Se45  1  0.95820035  0.34671775  0.41531861  1
  Se  Se46  1  0.74057542  0.90315482  0.93327489  1
  Se  Se47  1  0.42299487  0.40315482  0.43327489  1
  Se  Se48  1  0.98465169  0.11253902  0.89422544  1
  Se  Se49  1  0.00858385  0.61253902  0.39422544  1
  Se  Se50  1  0.86336356  0.36173521  0.93345685  1
  Se  Se51  1  0.84144438  0.86173521  0.43345685  1
  Se  Se52  1  0.64716419  0.86865816  0.82869146  1
  Se  Se53  1  0.65548619  0.36865816  0.32869146  1
  Se  Se54  1  0.65651250  0.97574660  0.71995813  1
  Se  Se55  1  0.64778276  0.47574660  0.21995813  1
  Se  Se56  1  0.36482615  0.50447369  0.76746044  1
  Se  Se57  1  0.36323973  0.00447369  0.26746044  1
  Se  Se58  1  0.33383766  0.66122059  0.66653703  1
  Se  Se59  1  0.33840472  0.16122059  0.16653703  1
  Se  Se60  1  0.51093585  0.22931646  0.75977332  1
  Se  Se61  1  0.49997437  0.72931646  0.25977332  1
  Se  Se62  1  0.12597704  0.15074323  0.57302959  1
  Se  Se63  1  0.15025014  0.65074323  0.07302959  1
  Se  Se64  1  0.00051142  0.40109066  0.61265998  1
  Se  Se65  1  0.98573794  0.90109066  0.11265998  1
  Se  Se66  1  0.02984526  0.99970254  0.00000907  1
  Se  Se67  1  0.97044312  0.49970254  0.50000907  1
  Se  Se68  1  0.73298363  0.64091567  0.91072988  1
  Se  Se69  1  0.71537082  0.14091567  0.41072988  1
  Se  Se70  1  0.25396090  0.86673365  0.58375249  1
  Se  Se71  1  0.29555296  0.36673365  0.08375249  1
