# generated using pymatgen
data_CeSe2
_symmetry_space_group_name_H-M   'P 1'
_cell_length_a   13.67318786
_cell_length_b   13.67318786
_cell_length_c   11.78887700
_cell_angle_alpha   90.00000000
_cell_angle_beta   90.00000000
_cell_angle_gamma   119.99999933
_symmetry_Int_Tables_number   1
_chemical_formula_structural   CeSe2
_chemical_formula_sum   'Ce12 Se24'
_cell_volume   1908.72179567
_cell_formula_units_Z   12
loop_
 _symmetry_equiv_pos_site_id
 _symmetry_equiv_pos_as_xyz
  1  'x, y, z'
loop_
 _atom_site_type_symbol
 _atom_site_label
 _atom_site_symmetry_multiplicity
 _atom_site_fract_x
 _atom_site_fract_y
 _atom_site_fract_z
 _atom_site_occupancy
  Ce  Ce0  1  0.29293500  0.95082700  0.42360300  1
  Ce  Ce1  1  0.65789200  0.70706500  0.42360300  1
  Ce  Ce2  1  0.04917300  0.34210800  0.42360300  1
  Ce  Ce3  1  0.34210800  0.04917300  0.92360300  1
  Ce  Ce4  1  0.70706500  0.65789200  0.92360300  1
  Ce  Ce5  1  0.95082700  0.29293500  0.92360300  1
  Ce  Ce6  1  0.70706500  0.04917300  0.57639700  1
  Ce  Ce7  1  0.34210800  0.29293500  0.57639700  1
  Ce  Ce8  1  0.95082700  0.65789200  0.57639700  1
  Ce  Ce9  1  0.65789200  0.95082700  0.07639700  1
  Ce  Ce10  1  0.29293500  0.34210800  0.07639700  1
  Ce  Ce11  1  0.04917300  0.70706500  0.07639700  1
  Se  Se12  1  0.30518800  0.15462100  0.39958900  1
  Se  Se13  1  0.84943300  0.69481200  0.39958900  1
  Se  Se14  1  0.84537900  0.15056700  0.39958900  1
  Se  Se15  1  0.15056700  0.84537900  0.89958900  1
  Se  Se16  1  0.69481200  0.84943300  0.89958900  1
  Se  Se17  1  0.15462100  0.30518800  0.89958900  1
  Se  Se18  1  0.69481200  0.84537900  0.60041100  1
  Se  Se19  1  0.15056700  0.30518800  0.60041100  1
  Se  Se20  1  0.15462100  0.84943300  0.60041100  1
  Se  Se21  1  0.84943300  0.15462100  0.10041100  1
  Se  Se22  1  0.30518800  0.15056700  0.10041100  1
  Se  Se23  1  0.84537900  0.69481200  0.10041100  1
  Se  Se24  1  0.20024200  0.40048300  0.25000000  1
  Se  Se25  1  0.20024200  0.79975800  0.25000000  1
  Se  Se26  1  0.59951700  0.79975800  0.25000000  1
  Se  Se27  1  0.79975800  0.59951700  0.75000000  1
  Se  Se28  1  0.79975800  0.20024200  0.75000000  1
  Se  Se29  1  0.40048300  0.20024200  0.75000000  1
  Se  Se30  1  0.50000000  0.00000000  0.50000000  1
  Se  Se31  1  0.50000000  0.50000000  0.50000000  1
  Se  Se32  1  0.00000000  0.50000000  0.50000000  1
  Se  Se33  1  0.50000000  0.00000000  0.00000000  1
  Se  Se34  1  0.50000000  0.50000000  0.00000000  1
  Se  Se35  1  0.00000000  0.50000000  0.00000000  1
