# generated using pymatgen
data_CeSe2
_symmetry_space_group_name_H-M   'P 1'
_cell_length_a   16.46430000
_cell_length_b   16.46430000
_cell_length_c   14.12713300
_cell_angle_alpha   90.00000000
_cell_angle_beta   90.00000000
_cell_angle_gamma   90.00000000
_symmetry_Int_Tables_number   1
_chemical_formula_structural   CeSe2
_chemical_formula_sum   'Ce16 Se32'
_cell_volume   3829.48678875
_cell_formula_units_Z   16
loop_
 _symmetry_equiv_pos_site_id
 _symmetry_equiv_pos_as_xyz
  1  'x, y, z'
loop_
 _atom_site_type_symbol
 _atom_site_label
 _atom_site_symmetry_multiplicity
 _atom_site_fract_x
 _atom_site_fract_y
 _atom_site_fract_z
 _atom_site_occupancy
  Ce  Ce0  1  0.37897200  0.66933200  0.31260300  1
  Ce  Ce1  1  0.62102800  0.33066800  0.31260300  1
  Ce  Ce2  1  0.12102800  0.16933200  0.68739700  1
  Ce  Ce3  1  0.87897200  0.83066800  0.68739700  1
  Ce  Ce4  1  0.62102800  0.33066800  0.68739700  1
  Ce  Ce5  1  0.37897200  0.66933200  0.68739700  1
  Ce  Ce6  1  0.87897200  0.83066800  0.31260300  1
  Ce  Ce7  1  0.12102800  0.16933200  0.31260300  1
  Ce  Ce8  1  0.16933200  0.87897200  0.18739700  1
  Ce  Ce9  1  0.83066800  0.12102800  0.18739700  1
  Ce  Ce10  1  0.33066800  0.37897200  0.81260300  1
  Ce  Ce11  1  0.66933200  0.62102800  0.81260300  1
  Ce  Ce12  1  0.83066800  0.12102800  0.81260300  1
  Ce  Ce13  1  0.16933200  0.87897200  0.81260300  1
  Ce  Ce14  1  0.66933200  0.62102800  0.18739700  1
  Ce  Ce15  1  0.33066800  0.37897200  0.18739700  1
  Se  Se16  1  0.64520800  0.35080800  0.50000000  1
  Se  Se17  1  0.35479200  0.64919200  0.50000000  1
  Se  Se18  1  0.85479200  0.85080800  0.50000000  1
  Se  Se19  1  0.14520800  0.14919200  0.50000000  1
  Se  Se20  1  0.85080800  0.14520800  0.00000000  1
  Se  Se21  1  0.14919200  0.85479200  0.00000000  1
  Se  Se22  1  0.64919200  0.64520800  0.00000000  1
  Se  Se23  1  0.35080800  0.35479200  0.00000000  1
  Se  Se24  1  0.30596500  0.80596500  0.25000000  1
  Se  Se25  1  0.69403500  0.19403500  0.25000000  1
  Se  Se26  1  0.19403500  0.30596500  0.75000000  1
  Se  Se27  1  0.80596500  0.69403500  0.75000000  1
  Se  Se28  1  0.69403500  0.19403500  0.75000000  1
  Se  Se29  1  0.30596500  0.80596500  0.75000000  1
  Se  Se30  1  0.80596500  0.69403500  0.25000000  1
  Se  Se31  1  0.19403500  0.30596500  0.25000000  1
  Se  Se32  1  0.31686100  0.53980400  0.22007700  1
  Se  Se33  1  0.68313900  0.46019600  0.22007700  1
  Se  Se34  1  0.18313900  0.03980400  0.77992300  1
  Se  Se35  1  0.81686100  0.96019600  0.77992300  1
  Se  Se36  1  0.68313900  0.46019600  0.77992300  1
  Se  Se37  1  0.31686100  0.53980400  0.77992300  1
  Se  Se38  1  0.81686100  0.96019600  0.22007700  1
  Se  Se39  1  0.18313900  0.03980400  0.22007700  1
  Se  Se40  1  0.03980400  0.81686100  0.27992300  1
  Se  Se41  1  0.96019600  0.18313900  0.27992300  1
  Se  Se42  1  0.46019600  0.31686100  0.72007700  1
  Se  Se43  1  0.53980400  0.68313900  0.72007700  1
  Se  Se44  1  0.96019600  0.18313900  0.72007700  1
  Se  Se45  1  0.03980400  0.81686100  0.72007700  1
  Se  Se46  1  0.53980400  0.68313900  0.27992300  1
  Se  Se47  1  0.46019600  0.31686100  0.27992300  1
