# generated using pymatgen
data_CeSe2
_symmetry_space_group_name_H-M   'P 1'
_cell_length_a   17.62942700
_cell_length_b   17.62942700
_cell_length_c   7.51553100
_cell_angle_alpha   90.00000000
_cell_angle_beta   90.00000000
_cell_angle_gamma   90.00000000
_symmetry_Int_Tables_number   1
_chemical_formula_structural   CeSe2
_chemical_formula_sum   'Ce16 Se32'
_cell_volume   2335.80220610
_cell_formula_units_Z   16
loop_
 _symmetry_equiv_pos_site_id
 _symmetry_equiv_pos_as_xyz
  1  'x, y, z'
loop_
 _atom_site_type_symbol
 _atom_site_label
 _atom_site_symmetry_multiplicity
 _atom_site_fract_x
 _atom_site_fract_y
 _atom_site_fract_z
 _atom_site_occupancy
  Ce  Ce0  1  0.40153000  0.71076400  0.72373300  1
  Ce  Ce1  1  0.59847000  0.28923600  0.72373300  1
  Ce  Ce2  1  0.90153000  0.21076400  0.77626700  1
  Ce  Ce3  1  0.09847000  0.78923600  0.77626700  1
  Ce  Ce4  1  0.59847000  0.71076400  0.27626700  1
  Ce  Ce5  1  0.40153000  0.28923600  0.27626700  1
  Ce  Ce6  1  0.09847000  0.21076400  0.22373300  1
  Ce  Ce7  1  0.90153000  0.78923600  0.22373300  1
  Ce  Ce8  1  0.28923600  0.40153000  0.72373300  1
  Ce  Ce9  1  0.71076400  0.59847000  0.72373300  1
  Ce  Ce10  1  0.78923600  0.90153000  0.77626700  1
  Ce  Ce11  1  0.21076400  0.09847000  0.77626700  1
  Ce  Ce12  1  0.28923600  0.59847000  0.27626700  1
  Ce  Ce13  1  0.71076400  0.40153000  0.27626700  1
  Ce  Ce14  1  0.78923600  0.09847000  0.22373300  1
  Ce  Ce15  1  0.21076400  0.90153000  0.22373300  1
  Se  Se16  1  0.40692500  0.59307500  0.50000000  1
  Se  Se17  1  0.59307500  0.40692500  0.50000000  1
  Se  Se18  1  0.90692500  0.09307500  0.00000000  1
  Se  Se19  1  0.09307500  0.90692500  0.00000000  1
  Se  Se20  1  0.59307500  0.59307500  0.50000000  1
  Se  Se21  1  0.40692500  0.40692500  0.50000000  1
  Se  Se22  1  0.09307500  0.09307500  0.00000000  1
  Se  Se23  1  0.90692500  0.90692500  0.00000000  1
  Se  Se24  1  0.39193400  0.60806600  0.00000000  1
  Se  Se25  1  0.60806600  0.39193400  0.00000000  1
  Se  Se26  1  0.89193400  0.10806600  0.50000000  1
  Se  Se27  1  0.10806600  0.89193400  0.50000000  1
  Se  Se28  1  0.60806600  0.60806600  0.00000000  1
  Se  Se29  1  0.39193400  0.39193400  0.00000000  1
  Se  Se30  1  0.10806600  0.10806600  0.50000000  1
  Se  Se31  1  0.89193400  0.89193400  0.50000000  1
  Se  Se32  1  0.25000000  0.75000000  0.75000000  1
  Se  Se33  1  0.75000000  0.25000000  0.75000000  1
  Se  Se34  1  0.75000000  0.75000000  0.25000000  1
  Se  Se35  1  0.25000000  0.25000000  0.25000000  1
  Se  Se36  1  0.25000000  0.25000000  0.75000000  1
  Se  Se37  1  0.75000000  0.75000000  0.75000000  1
  Se  Se38  1  0.25000000  0.75000000  0.25000000  1
  Se  Se39  1  0.75000000  0.25000000  0.25000000  1
  Se  Se40  1  0.50000000  0.79210400  0.50000000  1
  Se  Se41  1  0.50000000  0.20789600  0.50000000  1
  Se  Se42  1  0.00000000  0.29210400  0.00000000  1
  Se  Se43  1  0.00000000  0.70789600  0.00000000  1
  Se  Se44  1  0.20789600  0.50000000  0.50000000  1
  Se  Se45  1  0.79210400  0.50000000  0.50000000  1
  Se  Se46  1  0.70789600  0.00000000  0.00000000  1
  Se  Se47  1  0.29210400  0.00000000  0.00000000  1
