# generated using pymatgen
data_CeSe2
_symmetry_space_group_name_H-M   'P 1'
_cell_length_a   14.83721834
_cell_length_b   14.83721834
_cell_length_c   14.83721834
_cell_angle_alpha   109.47122063
_cell_angle_beta   109.47122063
_cell_angle_gamma   109.47122063
_symmetry_Int_Tables_number   1
_chemical_formula_structural   CeSe2
_chemical_formula_sum   'Ce12 Se24'
_cell_volume   2514.40697002
_cell_formula_units_Z   12
loop_
 _symmetry_equiv_pos_site_id
 _symmetry_equiv_pos_as_xyz
  1  'x, y, z'
loop_
 _atom_site_type_symbol
 _atom_site_label
 _atom_site_symmetry_multiplicity
 _atom_site_fract_x
 _atom_site_fract_y
 _atom_site_fract_z
 _atom_site_occupancy
  Ce  Ce0  1  0.62500000  0.75000000  0.37500000  1
  Ce  Ce1  1  0.87500000  0.25000000  0.12500000  1
  Ce  Ce2  1  0.37500000  0.62500000  0.75000000  1
  Ce  Ce3  1  0.12500000  0.87500000  0.25000000  1
  Ce  Ce4  1  0.75000000  0.37500000  0.62500000  1
  Ce  Ce5  1  0.25000000  0.12500000  0.87500000  1
  Ce  Ce6  1  0.37500000  0.25000000  0.62500000  1
  Ce  Ce7  1  0.12500000  0.75000000  0.87500000  1
  Ce  Ce8  1  0.62500000  0.37500000  0.25000000  1
  Ce  Ce9  1  0.87500000  0.12500000  0.75000000  1
  Ce  Ce10  1  0.25000000  0.62500000  0.37500000  1
  Ce  Ce11  1  0.75000000  0.87500000  0.12500000  1
  Se  Se12  1  0.90657300  0.81314600  0.15657300  1
  Se  Se13  1  0.15657300  0.75000000  0.34342700  1
  Se  Se14  1  0.59342700  0.75000000  0.90657300  1
  Se  Se15  1  0.34342700  0.68685400  0.59342700  1
  Se  Se16  1  0.15657300  0.90657300  0.81314600  1
  Se  Se17  1  0.34342700  0.15657300  0.75000000  1
  Se  Se18  1  0.90657300  0.59342700  0.75000000  1
  Se  Se19  1  0.59342700  0.34342700  0.68685400  1
  Se  Se20  1  0.81314600  0.15657300  0.90657300  1
  Se  Se21  1  0.75000000  0.34342700  0.15657300  1
  Se  Se22  1  0.75000000  0.90657300  0.59342700  1
  Se  Se23  1  0.68685400  0.59342700  0.34342700  1
  Se  Se24  1  0.09342700  0.18685400  0.84342700  1
  Se  Se25  1  0.84342700  0.25000000  0.65657300  1
  Se  Se26  1  0.40657300  0.25000000  0.09342700  1
  Se  Se27  1  0.65657300  0.31314600  0.40657300  1
  Se  Se28  1  0.84342700  0.09342700  0.18685400  1
  Se  Se29  1  0.65657300  0.84342700  0.25000000  1
  Se  Se30  1  0.09342700  0.40657300  0.25000000  1
  Se  Se31  1  0.40657300  0.65657300  0.31314600  1
  Se  Se32  1  0.18685400  0.84342700  0.09342700  1
  Se  Se33  1  0.25000000  0.65657300  0.84342700  1
  Se  Se34  1  0.25000000  0.09342700  0.40657300  1
  Se  Se35  1  0.31314600  0.40657300  0.65657300  1
