# generated using pymatgen
data_CeSe2
_symmetry_space_group_name_H-M   'P 1'
_cell_length_a   18.33975741
_cell_length_b   18.33975741
_cell_length_c   18.33975741
_cell_angle_alpha   103.22984410
_cell_angle_beta   103.22984410
_cell_angle_gamma   122.83926257
_symmetry_Int_Tables_number   1
_chemical_formula_structural   CeSe2
_chemical_formula_sum   'Ce16 Se32'
_cell_volume   4551.22331162
_cell_formula_units_Z   16
loop_
 _symmetry_equiv_pos_site_id
 _symmetry_equiv_pos_as_xyz
  1  'x, y, z'
loop_
 _atom_site_type_symbol
 _atom_site_label
 _atom_site_symmetry_multiplicity
 _atom_site_fract_x
 _atom_site_fract_y
 _atom_site_fract_z
 _atom_site_occupancy
  Ce  Ce0  1  0.45338900  0.33182000  0.50000000  1
  Ce  Ce1  1  0.83182000  0.95338900  0.50000000  1
  Ce  Ce2  1  0.33182000  0.83182000  0.87843100  1
  Ce  Ce3  1  0.95338900  0.45338900  0.12156900  1
  Ce  Ce4  1  0.54661100  0.66818000  0.50000000  1
  Ce  Ce5  1  0.16818000  0.04661100  0.50000000  1
  Ce  Ce6  1  0.66818000  0.16818000  0.12156900  1
  Ce  Ce7  1  0.04661100  0.54661100  0.87843100  1
  Ce  Ce8  1  0.60478200  0.25000000  0.35478200  1
  Ce  Ce9  1  0.89521800  0.25000000  0.64521800  1
  Ce  Ce10  1  0.25000000  0.89521800  0.64521800  1
  Ce  Ce11  1  0.25000000  0.60478200  0.35478200  1
  Ce  Ce12  1  0.39521800  0.75000000  0.64521800  1
  Ce  Ce13  1  0.10478200  0.75000000  0.35478200  1
  Ce  Ce14  1  0.75000000  0.10478200  0.35478200  1
  Ce  Ce15  1  0.75000000  0.39521800  0.64521800  1
  Se  Se16  1  0.72285600  0.77714400  0.50000000  1
  Se  Se17  1  0.27714400  0.22285600  0.50000000  1
  Se  Se18  1  0.77714400  0.27714400  0.05428700  1
  Se  Se19  1  0.22285600  0.72285600  0.94571300  1
  Se  Se20  1  0.00000000  0.00000000  0.50000000  1
  Se  Se21  1  0.50000000  0.50000000  0.50000000  1
  Se  Se22  1  0.00000000  0.50000000  0.00000000  1
  Se  Se23  1  0.50000000  0.00000000  0.00000000  1
  Se  Se24  1  0.73144200  0.94915100  0.36178400  1
  Se  Se25  1  0.58736700  0.36965800  0.63821600  1
  Se  Se26  1  0.94915100  0.58736700  0.21770900  1
  Se  Se27  1  0.36965800  0.73144200  0.78229100  1
  Se  Se28  1  0.26855800  0.05084900  0.63821600  1
  Se  Se29  1  0.41263300  0.63034200  0.36178400  1
  Se  Se30  1  0.05084900  0.41263300  0.78229100  1
  Se  Se31  1  0.63034200  0.26855800  0.21770900  1
  Se  Se32  1  0.86965800  0.08736700  0.63821600  1
  Se  Se33  1  0.44915100  0.23144200  0.36178400  1
  Se  Se34  1  0.08736700  0.44915100  0.21770900  1
  Se  Se35  1  0.23144200  0.86965800  0.78229100  1
  Se  Se36  1  0.13034200  0.91263300  0.36178400  1
  Se  Se37  1  0.55084900  0.76855800  0.63821600  1
  Se  Se38  1  0.91263300  0.55084900  0.78229100  1
  Se  Se39  1  0.76855800  0.13034200  0.21770900  1
  Se  Se40  1  0.90516900  0.25492900  0.50000000  1
  Se  Se41  1  0.75492900  0.40516900  0.50000000  1
  Se  Se42  1  0.25492900  0.75492900  0.34976000  1
  Se  Se43  1  0.40516900  0.90516900  0.65024000  1
  Se  Se44  1  0.09483100  0.74507100  0.50000000  1
  Se  Se45  1  0.24507100  0.59483100  0.50000000  1
  Se  Se46  1  0.74507100  0.24507100  0.65024000  1
  Se  Se47  1  0.59483100  0.09483100  0.34976000  1
