# generated using pymatgen
data_CeSe2
_symmetry_space_group_name_H-M   'P 1'
_cell_length_a   21.84784455
_cell_length_b   21.84784455
_cell_length_c   22.81010617
_cell_angle_alpha   90.00000000
_cell_angle_beta   90.00000000
_cell_angle_gamma   90.00000000
_symmetry_Int_Tables_number   1
_chemical_formula_structural   CeSe2
_chemical_formula_sum   'Ce32 Se64'
_cell_volume   10887.90946283
_cell_formula_units_Z   32
loop_
 _symmetry_equiv_pos_site_id
 _symmetry_equiv_pos_as_xyz
  1  'x, y, z'
loop_
 _atom_site_type_symbol
 _atom_site_label
 _atom_site_symmetry_multiplicity
 _atom_site_fract_x
 _atom_site_fract_y
 _atom_site_fract_z
 _atom_site_occupancy
  Ce  Ce0  1  0.37739788  0.12001245  0.61568973  1
  Ce  Ce1  1  0.62260212  0.87998755  0.61568973  1
  Ce  Ce2  1  0.87998755  0.37739788  0.11568973  1
  Ce  Ce3  1  0.12001245  0.62260212  0.11568973  1
  Ce  Ce4  1  0.62260212  0.12001245  0.38431027  1
  Ce  Ce5  1  0.37739788  0.87998755  0.38431027  1
  Ce  Ce6  1  0.12001245  0.37739788  0.88431027  1
  Ce  Ce7  1  0.87998755  0.62260212  0.88431027  1
  Ce  Ce8  1  0.62260212  0.87998755  0.38431027  1
  Ce  Ce9  1  0.37739788  0.12001245  0.38431027  1
  Ce  Ce10  1  0.12001245  0.62260212  0.88431027  1
  Ce  Ce11  1  0.87998755  0.37739788  0.88431027  1
  Ce  Ce12  1  0.37739788  0.87998755  0.61568973  1
  Ce  Ce13  1  0.62260212  0.12001245  0.61568973  1
  Ce  Ce14  1  0.87998755  0.62260212  0.11568973  1
  Ce  Ce15  1  0.12001245  0.37739788  0.11568973  1
  Ce  Ce16  1  0.37733529  0.50000000  0.61595772  1
  Ce  Ce17  1  0.62266471  0.50000000  0.61595772  1
  Ce  Ce18  1  0.50000000  0.37733529  0.11595772  1
  Ce  Ce19  1  0.50000000  0.62266471  0.11595772  1
  Ce  Ce20  1  0.62266471  0.50000000  0.38404228  1
  Ce  Ce21  1  0.37733529  0.50000000  0.38404228  1
  Ce  Ce22  1  0.50000000  0.37733529  0.88404228  1
  Ce  Ce23  1  0.50000000  0.62266471  0.88404228  1
  Ce  Ce24  1  0.31153462  0.31153462  0.75000000  1
  Ce  Ce25  1  0.68846538  0.68846538  0.75000000  1
  Ce  Ce26  1  0.68846538  0.31153462  0.25000000  1
  Ce  Ce27  1  0.31153462  0.68846538  0.25000000  1
  Ce  Ce28  1  0.68846538  0.68846538  0.25000000  1
  Ce  Ce29  1  0.31153462  0.31153462  0.25000000  1
  Ce  Ce30  1  0.31153462  0.68846538  0.75000000  1
  Ce  Ce31  1  0.68846538  0.31153462  0.75000000  1
  Se  Se32  1  0.32832194  0.40130519  0.66994387  1
  Se  Se33  1  0.67167806  0.59869481  0.66994387  1
  Se  Se34  1  0.59869481  0.32832194  0.16994387  1
  Se  Se35  1  0.40130519  0.67167806  0.16994387  1
  Se  Se36  1  0.67167806  0.40130519  0.33005613  1
  Se  Se37  1  0.32832194  0.59869481  0.33005613  1
  Se  Se38  1  0.40130519  0.32832194  0.83005613  1
  Se  Se39  1  0.59869481  0.67167806  0.83005613  1
  Se  Se40  1  0.67167806  0.59869481  0.33005613  1
  Se  Se41  1  0.32832194  0.40130519  0.33005613  1
  Se  Se42  1  0.40130519  0.67167806  0.83005613  1
  Se  Se43  1  0.59869481  0.32832194  0.83005613  1
  Se  Se44  1  0.32832194  0.59869481  0.66994387  1
  Se  Se45  1  0.67167806  0.40130519  0.66994387  1
  Se  Se46  1  0.59869481  0.67167806  0.16994387  1
  Se  Se47  1  0.40130519  0.32832194  0.16994387  1
  Se  Se48  1  0.32554851  0.20414636  0.68973008  1
  Se  Se49  1  0.67445149  0.79585364  0.68973008  1
  Se  Se50  1  0.79585364  0.32554851  0.18973008  1
  Se  Se51  1  0.20414636  0.67445149  0.18973008  1
  Se  Se52  1  0.67445149  0.20414636  0.31026992  1
  Se  Se53  1  0.32554851  0.79585364  0.31026992  1
  Se  Se54  1  0.20414636  0.32554851  0.81026992  1
  Se  Se55  1  0.79585364  0.67445149  0.81026992  1
  Se  Se56  1  0.67445149  0.79585364  0.31026992  1
  Se  Se57  1  0.32554851  0.20414636  0.31026992  1
  Se  Se58  1  0.20414636  0.67445149  0.81026992  1
  Se  Se59  1  0.79585364  0.32554851  0.81026992  1
  Se  Se60  1  0.32554851  0.79585364  0.68973008  1
  Se  Se61  1  0.67445149  0.20414636  0.68973008  1
  Se  Se62  1  0.79585364  0.67445149  0.18973008  1
  Se  Se63  1  0.20414636  0.32554851  0.18973008  1
  Se  Se64  1  0.35454141  0.14050020  0.50000000  1
  Se  Se65  1  0.64545859  0.85949980  0.50000000  1
  Se  Se66  1  0.85949980  0.35454141  -0.00000000  1
  Se  Se67  1  0.14050020  0.64545859  -0.00000000  1
  Se  Se68  1  0.64545859  0.14050020  0.50000000  1
  Se  Se69  1  0.35454141  0.85949980  0.50000000  1
  Se  Se70  1  0.14050020  0.35454141  -0.00000000  1
  Se  Se71  1  0.85949980  0.64545859  -0.00000000  1
  Se  Se72  1  0.13176823  0.50000000  0.12869139  1
  Se  Se73  1  0.86823177  0.50000000  0.12869139  1
  Se  Se74  1  0.50000000  0.13176823  0.62869139  1
  Se  Se75  1  0.50000000  0.86823177  0.62869139  1
  Se  Se76  1  0.86823177  0.50000000  0.87130861  1
  Se  Se77  1  0.13176823  0.50000000  0.87130861  1
  Se  Se78  1  0.50000000  0.13176823  0.37130861  1
  Se  Se79  1  0.50000000  0.86823177  0.37130861  1
  Se  Se80  1  0.35160019  -0.00000000  0.63849221  1
  Se  Se81  1  0.64839981  0.00000000  0.63849221  1
  Se  Se82  1  -0.00000000  0.35160019  0.13849221  1
  Se  Se83  1  0.00000000  0.64839981  0.13849221  1
  Se  Se84  1  0.64839981  0.00000000  0.36150779  1
  Se  Se85  1  0.35160019  -0.00000000  0.36150779  1
  Se  Se86  1  -0.00000000  0.35160019  0.86150779  1
  Se  Se87  1  0.00000000  0.64839981  0.86150779  1
  Se  Se88  1  0.35202775  0.50000000  0.50000000  1
  Se  Se89  1  0.64797225  0.50000000  0.50000000  1
  Se  Se90  1  0.50000000  0.35202775  -0.00000000  1
  Se  Se91  1  0.50000000  0.64797225  -0.00000000  1
  Se  Se92  1  0.50000000  0.50000000  0.62901267  1
  Se  Se93  1  0.50000000  0.50000000  0.12901267  1
  Se  Se94  1  0.50000000  0.50000000  0.37098733  1
  Se  Se95  1  0.50000000  0.50000000  0.87098733  1
