# generated using pymatgen
data_CeSe2
_symmetry_space_group_name_H-M   'P 1'
_cell_length_a   12.67964200
_cell_length_b   12.67964200
_cell_length_c   14.80907300
_cell_angle_alpha   90.00000000
_cell_angle_beta   90.00000000
_cell_angle_gamma   90.00000000
_symmetry_Int_Tables_number   1
_chemical_formula_structural   CeSe2
_chemical_formula_sum   'Ce12 Se24'
_cell_volume   2380.90385082
_cell_formula_units_Z   12
loop_
 _symmetry_equiv_pos_site_id
 _symmetry_equiv_pos_as_xyz
  1  'x, y, z'
loop_
 _atom_site_type_symbol
 _atom_site_label
 _atom_site_symmetry_multiplicity
 _atom_site_fract_x
 _atom_site_fract_y
 _atom_site_fract_z
 _atom_site_occupancy
  Ce  Ce0  1  0.82397100  0.37908400  0.00225300  1
  Ce  Ce1  1  0.17602900  0.62091600  0.50225300  1
  Ce  Ce2  1  0.87908400  0.67602900  0.25225300  1
  Ce  Ce3  1  0.12091600  0.32397100  0.75225300  1
  Ce  Ce4  1  0.62091600  0.17602900  0.49774700  1
  Ce  Ce5  1  0.37908400  0.82397100  0.99774700  1
  Ce  Ce6  1  0.67602900  0.87908400  0.74774700  1
  Ce  Ce7  1  0.32397100  0.12091600  0.24774700  1
  Ce  Ce8  1  0.91152900  0.08847100  0.25000000  1
  Ce  Ce9  1  0.08847100  0.91152900  0.75000000  1
  Ce  Ce10  1  0.58847100  0.58847100  0.50000000  1
  Ce  Ce11  1  0.41152900  0.41152900  0.00000000  1
  Se  Se12  1  0.94542900  0.36791400  0.85067400  1
  Se  Se13  1  0.05457100  0.63208600  0.35067400  1
  Se  Se14  1  0.86791400  0.55457100  0.10067400  1
  Se  Se15  1  0.13208600  0.44542900  0.60067400  1
  Se  Se16  1  0.63208600  0.05457100  0.64932600  1
  Se  Se17  1  0.36791400  0.94542900  0.14932600  1
  Se  Se18  1  0.55457100  0.86791400  0.89932600  1
  Se  Se19  1  0.44542900  0.13208600  0.39932600  1
  Se  Se20  1  0.61711300  0.37762700  0.95545200  1
  Se  Se21  1  0.38288700  0.62237300  0.45545200  1
  Se  Se22  1  0.87762700  0.88288700  0.20545200  1
  Se  Se23  1  0.12237300  0.11711300  0.70545200  1
  Se  Se24  1  0.62237300  0.38288700  0.54454800  1
  Se  Se25  1  0.37762700  0.61711300  0.04454800  1
  Se  Se26  1  0.88288700  0.87762700  0.79454800  1
  Se  Se27  1  0.11711300  0.12237300  0.29454800  1
  Se  Se28  1  0.84468900  0.20439700  0.10667300  1
  Se  Se29  1  0.15531100  0.79560300  0.60667300  1
  Se  Se30  1  0.70439700  0.65531100  0.35667300  1
  Se  Se31  1  0.29560300  0.34468900  0.85667300  1
  Se  Se32  1  0.79560300  0.15531100  0.39332700  1
  Se  Se33  1  0.20439700  0.84468900  0.89332700  1
  Se  Se34  1  0.65531100  0.70439700  0.64332700  1
  Se  Se35  1  0.34468900  0.29560300  0.14332700  1
