# generated using pymatgen
data_CeSe2
_symmetry_space_group_name_H-M   'P 1'
_cell_length_a   18.99134805
_cell_length_b   18.99134805
_cell_length_c   8.57158700
_cell_angle_alpha   90.00000000
_cell_angle_beta   90.00000000
_cell_angle_gamma   102.82809723
_symmetry_Int_Tables_number   1
_chemical_formula_structural   CeSe2
_chemical_formula_sum   'Ce12 Se24'
_cell_volume   3014.36278995
_cell_formula_units_Z   12
loop_
 _symmetry_equiv_pos_site_id
 _symmetry_equiv_pos_as_xyz
  1  'x, y, z'
loop_
 _atom_site_type_symbol
 _atom_site_label
 _atom_site_symmetry_multiplicity
 _atom_site_fract_x
 _atom_site_fract_y
 _atom_site_fract_z
 _atom_site_occupancy
  Ce  Ce0  1  0.72622200  0.27377800  0.25263100  1
  Ce  Ce1  1  0.27377800  0.72622200  0.75263100  1
  Ce  Ce2  1  0.62359900  0.37640100  0.75121800  1
  Ce  Ce3  1  0.37640100  0.62359900  0.25121800  1
  Ce  Ce4  1  0.24734700  0.34405900  0.27295600  1
  Ce  Ce5  1  0.65594100  0.75265300  0.27295600  1
  Ce  Ce6  1  0.75265300  0.65594100  0.77295600  1
  Ce  Ce7  1  0.34405900  0.24734700  0.77295600  1
  Ce  Ce8  1  0.99528100  0.41740000  0.35402300  1
  Ce  Ce9  1  0.58260000  0.00471900  0.35402300  1
  Ce  Ce10  1  0.00471900  0.58260000  0.85402300  1
  Ce  Ce11  1  0.41740000  0.99528100  0.85402300  1
  Se  Se12  1  0.66655000  0.52142600  0.80283700  1
  Se  Se13  1  0.47857400  0.33345000  0.80283700  1
  Se  Se14  1  0.33345000  0.47857400  0.30283700  1
  Se  Se15  1  0.52142600  0.66655000  0.30283700  1
  Se  Se16  1  0.87193600  0.31676600  0.29312100  1
  Se  Se17  1  0.68323400  0.12806400  0.29312100  1
  Se  Se18  1  0.12806400  0.68323400  0.79312100  1
  Se  Se19  1  0.31676600  0.87193600  0.79312100  1
  Se  Se20  1  0.89185200  0.64975600  0.83610000  1
  Se  Se21  1  0.35024400  0.10814800  0.83610000  1
  Se  Se22  1  0.10814800  0.35024400  0.33610000  1
  Se  Se23  1  0.64975600  0.89185200  0.33610000  1
  Se  Se24  1  0.74768200  0.70849900  0.47762700  1
  Se  Se25  1  0.29150100  0.25231800  0.47762700  1
  Se  Se26  1  0.25231800  0.29150100  0.97762700  1
  Se  Se27  1  0.70849900  0.74768200  0.97762700  1
  Se  Se28  1  0.01208000  0.52866400  0.14688300  1
  Se  Se29  1  0.47133600  0.98792000  0.14688300  1
  Se  Se30  1  0.98792000  0.47133600  0.64688300  1
  Se  Se31  1  0.52866400  0.01208000  0.64688300  1
  Se  Se32  1  0.69412100  0.30587900  0.95471200  1
  Se  Se33  1  0.30587900  0.69412100  0.45471200  1
  Se  Se34  1  0.65458700  0.34541300  0.45184400  1
  Se  Se35  1  0.34541300  0.65458700  0.95184400  1
