# generated using pymatgen
data_OsC
_symmetry_space_group_name_H-M   'P 1'
_cell_length_a   4.46596400
_cell_length_b   4.46596400
_cell_length_c   4.46596400
_cell_angle_alpha   90.00000000
_cell_angle_beta   90.00000000
_cell_angle_gamma   90.00000000
_symmetry_Int_Tables_number   1
_chemical_formula_structural   OsC
_chemical_formula_sum   'Os4 C4'
_cell_volume   89.07291264
_cell_formula_units_Z   4
loop_
 _symmetry_equiv_pos_site_id
 _symmetry_equiv_pos_as_xyz
  1  'x, y, z'
loop_
 _atom_site_type_symbol
 _atom_site_label
 _atom_site_symmetry_multiplicity
 _atom_site_fract_x
 _atom_site_fract_y
 _atom_site_fract_z
 _atom_site_occupancy
  Os  Os0  1  0.17984700  0.67984700  0.82015300  1
  Os  Os1  1  0.67984700  0.82015300  0.17984700  1
  Os  Os2  1  0.82015300  0.17984700  0.67984700  1
  Os  Os3  1  0.32015300  0.32015300  0.32015300  1
  C  C4  1  0.44292000  0.94292000  0.55708000  1
  C  C5  1  0.94292000  0.55708000  0.44292000  1
  C  C6  1  0.55708000  0.44292000  0.94292000  1
  C  C7  1  0.05708000  0.05708000  0.05708000  1
