# generated using pymatgen
data_CaPdPb
_symmetry_space_group_name_H-M   'P 1'
_cell_length_a   4.79228800
_cell_length_b   7.36131700
_cell_length_c   8.33398400
_cell_angle_alpha   90.00000000
_cell_angle_beta   90.00000000
_cell_angle_gamma   90.00000000
_symmetry_Int_Tables_number   1
_chemical_formula_structural   CaPdPb
_chemical_formula_sum   'Ca4 Pd4 Pb4'
_cell_volume   294.00254662
_cell_formula_units_Z   4
loop_
 _symmetry_equiv_pos_site_id
 _symmetry_equiv_pos_as_xyz
  1  'x, y, z'
loop_
 _atom_site_type_symbol
 _atom_site_label
 _atom_site_symmetry_multiplicity
 _atom_site_fract_x
 _atom_site_fract_y
 _atom_site_fract_z
 _atom_site_occupancy
  Ca  Ca0  1  0.75000000  0.51910800  0.19514100  1
  Ca  Ca1  1  0.75000000  0.01910800  0.30485900  1
  Ca  Ca2  1  0.25000000  0.48089200  0.80485900  1
  Ca  Ca3  1  0.25000000  0.98089200  0.69514100  1
  Pd  Pd4  1  0.75000000  0.28273500  0.59633000  1
  Pd  Pd5  1  0.75000000  0.78273500  0.90367000  1
  Pd  Pd6  1  0.25000000  0.71726500  0.40367000  1
  Pd  Pd7  1  0.25000000  0.21726500  0.09633000  1
  Pb  Pb8  1  0.75000000  0.17803300  0.92066400  1
  Pb  Pb9  1  0.75000000  0.67803300  0.57933600  1
  Pb  Pb10  1  0.25000000  0.82196700  0.07933600  1
  Pb  Pb11  1  0.25000000  0.32196700  0.42066400  1
