# generated using pymatgen
data_BaClO3
_symmetry_space_group_name_H-M   'P 1'
_cell_length_a   3.78397900
_cell_length_b   3.78397900
_cell_length_c   13.01527100
_cell_angle_alpha   90.00000000
_cell_angle_beta   90.00000000
_cell_angle_gamma   90.00000000
_symmetry_Int_Tables_number   1
_chemical_formula_structural   BaClO3
_chemical_formula_sum   'Ba2 Cl2 O6'
_cell_volume   186.35911971
_cell_formula_units_Z   2
loop_
 _symmetry_equiv_pos_site_id
 _symmetry_equiv_pos_as_xyz
  1  'x, y, z'
loop_
 _atom_site_type_symbol
 _atom_site_label
 _atom_site_symmetry_multiplicity
 _atom_site_fract_x
 _atom_site_fract_y
 _atom_site_fract_z
 _atom_site_occupancy
  Ba  Ba0  1  0.00000000  0.50000000  0.78912200  1
  Ba  Ba1  1  0.50000000  0.00000000  0.21087800  1
  Cl  Cl2  1  0.50000000  0.00000000  0.90647100  1
  Cl  Cl3  1  0.00000000  0.50000000  0.09352900  1
  O  O4  1  0.00000000  0.00000000  0.64311700  1
  O  O5  1  0.50000000  0.50000000  0.64311700  1
  O  O6  1  0.50000000  0.50000000  0.35688300  1
  O  O7  1  0.00000000  0.00000000  0.35688300  1
  O  O8  1  0.50000000  0.00000000  0.62425700  1
  O  O9  1  0.00000000  0.50000000  0.37574300  1
