# generated using pymatgen
data_KCuF3
_symmetry_space_group_name_H-M   'P 1'
_cell_length_a   5.83294200
_cell_length_b   5.83294200
_cell_length_c   4.00824000
_cell_angle_alpha   90.00000000
_cell_angle_beta   90.00000000
_cell_angle_gamma   90.00000000
_symmetry_Int_Tables_number   1
_chemical_formula_structural   KCuF3
_chemical_formula_sum   'K2 Cu2 F6'
_cell_volume   136.37320077
_cell_formula_units_Z   2
loop_
 _symmetry_equiv_pos_site_id
 _symmetry_equiv_pos_as_xyz
  1  'x, y, z'
loop_
 _atom_site_type_symbol
 _atom_site_label
 _atom_site_symmetry_multiplicity
 _atom_site_fract_x
 _atom_site_fract_y
 _atom_site_fract_z
 _atom_site_occupancy
  K  K0  1  0.50000000  0.50000000  0.50000000  1
  K  K1  1  0.00000000  0.00000000  0.50000000  1
  Cu  Cu2  1  0.50000000  0.00000000  0.00000000  1
  Cu  Cu3  1  0.00000000  0.50000000  0.00000000  1
  F  F4  1  0.50000000  0.00000000  0.50000000  1
  F  F5  1  0.00000000  0.50000000  0.50000000  1
  F  F6  1  0.73367100  0.23367100  0.00000000  1
  F  F7  1  0.26632900  0.76632900  0.00000000  1
  F  F8  1  0.23367100  0.26632900  0.00000000  1
  F  F9  1  0.76632900  0.73367100  0.00000000  1
