# generated using pymatgen
data_CeSe2
_symmetry_space_group_name_H-M   'P 1'
_cell_length_a   7.11645100
_cell_length_b   7.19959600
_cell_length_c   13.42954400
_cell_angle_alpha   90.00000000
_cell_angle_beta   90.00000000
_cell_angle_gamma   90.00000000
_symmetry_Int_Tables_number   1
_chemical_formula_structural   CeSe2
_chemical_formula_sum   'Ce8 Se16'
_cell_volume   688.07037060
_cell_formula_units_Z   8
loop_
 _symmetry_equiv_pos_site_id
 _symmetry_equiv_pos_as_xyz
  1  'x, y, z'
loop_
 _atom_site_type_symbol
 _atom_site_label
 _atom_site_symmetry_multiplicity
 _atom_site_fract_x
 _atom_site_fract_y
 _atom_site_fract_z
 _atom_site_occupancy
  Ce  Ce0  1  0.85273900  0.05635300  0.64570100  1
  Ce  Ce1  1  0.14726100  0.44364700  0.14570100  1
  Ce  Ce2  1  0.64726100  0.55635300  0.35429900  1
  Ce  Ce3  1  0.35273900  0.94364700  0.85429900  1
  Ce  Ce4  1  0.14726100  0.94364700  0.35429900  1
  Ce  Ce5  1  0.85273900  0.55635300  0.85429900  1
  Ce  Ce6  1  0.35273900  0.44364700  0.64570100  1
  Ce  Ce7  1  0.64726100  0.05635300  0.14570100  1
  Se  Se8  1  0.68303500  0.34374000  0.53298300  1
  Se  Se9  1  0.31696500  0.15626000  0.03298300  1
  Se  Se10  1  0.81696500  0.84374000  0.46701700  1
  Se  Se11  1  0.18303500  0.65626000  0.96701700  1
  Se  Se12  1  0.31696500  0.65626000  0.46701700  1
  Se  Se13  1  0.68303500  0.84374000  0.96701700  1
  Se  Se14  1  0.18303500  0.15626000  0.53298300  1
  Se  Se15  1  0.81696500  0.34374000  0.03298300  1
  Se  Se16  1  0.59189100  0.75250300  0.71011400  1
  Se  Se17  1  0.40810900  0.74749700  0.21011400  1
  Se  Se18  1  0.90810900  0.25250300  0.28988600  1
  Se  Se19  1  0.09189100  0.24749700  0.78988600  1
  Se  Se20  1  0.40810900  0.24749700  0.28988600  1
  Se  Se21  1  0.59189100  0.25250300  0.78988600  1
  Se  Se22  1  0.09189100  0.74749700  0.71011400  1
  Se  Se23  1  0.90810900  0.75250300  0.21011400  1
