# generated using pymatgen
data_CeSe2
_symmetry_space_group_name_H-M   'P 1'
_cell_length_a   18.92408264
_cell_length_b   18.92408264
_cell_length_c   8.71400700
_cell_angle_alpha   90.00000000
_cell_angle_beta   90.00000000
_cell_angle_gamma   103.41886915
_symmetry_Int_Tables_number   1
_chemical_formula_structural   CeSe2
_chemical_formula_sum   'Ce12 Se24'
_cell_volume   3035.47227832
_cell_formula_units_Z   12
loop_
 _symmetry_equiv_pos_site_id
 _symmetry_equiv_pos_as_xyz
  1  'x, y, z'
loop_
 _atom_site_type_symbol
 _atom_site_label
 _atom_site_symmetry_multiplicity
 _atom_site_fract_x
 _atom_site_fract_y
 _atom_site_fract_z
 _atom_site_occupancy
  Ce  Ce0  1  0.23739200  0.33861700  0.23989700  1
  Ce  Ce1  1  0.66138300  0.76260800  0.23989700  1
  Ce  Ce2  1  0.76260800  0.66138300  0.73989700  1
  Ce  Ce3  1  0.33861700  0.23739200  0.73989700  1
  Ce  Ce4  1  0.99081400  0.41638000  0.19218000  1
  Ce  Ce5  1  0.58362000  0.00918600  0.19218000  1
  Ce  Ce6  1  0.00918600  0.58362000  0.69218000  1
  Ce  Ce7  1  0.41638000  0.99081400  0.69218000  1
  Ce  Ce8  1  0.28495200  0.71504800  0.66697800  1
  Ce  Ce9  1  0.71504800  0.28495200  0.16697800  1
  Ce  Ce10  1  0.38476600  0.61523400  0.17478100  1
  Ce  Ce11  1  0.61523400  0.38476600  0.67478100  1
  Se  Se12  1  0.27371500  0.25619500  0.01104800  1
  Se  Se13  1  0.74380500  0.72628500  0.01104800  1
  Se  Se14  1  0.72628500  0.74380500  0.51104800  1
  Se  Se15  1  0.25619500  0.27371500  0.51104800  1
  Se  Se16  1  0.09542700  0.33987100  0.19291000  1
  Se  Se17  1  0.66012900  0.90457300  0.19291000  1
  Se  Se18  1  0.90457300  0.66012900  0.69291000  1
  Se  Se19  1  0.33987100  0.09542700  0.69291000  1
  Se  Se20  1  0.33456400  0.46964200  0.21989900  1
  Se  Se21  1  0.53035800  0.66543600  0.21989900  1
  Se  Se22  1  0.66543600  0.53035800  0.71989900  1
  Se  Se23  1  0.46964200  0.33456400  0.71989900  1
  Se  Se24  1  0.99975200  0.51469000  0.96421600  1
  Se  Se25  1  0.48531000  0.00024800  0.96421600  1
  Se  Se26  1  0.00024800  0.48531000  0.46421600  1
  Se  Se27  1  0.51469000  0.99975200  0.46421600  1
  Se  Se28  1  0.13968100  0.67844700  0.70546600  1
  Se  Se29  1  0.32155300  0.86031900  0.70546600  1
  Se  Se30  1  0.86031900  0.32155300  0.20546600  1
  Se  Se31  1  0.67844700  0.13968100  0.20546600  1
  Se  Se32  1  0.35002900  0.64997100  0.88632000  1
  Se  Se33  1  0.64997100  0.35002900  0.38632000  1
  Se  Se34  1  0.31395400  0.68604600  0.37068900  1
  Se  Se35  1  0.68604600  0.31395400  0.87068900  1
