# generated using pymatgen
data_CeSe2
_symmetry_space_group_name_H-M   'P 1'
_cell_length_a   16.99880616
_cell_length_b   16.99880332
_cell_length_c   21.09706679
_cell_angle_alpha   113.75632857
_cell_angle_beta   113.75780154
_cell_angle_gamma   90.00000000
_symmetry_Int_Tables_number   1
_chemical_formula_structural   CeSe2
_chemical_formula_sum   'Ce16 Se32'
_cell_volume   5010.05005710
_cell_formula_units_Z   16
loop_
 _symmetry_equiv_pos_site_id
 _symmetry_equiv_pos_as_xyz
  1  'x, y, z'
loop_
 _atom_site_type_symbol
 _atom_site_label
 _atom_site_symmetry_multiplicity
 _atom_site_fract_x
 _atom_site_fract_y
 _atom_site_fract_z
 _atom_site_occupancy
  Ce  Ce0  1  0.51914689  0.32591285  0.35607382  1
  Ce  Ce1  1  0.83692848  0.03016145  0.35607457  1
  Ce  Ce2  1  0.41307152  0.71983855  0.14392543  1
  Ce  Ce3  1  0.73085311  0.42408715  0.14392618  1
  Ce  Ce4  1  0.83692694  0.32591285  0.35607382  1
  Ce  Ce5  1  0.51914609  0.03016145  0.35607457  1
  Ce  Ce6  1  0.73085391  0.71983855  0.14392543  1
  Ce  Ce7  1  0.41307306  0.42408715  0.14392618  1
  Ce  Ce8  1  0.96983840  0.16306742  0.64392069  1
  Ce  Ce9  1  0.67408217  0.48085602  0.64392124  1
  Ce  Ce10  1  0.57591783  0.26914398  0.85607876  1
  Ce  Ce11  1  0.28016160  0.58693258  0.85607931  1
  Ce  Ce12  1  0.67408229  0.16306742  0.64392069  1
  Ce  Ce13  1  0.96983907  0.48085602  0.64392124  1
  Ce  Ce14  1  0.28016093  0.26914398  0.85607876  1
  Ce  Ce15  1  0.57591771  0.58693258  0.85607931  1
  Se  Se16  1  0.55251521  0.44751283  0.50001739  1
  Se  Se17  1  0.94748712  0.05248794  0.49998594  1
  Se  Se18  1  0.30251288  0.69751206  0.00001406  1
  Se  Se19  1  0.69748479  0.30248717  -0.00001739  1
  Se  Se20  1  0.94750218  0.44751283  0.50001739  1
  Se  Se21  1  0.55249882  0.05248794  0.49998594  1
  Se  Se22  1  0.69750118  0.69751206  0.00001406  1
  Se  Se23  1  0.30249782  0.30248717  -0.00001739  1
  Se  Se24  1  0.57668157  0.43305945  0.15336313  1
  Se  Se25  1  0.57668192  0.72028078  0.15336383  1
  Se  Se26  1  0.67331808  0.02971922  0.34663617  1
  Se  Se27  1  0.67331843  0.31694055  0.34663687  1
  Se  Se28  1  0.27970749  0.42331781  0.84663572  1
  Se  Se29  1  0.56692823  0.42331781  0.84663572  1
  Se  Se30  1  0.68307177  0.32668219  0.65336428  1
  Se  Se31  1  0.97029251  0.32668219  0.65336428  1
  Se  Se32  1  0.79912642  0.58487382  0.16976534  1
  Se  Se33  1  0.37063892  0.58487382  0.16976534  1
  Se  Se34  1  0.87936108  0.16512618  0.33023466  1
  Se  Se35  1  0.45087358  0.16512618  0.33023466  1
  Se  Se36  1  0.41512236  0.62935077  0.83024472  1
  Se  Se37  1  0.41511095  0.20084693  0.83022189  1
  Se  Se38  1  0.83488905  0.54915307  0.66977811  1
  Se  Se39  1  0.83487764  0.12064923  0.66975528  1
  Se  Se40  1  0.40717453  0.37500000  0.25000000  1
  Se  Se41  1  0.84282673  0.87500000  0.25000000  1
  Se  Se42  1  0.40717327  0.87500000  0.25000000  1
  Se  Se43  1  0.84282547  0.37500000  0.25000000  1
  Se  Se44  1  0.12500573  0.15717724  0.75001007  1
  Se  Se45  1  0.62499566  0.59282276  0.74998993  1
  Se  Se46  1  0.62500434  0.15717724  0.75001007  1
  Se  Se47  1  0.12499427  0.59282276  0.74998993  1
