# generated using pymatgen
data_Ba2AsSe4O3
_symmetry_space_group_name_H-M   'P 1'
_cell_length_a   6.44674995
_cell_length_b   6.44674995
_cell_length_c   6.79546601
_cell_angle_alpha   73.81162731
_cell_angle_beta   73.81162731
_cell_angle_gamma   87.24738795
_symmetry_Int_Tables_number   1
_chemical_formula_structural   Ba2AsSe4O3
_chemical_formula_sum   'Ba2 As1 Se4 O3'
_cell_volume   260.33638513
_cell_formula_units_Z   1
loop_
 _symmetry_equiv_pos_site_id
 _symmetry_equiv_pos_as_xyz
  1  'x, y, z'
loop_
 _atom_site_type_symbol
 _atom_site_label
 _atom_site_symmetry_multiplicity
 _atom_site_fract_x
 _atom_site_fract_y
 _atom_site_fract_z
 _atom_site_occupancy
  Ba  Ba0  1  0.25907800  0.78489600  0.02227700  1
  Ba  Ba1  1  0.78489600  0.25907800  0.02227700  1
  As  As2  1  0.69719500  0.69719500  0.55053900  1
  Se  Se3  1  0.72262700  0.72262700  0.18029500  1
  Se  Se4  1  0.65350400  0.07255200  0.57790200  1
  Se  Se5  1  0.07255200  0.65350400  0.57790200  1
  Se  Se6  1  0.28646100  0.28646100  0.56991200  1
  O  O7  1  0.10373600  0.10373600  0.78364100  1
  O  O8  1  0.33683700  0.18551400  0.09077700  1
  O  O9  1  0.18551400  0.33683700  0.09077700  1
