# generated using pymatgen
data_Si2Mo3
_symmetry_space_group_name_H-M   'P 1'
_cell_length_a   6.63320000
_cell_length_b   6.63320000
_cell_length_c   3.29676000
_cell_angle_alpha   90.00000000
_cell_angle_beta   90.00000000
_cell_angle_gamma   90.00000000
_symmetry_Int_Tables_number   1
_chemical_formula_structural   Si2Mo3
_chemical_formula_sum   'Si4 Mo6'
_cell_volume   145.05527152
_cell_formula_units_Z   2
loop_
 _symmetry_equiv_pos_site_id
 _symmetry_equiv_pos_as_xyz
  1  'x, y, z'
loop_
 _atom_site_type_symbol
 _atom_site_label
 _atom_site_symmetry_multiplicity
 _atom_site_fract_x
 _atom_site_fract_y
 _atom_site_fract_z
 _atom_site_occupancy
  Si  Si0  1  0.13424500  0.63424500  0.00000000  1
  Si  Si1  1  0.86575500  0.36575500  0.00000000  1
  Si  Si2  1  0.63424500  0.86575500  0.00000000  1
  Si  Si3  1  0.36575500  0.13424500  0.00000000  1
  Mo  Mo4  1  0.50000000  0.50000000  0.00000000  1
  Mo  Mo5  1  0.00000000  0.00000000  0.00000000  1
  Mo  Mo6  1  0.66125700  0.16125700  0.50000000  1
  Mo  Mo7  1  0.33874300  0.83874300  0.50000000  1
  Mo  Mo8  1  0.16125700  0.33874300  0.50000000  1
  Mo  Mo9  1  0.83874300  0.66125700  0.50000000  1
