# generated using pymatgen
data_UNiC2
_symmetry_space_group_name_H-M   'P 1'
_cell_length_a   3.50556000
_cell_length_b   3.50556000
_cell_length_c   7.36153900
_cell_angle_alpha   90.00000000
_cell_angle_beta   90.00000000
_cell_angle_gamma   90.00000000
_symmetry_Int_Tables_number   1
_chemical_formula_structural   UNiC2
_chemical_formula_sum   'U2 Ni2 C4'
_cell_volume   90.46559142
_cell_formula_units_Z   2
loop_
 _symmetry_equiv_pos_site_id
 _symmetry_equiv_pos_as_xyz
  1  'x, y, z'
loop_
 _atom_site_type_symbol
 _atom_site_label
 _atom_site_symmetry_multiplicity
 _atom_site_fract_x
 _atom_site_fract_y
 _atom_site_fract_z
 _atom_site_occupancy
  U  U0  1  0.00000000  0.50000000  0.67835900  1
  U  U1  1  0.50000000  0.00000000  0.32164100  1
  Ni  Ni2  1  0.00000000  0.00000000  0.00000000  1
  Ni  Ni3  1  0.50000000  0.50000000  0.00000000  1
  C  C4  1  0.00000000  0.50000000  0.16449800  1
  C  C5  1  0.50000000  0.00000000  0.83550200  1
  C  C6  1  0.00000000  0.50000000  0.36190600  1
  C  C7  1  0.50000000  0.00000000  0.63809400  1
