# generated using pymatgen
data_CeSe2
_symmetry_space_group_name_H-M   'P 1'
_cell_length_a   8.68454673
_cell_length_b   18.99850107
_cell_length_c   36.80556334
_cell_angle_alpha   90.00000000
_cell_angle_beta   90.00000000
_cell_angle_gamma   90.00000000
_symmetry_Int_Tables_number   1
_chemical_formula_structural   CeSe2
_chemical_formula_sum   'Ce24 Se48'
_cell_volume   6072.67394282
_cell_formula_units_Z   24
loop_
 _symmetry_equiv_pos_site_id
 _symmetry_equiv_pos_as_xyz
  1  'x, y, z'
loop_
 _atom_site_type_symbol
 _atom_site_label
 _atom_site_symmetry_multiplicity
 _atom_site_fract_x
 _atom_site_fract_y
 _atom_site_fract_z
 _atom_site_occupancy
  Ce  Ce0  1  0.50000000  0.99314104  0.70660308  1
  Ce  Ce1  1  0.50000000  0.99314104  0.29339692  1
  Ce  Ce2  1  -0.00000000  0.00685896  0.20660308  1
  Ce  Ce3  1  -0.00000000  0.00685896  0.79339692  1
  Ce  Ce4  1  0.50000000  0.72966665  0.66923723  1
  Ce  Ce5  1  0.50000000  0.72966665  0.33076277  1
  Ce  Ce6  1  -0.00000000  0.27033335  0.16923723  1
  Ce  Ce7  1  -0.00000000  0.27033335  0.83076277  1
  Ce  Ce8  1  0.50000000  0.23941469  0.63426407  1
  Ce  Ce9  1  0.50000000  0.23941469  0.36573593  1
  Ce  Ce10  1  -0.00000000  0.76058531  0.13426407  1
  Ce  Ce11  1  -0.00000000  0.76058531  0.86573593  1
  Ce  Ce12  1  0.50000000  0.29231842  0.50000000  1
  Ce  Ce13  1  -0.00000000  0.70768158  -0.00000000  1
  Ce  Ce14  1  -0.00000000  0.46343894  0.50000000  1
  Ce  Ce15  1  0.50000000  0.53656106  -0.00000000  1
  Ce  Ce16  1  -0.00000000  0.36494417  0.69119969  1
  Ce  Ce17  1  -0.00000000  0.36494417  0.30880031  1
  Ce  Ce18  1  0.50000000  0.63505583  0.19119969  1
  Ce  Ce19  1  0.50000000  0.63505583  0.80880031  1
  Ce  Ce20  1  -0.00000000  0.60337403  0.62803637  1
  Ce  Ce21  1  -0.00000000  0.60337403  0.37196363  1
  Ce  Ce22  1  0.50000000  0.39662597  0.12803637  1
  Ce  Ce23  1  0.50000000  0.39662597  0.87196363  1
  Se  Se24  1  0.25000000  0.00000000  0.75000000  1
  Se  Se25  1  0.25000000  0.00000000  0.25000000  1
  Se  Se26  1  0.75000000  0.00000000  0.25000000  1
  Se  Se27  1  0.75000000  0.00000000  0.75000000  1
  Se  Se28  1  0.50000000  0.87253410  0.66669793  1
  Se  Se29  1  0.50000000  0.87253410  0.33330207  1
  Se  Se30  1  -0.00000000  0.12746590  0.16669793  1
  Se  Se31  1  -0.00000000  0.12746590  0.83330207  1
  Se  Se32  1  0.50000000  0.10950296  0.66429716  1
  Se  Se33  1  0.50000000  0.10950296  0.33570284  1
  Se  Se34  1  -0.00000000  0.89049704  0.16429716  1
  Se  Se35  1  -0.00000000  0.89049704  0.83570284  1
  Se  Se36  1  0.50000000  0.67571580  0.73789757  1
  Se  Se37  1  0.50000000  0.67571580  0.26210243  1
  Se  Se38  1  -0.00000000  0.32428420  0.23789757  1
  Se  Se39  1  -0.00000000  0.32428420  0.76210243  1
  Se  Se40  1  0.24991933  0.68934729  0.62999668  1
  Se  Se41  1  0.24991933  0.68934729  0.37000332  1
  Se  Se42  1  0.74991933  0.31065271  0.12999668  1
  Se  Se43  1  0.25008067  0.31065271  0.87000332  1
  Se  Se44  1  0.75008067  0.68934729  0.37000332  1
  Se  Se45  1  0.75008067  0.68934729  0.62999668  1
  Se  Se46  1  0.25008067  0.31065271  0.12999668  1
  Se  Se47  1  0.74991933  0.31065271  0.87000332  1
  Se  Se48  1  0.50000000  0.21313615  0.56153207  1
  Se  Se49  1  0.50000000  0.21313615  0.43846793  1
  Se  Se50  1  -0.00000000  0.78686385  0.06153207  1
  Se  Se51  1  -0.00000000  0.78686385  0.93846793  1
  Se  Se52  1  0.24822697  0.31523107  0.65434636  1
  Se  Se53  1  0.24822697  0.31523107  0.34565364  1
  Se  Se54  1  0.74822697  0.68476893  0.15434636  1
  Se  Se55  1  0.25177303  0.68476893  0.84565364  1
  Se  Se56  1  0.75177303  0.31523107  0.34565364  1
  Se  Se57  1  0.75177303  0.31523107  0.65434636  1
  Se  Se58  1  0.25177303  0.68476893  0.15434636  1
  Se  Se59  1  0.74822697  0.68476893  0.84565364  1
  Se  Se60  1  0.25088224  0.37816837  0.50000000  1
  Se  Se61  1  0.75088224  0.62183163  -0.00000000  1
  Se  Se62  1  0.24911776  0.62183163  -0.00000000  1
  Se  Se63  1  0.74911776  0.37816837  0.50000000  1
  Se  Se64  1  -0.00000000  0.54218358  0.56164797  1
  Se  Se65  1  -0.00000000  0.54218358  0.43835203  1
  Se  Se66  1  0.50000000  0.45781642  0.06164797  1
  Se  Se67  1  0.50000000  0.45781642  0.93835203  1
  Se  Se68  1  -0.00000000  0.50773718  0.68378136  1
  Se  Se69  1  -0.00000000  0.50773718  0.31621864  1
  Se  Se70  1  0.50000000  0.49226282  0.18378136  1
  Se  Se71  1  0.50000000  0.49226282  0.81621864  1
