# generated using pymatgen
data_CeSe2
_symmetry_space_group_name_H-M   'P 1'
_cell_length_a   16.64523634
_cell_length_b   16.64523634
_cell_length_c   12.63548233
_cell_angle_alpha   81.14934783
_cell_angle_beta   81.14934783
_cell_angle_gamma   88.43653560
_symmetry_Int_Tables_number   1
_chemical_formula_structural   CeSe2
_chemical_formula_sum   'Ce12 Se24'
_cell_volume   3417.93822996
_cell_formula_units_Z   12
loop_
 _symmetry_equiv_pos_site_id
 _symmetry_equiv_pos_as_xyz
  1  'x, y, z'
loop_
 _atom_site_type_symbol
 _atom_site_label
 _atom_site_symmetry_multiplicity
 _atom_site_fract_x
 _atom_site_fract_y
 _atom_site_fract_z
 _atom_site_occupancy
  Ce  Ce0  1  0.00934500  0.78525800  0.95594900  1
  Ce  Ce1  1  0.78525800  0.00934500  0.95594900  1
  Ce  Ce2  1  0.99065500  0.21474200  0.04405100  1
  Ce  Ce3  1  0.21474200  0.99065500  0.04405100  1
  Ce  Ce4  1  0.87846700  0.65449100  0.35003600  1
  Ce  Ce5  1  0.65449100  0.87846700  0.35003600  1
  Ce  Ce6  1  0.12153300  0.34550900  0.64996400  1
  Ce  Ce7  1  0.34550900  0.12153300  0.64996400  1
  Ce  Ce8  1  0.10669100  0.66784400  0.58765500  1
  Ce  Ce9  1  0.66784400  0.10669100  0.58765500  1
  Ce  Ce10  1  0.89330900  0.33215600  0.41234500  1
  Ce  Ce11  1  0.33215600  0.89330900  0.41234500  1
  Se  Se12  1  0.14126100  0.85873900  0.00000000  1
  Se  Se13  1  0.85873900  0.14126100  0.00000000  1
  Se  Se14  1  0.90060400  0.90060400  0.89392100  1
  Se  Se15  1  0.09939600  0.09939600  0.10607900  1
  Se  Se16  1  0.93938800  0.68670300  0.13607200  1
  Se  Se17  1  0.68670300  0.93938800  0.13607200  1
  Se  Se18  1  0.06061200  0.31329700  0.86392800  1
  Se  Se19  1  0.31329700  0.06061200  0.86392800  1
  Se  Se20  1  0.05550100  0.69620900  0.79340600  1
  Se  Se21  1  0.69620900  0.05550100  0.79340600  1
  Se  Se22  1  0.94449900  0.30379100  0.20659400  1
  Se  Se23  1  0.30379100  0.94449900  0.20659400  1
  Se  Se24  1  0.73503800  0.73503800  0.38734500  1
  Se  Se25  1  0.26496200  0.26496200  0.61265500  1
  Se  Se26  1  0.85446500  0.49197300  0.40969900  1
  Se  Se27  1  0.49197300  0.85446500  0.40969900  1
  Se  Se28  1  0.14553500  0.50802700  0.59030100  1
  Se  Se29  1  0.50802700  0.14553500  0.59030100  1
  Se  Se30  1  0.98535000  0.70558500  0.46736100  1
  Se  Se31  1  0.70558500  0.98535000  0.46736100  1
  Se  Se32  1  0.01465000  0.29441500  0.53263900  1
  Se  Se33  1  0.29441500  0.01465000  0.53263900  1
  Se  Se34  1  0.23868900  0.76131100  0.50000000  1
  Se  Se35  1  0.76131100  0.23868900  0.50000000  1
