# generated using pymatgen
data_Mg2Pb
_symmetry_space_group_name_H-M   'P 1'
_cell_length_a   4.51913700
_cell_length_b   7.78107800
_cell_length_c   8.75552200
_cell_angle_alpha   90.00000000
_cell_angle_beta   90.00000000
_cell_angle_gamma   90.00000000
_symmetry_Int_Tables_number   1
_chemical_formula_structural   Mg2Pb
_chemical_formula_sum   'Mg8 Pb4'
_cell_volume   307.87705230
_cell_formula_units_Z   4
loop_
 _symmetry_equiv_pos_site_id
 _symmetry_equiv_pos_as_xyz
  1  'x, y, z'
loop_
 _atom_site_type_symbol
 _atom_site_label
 _atom_site_symmetry_multiplicity
 _atom_site_fract_x
 _atom_site_fract_y
 _atom_site_fract_z
 _atom_site_occupancy
  Mg  Mg0  1  0.25000000  0.03303000  0.32158000  1
  Mg  Mg1  1  0.25000000  0.53303000  0.17842000  1
  Mg  Mg2  1  0.75000000  0.96697000  0.67842000  1
  Mg  Mg3  1  0.75000000  0.46697000  0.82158000  1
  Mg  Mg4  1  0.25000000  0.13155600  0.92952000  1
  Mg  Mg5  1  0.25000000  0.63155600  0.57048000  1
  Mg  Mg6  1  0.75000000  0.86844400  0.07048000  1
  Mg  Mg7  1  0.75000000  0.36844400  0.42952000  1
  Pb  Pb8  1  0.25000000  0.24471300  0.61523100  1
  Pb  Pb9  1  0.25000000  0.74471300  0.88476900  1
  Pb  Pb10  1  0.75000000  0.75528700  0.38476900  1
  Pb  Pb11  1  0.75000000  0.25528700  0.11523100  1
