# generated using pymatgen
data_SmCoAsO
_symmetry_space_group_name_H-M   'P 1'
_cell_length_a   4.01789600
_cell_length_b   4.01789600
_cell_length_c   7.98591700
_cell_angle_alpha   90.00000000
_cell_angle_beta   90.00000000
_cell_angle_gamma   90.00000000
_symmetry_Int_Tables_number   1
_chemical_formula_structural   SmCoAsO
_chemical_formula_sum   'Sm2 Co2 As2 O2'
_cell_volume   128.92055739
_cell_formula_units_Z   2
loop_
 _symmetry_equiv_pos_site_id
 _symmetry_equiv_pos_as_xyz
  1  'x, y, z'
loop_
 _atom_site_type_symbol
 _atom_site_label
 _atom_site_symmetry_multiplicity
 _atom_site_fract_x
 _atom_site_fract_y
 _atom_site_fract_z
 _atom_site_occupancy
  Sm  Sm0  1  0.00000000  0.50000000  0.85714700  1
  Sm  Sm1  1  0.50000000  0.00000000  0.14285300  1
  Co  Co2  1  0.00000000  0.00000000  0.50000000  1
  Co  Co3  1  0.50000000  0.50000000  0.50000000  1
  As  As4  1  0.00000000  0.50000000  0.36018500  1
  As  As5  1  0.50000000  0.00000000  0.63981500  1
  O  O6  1  0.00000000  0.00000000  0.00000000  1
  O  O7  1  0.50000000  0.50000000  0.00000000  1
