# generated using pymatgen
data_YAg2Pb
_symmetry_space_group_name_H-M   'P 1'
_cell_length_a   12.14163646
_cell_length_b   12.14163646
_cell_length_c   12.14163646
_cell_angle_alpha   124.14185142
_cell_angle_beta   118.88252373
_cell_angle_gamma   87.46331601
_symmetry_Int_Tables_number   1
_chemical_formula_structural   YAg2Pb
_chemical_formula_sum   'Y1 Ag2 Pb1'
_cell_volume   1231.97334092
_cell_formula_units_Z   1
loop_
 _symmetry_equiv_pos_site_id
 _symmetry_equiv_pos_as_xyz
  1  'x, y, z'
loop_
 _atom_site_type_symbol
 _atom_site_label
 _atom_site_symmetry_multiplicity
 _atom_site_fract_x
 _atom_site_fract_y
 _atom_site_fract_z
 _atom_site_occupancy
  Y  Y0  1  0.00000000  0.00000000  0.00000000  1
  Ag  Ag1  1  0.00000000  0.25006900  0.25006900  1
  Ag  Ag2  1  0.00000000  0.74993100  0.74993100  1
  Pb  Pb3  1  0.00000000  0.50000000  0.50000000  1
