# generated using pymatgen
data_Ca2AlZn
_symmetry_space_group_name_H-M   'P 1'
_cell_length_a   12.18116698
_cell_length_b   12.18116698
_cell_length_c   12.18116698
_cell_angle_alpha   119.99895166
_cell_angle_beta   119.65709188
_cell_angle_gamma   90.29838768
_symmetry_Int_Tables_number   1
_chemical_formula_structural   Ca2AlZn
_chemical_formula_sum   'Ca2 Al1 Zn1'
_cell_volume   1281.35059498
_cell_formula_units_Z   1
loop_
 _symmetry_equiv_pos_site_id
 _symmetry_equiv_pos_as_xyz
  1  'x, y, z'
loop_
 _atom_site_type_symbol
 _atom_site_label
 _atom_site_symmetry_multiplicity
 _atom_site_fract_x
 _atom_site_fract_y
 _atom_site_fract_z
 _atom_site_occupancy
  Ca  Ca0  1  0.24010900  0.00000000  0.24010900  1
  Ca  Ca1  1  0.75989100  0.00000000  0.75989100  1
  Al  Al2  1  0.00000000  0.00000000  0.00000000  1
  Zn  Zn3  1  0.50000000  0.00000000  0.50000000  1
