# generated using pymatgen
data_Al2OsPt
_symmetry_space_group_name_H-M   'P 1'
_cell_length_a   10.13292080
_cell_length_b   10.13292080
_cell_length_c   10.13292080
_cell_angle_alpha   123.45798622
_cell_angle_beta   119.00061733
_cell_angle_gamma   87.92862667
_symmetry_Int_Tables_number   1
_chemical_formula_structural   Al2OsPt
_chemical_formula_sum   'Al2 Os1 Pt1'
_cell_volume   720.07004648
_cell_formula_units_Z   1
loop_
 _symmetry_equiv_pos_site_id
 _symmetry_equiv_pos_as_xyz
  1  'x, y, z'
loop_
 _atom_site_type_symbol
 _atom_site_label
 _atom_site_symmetry_multiplicity
 _atom_site_fract_x
 _atom_site_fract_y
 _atom_site_fract_z
 _atom_site_occupancy
  Al  Al0  1  0.00000000  0.25515200  0.25515200  1
  Al  Al1  1  0.00000000  0.74484800  0.74484800  1
  Os  Os2  1  0.00000000  0.00000000  0.00000000  1
  Pt  Pt3  1  0.00000000  0.50000000  0.50000000  1
