# generated using pymatgen
data_Y2AlHg
_symmetry_space_group_name_H-M   'P 1'
_cell_length_a   12.36284079
_cell_length_b   12.36284079
_cell_length_c   12.36284079
_cell_angle_alpha   121.96073303
_cell_angle_beta   118.64227166
_cell_angle_gamma   89.50281388
_symmetry_Int_Tables_number   1
_chemical_formula_structural   Y2AlHg
_chemical_formula_sum   'Y2 Al1 Hg1'
_cell_volume   1328.54997114
_cell_formula_units_Z   1
loop_
 _symmetry_equiv_pos_site_id
 _symmetry_equiv_pos_as_xyz
  1  'x, y, z'
loop_
 _atom_site_type_symbol
 _atom_site_label
 _atom_site_symmetry_multiplicity
 _atom_site_fract_x
 _atom_site_fract_y
 _atom_site_fract_z
 _atom_site_occupancy
  Y  Y0  1  0.00000000  0.23496300  0.23496300  1
  Y  Y1  1  0.00000000  0.76503700  0.76503700  1
  Al  Al2  1  0.00000000  0.00000000  0.00000000  1
  Hg  Hg3  1  0.00000000  0.50000000  0.50000000  1
