# generated using pymatgen
data_MgSnPt2
_symmetry_space_group_name_H-M   'P 1'
_cell_length_a   10.12705070
_cell_length_b   10.12705070
_cell_length_c   10.12705070
_cell_angle_alpha   120.53026974
_cell_angle_beta   120.31499573
_cell_angle_gamma   89.26962661
_symmetry_Int_Tables_number   1
_chemical_formula_structural   MgSnPt2
_chemical_formula_sum   'Mg1 Sn1 Pt2'
_cell_volume   729.64320708
_cell_formula_units_Z   1
loop_
 _symmetry_equiv_pos_site_id
 _symmetry_equiv_pos_as_xyz
  1  'x, y, z'
loop_
 _atom_site_type_symbol
 _atom_site_label
 _atom_site_symmetry_multiplicity
 _atom_site_fract_x
 _atom_site_fract_y
 _atom_site_fract_z
 _atom_site_occupancy
  Mg  Mg0  1  0.00000000  0.00000000  0.00000000  1
  Sn  Sn1  1  0.00000000  0.50000000  0.50000000  1
  Pt  Pt2  1  0.00000000  0.25573000  0.25573000  1
  Pt  Pt3  1  0.00000000  0.74427000  0.74427000  1
