# generated using pymatgen
data_ZrCuAu2
_symmetry_space_group_name_H-M   'P 1'
_cell_length_a   11.04110399
_cell_length_b   11.04110399
_cell_length_c   11.04110399
_cell_angle_alpha   125.11182377
_cell_angle_beta   117.53092401
_cell_angle_gamma   87.85655972
_symmetry_Int_Tables_number   1
_chemical_formula_structural   ZrCuAu2
_chemical_formula_sum   'Zr1 Cu1 Au2'
_cell_volume   926.68213733
_cell_formula_units_Z   1
loop_
 _symmetry_equiv_pos_site_id
 _symmetry_equiv_pos_as_xyz
  1  'x, y, z'
loop_
 _atom_site_type_symbol
 _atom_site_label
 _atom_site_symmetry_multiplicity
 _atom_site_fract_x
 _atom_site_fract_y
 _atom_site_fract_z
 _atom_site_occupancy
  Zr  Zr0  1  0.00000000  0.50000000  0.50000000  1
  Cu  Cu1  1  0.00000000  0.00000000  0.00000000  1
  Au  Au2  1  0.00000000  0.24221100  0.24221100  1
  Au  Au3  1  0.00000000  0.75778900  0.75778900  1
