# generated using pymatgen
data_AsNO4
_symmetry_space_group_name_H-M   'P 1'
_cell_length_a   6.22981289
_cell_length_b   6.22981289
_cell_length_c   6.22981289
_cell_angle_alpha   135.94512068
_cell_angle_beta   135.94512068
_cell_angle_gamma   64.06519091
_symmetry_Int_Tables_number   1
_chemical_formula_structural   AsNO4
_chemical_formula_sum   'As2 N2 O8'
_cell_volume   115.32692321
_cell_formula_units_Z   2
loop_
 _symmetry_equiv_pos_site_id
 _symmetry_equiv_pos_as_xyz
  1  'x, y, z'
loop_
 _atom_site_type_symbol
 _atom_site_label
 _atom_site_symmetry_multiplicity
 _atom_site_fract_x
 _atom_site_fract_y
 _atom_site_fract_z
 _atom_site_occupancy
  As  As0  1  0.75000000  0.25000000  0.50000000  1
  As  As1  1  0.00000000  0.00000000  0.00000000  1
  N  N2  1  0.25000000  0.75000000  0.50000000  1
  N  N3  1  0.50000000  0.50000000  0.00000000  1
  O  O4  1  0.69033100  0.43288500  0.25744500  1
  O  O5  1  0.57456000  0.81711500  0.75744500  1
  O  O6  1  0.17544000  0.43288500  0.74255500  1
  O  O7  1  0.05966900  0.81711500  0.24255500  1
  O  O8  1  0.56711500  0.30966900  0.74255500  1
  O  O9  1  0.18288500  0.94033100  0.75744500  1
  O  O10  1  0.56711500  0.82456000  0.25744500  1
  O  O11  1  0.18288500  0.42544000  0.24255500  1
