# generated using pymatgen
data_MnZnCo2
_symmetry_space_group_name_H-M   'P 1'
_cell_length_a   9.56318210
_cell_length_b   9.56318210
_cell_length_c   9.56318210
_cell_angle_alpha   121.32169915
_cell_angle_beta   119.39316536
_cell_angle_gamma   89.39021803
_symmetry_Int_Tables_number   1
_chemical_formula_structural   MnZnCo2
_chemical_formula_sum   'Mn1 Zn1 Co2'
_cell_volume   614.83290869
_cell_formula_units_Z   1
loop_
 _symmetry_equiv_pos_site_id
 _symmetry_equiv_pos_as_xyz
  1  'x, y, z'
loop_
 _atom_site_type_symbol
 _atom_site_label
 _atom_site_symmetry_multiplicity
 _atom_site_fract_x
 _atom_site_fract_y
 _atom_site_fract_z
 _atom_site_occupancy
  Mn  Mn0  1  0.00000000  0.00000000  0.00000000  1
  Zn  Zn1  1  0.00000000  0.50000000  0.50000000  1
  Co  Co2  1  0.00000000  0.24324200  0.24324200  1
  Co  Co3  1  0.00000000  0.75675800  0.75675800  1
