# generated using pymatgen
data_LaMg2Cd
_symmetry_space_group_name_H-M   'P 1'
_cell_length_a   14.45292406
_cell_length_b   14.45292406
_cell_length_c   14.45292406
_cell_angle_alpha   127.88644040
_cell_angle_beta   117.55784816
_cell_angle_gamma   85.59865816
_symmetry_Int_Tables_number   1
_chemical_formula_structural   LaMg2Cd
_chemical_formula_sum   'La1 Mg2 Cd1'
_cell_volume   2017.47149250
_cell_formula_units_Z   1
loop_
 _symmetry_equiv_pos_site_id
 _symmetry_equiv_pos_as_xyz
  1  'x, y, z'
loop_
 _atom_site_type_symbol
 _atom_site_label
 _atom_site_symmetry_multiplicity
 _atom_site_fract_x
 _atom_site_fract_y
 _atom_site_fract_z
 _atom_site_occupancy
  La  La0  1  0.00000000  0.50000000  0.50000000  1
  Mg  Mg1  1  0.00000000  0.23939100  0.23939100  1
  Mg  Mg2  1  0.00000000  0.76060900  0.76060900  1
  Cd  Cd3  1  0.00000000  0.00000000  0.00000000  1
