# generated using pymatgen
data_MgGaCo2
_symmetry_space_group_name_H-M   'P 1'
_cell_length_a   10.17031688
_cell_length_b   10.17031688
_cell_length_c   10.17031688
_cell_angle_alpha   120.50324549
_cell_angle_beta   120.35170151
_cell_angle_gamma   89.26122597
_symmetry_Int_Tables_number   1
_chemical_formula_structural   MgGaCo2
_chemical_formula_sum   'Mg1 Ga1 Co2'
_cell_volume   738.98080799
_cell_formula_units_Z   1
loop_
 _symmetry_equiv_pos_site_id
 _symmetry_equiv_pos_as_xyz
  1  'x, y, z'
loop_
 _atom_site_type_symbol
 _atom_site_label
 _atom_site_symmetry_multiplicity
 _atom_site_fract_x
 _atom_site_fract_y
 _atom_site_fract_z
 _atom_site_occupancy
  Mg  Mg0  1  0.00000000  0.00000000  0.00000000  1
  Ga  Ga1  1  0.00000000  0.50000000  0.50000000  1
  Co  Co2  1  0.00000000  0.26481200  0.26481200  1
  Co  Co3  1  0.00000000  0.73518800  0.73518800  1
