# generated using pymatgen
data_BrNO
_symmetry_space_group_name_H-M   'P 1'
_cell_length_a   6.26161900
_cell_length_b   6.49286800
_cell_length_c   7.95445650
_cell_angle_alpha   55.46090296
_cell_angle_beta   90.00000000
_cell_angle_gamma   90.00000000
_symmetry_Int_Tables_number   1
_chemical_formula_structural   BrNO
_chemical_formula_sum   'Br4 N4 O4'
_cell_volume   266.39349398
_cell_formula_units_Z   4
loop_
 _symmetry_equiv_pos_site_id
 _symmetry_equiv_pos_as_xyz
  1  'x, y, z'
loop_
 _atom_site_type_symbol
 _atom_site_label
 _atom_site_symmetry_multiplicity
 _atom_site_fract_x
 _atom_site_fract_y
 _atom_site_fract_z
 _atom_site_occupancy
  Br  Br0  1  0.62952000  0.81926300  0.91198500  1
  Br  Br1  1  0.12952000  0.18073700  0.58801500  1
  Br  Br2  1  0.37048000  0.18073700  0.08801500  1
  Br  Br3  1  0.87048000  0.81926300  0.41198500  1
  N  N4  1  0.17319600  0.76715500  0.64632400  1
  N  N5  1  0.67319600  0.23284500  0.85367600  1
  N  N6  1  0.82680400  0.23284500  0.35367600  1
  N  N7  1  0.32680400  0.76715500  0.14632400  1
  O  O8  1  0.33616200  0.74321300  0.59464400  1
  O  O9  1  0.83616200  0.25678700  0.90535600  1
  O  O10  1  0.66383800  0.25678700  0.40535600  1
  O  O11  1  0.16383800  0.74321300  0.09464400  1
