# generated using pymatgen
data_ScBePt2
_symmetry_space_group_name_H-M   'P 1'
_cell_length_a   10.72557510
_cell_length_b   10.72557510
_cell_length_c   10.72557510
_cell_angle_alpha   130.72318595
_cell_angle_beta   116.67723262
_cell_angle_gamma   84.18198443
_symmetry_Int_Tables_number   1
_chemical_formula_structural   ScBePt2
_chemical_formula_sum   'Sc1 Be1 Pt2'
_cell_volume   801.43790238
_cell_formula_units_Z   1
loop_
 _symmetry_equiv_pos_site_id
 _symmetry_equiv_pos_as_xyz
  1  'x, y, z'
loop_
 _atom_site_type_symbol
 _atom_site_label
 _atom_site_symmetry_multiplicity
 _atom_site_fract_x
 _atom_site_fract_y
 _atom_site_fract_z
 _atom_site_occupancy
  Sc  Sc0  1  0.00000000  0.50000000  0.50000000  1
  Be  Be1  1  0.00000000  0.00000000  0.00000000  1
  Pt  Pt2  1  0.00000000  0.24331200  0.24331200  1
  Pt  Pt3  1  0.00000000  0.75668800  0.75668800  1
