# generated using pymatgen
data_CuSiIr2
_symmetry_space_group_name_H-M   'P 1'
_cell_length_a   9.70231299
_cell_length_b   9.70231299
_cell_length_c   9.70231299
_cell_angle_alpha   123.23780531
_cell_angle_beta   118.74947243
_cell_angle_gamma   88.33269127
_symmetry_Int_Tables_number   1
_chemical_formula_structural   CuSiIr2
_chemical_formula_sum   'Cu1 Si1 Ir2'
_cell_volume   634.56246223
_cell_formula_units_Z   1
loop_
 _symmetry_equiv_pos_site_id
 _symmetry_equiv_pos_as_xyz
  1  'x, y, z'
loop_
 _atom_site_type_symbol
 _atom_site_label
 _atom_site_symmetry_multiplicity
 _atom_site_fract_x
 _atom_site_fract_y
 _atom_site_fract_z
 _atom_site_occupancy
  Cu  Cu0  1  0.00000000  0.50000000  0.50000000  1
  Si  Si1  1  0.00000000  0.00000000  0.00000000  1
  Ir  Ir2  1  0.00000000  0.23096700  0.23096700  1
  Ir  Ir3  1  0.00000000  0.76903300  0.76903300  1
