# generated using pymatgen
data_Ca2AgRh
_symmetry_space_group_name_H-M   'P 1'
_cell_length_a   12.94033841
_cell_length_b   12.94033841
_cell_length_c   12.94033841
_cell_angle_alpha   130.89731938
_cell_angle_beta   117.06367760
_cell_angle_gamma   83.70278948
_symmetry_Int_Tables_number   1
_chemical_formula_structural   Ca2AgRh
_chemical_formula_sum   'Ca2 Ag1 Rh1'
_cell_volume   1400.40235187
_cell_formula_units_Z   1
loop_
 _symmetry_equiv_pos_site_id
 _symmetry_equiv_pos_as_xyz
  1  'x, y, z'
loop_
 _atom_site_type_symbol
 _atom_site_label
 _atom_site_symmetry_multiplicity
 _atom_site_fract_x
 _atom_site_fract_y
 _atom_site_fract_z
 _atom_site_occupancy
  Ca  Ca0  1  0.00000000  0.21825100  0.21825100  1
  Ca  Ca1  1  0.00000000  0.78174900  0.78174900  1
  Ag  Ag2  1  0.00000000  0.50000000  0.50000000  1
  Rh  Rh3  1  0.00000000  0.00000000  0.00000000  1
