# generated using pymatgen
data_Zr2CuIr
_symmetry_space_group_name_H-M   'P 1'
_cell_length_a   10.68737996
_cell_length_b   10.68737996
_cell_length_c   10.68737996
_cell_angle_alpha   123.74563583
_cell_angle_beta   118.35567699
_cell_angle_gamma   88.25504598
_symmetry_Int_Tables_number   1
_chemical_formula_structural   Zr2CuIr
_chemical_formula_sum   'Zr2 Cu1 Ir1'
_cell_volume   846.59911074
_cell_formula_units_Z   1
loop_
 _symmetry_equiv_pos_site_id
 _symmetry_equiv_pos_as_xyz
  1  'x, y, z'
loop_
 _atom_site_type_symbol
 _atom_site_label
 _atom_site_symmetry_multiplicity
 _atom_site_fract_x
 _atom_site_fract_y
 _atom_site_fract_z
 _atom_site_occupancy
  Zr  Zr0  1  0.00000000  0.26856700  0.26856700  1
  Zr  Zr1  1  0.00000000  0.73143300  0.73143300  1
  Cu  Cu2  1  0.00000000  0.00000000  0.00000000  1
  Ir  Ir3  1  0.00000000  0.50000000  0.50000000  1
