# generated using pymatgen
data_Ba2CdSn
_symmetry_space_group_name_H-M   'P 1'
_cell_length_a   13.82319627
_cell_length_b   13.82319627
_cell_length_c   13.82319627
_cell_angle_alpha   120.64132317
_cell_angle_beta   119.69408530
_cell_angle_gamma   89.71173979
_symmetry_Int_Tables_number   1
_chemical_formula_structural   Ba2CdSn
_chemical_formula_sum   'Ba2 Cd1 Sn1'
_cell_volume   1862.79418315
_cell_formula_units_Z   1
loop_
 _symmetry_equiv_pos_site_id
 _symmetry_equiv_pos_as_xyz
  1  'x, y, z'
loop_
 _atom_site_type_symbol
 _atom_site_label
 _atom_site_symmetry_multiplicity
 _atom_site_fract_x
 _atom_site_fract_y
 _atom_site_fract_z
 _atom_site_occupancy
  Ba  Ba0  1  0.00000000  0.26876800  0.26876800  1
  Ba  Ba1  1  0.00000000  0.73123200  0.73123200  1
  Cd  Cd2  1  0.00000000  0.00000000  0.00000000  1
  Sn  Sn3  1  0.00000000  0.50000000  0.50000000  1
