# generated using pymatgen
data_Y2CoCu
_symmetry_space_group_name_H-M   'P 1'
_cell_length_a   11.44140057
_cell_length_b   11.44140057
_cell_length_c   11.44140057
_cell_angle_alpha   127.63083189
_cell_angle_beta   117.42256554
_cell_angle_gamma   85.92163349
_symmetry_Int_Tables_number   1
_chemical_formula_structural   Y2CoCu
_chemical_formula_sum   'Y2 Co1 Cu1'
_cell_volume   1004.75817584
_cell_formula_units_Z   1
loop_
 _symmetry_equiv_pos_site_id
 _symmetry_equiv_pos_as_xyz
  1  'x, y, z'
loop_
 _atom_site_type_symbol
 _atom_site_label
 _atom_site_symmetry_multiplicity
 _atom_site_fract_x
 _atom_site_fract_y
 _atom_site_fract_z
 _atom_site_occupancy
  Y  Y0  1  0.00000000  0.22276000  0.22276000  1
  Y  Y1  1  0.00000000  0.77724000  0.77724000  1
  Co  Co2  1  0.00000000  0.00000000  0.00000000  1
  Cu  Cu3  1  0.00000000  0.50000000  0.50000000  1
