# generated using pymatgen
data_CaCdAg2
_symmetry_space_group_name_H-M   'P 1'
_cell_length_a   12.39062900
_cell_length_b   12.39062900
_cell_length_c   12.39062900
_cell_angle_alpha   124.50076054
_cell_angle_beta   118.51823872
_cell_angle_gamma   87.48644946
_symmetry_Int_Tables_number   1
_chemical_formula_structural   CaCdAg2
_chemical_formula_sum   'Ca1 Cd1 Ag2'
_cell_volume   1308.33822290
_cell_formula_units_Z   1
loop_
 _symmetry_equiv_pos_site_id
 _symmetry_equiv_pos_as_xyz
  1  'x, y, z'
loop_
 _atom_site_type_symbol
 _atom_site_label
 _atom_site_symmetry_multiplicity
 _atom_site_fract_x
 _atom_site_fract_y
 _atom_site_fract_z
 _atom_site_occupancy
  Ca  Ca0  1  0.00000000  0.00000000  0.00000000  1
  Cd  Cd1  1  0.00000000  0.50000000  0.50000000  1
  Ag  Ag2  1  0.00000000  0.24827400  0.24827400  1
  Ag  Ag3  1  0.00000000  0.75172600  0.75172600  1
