# generated using pymatgen
data_Al2TcRh
_symmetry_space_group_name_H-M   'P 1'
_cell_length_a   10.31484004
_cell_length_b   10.31484004
_cell_length_c   10.31484004
_cell_angle_alpha   124.17239568
_cell_angle_beta   118.47091757
_cell_angle_gamma   87.79944653
_symmetry_Int_Tables_number   1
_chemical_formula_structural   Al2TcRh
_chemical_formula_sum   'Al2 Tc1 Rh1'
_cell_volume   757.43902045
_cell_formula_units_Z   1
loop_
 _symmetry_equiv_pos_site_id
 _symmetry_equiv_pos_as_xyz
  1  'x, y, z'
loop_
 _atom_site_type_symbol
 _atom_site_label
 _atom_site_symmetry_multiplicity
 _atom_site_fract_x
 _atom_site_fract_y
 _atom_site_fract_z
 _atom_site_occupancy
  Al  Al0  1  0.00000000  0.25302400  0.25302400  1
  Al  Al1  1  0.00000000  0.74697600  0.74697600  1
  Tc  Tc2  1  0.00000000  0.00000000  0.00000000  1
  Rh  Rh3  1  0.00000000  0.50000000  0.50000000  1
