# generated using pymatgen
data_Ba2ZnSn
_symmetry_space_group_name_H-M   'P 1'
_cell_length_a   13.58991943
_cell_length_b   13.58991943
_cell_length_c   13.58991943
_cell_angle_alpha   120.67714288
_cell_angle_beta   119.66592720
_cell_angle_gamma   89.70539093
_symmetry_Int_Tables_number   1
_chemical_formula_structural   Ba2ZnSn
_chemical_formula_sum   'Ba2 Zn1 Sn1'
_cell_volume   1769.94348996
_cell_formula_units_Z   1
loop_
 _symmetry_equiv_pos_site_id
 _symmetry_equiv_pos_as_xyz
  1  'x, y, z'
loop_
 _atom_site_type_symbol
 _atom_site_label
 _atom_site_symmetry_multiplicity
 _atom_site_fract_x
 _atom_site_fract_y
 _atom_site_fract_z
 _atom_site_occupancy
  Ba  Ba0  1  0.00000000  0.26415600  0.26415600  1
  Ba  Ba1  1  0.00000000  0.73584400  0.73584400  1
  Zn  Zn2  1  0.00000000  0.00000000  0.00000000  1
  Sn  Sn3  1  0.00000000  0.50000000  0.50000000  1
