# generated using pymatgen
data_NaCaHg2
_symmetry_space_group_name_H-M   'P 1'
_cell_length_a   12.23420658
_cell_length_b   12.23420658
_cell_length_c   12.23420658
_cell_angle_alpha   121.32985239
_cell_angle_beta   116.00955071
_cell_angle_gamma   92.37930687
_symmetry_Int_Tables_number   1
_chemical_formula_structural   NaCaHg2
_chemical_formula_sum   'Na1 Ca1 Hg2'
_cell_volume   1316.25096640
_cell_formula_units_Z   1
loop_
 _symmetry_equiv_pos_site_id
 _symmetry_equiv_pos_as_xyz
  1  'x, y, z'
loop_
 _atom_site_type_symbol
 _atom_site_label
 _atom_site_symmetry_multiplicity
 _atom_site_fract_x
 _atom_site_fract_y
 _atom_site_fract_z
 _atom_site_occupancy
  Na  Na0  1  0.00000000  0.00000000  0.00000000  1
  Ca  Ca1  1  0.50000000  0.00000000  0.50000000  1
  Hg  Hg2  1  0.76110200  0.00000000  0.76110200  1
  Hg  Hg3  1  0.23889800  0.00000000  0.23889800  1
