# generated using pymatgen
data_ZnSnRh2
_symmetry_space_group_name_H-M   'P 1'
_cell_length_a   10.62427230
_cell_length_b   10.62427230
_cell_length_c   10.62427230
_cell_angle_alpha   124.23283664
_cell_angle_beta   118.63540767
_cell_angle_gamma   87.60481817
_symmetry_Int_Tables_number   1
_chemical_formula_structural   ZnSnRh2
_chemical_formula_sum   'Zn1 Sn1 Rh2'
_cell_volume   826.19919718
_cell_formula_units_Z   1
loop_
 _symmetry_equiv_pos_site_id
 _symmetry_equiv_pos_as_xyz
  1  'x, y, z'
loop_
 _atom_site_type_symbol
 _atom_site_label
 _atom_site_symmetry_multiplicity
 _atom_site_fract_x
 _atom_site_fract_y
 _atom_site_fract_z
 _atom_site_occupancy
  Zn  Zn0  1  0.00000000  0.00000000  0.00000000  1
  Sn  Sn1  1  0.00000000  0.50000000  0.50000000  1
  Rh  Rh2  1  0.00000000  0.25255900  0.25255900  1
  Rh  Rh3  1  0.00000000  0.74744100  0.74744100  1
