# generated using pymatgen
data_SrCaPb2
_symmetry_space_group_name_H-M   'P 1'
_cell_length_a   13.03346396
_cell_length_b   13.03346396
_cell_length_c   13.03346396
_cell_angle_alpha   121.35240340
_cell_angle_beta   120.88206551
_cell_angle_gamma   88.07604544
_symmetry_Int_Tables_number   1
_chemical_formula_structural   SrCaPb2
_chemical_formula_sum   'Sr1 Ca1 Pb2'
_cell_volume   1538.12882296
_cell_formula_units_Z   1
loop_
 _symmetry_equiv_pos_site_id
 _symmetry_equiv_pos_as_xyz
  1  'x, y, z'
loop_
 _atom_site_type_symbol
 _atom_site_label
 _atom_site_symmetry_multiplicity
 _atom_site_fract_x
 _atom_site_fract_y
 _atom_site_fract_z
 _atom_site_occupancy
  Sr  Sr0  1  0.50000000  0.00000000  0.50000000  1
  Ca  Ca1  1  0.00000000  0.00000000  0.00000000  1
  Pb  Pb2  1  0.24370900  0.00000000  0.24370900  1
  Pb  Pb3  1  0.75629100  0.00000000  0.75629100  1
