# generated using pymatgen
data_MnZn2Rh
_symmetry_space_group_name_H-M   'P 1'
_cell_length_a   10.65701263
_cell_length_b   10.65701263
_cell_length_c   10.65701263
_cell_angle_alpha   123.55185558
_cell_angle_beta   120.15600110
_cell_angle_gamma   86.84441164
_symmetry_Int_Tables_number   1
_chemical_formula_structural   MnZn2Rh
_chemical_formula_sum   'Mn1 Zn2 Rh1'
_cell_volume   829.50764583
_cell_formula_units_Z   1
loop_
 _symmetry_equiv_pos_site_id
 _symmetry_equiv_pos_as_xyz
  1  'x, y, z'
loop_
 _atom_site_type_symbol
 _atom_site_label
 _atom_site_symmetry_multiplicity
 _atom_site_fract_x
 _atom_site_fract_y
 _atom_site_fract_z
 _atom_site_occupancy
  Mn  Mn0  1  0.00000000  0.00000000  0.00000000  1
  Zn  Zn1  1  0.00000000  0.26001800  0.26001800  1
  Zn  Zn2  1  0.00000000  0.73998200  0.73998200  1
  Rh  Rh3  1  0.00000000  0.50000000  0.50000000  1
