# generated using pymatgen
data_ZrBe2Pt
_symmetry_space_group_name_H-M   'P 1'
_cell_length_a   12.22137591
_cell_length_b   12.22137591
_cell_length_c   12.22137591
_cell_angle_alpha   135.80936219
_cell_angle_beta   111.22347716
_cell_angle_gamma   85.46712572
_symmetry_Int_Tables_number   1
_chemical_formula_structural   ZrBe2Pt
_chemical_formula_sum   'Zr1 Be2 Pt1'
_cell_volume   1139.39627194
_cell_formula_units_Z   1
loop_
 _symmetry_equiv_pos_site_id
 _symmetry_equiv_pos_as_xyz
  1  'x, y, z'
loop_
 _atom_site_type_symbol
 _atom_site_label
 _atom_site_symmetry_multiplicity
 _atom_site_fract_x
 _atom_site_fract_y
 _atom_site_fract_z
 _atom_site_occupancy
  Zr  Zr0  1  0.00000000  0.00000000  0.00000000  1
  Be  Be1  1  0.00000000  0.27632100  0.27632100  1
  Be  Be2  1  0.00000000  0.72367900  0.72367900  1
  Pt  Pt3  1  0.00000000  0.50000000  0.50000000  1
