# generated using pymatgen
data_Ca2MgCd
_symmetry_space_group_name_H-M   'P 1'
_cell_length_a   13.11091605
_cell_length_b   13.11091605
_cell_length_c   13.11091605
_cell_angle_alpha   120.81111062
_cell_angle_beta   117.57941592
_cell_angle_gamma   91.42182324
_symmetry_Int_Tables_number   1
_chemical_formula_structural   Ca2MgCd
_chemical_formula_sum   'Ca2 Mg1 Cd1'
_cell_volume   1610.90883326
_cell_formula_units_Z   1
loop_
 _symmetry_equiv_pos_site_id
 _symmetry_equiv_pos_as_xyz
  1  'x, y, z'
loop_
 _atom_site_type_symbol
 _atom_site_label
 _atom_site_symmetry_multiplicity
 _atom_site_fract_x
 _atom_site_fract_y
 _atom_site_fract_z
 _atom_site_occupancy
  Ca  Ca0  1  0.25053800  0.00000000  0.25053800  1
  Ca  Ca1  1  0.74946200  0.00000000  0.74946200  1
  Mg  Mg2  1  0.00000000  0.00000000  0.00000000  1
  Cd  Cd3  1  0.50000000  0.00000000  0.50000000  1
