# generated using pymatgen
data_Hf2TcNi
_symmetry_space_group_name_H-M   'P 1'
_cell_length_a   10.71403264
_cell_length_b   10.71403264
_cell_length_c   10.71403264
_cell_angle_alpha   128.30272381
_cell_angle_beta   117.48600786
_cell_angle_gamma   85.33392845
_symmetry_Int_Tables_number   1
_chemical_formula_structural   Hf2TcNi
_chemical_formula_sum   'Hf2 Tc1 Ni1'
_cell_volume   818.33924417
_cell_formula_units_Z   1
loop_
 _symmetry_equiv_pos_site_id
 _symmetry_equiv_pos_as_xyz
  1  'x, y, z'
loop_
 _atom_site_type_symbol
 _atom_site_label
 _atom_site_symmetry_multiplicity
 _atom_site_fract_x
 _atom_site_fract_y
 _atom_site_fract_z
 _atom_site_occupancy
  Hf  Hf0  1  0.00000000  0.25827100  0.25827100  1
  Hf  Hf1  1  0.00000000  0.74172900  0.74172900  1
  Tc  Tc2  1  0.00000000  0.50000000  0.50000000  1
  Ni  Ni3  1  0.00000000  0.00000000  0.00000000  1
