# generated using pymatgen
data_ZrZnAu2
_symmetry_space_group_name_H-M   'P 1'
_cell_length_a   11.29569972
_cell_length_b   11.29569972
_cell_length_c   11.29569972
_cell_angle_alpha   123.11275168
_cell_angle_beta   118.98324443
_cell_angle_gamma   88.23259097
_symmetry_Int_Tables_number   1
_chemical_formula_structural   ZrZnAu2
_chemical_formula_sum   'Zr1 Zn1 Au2'
_cell_volume   1000.76502510
_cell_formula_units_Z   1
loop_
 _symmetry_equiv_pos_site_id
 _symmetry_equiv_pos_as_xyz
  1  'x, y, z'
loop_
 _atom_site_type_symbol
 _atom_site_label
 _atom_site_symmetry_multiplicity
 _atom_site_fract_x
 _atom_site_fract_y
 _atom_site_fract_z
 _atom_site_occupancy
  Zr  Zr0  1  0.00000000  0.50000000  0.50000000  1
  Zn  Zn1  1  0.00000000  0.00000000  0.00000000  1
  Au  Au2  1  0.00000000  0.25198500  0.25198500  1
  Au  Au3  1  0.00000000  0.74801500  0.74801500  1
