# generated using pymatgen
data_Sc2IrOs
_symmetry_space_group_name_H-M   'P 1'
_cell_length_a   10.71877351
_cell_length_b   10.71877351
_cell_length_c   10.71877351
_cell_angle_alpha   127.86845762
_cell_angle_beta   117.51904496
_cell_angle_gamma   85.64740142
_symmetry_Int_Tables_number   1
_chemical_formula_structural   Sc2IrOs
_chemical_formula_sum   'Sc2 Ir1 Os1'
_cell_volume   823.35339975
_cell_formula_units_Z   1
loop_
 _symmetry_equiv_pos_site_id
 _symmetry_equiv_pos_as_xyz
  1  'x, y, z'
loop_
 _atom_site_type_symbol
 _atom_site_label
 _atom_site_symmetry_multiplicity
 _atom_site_fract_x
 _atom_site_fract_y
 _atom_site_fract_z
 _atom_site_occupancy
  Sc  Sc0  1  0.00000000  0.25135200  0.25135200  1
  Sc  Sc1  1  0.00000000  0.74864800  0.74864800  1
  Ir  Ir2  1  0.00000000  0.50000000  0.50000000  1
  Os  Os3  1  0.00000000  0.00000000  0.00000000  1
