# generated using pymatgen
data_CaHgAu2
_symmetry_space_group_name_H-M   'P 1'
_cell_length_a   12.12548238
_cell_length_b   12.12548238
_cell_length_c   12.12548238
_cell_angle_alpha   124.36330945
_cell_angle_beta   118.52442508
_cell_angle_gamma   87.59448271
_symmetry_Int_Tables_number   1
_chemical_formula_structural   CaHgAu2
_chemical_formula_sum   'Ca1 Hg1 Au2'
_cell_volume   1227.70518876
_cell_formula_units_Z   1
loop_
 _symmetry_equiv_pos_site_id
 _symmetry_equiv_pos_as_xyz
  1  'x, y, z'
loop_
 _atom_site_type_symbol
 _atom_site_label
 _atom_site_symmetry_multiplicity
 _atom_site_fract_x
 _atom_site_fract_y
 _atom_site_fract_z
 _atom_site_occupancy
  Ca  Ca0  1  0.00000000  0.00000000  0.00000000  1
  Hg  Hg1  1  0.00000000  0.50000000  0.50000000  1
  Au  Au2  1  0.00000000  0.23810400  0.23810400  1
  Au  Au3  1  0.00000000  0.76189600  0.76189600  1
