# generated using pymatgen
data_ZrTaTc2
_symmetry_space_group_name_H-M   'P 1'
_cell_length_a   10.88124840
_cell_length_b   10.88124840
_cell_length_c   10.88124840
_cell_angle_alpha   129.82577246
_cell_angle_beta   117.05996359
_cell_angle_gamma   84.52692566
_symmetry_Int_Tables_number   1
_chemical_formula_structural   ZrTaTc2
_chemical_formula_sum   'Zr1 Ta1 Tc2'
_cell_volume   844.18706919
_cell_formula_units_Z   1
loop_
 _symmetry_equiv_pos_site_id
 _symmetry_equiv_pos_as_xyz
  1  'x, y, z'
loop_
 _atom_site_type_symbol
 _atom_site_label
 _atom_site_symmetry_multiplicity
 _atom_site_fract_x
 _atom_site_fract_y
 _atom_site_fract_z
 _atom_site_occupancy
  Zr  Zr0  1  0.00000000  0.00000000  0.00000000  1
  Ta  Ta1  1  0.00000000  0.50000000  0.50000000  1
  Tc  Tc2  1  0.00000000  0.25431900  0.25431900  1
  Tc  Tc3  1  0.00000000  0.74568100  0.74568100  1
