# generated using pymatgen
data_ScAlRu2
_symmetry_space_group_name_H-M   'P 1'
_cell_length_a   10.76313436
_cell_length_b   10.76313436
_cell_length_c   10.76313436
_cell_angle_alpha   128.61564311
_cell_angle_beta   115.75240246
_cell_angle_gamma   86.64192186
_symmetry_Int_Tables_number   1
_chemical_formula_structural   ScAlRu2
_chemical_formula_sum   'Sc1 Al1 Ru2'
_cell_volume   836.47960931
_cell_formula_units_Z   1
loop_
 _symmetry_equiv_pos_site_id
 _symmetry_equiv_pos_as_xyz
  1  'x, y, z'
loop_
 _atom_site_type_symbol
 _atom_site_label
 _atom_site_symmetry_multiplicity
 _atom_site_fract_x
 _atom_site_fract_y
 _atom_site_fract_z
 _atom_site_occupancy
  Sc  Sc0  1  0.00000000  0.50000000  0.50000000  1
  Al  Al1  1  0.00000000  0.00000000  0.00000000  1
  Ru  Ru2  1  0.00000000  0.25811300  0.25811300  1
  Ru  Ru3  1  0.00000000  0.74188700  0.74188700  1
