# generated using pymatgen
data_Tc2GeSb
_symmetry_space_group_name_H-M   'P 1'
_cell_length_a   10.80831821
_cell_length_b   10.80831821
_cell_length_c   10.80831821
_cell_angle_alpha   125.86300912
_cell_angle_beta   118.17144669
_cell_angle_gamma   86.67723024
_symmetry_Int_Tables_number   1
_chemical_formula_structural   Tc2GeSb
_chemical_formula_sum   'Tc2 Ge1 Sb1'
_cell_volume   858.76525351
_cell_formula_units_Z   1
loop_
 _symmetry_equiv_pos_site_id
 _symmetry_equiv_pos_as_xyz
  1  'x, y, z'
loop_
 _atom_site_type_symbol
 _atom_site_label
 _atom_site_symmetry_multiplicity
 _atom_site_fract_x
 _atom_site_fract_y
 _atom_site_fract_z
 _atom_site_occupancy
  Tc  Tc0  1  0.00000000  0.24045800  0.24045800  1
  Tc  Tc1  1  0.00000000  0.75954200  0.75954200  1
  Ge  Ge2  1  0.00000000  0.00000000  0.00000000  1
  Sb  Sb3  1  0.00000000  0.50000000  0.50000000  1
