# generated using pymatgen
data_TlIn2Hg
_symmetry_space_group_name_H-M   'P 1'
_cell_length_a   12.23572043
_cell_length_b   12.23572043
_cell_length_c   12.23572043
_cell_angle_alpha   121.56007884
_cell_angle_beta   119.46791222
_cell_angle_gamma   89.12171387
_symmetry_Int_Tables_number   1
_chemical_formula_structural   TlIn2Hg
_chemical_formula_sum   'Tl1 In2 Hg1'
_cell_volume   1284.53694374
_cell_formula_units_Z   1
loop_
 _symmetry_equiv_pos_site_id
 _symmetry_equiv_pos_as_xyz
  1  'x, y, z'
loop_
 _atom_site_type_symbol
 _atom_site_label
 _atom_site_symmetry_multiplicity
 _atom_site_fract_x
 _atom_site_fract_y
 _atom_site_fract_z
 _atom_site_occupancy
  Tl  Tl0  1  0.00000000  0.50000000  0.50000000  1
  In  In1  1  0.00000000  0.25324500  0.25324500  1
  In  In2  1  0.00000000  0.74675500  0.74675500  1
  Hg  Hg3  1  0.00000000  0.00000000  0.00000000  1
