# generated using pymatgen
data_Ba2PdPt
_symmetry_space_group_name_H-M   'P 1'
_cell_length_a   12.69366122
_cell_length_b   12.69366122
_cell_length_c   12.69366122
_cell_angle_alpha   126.53809023
_cell_angle_beta   117.91471425
_cell_angle_gamma   86.35847506
_symmetry_Int_Tables_number   1
_chemical_formula_structural   Ba2PdPt
_chemical_formula_sum   'Ba2 Pd1 Pt1'
_cell_volume   1383.80559494
_cell_formula_units_Z   1
loop_
 _symmetry_equiv_pos_site_id
 _symmetry_equiv_pos_as_xyz
  1  'x, y, z'
loop_
 _atom_site_type_symbol
 _atom_site_label
 _atom_site_symmetry_multiplicity
 _atom_site_fract_x
 _atom_site_fract_y
 _atom_site_fract_z
 _atom_site_occupancy
  Ba  Ba0  1  0.00000000  0.25099700  0.25099700  1
  Ba  Ba1  1  0.00000000  0.74900300  0.74900300  1
  Pd  Pd2  1  0.00000000  0.00000000  0.00000000  1
  Pt  Pt3  1  0.00000000  0.50000000  0.50000000  1
