# generated using pymatgen
data_In2PdPt
_symmetry_space_group_name_H-M   'P 1'
_cell_length_a   10.56309227
_cell_length_b   10.56309227
_cell_length_c   10.56309227
_cell_angle_alpha   121.92569933
_cell_angle_beta   119.77422013
_cell_angle_gamma   88.54438493
_symmetry_Int_Tables_number   1
_chemical_formula_structural   In2PdPt
_chemical_formula_sum   'In2 Pd1 Pt1'
_cell_volume   822.04009345
_cell_formula_units_Z   1
loop_
 _symmetry_equiv_pos_site_id
 _symmetry_equiv_pos_as_xyz
  1  'x, y, z'
loop_
 _atom_site_type_symbol
 _atom_site_label
 _atom_site_symmetry_multiplicity
 _atom_site_fract_x
 _atom_site_fract_y
 _atom_site_fract_z
 _atom_site_occupancy
  In  In0  1  0.00000000  0.25154300  0.25154300  1
  In  In1  1  0.00000000  0.74845700  0.74845700  1
  Pd  Pd2  1  0.00000000  0.00000000  0.00000000  1
  Pt  Pt3  1  0.00000000  0.50000000  0.50000000  1
