# generated using pymatgen
data_Zn2Ga2S5
_symmetry_space_group_name_H-M   'P 1'
_cell_length_a   3.69917790
_cell_length_b   3.69917790
_cell_length_c   30.26071600
_cell_angle_alpha   90.00000000
_cell_angle_beta   90.00000000
_cell_angle_gamma   119.99999812
_symmetry_Int_Tables_number   1
_chemical_formula_structural   Zn2Ga2S5
_chemical_formula_sum   'Zn4 Ga4 S10'
_cell_volume   358.60824793
_cell_formula_units_Z   2
loop_
 _symmetry_equiv_pos_site_id
 _symmetry_equiv_pos_as_xyz
  1  'x, y, z'
loop_
 _atom_site_type_symbol
 _atom_site_label
 _atom_site_symmetry_multiplicity
 _atom_site_fract_x
 _atom_site_fract_y
 _atom_site_fract_z
 _atom_site_occupancy
  Zn  Zn0  1  0.00000000  0.00000000  0.79941600  1
  Zn  Zn1  1  0.00000000  0.00000000  0.20058400  1
  Zn  Zn2  1  0.00000000  0.00000000  0.29941600  1
  Zn  Zn3  1  0.00000000  0.00000000  0.70058400  1
  Ga  Ga4  1  0.33333300  0.66666700  0.91366700  1
  Ga  Ga5  1  0.66666700  0.33333300  0.08633300  1
  Ga  Ga6  1  0.66666700  0.33333300  0.41366700  1
  Ga  Ga7  1  0.33333300  0.66666700  0.58633300  1
  S  S8  1  0.33333300  0.66666700  0.25000000  1
  S  S9  1  0.66666700  0.33333300  0.75000000  1
  S  S10  1  0.33333300  0.66666700  0.84047100  1
  S  S11  1  0.66666700  0.33333300  0.15952900  1
  S  S12  1  0.66666700  0.33333300  0.34047100  1
  S  S13  1  0.33333300  0.66666700  0.65952900  1
  S  S14  1  0.66666700  0.33333300  0.94729800  1
  S  S15  1  0.33333300  0.66666700  0.05270200  1
  S  S16  1  0.33333300  0.66666700  0.44729800  1
  S  S17  1  0.66666700  0.33333300  0.55270200  1
