# generated using pymatgen
data_CdSO4
_symmetry_space_group_name_H-M   'P 1'
_cell_length_a   6.51357604
_cell_length_b   6.51357604
_cell_length_c   7.47562483
_cell_angle_alpha   85.82899392
_cell_angle_beta   85.82899392
_cell_angle_gamma   50.85686276
_symmetry_Int_Tables_number   1
_chemical_formula_structural   CdSO4
_chemical_formula_sum   'Cd2 S2 O8'
_cell_volume   245.18575509
_cell_formula_units_Z   2
loop_
 _symmetry_equiv_pos_site_id
 _symmetry_equiv_pos_as_xyz
  1  'x, y, z'
loop_
 _atom_site_type_symbol
 _atom_site_label
 _atom_site_symmetry_multiplicity
 _atom_site_fract_x
 _atom_site_fract_y
 _atom_site_fract_z
 _atom_site_occupancy
  Cd  Cd0  1  0.00000000  0.00000000  0.00000000  1
  Cd  Cd1  1  0.00000000  0.00000000  0.50000000  1
  S  S2  1  0.25147800  0.25147800  0.23326000  1
  S  S3  1  0.74852200  0.74852200  0.76674000  1
  O  O4  1  0.67036300  0.67036300  0.92435300  1
  O  O5  1  0.32963700  0.32963700  0.07564700  1
  O  O6  1  0.94162100  0.94162100  0.25646000  1
  O  O7  1  0.98875600  0.43217200  0.31172200  1
  O  O8  1  0.43217200  0.98875600  0.31172200  1
  O  O9  1  0.05837900  0.05837900  0.74354000  1
  O  O10  1  0.01124400  0.56782800  0.68827800  1
  O  O11  1  0.56782800  0.01124400  0.68827800  1
