# generated using pymatgen
data_TiSiAg2O5
_symmetry_space_group_name_H-M   'P 1'
_cell_length_a   6.55907200
_cell_length_b   6.55907200
_cell_length_c   5.52764800
_cell_angle_alpha   90.00000000
_cell_angle_beta   90.00000000
_cell_angle_gamma   90.00000000
_symmetry_Int_Tables_number   1
_chemical_formula_structural   TiSiAg2O5
_chemical_formula_sum   'Ti2 Si2 Ag4 O10'
_cell_volume   237.80729663
_cell_formula_units_Z   2
loop_
 _symmetry_equiv_pos_site_id
 _symmetry_equiv_pos_as_xyz
  1  'x, y, z'
loop_
 _atom_site_type_symbol
 _atom_site_label
 _atom_site_symmetry_multiplicity
 _atom_site_fract_x
 _atom_site_fract_y
 _atom_site_fract_z
 _atom_site_occupancy
  Ti  Ti0  1  0.00000000  0.50000000  0.93691800  1
  Ti  Ti1  1  0.50000000  0.00000000  0.06308200  1
  Si  Si2  1  0.50000000  0.50000000  0.00000000  1
  Si  Si3  1  0.00000000  0.00000000  0.00000000  1
  Ag  Ag4  1  0.25000000  0.25000000  0.50000000  1
  Ag  Ag5  1  0.75000000  0.75000000  0.50000000  1
  Ag  Ag6  1  0.25000000  0.75000000  0.50000000  1
  Ag  Ag7  1  0.75000000  0.25000000  0.50000000  1
  O  O8  1  0.29249300  0.50000000  0.83170500  1
  O  O9  1  0.70750700  0.50000000  0.83170500  1
  O  O10  1  0.79249300  0.00000000  0.16829500  1
  O  O11  1  0.20750700  0.00000000  0.16829500  1
  O  O12  1  0.50000000  0.70750700  0.16829500  1
  O  O13  1  0.50000000  0.29249300  0.16829500  1
  O  O14  1  0.00000000  0.20750700  0.83170500  1
  O  O15  1  0.00000000  0.79249300  0.83170500  1
  O  O16  1  0.00000000  0.50000000  0.24655300  1
  O  O17  1  0.50000000  0.00000000  0.75344700  1
