# generated using pymatgen
data_ZnIn2O4
_symmetry_space_group_name_H-M   'P 1'
_cell_length_a   3.18702500
_cell_length_b   9.89524600
_cell_length_c   11.04403600
_cell_angle_alpha   90.00000000
_cell_angle_beta   90.00000000
_cell_angle_gamma   90.00000000
_symmetry_Int_Tables_number   1
_chemical_formula_structural   ZnIn2O4
_chemical_formula_sum   'Zn4 In8 O16'
_cell_volume   348.28909697
_cell_formula_units_Z   4
loop_
 _symmetry_equiv_pos_site_id
 _symmetry_equiv_pos_as_xyz
  1  'x, y, z'
loop_
 _atom_site_type_symbol
 _atom_site_label
 _atom_site_symmetry_multiplicity
 _atom_site_fract_x
 _atom_site_fract_y
 _atom_site_fract_z
 _atom_site_occupancy
  Zn  Zn0  1  0.25000000  0.22833500  0.14281300  1
  Zn  Zn1  1  0.25000000  0.72833500  0.35718700  1
  Zn  Zn2  1  0.75000000  0.77166500  0.85718700  1
  Zn  Zn3  1  0.75000000  0.27166500  0.64281300  1
  In  In4  1  0.25000000  0.93101100  0.12311100  1
  In  In5  1  0.25000000  0.43101100  0.37688900  1
  In  In6  1  0.75000000  0.06898900  0.87688900  1
  In  In7  1  0.75000000  0.56898900  0.62311100  1
  In  In8  1  0.25000000  0.90592600  0.60300000  1
  In  In9  1  0.25000000  0.40592600  0.89700000  1
  In  In10  1  0.75000000  0.09407400  0.39700000  1
  In  In11  1  0.75000000  0.59407400  0.10300000  1
  O  O12  1  0.25000000  0.69814700  0.68538200  1
  O  O13  1  0.25000000  0.19814700  0.81461800  1
  O  O14  1  0.75000000  0.30185300  0.31461800  1
  O  O15  1  0.75000000  0.80185300  0.18538200  1
  O  O16  1  0.25000000  0.62346200  0.95971200  1
  O  O17  1  0.25000000  0.12346200  0.54028800  1
  O  O18  1  0.75000000  0.37653800  0.04028800  1
  O  O19  1  0.75000000  0.87653800  0.45971200  1
  O  O20  1  0.25000000  0.06926900  0.27119000  1
  O  O21  1  0.25000000  0.56926900  0.22881000  1
  O  O22  1  0.75000000  0.93073100  0.72881000  1
  O  O23  1  0.75000000  0.43073100  0.77119000  1
  O  O24  1  0.25000000  0.90166700  0.93162800  1
  O  O25  1  0.25000000  0.40166700  0.56837200  1
  O  O26  1  0.75000000  0.09833300  0.06837200  1
  O  O27  1  0.75000000  0.59833300  0.43162800  1
