# generated using pymatgen
data_Sr12Al14O33
_symmetry_space_group_name_H-M   'P 1'
_cell_length_a   10.77441315
_cell_length_b   10.77441315
_cell_length_c   10.77441315
_cell_angle_alpha   109.31231028
_cell_angle_beta   109.31231028
_cell_angle_gamma   109.78951098
_symmetry_Int_Tables_number   1
_chemical_formula_structural   Sr12Al14O33
_chemical_formula_sum   'Sr12 Al14 O33'
_cell_volume   962.82847199
_cell_formula_units_Z   1
loop_
 _symmetry_equiv_pos_site_id
 _symmetry_equiv_pos_as_xyz
  1  'x, y, z'
loop_
 _atom_site_type_symbol
 _atom_site_label
 _atom_site_symmetry_multiplicity
 _atom_site_fract_x
 _atom_site_fract_y
 _atom_site_fract_z
 _atom_site_occupancy
  Sr  Sr0  1  0.31712400  0.31712400  0.00000000  1
  Sr  Sr1  1  0.12362700  0.98316900  0.35102200  1
  Sr  Sr2  1  0.22739500  0.87637300  0.85954200  1
  Sr  Sr3  1  0.13230000  0.51757000  0.89519400  1
  Sr  Sr4  1  0.01683100  0.36785400  0.14045800  1
  Sr  Sr5  1  0.68287600  0.68287600  0.00000000  1
  Sr  Sr6  1  0.63214600  0.77260500  0.64897800  1
  Sr  Sr7  1  0.76289300  0.86770000  0.38527000  1
  Sr  Sr8  1  0.98034900  0.48034900  0.50000000  1
  Sr  Sr9  1  0.48243000  0.37762400  0.61473000  1
  Sr  Sr10  1  0.51965100  0.01965100  0.50000000  1
  Sr  Sr11  1  0.62237600  0.23710700  0.10480600  1
  Al  Al12  1  0.25000000  0.75000000  0.50000000  1
  Al  Al13  1  0.00000000  0.00000000  0.00000000  1
  Al  Al14  1  0.12438200  0.24838500  0.62333600  1
  Al  Al15  1  0.33889200  0.62542200  0.74815500  1
  Al  Al16  1  0.87254400  0.08896900  0.24724000  1
  Al  Al17  1  0.84172800  0.62530400  0.75276000  1
  Al  Al18  1  0.75161500  0.37495100  0.87599700  1
  Al  Al19  1  0.91103100  0.15827200  0.78357600  1
  Al  Al20  1  0.87726800  0.59073700  0.25184500  1
  Al  Al21  1  0.62504900  0.50104600  0.37666400  1
  Al  Al22  1  0.37457800  0.12273200  0.71347000  1
  Al  Al23  1  0.37469600  0.12745600  0.21642400  1
  Al  Al24  1  0.49895400  0.87561800  0.12400300  1
  Al  Al25  1  0.40926300  0.66110800  0.28653000  1
  O  O26  1  0.26675600  0.19831900  0.63048400  1
  O  O27  1  0.29194700  0.93944500  0.55112600  1
  O  O28  1  0.18812000  0.03345000  0.05993200  1
  O  O29  1  0.96655000  0.02648100  0.15466900  1
  O  O30  1  0.07092200  0.23713200  0.75979400  1
  O  O31  1  0.97351900  0.12818800  0.94006800  1
  O  O32  1  0.06055500  0.61168100  0.35250200  1
  O  O33  1  0.36372800  0.73324400  0.93156300  1
  O  O34  1  0.24139200  0.50411500  0.12919300  1
  O  O35  1  0.25917900  0.70805300  0.64749800  1
  O  O36  1  0.87181200  0.81188000  0.84533100  1
  O  O37  1  0.97271100  0.11535100  0.43371900  1
  O  O38  1  0.00097300  0.61889700  0.75013900  1
  O  O39  1  0.17889400  0.43880600  0.66290100  1
  O  O40  1  0.80168100  0.43216500  0.06843700  1
  O  O41  1  0.76286800  0.52266200  0.83379000  1
  O  O42  1  0.88464900  0.31836800  0.85736000  1
  O  O43  1  0.88780100  0.75860800  0.26272300  1
  O  O44  1  0.49588500  0.62507800  0.73727700  1
  O  O45  1  0.68163200  0.53899200  0.56628100  1
  O  O46  1  0.68887100  0.92907800  0.16621000  1
  O  O47  1  0.77590500  0.51599300  0.33709900  1
  O  O48  1  0.56783500  0.63627200  0.36951600  1
  O  O49  1  0.56119400  0.22409500  0.74008800  1
  O  O50  1  0.86875800  0.25083400  0.24986100  1
  O  O51  1  0.74916600  0.99902700  0.61792300  1
  O  O52  1  0.47733800  0.31112900  0.24020600  1
  O  O53  1  0.50000000  0.50000000  0.00000000  1
  O  O54  1  0.38110300  0.13124200  0.38207700  1
  O  O55  1  0.46100800  0.02728900  0.14264000  1
  O  O56  1  0.48400700  0.82110600  0.25991200  1
  O  O57  1  0.38831900  0.74082100  0.44887400  1
  O  O58  1  0.37492200  0.11219900  0.87080700  1
