# generated using pymatgen
data_Ti(HO)2
_symmetry_space_group_name_H-M   'P 1'
_cell_length_a   3.07671800
_cell_length_b   4.86828600
_cell_length_c   5.70681000
_cell_angle_alpha   90.00000000
_cell_angle_beta   90.00000000
_cell_angle_gamma   90.00000000
_symmetry_Int_Tables_number   1
_chemical_formula_structural   Ti(HO)2
_chemical_formula_sum   'Ti2 H4 O4'
_cell_volume   85.47855856
_cell_formula_units_Z   2
loop_
 _symmetry_equiv_pos_site_id
 _symmetry_equiv_pos_as_xyz
  1  'x, y, z'
loop_
 _atom_site_type_symbol
 _atom_site_label
 _atom_site_symmetry_multiplicity
 _atom_site_fract_x
 _atom_site_fract_y
 _atom_site_fract_z
 _atom_site_occupancy
  Ti  Ti0  1  0.50000000  0.50000000  0.50000000  1
  Ti  Ti1  1  0.00000000  0.00000000  0.00000000  1
  H  H2  1  0.50000000  0.02202800  0.34390100  1
  H  H3  1  0.50000000  0.97797200  0.65609900  1
  H  H4  1  0.00000000  0.47797200  0.84390100  1
  H  H5  1  0.00000000  0.52202800  0.15609900  1
  O  O6  1  0.50000000  0.85404700  0.24719000  1
  O  O7  1  0.50000000  0.14595300  0.75281000  1
  O  O8  1  0.00000000  0.64595300  0.74719000  1
  O  O9  1  0.00000000  0.35404700  0.25281000  1
