# generated using pymatgen
data_HgNCl
_symmetry_space_group_name_H-M   'P 1'
_cell_length_a   4.11153900
_cell_length_b   7.85904500
_cell_length_c   11.38977100
_cell_angle_alpha   90.00000000
_cell_angle_beta   90.00000000
_cell_angle_gamma   90.00000000
_symmetry_Int_Tables_number   1
_chemical_formula_structural   HgNCl
_chemical_formula_sum   'Hg4 N4 Cl4'
_cell_volume   368.03505091
_cell_formula_units_Z   4
loop_
 _symmetry_equiv_pos_site_id
 _symmetry_equiv_pos_as_xyz
  1  'x, y, z'
loop_
 _atom_site_type_symbol
 _atom_site_label
 _atom_site_symmetry_multiplicity
 _atom_site_fract_x
 _atom_site_fract_y
 _atom_site_fract_z
 _atom_site_occupancy
  Hg  Hg0  1  0.00000000  0.25000000  0.25000000  1
  Hg  Hg1  1  0.00000000  0.25000000  0.75000000  1
  Hg  Hg2  1  0.00000000  0.75000000  0.25000000  1
  Hg  Hg3  1  0.00000000  0.75000000  0.75000000  1
  N  N4  1  0.02866800  0.00000000  0.04916300  1
  N  N5  1  0.02866800  0.00000000  0.95083700  1
  N  N6  1  0.97133200  0.50000000  0.45083700  1
  N  N7  1  0.97133200  0.50000000  0.54916300  1
  Cl  Cl8  1  0.51271000  0.00000000  0.70439000  1
  Cl  Cl9  1  0.51271000  0.00000000  0.29561000  1
  Cl  Cl10  1  0.48729000  0.50000000  0.79561000  1
  Cl  Cl11  1  0.48729000  0.50000000  0.20439000  1
