# generated using pymatgen
data_NaTi2BiO6
_symmetry_space_group_name_H-M   'P 1'
_cell_length_a   6.05625219
_cell_length_b   6.05625219
_cell_length_c   5.63750353
_cell_angle_alpha   70.41239839
_cell_angle_beta   70.41239839
_cell_angle_gamma   53.93199307
_symmetry_Int_Tables_number   1
_chemical_formula_structural   NaTi2BiO6
_chemical_formula_sum   'Na1 Ti2 Bi1 O6'
_cell_volume   154.86439328
_cell_formula_units_Z   1
loop_
 _symmetry_equiv_pos_site_id
 _symmetry_equiv_pos_as_xyz
  1  'x, y, z'
loop_
 _atom_site_type_symbol
 _atom_site_label
 _atom_site_symmetry_multiplicity
 _atom_site_fract_x
 _atom_site_fract_y
 _atom_site_fract_z
 _atom_site_occupancy
  Na  Na0  1  0.50000000  0.50000000  0.50000000  1
  Ti  Ti1  1  0.23158700  0.23158700  0.39964900  1
  Ti  Ti2  1  0.76841300  0.76841300  0.60035100  1
  Bi  Bi3  1  0.00000000  0.00000000  0.00000000  1
  O  O4  1  0.17676200  0.17676200  0.14665200  1
  O  O5  1  0.82323800  0.82323800  0.85334800  1
  O  O6  1  0.12162200  0.62261900  0.35091700  1
  O  O7  1  0.37738100  0.87837800  0.64908300  1
  O  O8  1  0.87837800  0.37738100  0.64908300  1
  O  O9  1  0.62261900  0.12162200  0.35091700  1
