# generated using pymatgen
data_MgSn2
_symmetry_space_group_name_H-M   'P 1'
_cell_length_a   9.04328129
_cell_length_b   9.04328129
_cell_length_c   5.21172800
_cell_angle_alpha   90.00000000
_cell_angle_beta   90.00000000
_cell_angle_gamma   158.70454179
_symmetry_Int_Tables_number   1
_chemical_formula_structural   MgSn2
_chemical_formula_sum   'Mg2 Sn4'
_cell_volume   154.79345939
_cell_formula_units_Z   2
loop_
 _symmetry_equiv_pos_site_id
 _symmetry_equiv_pos_as_xyz
  1  'x, y, z'
loop_
 _atom_site_type_symbol
 _atom_site_label
 _atom_site_symmetry_multiplicity
 _atom_site_fract_x
 _atom_site_fract_y
 _atom_site_fract_z
 _atom_site_occupancy
  Mg  Mg0  1  0.11154700  0.88845300  0.50000000  1
  Mg  Mg1  1  0.77737000  0.22263000  0.50000000  1
  Sn  Sn2  1  0.00217000  0.99783000  0.00000000  1
  Sn  Sn3  1  0.33011300  0.66988700  0.00000000  1
  Sn  Sn4  1  0.66726200  0.33273800  0.00000000  1
  Sn  Sn5  1  0.44487200  0.55512800  0.50000000  1
