# generated using pymatgen
data_BaMgSi
_symmetry_space_group_name_H-M   'P 1'
_cell_length_a   4.78976200
_cell_length_b   8.18241600
_cell_length_c   8.68870000
_cell_angle_alpha   90.00000000
_cell_angle_beta   90.00000000
_cell_angle_gamma   90.00000000
_symmetry_Int_Tables_number   1
_chemical_formula_structural   BaMgSi
_chemical_formula_sum   'Ba4 Mg4 Si4'
_cell_volume   340.52601183
_cell_formula_units_Z   4
loop_
 _symmetry_equiv_pos_site_id
 _symmetry_equiv_pos_as_xyz
  1  'x, y, z'
loop_
 _atom_site_type_symbol
 _atom_site_label
 _atom_site_symmetry_multiplicity
 _atom_site_fract_x
 _atom_site_fract_y
 _atom_site_fract_z
 _atom_site_occupancy
  Ba  Ba0  1  0.25000000  0.51462300  0.31854200  1
  Ba  Ba1  1  0.25000000  0.01462300  0.18145800  1
  Ba  Ba2  1  0.75000000  0.48537700  0.68145800  1
  Ba  Ba3  1  0.75000000  0.98537700  0.81854200  1
  Mg  Mg4  1  0.25000000  0.63947700  0.93680800  1
  Mg  Mg5  1  0.25000000  0.13947700  0.56319200  1
  Mg  Mg6  1  0.75000000  0.36052300  0.06319200  1
  Mg  Mg7  1  0.75000000  0.86052300  0.43680800  1
  Si  Si8  1  0.25000000  0.29571100  0.89292400  1
  Si  Si9  1  0.25000000  0.79571100  0.60707600  1
  Si  Si10  1  0.75000000  0.70428900  0.10707600  1
  Si  Si11  1  0.75000000  0.20428900  0.39292400  1
