# generated using pymatgen
data_SrMg
_symmetry_space_group_name_H-M   'P 1'
_cell_length_a   6.95458554
_cell_length_b   6.95458554
_cell_length_c   6.05041997
_cell_angle_alpha   68.87208339
_cell_angle_beta   68.87208339
_cell_angle_gamma   33.33339154
_symmetry_Int_Tables_number   1
_chemical_formula_structural   SrMg
_chemical_formula_sum   'Sr2 Mg2'
_cell_volume   148.98957429
_cell_formula_units_Z   2
loop_
 _symmetry_equiv_pos_site_id
 _symmetry_equiv_pos_as_xyz
  1  'x, y, z'
loop_
 _atom_site_type_symbol
 _atom_site_label
 _atom_site_symmetry_multiplicity
 _atom_site_fract_x
 _atom_site_fract_y
 _atom_site_fract_z
 _atom_site_occupancy
  Sr  Sr0  1  0.60536300  0.60536300  0.67067600  1
  Sr  Sr1  1  0.39463700  0.39463700  0.32932400  1
  Mg  Mg2  1  0.84346700  0.84346700  0.87561600  1
  Mg  Mg3  1  0.15653300  0.15653300  0.12438400  1
