# generated using pymatgen
data_SrMg2
_symmetry_space_group_name_H-M   'P 1'
_cell_length_a   6.10820012
_cell_length_b   6.10820012
_cell_length_c   6.76554443
_cell_angle_alpha   65.43495449
_cell_angle_beta   65.43495449
_cell_angle_gamma   60.16767241
_symmetry_Int_Tables_number   1
_chemical_formula_structural   SrMg2
_chemical_formula_sum   'Sr2 Mg4'
_cell_volume   192.04498784
_cell_formula_units_Z   2
loop_
 _symmetry_equiv_pos_site_id
 _symmetry_equiv_pos_as_xyz
  1  'x, y, z'
loop_
 _atom_site_type_symbol
 _atom_site_label
 _atom_site_symmetry_multiplicity
 _atom_site_fract_x
 _atom_site_fract_y
 _atom_site_fract_z
 _atom_site_occupancy
  Sr  Sr0  1  0.09542500  0.90457500  0.25000000  1
  Sr  Sr1  1  0.90457500  0.09542500  0.75000000  1
  Mg  Mg2  1  0.25384500  0.41826000  0.74798400  1
  Mg  Mg3  1  0.58174000  0.74615500  0.75201600  1
  Mg  Mg4  1  0.41826000  0.25384500  0.24798400  1
  Mg  Mg5  1  0.74615500  0.58174000  0.25201600  1
