# generated using pymatgen
data_Mg2Ti
_symmetry_space_group_name_H-M   'P 1'
_cell_length_a   8.42333004
_cell_length_b   8.42333004
_cell_length_c   4.91417600
_cell_angle_alpha   90.00000000
_cell_angle_beta   90.00000000
_cell_angle_gamma   159.37533331
_symmetry_Int_Tables_number   1
_chemical_formula_structural   Mg2Ti
_chemical_formula_sum   'Mg4 Ti2'
_cell_volume   122.81818903
_cell_formula_units_Z   2
loop_
 _symmetry_equiv_pos_site_id
 _symmetry_equiv_pos_as_xyz
  1  'x, y, z'
loop_
 _atom_site_type_symbol
 _atom_site_label
 _atom_site_symmetry_multiplicity
 _atom_site_fract_x
 _atom_site_fract_y
 _atom_site_fract_z
 _atom_site_occupancy
  Mg  Mg0  1  0.21303400  0.78696600  0.25000000  1
  Mg  Mg1  1  0.89039100  0.10960900  0.25000000  1
  Mg  Mg2  1  0.10960900  0.89039100  0.75000000  1
  Mg  Mg3  1  0.78696600  0.21303400  0.75000000  1
  Ti  Ti4  1  0.54511400  0.45488600  0.25000000  1
  Ti  Ti5  1  0.45488600  0.54511400  0.75000000  1
