# generated using pymatgen
data_Sr2Mg
_symmetry_space_group_name_H-M   'P 1'
_cell_length_a   4.22772503
_cell_length_b   4.22772503
_cell_length_c   17.59886700
_cell_angle_alpha   90.00000000
_cell_angle_beta   90.00000000
_cell_angle_gamma   119.99998487
_symmetry_Int_Tables_number   1
_chemical_formula_structural   Sr2Mg
_chemical_formula_sum   'Sr4 Mg2'
_cell_volume   272.41365556
_cell_formula_units_Z   2
loop_
 _symmetry_equiv_pos_site_id
 _symmetry_equiv_pos_as_xyz
  1  'x, y, z'
loop_
 _atom_site_type_symbol
 _atom_site_label
 _atom_site_symmetry_multiplicity
 _atom_site_fract_x
 _atom_site_fract_y
 _atom_site_fract_z
 _atom_site_occupancy
  Sr  Sr0  1  0.33333300  0.66666700  0.79660300  1
  Sr  Sr1  1  0.66666700  0.33333300  0.59731000  1
  Sr  Sr2  1  0.33333300  0.66666700  0.40269000  1
  Sr  Sr3  1  0.66666700  0.33333300  0.20339700  1
  Mg  Mg4  1  0.66666700  0.33333300  0.94806000  1
  Mg  Mg5  1  0.33333300  0.66666700  0.05194000  1
