# generated using pymatgen
data_YMg2
_symmetry_space_group_name_H-M   'P 1'
_cell_length_a   8.78042743
_cell_length_b   8.78042743
_cell_length_c   5.46681000
_cell_angle_alpha   90.00000000
_cell_angle_beta   90.00000000
_cell_angle_gamma   157.98794839
_symmetry_Int_Tables_number   1
_chemical_formula_structural   YMg2
_chemical_formula_sum   'Y2 Mg4'
_cell_volume   157.96713540
_cell_formula_units_Z   2
loop_
 _symmetry_equiv_pos_site_id
 _symmetry_equiv_pos_as_xyz
  1  'x, y, z'
loop_
 _atom_site_type_symbol
 _atom_site_label
 _atom_site_symmetry_multiplicity
 _atom_site_fract_x
 _atom_site_fract_y
 _atom_site_fract_z
 _atom_site_occupancy
  Y  Y0  1  0.89260900  0.10739100  0.25000000  1
  Y  Y1  1  0.10739100  0.89260900  0.75000000  1
  Mg  Mg2  1  0.55792500  0.44207500  0.25000000  1
  Mg  Mg3  1  0.22068400  0.77931700  0.25000000  1
  Mg  Mg4  1  0.77931700  0.22068400  0.75000000  1
  Mg  Mg5  1  0.44207500  0.55792500  0.75000000  1
