# generated using pymatgen
data_YMg2
_symmetry_space_group_name_H-M   'P 1'
_cell_length_a   3.33822778
_cell_length_b   3.33822778
_cell_length_c   16.60376300
_cell_angle_alpha   90.00000000
_cell_angle_beta   90.00000000
_cell_angle_gamma   119.99999568
_symmetry_Int_Tables_number   1
_chemical_formula_structural   YMg2
_chemical_formula_sum   'Y2 Mg4'
_cell_volume   160.23932641
_cell_formula_units_Z   2
loop_
 _symmetry_equiv_pos_site_id
 _symmetry_equiv_pos_as_xyz
  1  'x, y, z'
loop_
 _atom_site_type_symbol
 _atom_site_label
 _atom_site_symmetry_multiplicity
 _atom_site_fract_x
 _atom_site_fract_y
 _atom_site_fract_z
 _atom_site_occupancy
  Y  Y0  1  0.33333300  0.66666700  0.58938200  1
  Y  Y1  1  0.66666700  0.33333300  0.41061800  1
  Mg  Mg2  1  0.33333300  0.66666700  0.91932300  1
  Mg  Mg3  1  0.66666700  0.33333300  0.75998600  1
  Mg  Mg4  1  0.33333300  0.66666700  0.24001400  1
  Mg  Mg5  1  0.66666700  0.33333300  0.08067700  1
