# generated using pymatgen
data_YMg2
_symmetry_space_group_name_H-M   'P 1'
_cell_length_a   6.61463443
_cell_length_b   6.61463443
_cell_length_c   7.82297246
_cell_angle_alpha   75.18451392
_cell_angle_beta   75.18451392
_cell_angle_gamma   28.95261597
_symmetry_Int_Tables_number   1
_chemical_formula_structural   YMg2
_chemical_formula_sum   'Y2 Mg4'
_cell_volume   159.81122617
_cell_formula_units_Z   2
loop_
 _symmetry_equiv_pos_site_id
 _symmetry_equiv_pos_as_xyz
  1  'x, y, z'
loop_
 _atom_site_type_symbol
 _atom_site_label
 _atom_site_symmetry_multiplicity
 _atom_site_fract_x
 _atom_site_fract_y
 _atom_site_fract_z
 _atom_site_occupancy
  Y  Y0  1  0.81066700  0.81066700  0.63966400  1
  Y  Y1  1  0.18933300  0.18933300  0.36033600  1
  Mg  Mg2  1  0.13447800  0.13447800  0.97640100  1
  Mg  Mg3  1  0.53067300  0.53067300  0.70328100  1
  Mg  Mg4  1  0.46932700  0.46932700  0.29671900  1
  Mg  Mg5  1  0.86552200  0.86552200  0.02359900  1
