# generated using pymatgen
data_YMg
_symmetry_space_group_name_H-M   'P 1'
_cell_length_a   9.03209038
_cell_length_b   9.03209038
_cell_length_c   5.56154000
_cell_angle_alpha   90.00000000
_cell_angle_beta   90.00000000
_cell_angle_gamma   157.99179399
_symmetry_Int_Tables_number   1
_chemical_formula_structural   YMg
_chemical_formula_sum   'Y3 Mg3'
_cell_volume   170.02036779
_cell_formula_units_Z   3
loop_
 _symmetry_equiv_pos_site_id
 _symmetry_equiv_pos_as_xyz
  1  'x, y, z'
loop_
 _atom_site_type_symbol
 _atom_site_label
 _atom_site_symmetry_multiplicity
 _atom_site_fract_x
 _atom_site_fract_y
 _atom_site_fract_z
 _atom_site_occupancy
  Y  Y0  1  0.99938900  0.00061100  0.00000000  1
  Y  Y1  1  0.66779800  0.33220200  0.00000000  1
  Y  Y2  1  0.44448300  0.55551700  0.50000000  1
  Mg  Mg3  1  0.33357900  0.66642100  0.00000000  1
  Mg  Mg4  1  0.11130800  0.88869200  0.50000000  1
  Mg  Mg5  1  0.77677700  0.22322300  0.50000000  1
