# generated using pymatgen
data_Mg2Zn
_symmetry_space_group_name_H-M   'P 1'
_cell_length_a   7.88959486
_cell_length_b   7.88959486
_cell_length_c   4.89546600
_cell_angle_alpha   90.00000000
_cell_angle_beta   90.00000000
_cell_angle_gamma   157.21033215
_symmetry_Int_Tables_number   1
_chemical_formula_structural   Mg2Zn
_chemical_formula_sum   'Mg4 Zn2'
_cell_volume   118.03376613
_cell_formula_units_Z   2
loop_
 _symmetry_equiv_pos_site_id
 _symmetry_equiv_pos_as_xyz
  1  'x, y, z'
loop_
 _atom_site_type_symbol
 _atom_site_label
 _atom_site_symmetry_multiplicity
 _atom_site_fract_x
 _atom_site_fract_y
 _atom_site_fract_z
 _atom_site_occupancy
  Mg  Mg0  1  0.44509400  0.55490600  0.25000000  1
  Mg  Mg1  1  0.77515400  0.22484600  0.25000000  1
  Mg  Mg2  1  0.22484600  0.77515400  0.75000000  1
  Mg  Mg3  1  0.55490600  0.44509400  0.75000000  1
  Zn  Zn4  1  0.11181000  0.88819000  0.25000000  1
  Zn  Zn5  1  0.88819000  0.11181000  0.75000000  1
