# generated using pymatgen
data_Y3Mg
_symmetry_space_group_name_H-M   'P 1'
_cell_length_a   6.63093420
_cell_length_b   6.63093420
_cell_length_c   6.63093420
_cell_angle_alpha   148.29383219
_cell_angle_beta   126.85698931
_cell_angle_gamma   63.21946432
_symmetry_Int_Tables_number   1
_chemical_formula_structural   Y3Mg
_chemical_formula_sum   'Y3 Mg1'
_cell_volume   121.36334361
_cell_formula_units_Z   1
loop_
 _symmetry_equiv_pos_site_id
 _symmetry_equiv_pos_as_xyz
  1  'x, y, z'
loop_
 _atom_site_type_symbol
 _atom_site_label
 _atom_site_symmetry_multiplicity
 _atom_site_fract_x
 _atom_site_fract_y
 _atom_site_fract_z
 _atom_site_occupancy
  Y  Y0  1  0.84784600  0.50000000  0.34784600  1
  Y  Y1  1  0.25016600  0.25655900  0.99360800  1
  Y  Y2  1  0.73704900  0.74344100  0.99360800  1
  Mg  Mg3  1  0.33160500  0.00000000  0.33160500  1
