# generated using pymatgen
data_Sr5Mg
_symmetry_space_group_name_H-M   'P 1'
_cell_length_a   10.61800869
_cell_length_b   10.61800869
_cell_length_c   6.64819400
_cell_angle_alpha   90.00000000
_cell_angle_beta   90.00000000
_cell_angle_gamma   156.98154651
_symmetry_Int_Tables_number   1
_chemical_formula_structural   Sr5Mg
_chemical_formula_sum   'Sr5 Mg1'
_cell_volume   293.08745271
_cell_formula_units_Z   1
loop_
 _symmetry_equiv_pos_site_id
 _symmetry_equiv_pos_as_xyz
  1  'x, y, z'
loop_
 _atom_site_type_symbol
 _atom_site_label
 _atom_site_symmetry_multiplicity
 _atom_site_fract_x
 _atom_site_fract_y
 _atom_site_fract_z
 _atom_site_occupancy
  Sr  Sr0  1  0.99913900  0.00086100  0.00000000  1
  Sr  Sr1  1  0.32570500  0.67429500  0.00000000  1
  Sr  Sr2  1  0.66968000  0.33032000  0.00000000  1
  Sr  Sr3  1  0.43189700  0.56810300  0.50000000  1
  Sr  Sr4  1  0.12732300  0.87267600  0.50000000  1
  Mg  Mg5  1  0.77958900  0.22041100  0.50000000  1
