# generated using pymatgen
data_Mg2Sn
_symmetry_space_group_name_H-M   'P 1'
_cell_length_a   6.04184891
_cell_length_b   6.04184891
_cell_length_c   7.79145037
_cell_angle_alpha   72.54403508
_cell_angle_beta   72.54403508
_cell_angle_gamma   31.84204288
_symmetry_Int_Tables_number   1
_chemical_formula_structural   Mg2Sn
_chemical_formula_sum   'Mg4 Sn2'
_cell_volume   142.56605939
_cell_formula_units_Z   2
loop_
 _symmetry_equiv_pos_site_id
 _symmetry_equiv_pos_as_xyz
  1  'x, y, z'
loop_
 _atom_site_type_symbol
 _atom_site_label
 _atom_site_symmetry_multiplicity
 _atom_site_fract_x
 _atom_site_fract_y
 _atom_site_fract_z
 _atom_site_occupancy
  Mg  Mg0  1  0.81388200  0.81388200  0.13392000  1
  Mg  Mg1  1  0.14214300  0.14214300  0.47493300  1
  Mg  Mg2  1  0.85785700  0.85785700  0.52506700  1
  Mg  Mg3  1  0.18611800  0.18611800  0.86608000  1
  Sn  Sn4  1  0.53618500  0.53618500  0.20093300  1
  Sn  Sn5  1  0.46381500  0.46381500  0.79906700  1
