# generated using pymatgen
data_EuZnGe
_symmetry_space_group_name_H-M   'P 1'
_cell_length_a   4.28111805
_cell_length_b   4.28111805
_cell_length_c   17.12739700
_cell_angle_alpha   90.00000000
_cell_angle_beta   90.00000000
_cell_angle_gamma   120.00000074
_symmetry_Int_Tables_number   1
_chemical_formula_structural   EuZnGe
_chemical_formula_sum   'Eu4 Zn4 Ge4'
_cell_volume   271.85442063
_cell_formula_units_Z   4
loop_
 _symmetry_equiv_pos_site_id
 _symmetry_equiv_pos_as_xyz
  1  'x, y, z'
loop_
 _atom_site_type_symbol
 _atom_site_label
 _atom_site_symmetry_multiplicity
 _atom_site_fract_x
 _atom_site_fract_y
 _atom_site_fract_z
 _atom_site_occupancy
  Eu  Eu0  1  0.00000000  0.00000000  0.50000000  1
  Eu  Eu1  1  0.00000000  0.00000000  0.00000000  1
  Eu  Eu2  1  0.00000000  0.00000000  0.25000000  1
  Eu  Eu3  1  0.00000000  0.00000000  0.75000000  1
  Zn  Zn4  1  0.33333300  0.66666700  0.37468500  1
  Zn  Zn5  1  0.66666700  0.33333300  0.62531500  1
  Zn  Zn6  1  0.66666700  0.33333300  0.87468500  1
  Zn  Zn7  1  0.33333300  0.66666700  0.12531500  1
  Ge  Ge8  1  0.66666700  0.33333300  0.37599000  1
  Ge  Ge9  1  0.33333300  0.66666700  0.62401000  1
  Ge  Ge10  1  0.33333300  0.66666700  0.87599000  1
  Ge  Ge11  1  0.66666700  0.33333300  0.12401000  1
