# generated using pymatgen
data_Mg2Ga
_symmetry_space_group_name_H-M   'P 1'
_cell_length_a   5.28295401
_cell_length_b   5.28295401
_cell_length_c   6.05380262
_cell_angle_alpha   61.03933327
_cell_angle_beta   61.03933327
_cell_angle_gamma   61.27416841
_symmetry_Int_Tables_number   1
_chemical_formula_structural   Mg2Ga
_chemical_formula_sum   'Mg4 Ga2'
_cell_volume   122.47608517
_cell_formula_units_Z   2
loop_
 _symmetry_equiv_pos_site_id
 _symmetry_equiv_pos_as_xyz
  1  'x, y, z'
loop_
 _atom_site_type_symbol
 _atom_site_label
 _atom_site_symmetry_multiplicity
 _atom_site_fract_x
 _atom_site_fract_y
 _atom_site_fract_z
 _atom_site_occupancy
  Mg  Mg0  1  0.24264100  0.41693800  0.25205300  1
  Mg  Mg1  1  0.58306200  0.75735900  0.24794700  1
  Mg  Mg2  1  0.41693800  0.24264100  0.75205300  1
  Mg  Mg3  1  0.75735900  0.58306200  0.74794700  1
  Ga  Ga4  1  0.08147400  0.91852600  0.75000000  1
  Ga  Ga5  1  0.91852600  0.08147400  0.25000000  1
