# generated using pymatgen
data_MgGa3
_symmetry_space_group_name_H-M   'P 1'
_cell_length_a   5.49300522
_cell_length_b   5.49300522
_cell_length_c   5.49300522
_cell_angle_alpha   146.00301693
_cell_angle_beta   121.63791482
_cell_angle_gamma   69.29132778
_symmetry_Int_Tables_number   1
_chemical_formula_structural   MgGa3
_chemical_formula_sum   'Mg1 Ga3'
_cell_volume   77.74249465
_cell_formula_units_Z   1
loop_
 _symmetry_equiv_pos_site_id
 _symmetry_equiv_pos_as_xyz
  1  'x, y, z'
loop_
 _atom_site_type_symbol
 _atom_site_label
 _atom_site_symmetry_multiplicity
 _atom_site_fract_x
 _atom_site_fract_y
 _atom_site_fract_z
 _atom_site_occupancy
  Mg  Mg0  1  0.16439200  0.50000000  0.66439200  1
  Ga  Ga1  1  0.66168700  0.00000000  0.66168700  1
  Ga  Ga2  1  0.75130700  0.74767900  0.00362700  1
  Ga  Ga3  1  0.25594800  0.25232100  0.00362700  1
