# generated using pymatgen
data_Mg5Cd
_symmetry_space_group_name_H-M   'P 1'
_cell_length_a   6.02776434
_cell_length_b   6.02776434
_cell_length_c   7.45480298
_cell_angle_alpha   76.05598216
_cell_angle_beta   76.05598216
_cell_angle_gamma   30.76711666
_symmetry_Int_Tables_number   1
_chemical_formula_structural   Mg5Cd
_chemical_formula_sum   'Mg5 Cd1'
_cell_volume   134.16232227
_cell_formula_units_Z   1
loop_
 _symmetry_equiv_pos_site_id
 _symmetry_equiv_pos_as_xyz
  1  'x, y, z'
loop_
 _atom_site_type_symbol
 _atom_site_label
 _atom_site_symmetry_multiplicity
 _atom_site_fract_x
 _atom_site_fract_y
 _atom_site_fract_z
 _atom_site_occupancy
  Mg  Mg0  1  0.00080300  0.00080300  0.00030300  1
  Mg  Mg1  1  0.33248800  0.33248800  0.33299200  1
  Mg  Mg2  1  0.94521600  0.94521600  0.60954700  1
  Mg  Mg3  1  0.66689200  0.66689200  0.66637800  1
  Mg  Mg4  1  0.27731800  0.27731800  0.94563300  1
  Cd  Cd5  1  0.61061600  0.61061600  0.27848000  1
