# generated using pymatgen
data_Ca3Mg4Zn11
_symmetry_space_group_name_H-M   'P 1'
_cell_length_a   9.34448887
_cell_length_b   9.34448887
_cell_length_c   9.35371000
_cell_angle_alpha   90.00000000
_cell_angle_beta   90.00000000
_cell_angle_gamma   120.00000617
_symmetry_Int_Tables_number   1
_chemical_formula_structural   Ca3Mg4Zn11
_chemical_formula_sum   'Ca6 Mg8 Zn22'
_cell_volume   707.33574902
_cell_formula_units_Z   2
loop_
 _symmetry_equiv_pos_site_id
 _symmetry_equiv_pos_as_xyz
  1  'x, y, z'
loop_
 _atom_site_type_symbol
 _atom_site_label
 _atom_site_symmetry_multiplicity
 _atom_site_fract_x
 _atom_site_fract_y
 _atom_site_fract_z
 _atom_site_occupancy
  Ca  Ca0  1  0.80029600  0.19970400  0.25000000  1
  Ca  Ca1  1  0.19970400  0.39940800  0.75000000  1
  Ca  Ca2  1  0.60059200  0.80029600  0.75000000  1
  Ca  Ca3  1  0.39940800  0.19970400  0.25000000  1
  Ca  Ca4  1  0.80029600  0.60059200  0.25000000  1
  Ca  Ca5  1  0.19970400  0.80029600  0.75000000  1
  Mg  Mg6  1  0.00000000  0.00000000  0.25000000  1
  Mg  Mg7  1  0.50000000  0.50000000  0.00000000  1
  Mg  Mg8  1  0.50000000  0.00000000  0.50000000  1
  Mg  Mg9  1  0.00000000  0.50000000  0.50000000  1
  Mg  Mg10  1  0.00000000  0.50000000  0.00000000  1
  Mg  Mg11  1  0.50000000  0.00000000  0.00000000  1
  Mg  Mg12  1  0.50000000  0.50000000  0.50000000  1
  Mg  Mg13  1  0.00000000  0.00000000  0.75000000  1
  Zn  Zn14  1  0.84589400  0.15410600  0.91161200  1
  Zn  Zn15  1  0.69178900  0.84589400  0.08838800  1
  Zn  Zn16  1  0.15410600  0.84589400  0.08838800  1
  Zn  Zn17  1  0.15410600  0.30821100  0.08838800  1
  Zn  Zn18  1  0.30821100  0.15410600  0.58838800  1
  Zn  Zn19  1  0.42718500  0.85437000  0.25000000  1
  Zn  Zn20  1  0.14563000  0.57281500  0.25000000  1
  Zn  Zn21  1  0.85437000  0.42718500  0.75000000  1
  Zn  Zn22  1  0.57281500  0.14563000  0.75000000  1
  Zn  Zn23  1  0.42718500  0.57281500  0.25000000  1
  Zn  Zn24  1  0.33333300  0.66666700  0.00716100  1
  Zn  Zn25  1  0.66666700  0.33333300  0.50716100  1
  Zn  Zn26  1  0.66666700  0.33333300  0.99283900  1
  Zn  Zn27  1  0.33333300  0.66666700  0.49283900  1
  Zn  Zn28  1  0.84589400  0.69178900  0.58838800  1
  Zn  Zn29  1  0.84589400  0.15410600  0.58838800  1
  Zn  Zn30  1  0.15410600  0.30821100  0.41161200  1
  Zn  Zn31  1  0.69178900  0.84589400  0.41161200  1
  Zn  Zn32  1  0.30821100  0.15410600  0.91161200  1
  Zn  Zn33  1  0.84589400  0.69178900  0.91161200  1
  Zn  Zn34  1  0.15410600  0.84589400  0.41161200  1
  Zn  Zn35  1  0.57281500  0.42718500  0.75000000  1
