# generated using pymatgen
data_Mg3Ga
_symmetry_space_group_name_H-M   'P 1'
_cell_length_a   3.17147892
_cell_length_b   3.17147892
_cell_length_c   9.77603000
_cell_angle_alpha   90.00000000
_cell_angle_beta   90.00000000
_cell_angle_gamma   119.99997746
_symmetry_Int_Tables_number   1
_chemical_formula_structural   Mg3Ga
_chemical_formula_sum   'Mg3 Ga1'
_cell_volume   85.15632564
_cell_formula_units_Z   1
loop_
 _symmetry_equiv_pos_site_id
 _symmetry_equiv_pos_as_xyz
  1  'x, y, z'
loop_
 _atom_site_type_symbol
 _atom_site_label
 _atom_site_symmetry_multiplicity
 _atom_site_fract_x
 _atom_site_fract_y
 _atom_site_fract_z
 _atom_site_occupancy
  Mg  Mg0  1  0.66666700  0.33333300  0.00000000  1
  Mg  Mg1  1  0.00000000  0.00000000  0.74246600  1
  Mg  Mg2  1  0.00000000  0.00000000  0.25753400  1
  Ga  Ga3  1  0.66666700  0.33333300  0.50000000  1
