# generated using pymatgen
data_CeMg2
_symmetry_space_group_name_H-M   'P 1'
_cell_length_a   8.62328353
_cell_length_b   8.62328353
_cell_length_c   5.65591000
_cell_angle_alpha   90.00000000
_cell_angle_beta   90.00000000
_cell_angle_gamma   158.98812844
_symmetry_Int_Tables_number   1
_chemical_formula_structural   CeMg2
_chemical_formula_sum   'Ce2 Mg4'
_cell_volume   150.80346807
_cell_formula_units_Z   2
loop_
 _symmetry_equiv_pos_site_id
 _symmetry_equiv_pos_as_xyz
  1  'x, y, z'
loop_
 _atom_site_type_symbol
 _atom_site_label
 _atom_site_symmetry_multiplicity
 _atom_site_fract_x
 _atom_site_fract_y
 _atom_site_fract_z
 _atom_site_occupancy
  Ce  Ce0  1  0.12353400  0.87646600  0.50000000  1
  Ce  Ce1  1  0.76589100  0.23410900  0.50000000  1
  Mg  Mg2  1  0.99846900  0.00153100  0.00000000  1
  Mg  Mg3  1  0.33327000  0.66673000  0.00000000  1
  Mg  Mg4  1  0.66759600  0.33240400  0.00000000  1
  Mg  Mg5  1  0.44457300  0.55542700  0.50000000  1
