# generated using pymatgen
data_Mg2Cd
_symmetry_space_group_name_H-M   'P 1'
_cell_length_a   6.08861252
_cell_length_b   6.08861252
_cell_length_c   6.08861260
_cell_angle_alpha   52.77742054
_cell_angle_beta   52.77742054
_cell_angle_gamma   52.77742761
_symmetry_Int_Tables_number   1
_chemical_formula_structural   Mg2Cd
_chemical_formula_sum   'Mg4 Cd2'
_cell_volume   132.56438199
_cell_formula_units_Z   2
loop_
 _symmetry_equiv_pos_site_id
 _symmetry_equiv_pos_as_xyz
  1  'x, y, z'
loop_
 _atom_site_type_symbol
 _atom_site_label
 _atom_site_symmetry_multiplicity
 _atom_site_fract_x
 _atom_site_fract_y
 _atom_site_fract_z
 _atom_site_occupancy
  Mg  Mg0  1  0.00000000  0.66781300  0.33218700  1
  Mg  Mg1  1  0.66781300  0.33218700  0.00000000  1
  Mg  Mg2  1  0.50000000  0.50000000  0.50000000  1
  Mg  Mg3  1  0.33218700  0.00000000  0.66781300  1
  Cd  Cd4  1  0.83417200  0.83417200  0.83417200  1
  Cd  Cd5  1  0.16582800  0.16582800  0.16582800  1
