# generated using pymatgen
data_CaNiGeH
_symmetry_space_group_name_H-M   'P 1'
_cell_length_a   4.01625600
_cell_length_b   4.01625600
_cell_length_c   7.80025200
_cell_angle_alpha   90.00000000
_cell_angle_beta   90.00000000
_cell_angle_gamma   90.00000000
_symmetry_Int_Tables_number   1
_chemical_formula_structural   CaNiGeH
_chemical_formula_sum   'Ca2 Ni2 Ge2 H2'
_cell_volume   125.82050045
_cell_formula_units_Z   2
loop_
 _symmetry_equiv_pos_site_id
 _symmetry_equiv_pos_as_xyz
  1  'x, y, z'
loop_
 _atom_site_type_symbol
 _atom_site_label
 _atom_site_symmetry_multiplicity
 _atom_site_fract_x
 _atom_site_fract_y
 _atom_site_fract_z
 _atom_site_occupancy
  Ca  Ca0  1  0.00000000  0.50000000  0.84857400  1
  Ca  Ca1  1  0.50000000  0.00000000  0.15142600  1
  Ni  Ni2  1  0.00000000  0.00000000  0.50000000  1
  Ni  Ni3  1  0.50000000  0.50000000  0.50000000  1
  Ge  Ge4  1  0.00000000  0.50000000  0.34299500  1
  Ge  Ge5  1  0.50000000  0.00000000  0.65700500  1
  H  H6  1  0.00000000  0.00000000  0.00000000  1
  H  H7  1  0.50000000  0.50000000  0.00000000  1
