# generated using pymatgen
data_Pt(Cl3O)2
_symmetry_space_group_name_H-M   'P 1'
_cell_length_a   6.49686882
_cell_length_b   6.49686882
_cell_length_c   6.49686882
_cell_angle_alpha   60.00000000
_cell_angle_beta   60.00000000
_cell_angle_gamma   60.00000000
_symmetry_Int_Tables_number   1
_chemical_formula_structural   Pt(Cl3O)2
_chemical_formula_sum   'Pt1 Cl6 O2'
_cell_volume   193.90870060
_cell_formula_units_Z   1
loop_
 _symmetry_equiv_pos_site_id
 _symmetry_equiv_pos_as_xyz
  1  'x, y, z'
loop_
 _atom_site_type_symbol
 _atom_site_label
 _atom_site_symmetry_multiplicity
 _atom_site_fract_x
 _atom_site_fract_y
 _atom_site_fract_z
 _atom_site_occupancy
  Pt  Pt0  1  0.00000000  0.00000000  0.00000000  1
  Cl  Cl1  1  0.75037800  0.75037800  0.24962200  1
  Cl  Cl2  1  0.24962200  0.75037800  0.24962200  1
  Cl  Cl3  1  0.75037800  0.24962200  0.24962200  1
  Cl  Cl4  1  0.24962200  0.24962200  0.75037800  1
  Cl  Cl5  1  0.75037800  0.24962200  0.75037800  1
  Cl  Cl6  1  0.24962200  0.75037800  0.75037800  1
  O  O7  1  0.75000000  0.75000000  0.75000000  1
  O  O8  1  0.25000000  0.25000000  0.25000000  1
