# generated using pymatgen
data_K2Mg(CO3)2
_symmetry_space_group_name_H-M   'P 1'
_cell_length_a   5.20511638
_cell_length_b   5.20511638
_cell_length_c   6.72959647
_cell_angle_alpha   65.53840763
_cell_angle_beta   65.53840763
_cell_angle_gamma   60.28119767
_symmetry_Int_Tables_number   1
_chemical_formula_structural   K2Mg(CO3)2
_chemical_formula_sum   'K2 Mg1 C2 O6'
_cell_volume   139.01292885
_cell_formula_units_Z   1
loop_
 _symmetry_equiv_pos_site_id
 _symmetry_equiv_pos_as_xyz
  1  'x, y, z'
loop_
 _atom_site_type_symbol
 _atom_site_label
 _atom_site_symmetry_multiplicity
 _atom_site_fract_x
 _atom_site_fract_y
 _atom_site_fract_z
 _atom_site_occupancy
  K  K0  1  0.78429100  0.78429100  0.63804900  1
  K  K1  1  0.21570900  0.21570900  0.36195100  1
  Mg  Mg2  1  0.00000000  0.00000000  0.00000000  1
  C  C3  1  0.39625600  0.39625600  0.79197500  1
  C  C4  1  0.60374400  0.60374400  0.20802500  1
  O  O5  1  0.26180000  0.26180000  0.76548100  1
  O  O6  1  0.73820000  0.73820000  0.23451900  1
  O  O7  1  0.24843700  0.68103400  0.79963300  1
  O  O8  1  0.68103400  0.24843700  0.79963300  1
  O  O9  1  0.75156300  0.31896600  0.20036700  1
  O  O10  1  0.31896600  0.75156300  0.20036700  1
