# generated using pymatgen
data_NdAsO4
_symmetry_space_group_name_H-M   'P 1'
_cell_length_a   6.92381982
_cell_length_b   6.92381982
_cell_length_c   6.92381982
_cell_angle_alpha   136.12912614
_cell_angle_beta   136.12912614
_cell_angle_gamma   63.78076726
_symmetry_Int_Tables_number   1
_chemical_formula_structural   NdAsO4
_chemical_formula_sum   'Nd2 As2 O8'
_cell_volume   157.31140743
_cell_formula_units_Z   2
loop_
 _symmetry_equiv_pos_site_id
 _symmetry_equiv_pos_as_xyz
  1  'x, y, z'
loop_
 _atom_site_type_symbol
 _atom_site_label
 _atom_site_symmetry_multiplicity
 _atom_site_fract_x
 _atom_site_fract_y
 _atom_site_fract_z
 _atom_site_occupancy
  Nd  Nd0  1  0.75000000  0.25000000  0.50000000  1
  Nd  Nd1  1  0.00000000  0.00000000  0.00000000  1
  As  As2  1  0.25000000  0.75000000  0.50000000  1
  As  As3  1  0.50000000  0.50000000  0.00000000  1
  O  O4  1  0.30938000  0.92140400  0.88588600  1
  O  O5  1  0.03551800  0.42349400  0.11411400  1
  O  O6  1  0.17349400  0.55938000  0.88797600  1
  O  O7  1  0.67140400  0.28551800  0.11202400  1
  O  O8  1  0.44062000  0.32859600  0.61411400  1
  O  O9  1  0.71448200  0.82650600  0.38588600  1
  O  O10  1  0.57650600  0.69062000  0.61202400  1
  O  O11  1  0.07859600  0.96448200  0.38797600  1
