# generated using pymatgen
data_WBr5
_symmetry_space_group_name_H-M   'P 1'
_cell_length_a   6.89413127
_cell_length_b   7.43966522
_cell_length_c   9.98428513
_cell_angle_alpha   109.82231896
_cell_angle_beta   90.84693092
_cell_angle_gamma   116.19844979
_symmetry_Int_Tables_number   1
_chemical_formula_structural   WBr5
_chemical_formula_sum   'W2 Br10'
_cell_volume   423.97509043
_cell_formula_units_Z   2
loop_
 _symmetry_equiv_pos_site_id
 _symmetry_equiv_pos_as_xyz
  1  'x, y, z'
loop_
 _atom_site_type_symbol
 _atom_site_label
 _atom_site_symmetry_multiplicity
 _atom_site_fract_x
 _atom_site_fract_y
 _atom_site_fract_z
 _atom_site_occupancy
  W  W0  1  0.89827000  0.28863600  0.78566600  1
  W  W1  1  0.10173000  0.71136400  0.21433400  1
  Br  Br2  1  0.23127600  0.67773200  0.95843000  1
  Br  Br3  1  0.76872400  0.32226800  0.04157000  1
  Br  Br4  1  0.57309800  0.93712800  0.66622500  1
  Br  Br5  1  0.42690200  0.06287200  0.33377500  1
  Br  Br6  1  0.06329900  0.31305000  0.57444100  1
  Br  Br7  1  0.93670100  0.68695000  0.42555900  1
  Br  Br8  1  0.11343300  0.13179000  0.85066800  1
  Br  Br9  1  0.88656700  0.86821000  0.14933200  1
  Br  Br10  1  0.70552000  0.48700200  0.75775100  1
  Br  Br11  1  0.29448000  0.51299800  0.24224900  1
