# generated using pymatgen
data_AgMoH4S4N
_symmetry_space_group_name_H-M   'P 1'
_cell_length_a   6.53707979
_cell_length_b   6.53707979
_cell_length_c   6.53707979
_cell_angle_alpha   101.62686993
_cell_angle_beta   101.62686993
_cell_angle_gamma   126.65001310
_symmetry_Int_Tables_number   1
_chemical_formula_structural   AgMoH4S4N
_chemical_formula_sum   'Ag1 Mo1 H4 S4 N1'
_cell_volume   200.26898591
_cell_formula_units_Z   1
loop_
 _symmetry_equiv_pos_site_id
 _symmetry_equiv_pos_as_xyz
  1  'x, y, z'
loop_
 _atom_site_type_symbol
 _atom_site_label
 _atom_site_symmetry_multiplicity
 _atom_site_fract_x
 _atom_site_fract_y
 _atom_site_fract_z
 _atom_site_occupancy
  Ag  Ag0  1  0.25000000  0.75000000  0.50000000  1
  Mo  Mo1  1  0.75000000  0.25000000  0.50000000  1
  H  H2  1  0.63285200  0.69833500  0.13105800  1
  H  H3  1  0.56727700  0.50179400  0.86894200  1
  H  H4  1  0.49820600  0.36714800  0.06548300  1
  H  H5  1  0.30166500  0.43272300  0.93451700  1
  S  S6  1  0.73946400  0.92908300  0.57896100  1
  S  S7  1  0.35012200  0.16050300  0.42103900  1
  S  S8  1  0.83949700  0.26053600  0.18961900  1
  S  S9  1  0.07091700  0.64987800  0.81038100  1
  N  N10  1  0.50000000  0.50000000  0.00000000  1
