# generated using pymatgen
data_BaReH9
_symmetry_space_group_name_H-M   'P 1'
_cell_length_a   4.79789918
_cell_length_b   4.79789918
_cell_length_c   4.79789960
_cell_angle_alpha   95.33893974
_cell_angle_beta   95.33893974
_cell_angle_gamma   95.33892833
_symmetry_Int_Tables_number   1
_chemical_formula_structural   BaReH9
_chemical_formula_sum   'Ba1 Re1 H9'
_cell_volume   108.91290040
_cell_formula_units_Z   1
loop_
 _symmetry_equiv_pos_site_id
 _symmetry_equiv_pos_as_xyz
  1  'x, y, z'
loop_
 _atom_site_type_symbol
 _atom_site_label
 _atom_site_symmetry_multiplicity
 _atom_site_fract_x
 _atom_site_fract_y
 _atom_site_fract_z
 _atom_site_occupancy
  Ba  Ba0  1  0.00000000  0.00000000  0.00000000  1
  Re  Re1  1  0.50000000  0.50000000  0.50000000  1
  H  H2  1  0.50000000  0.73654300  0.26345700  1
  H  H3  1  0.73654300  0.26345700  0.50000000  1
  H  H4  1  0.26345700  0.50000000  0.73654300  1
  H  H5  1  0.48296600  0.82198600  0.67572900  1
  H  H6  1  0.32427100  0.17801400  0.51703400  1
  H  H7  1  0.82198600  0.67572900  0.48296600  1
  H  H8  1  0.17801400  0.51703400  0.32427100  1
  H  H9  1  0.67572900  0.48296600  0.82198600  1
  H  H10  1  0.51703400  0.32427100  0.17801400  1
