# generated using pymatgen
data_HfCuGe
_symmetry_space_group_name_H-M   'P 1'
_cell_length_a   3.99326900
_cell_length_b   6.49499500
_cell_length_c   7.46322800
_cell_angle_alpha   90.00000000
_cell_angle_beta   90.00000000
_cell_angle_gamma   90.00000000
_symmetry_Int_Tables_number   1
_chemical_formula_structural   HfCuGe
_chemical_formula_sum   'Hf4 Cu4 Ge4'
_cell_volume   193.56823818
_cell_formula_units_Z   4
loop_
 _symmetry_equiv_pos_site_id
 _symmetry_equiv_pos_as_xyz
  1  'x, y, z'
loop_
 _atom_site_type_symbol
 _atom_site_label
 _atom_site_symmetry_multiplicity
 _atom_site_fract_x
 _atom_site_fract_y
 _atom_site_fract_z
 _atom_site_occupancy
  Hf  Hf0  1  0.25000000  0.01635000  0.80654000  1
  Hf  Hf1  1  0.25000000  0.51635000  0.69346000  1
  Hf  Hf2  1  0.75000000  0.98365000  0.19346000  1
  Hf  Hf3  1  0.75000000  0.48365000  0.30654000  1
  Cu  Cu4  1  0.25000000  0.16408000  0.42856500  1
  Cu  Cu5  1  0.25000000  0.66408000  0.07143500  1
  Cu  Cu6  1  0.75000000  0.83592000  0.57143500  1
  Cu  Cu7  1  0.75000000  0.33592000  0.92856500  1
  Ge  Ge8  1  0.25000000  0.77052300  0.39278500  1
  Ge  Ge9  1  0.25000000  0.27052300  0.10721500  1
  Ge  Ge10  1  0.75000000  0.22947700  0.60721500  1
  Ge  Ge11  1  0.75000000  0.72947700  0.89278500  1
