# generated using pymatgen
data_Ca2BAsO8
_symmetry_space_group_name_H-M   'P 1'
_cell_length_a   5.95530455
_cell_length_b   5.95530455
_cell_length_c   5.95530455
_cell_angle_alpha   106.40062392
_cell_angle_beta   106.40062392
_cell_angle_gamma   115.80414263
_symmetry_Int_Tables_number   1
_chemical_formula_structural   Ca2BAsO8
_chemical_formula_sum   'Ca2 B1 As1 O8'
_cell_volume   161.08267063
_cell_formula_units_Z   1
loop_
 _symmetry_equiv_pos_site_id
 _symmetry_equiv_pos_as_xyz
  1  'x, y, z'
loop_
 _atom_site_type_symbol
 _atom_site_label
 _atom_site_symmetry_multiplicity
 _atom_site_fract_x
 _atom_site_fract_y
 _atom_site_fract_z
 _atom_site_occupancy
  Ca  Ca0  1  0.50000000  0.50000000  0.00000000  1
  Ca  Ca1  1  0.75000000  0.25000000  0.50000000  1
  B  B2  1  0.25000000  0.75000000  0.50000000  1
  As  As3  1  0.00000000  0.00000000  0.00000000  1
  O  O4  1  0.98879200  0.19992600  0.84253300  1
  O  O5  1  0.35739200  0.14625800  0.15746700  1
  O  O6  1  0.85374200  0.01120800  0.21113400  1
  O  O7  1  0.80007400  0.64260800  0.78886600  1
  O  O8  1  0.95384000  0.59682900  0.31395000  1
  O  O9  1  0.28287900  0.63989000  0.68605000  1
  O  O10  1  0.36011000  0.04616000  0.64298900  1
  O  O11  1  0.40317100  0.71712100  0.35701100  1
