# generated using pymatgen
data_PrP2
_symmetry_space_group_name_H-M   'P 1'
_cell_length_a   6.61634700
_cell_length_b   4.07274300
_cell_length_c   10.24200899
_cell_angle_alpha   74.34321293
_cell_angle_beta   90.00000000
_cell_angle_gamma   90.00000000
_symmetry_Int_Tables_number   1
_chemical_formula_structural   PrP2
_chemical_formula_sum   'Pr4 P8'
_cell_volume   265.74776313
_cell_formula_units_Z   4
loop_
 _symmetry_equiv_pos_site_id
 _symmetry_equiv_pos_as_xyz
  1  'x, y, z'
loop_
 _atom_site_type_symbol
 _atom_site_label
 _atom_site_symmetry_multiplicity
 _atom_site_fract_x
 _atom_site_fract_y
 _atom_site_fract_z
 _atom_site_occupancy
  Pr  Pr0  1  0.31577400  0.08260100  0.13986100  1
  Pr  Pr1  1  0.81577400  0.91739900  0.36013900  1
  Pr  Pr2  1  0.68422600  0.91739900  0.86013900  1
  Pr  Pr3  1  0.18422600  0.08260100  0.63986100  1
  P  P4  1  0.66189600  0.53396800  0.16466000  1
  P  P5  1  0.16189600  0.46603200  0.33534000  1
  P  P6  1  0.33810400  0.46603200  0.83534000  1
  P  P7  1  0.83810400  0.53396800  0.66466000  1
  P  P8  1  0.37874100  0.69564200  0.45254500  1
  P  P9  1  0.87874100  0.30435800  0.04745500  1
  P  P10  1  0.62125900  0.30435800  0.54745500  1
  P  P11  1  0.12125900  0.69564200  0.95254500  1
