# generated using pymatgen
data_YbAlB4
_symmetry_space_group_name_H-M   'P 1'
_cell_length_a   5.99509825
_cell_length_b   5.99509825
_cell_length_c   3.47221200
_cell_angle_alpha   90.00000000
_cell_angle_beta   90.00000000
_cell_angle_gamma   103.97212777
_symmetry_Int_Tables_number   1
_chemical_formula_structural   YbAlB4
_chemical_formula_sum   'Yb2 Al2 B8'
_cell_volume   121.10318999
_cell_formula_units_Z   2
loop_
 _symmetry_equiv_pos_site_id
 _symmetry_equiv_pos_as_xyz
  1  'x, y, z'
loop_
 _atom_site_type_symbol
 _atom_site_label
 _atom_site_symmetry_multiplicity
 _atom_site_fract_x
 _atom_site_fract_y
 _atom_site_fract_z
 _atom_site_occupancy
  Yb  Yb0  1  0.30066700  0.69933300  0.00000000  1
  Yb  Yb1  1  0.69933300  0.30066700  0.00000000  1
  Al  Al2  1  0.18318600  0.18318600  0.00000000  1
  Al  Al3  1  0.81681400  0.81681400  0.00000000  1
  B  B4  1  0.38111200  0.06331500  0.50000000  1
  B  B5  1  0.61888800  0.93668500  0.50000000  1
  B  B6  1  0.06331500  0.38111200  0.50000000  1
  B  B7  1  0.93668500  0.61888800  0.50000000  1
  B  B8  1  0.62153900  0.62153900  0.50000000  1
  B  B9  1  0.37846100  0.37846100  0.50000000  1
  B  B10  1  0.09191800  0.90808200  0.50000000  1
  B  B11  1  0.90808200  0.09191800  0.50000000  1
