# generated using pymatgen
data_CsNa2
_symmetry_space_group_name_H-M   'P 1'
_cell_length_a   7.72482998
_cell_length_b   7.72482998
_cell_length_c   12.73087100
_cell_angle_alpha   90.00000000
_cell_angle_beta   90.00000000
_cell_angle_gamma   119.99999985
_symmetry_Int_Tables_number   1
_chemical_formula_structural   CsNa2
_chemical_formula_sum   'Cs4 Na8'
_cell_volume   657.91018445
_cell_formula_units_Z   4
loop_
 _symmetry_equiv_pos_site_id
 _symmetry_equiv_pos_as_xyz
  1  'x, y, z'
loop_
 _atom_site_type_symbol
 _atom_site_label
 _atom_site_symmetry_multiplicity
 _atom_site_fract_x
 _atom_site_fract_y
 _atom_site_fract_z
 _atom_site_occupancy
  Cs  Cs0  1  0.33333300  0.66666700  0.43666500  1
  Cs  Cs1  1  0.66666700  0.33333300  0.56333500  1
  Cs  Cs2  1  0.66666700  0.33333300  0.93666500  1
  Cs  Cs3  1  0.33333300  0.66666700  0.06333500  1
  Na  Na4  1  0.00000000  0.00000000  0.50000000  1
  Na  Na5  1  0.00000000  0.00000000  0.00000000  1
  Na  Na6  1  0.83200700  0.16799300  0.25000000  1
  Na  Na7  1  0.83200700  0.66401400  0.25000000  1
  Na  Na8  1  0.33598600  0.16799300  0.25000000  1
  Na  Na9  1  0.16799300  0.83200700  0.75000000  1
  Na  Na10  1  0.16799300  0.33598600  0.75000000  1
  Na  Na11  1  0.66401400  0.83200700  0.75000000  1
