# generated using pymatgen
data_LaMg2
_symmetry_space_group_name_H-M   'P 1'
_cell_length_a   6.27910437
_cell_length_b   6.27910437
_cell_length_c   9.87530800
_cell_angle_alpha   90.00000000
_cell_angle_beta   90.00000000
_cell_angle_gamma   120.00000386
_symmetry_Int_Tables_number   1
_chemical_formula_structural   LaMg2
_chemical_formula_sum   'La4 Mg8'
_cell_volume   337.19153837
_cell_formula_units_Z   4
loop_
 _symmetry_equiv_pos_site_id
 _symmetry_equiv_pos_as_xyz
  1  'x, y, z'
loop_
 _atom_site_type_symbol
 _atom_site_label
 _atom_site_symmetry_multiplicity
 _atom_site_fract_x
 _atom_site_fract_y
 _atom_site_fract_z
 _atom_site_occupancy
  La  La0  1  0.33333300  0.66666700  0.41882800  1
  La  La1  1  0.66666700  0.33333300  0.58117200  1
  La  La2  1  0.66666700  0.33333300  0.91882800  1
  La  La3  1  0.33333300  0.66666700  0.08117200  1
  Mg  Mg4  1  0.00000000  0.00000000  0.50000000  1
  Mg  Mg5  1  0.00000000  0.00000000  0.00000000  1
  Mg  Mg6  1  0.83044400  0.16955600  0.25000000  1
  Mg  Mg7  1  0.83044400  0.66088700  0.25000000  1
  Mg  Mg8  1  0.33911300  0.16955600  0.25000000  1
  Mg  Mg9  1  0.16955600  0.83044400  0.75000000  1
  Mg  Mg10  1  0.16955600  0.33911300  0.75000000  1
  Mg  Mg11  1  0.66088700  0.83044400  0.75000000  1
