# generated using pymatgen
data_SrMgCd2
_symmetry_space_group_name_H-M   'P 1'
_cell_length_a   13.63747624
_cell_length_b   13.63747624
_cell_length_c   13.63747624
_cell_angle_alpha   120.41206083
_cell_angle_beta   118.81805147
_cell_angle_gamma   90.67352452
_symmetry_Int_Tables_number   1
_chemical_formula_structural   SrMgCd2
_chemical_formula_sum   'Sr1 Mg1 Cd2'
_cell_volume   1803.31072333
_cell_formula_units_Z   1
loop_
 _symmetry_equiv_pos_site_id
 _symmetry_equiv_pos_as_xyz
  1  'x, y, z'
loop_
 _atom_site_type_symbol
 _atom_site_label
 _atom_site_symmetry_multiplicity
 _atom_site_fract_x
 _atom_site_fract_y
 _atom_site_fract_z
 _atom_site_occupancy
  Sr  Sr0  1  0.50000000  0.00000000  0.50000000  1
  Mg  Mg1  1  0.00000000  0.00000000  0.00000000  1
  Cd  Cd2  1  0.76542300  0.00000000  0.76542300  1
  Cd  Cd3  1  0.23457700  0.00000000  0.23457700  1
