# generated using pymatgen
data_Cs2RbSb
_symmetry_space_group_name_H-M   'P 1'
_cell_length_a   15.99839615
_cell_length_b   15.99839615
_cell_length_c   15.99839615
_cell_angle_alpha   121.14051463
_cell_angle_beta   116.34855461
_cell_angle_gamma   92.23685534
_symmetry_Int_Tables_number   1
_chemical_formula_structural   Cs2RbSb
_chemical_formula_sum   'Cs2 Rb1 Sb1'
_cell_volume   2941.80458030
_cell_formula_units_Z   1
loop_
 _symmetry_equiv_pos_site_id
 _symmetry_equiv_pos_as_xyz
  1  'x, y, z'
loop_
 _atom_site_type_symbol
 _atom_site_label
 _atom_site_symmetry_multiplicity
 _atom_site_fract_x
 _atom_site_fract_y
 _atom_site_fract_z
 _atom_site_occupancy
  Cs  Cs0  1  0.28749900  0.00000000  0.28749900  1
  Cs  Cs1  1  0.71250100  0.00000000  0.71250100  1
  Rb  Rb2  1  0.00000000  0.00000000  0.00000000  1
  Sb  Sb3  1  0.50000000  0.00000000  0.50000000  1
