# generated using pymatgen
data_CuNiPd2
_symmetry_space_group_name_H-M   'P 1'
_cell_length_a   9.42641984
_cell_length_b   9.40471093
_cell_length_c   9.40471052
_cell_angle_alpha   59.07409680
_cell_angle_beta   59.92360906
_cell_angle_gamma   59.92360933
_symmetry_Int_Tables_number   1
_chemical_formula_structural   CuNiPd2
_chemical_formula_sum   'Cu1 Ni1 Pd2'
_cell_volume   584.64972197
_cell_formula_units_Z   1
loop_
 _symmetry_equiv_pos_site_id
 _symmetry_equiv_pos_as_xyz
  1  'x, y, z'
loop_
 _atom_site_type_symbol
 _atom_site_label
 _atom_site_symmetry_multiplicity
 _atom_site_fract_x
 _atom_site_fract_y
 _atom_site_fract_z
 _atom_site_occupancy
  Cu  Cu0  1  0.50000000  0.00000000  0.00000000  1
  Ni  Ni1  1  0.00000000  0.00000000  0.00000000  1
  Pd  Pd2  1  0.75795500  0.00000000  0.00000000  1
  Pd  Pd3  1  0.24204500  0.00000000  0.00000000  1
