# generated using pymatgen
data_Tl2HgTe
_symmetry_space_group_name_H-M   'P 1'
_cell_length_a   12.68795024
_cell_length_b   12.68795024
_cell_length_c   12.68795024
_cell_angle_alpha   121.16626840
_cell_angle_beta   116.09558090
_cell_angle_gamma   92.44192622
_symmetry_Int_Tables_number   1
_chemical_formula_structural   Tl2HgTe
_chemical_formula_sum   'Tl2 Hg1 Te1'
_cell_volume   1469.32268834
_cell_formula_units_Z   1
loop_
 _symmetry_equiv_pos_site_id
 _symmetry_equiv_pos_as_xyz
  1  'x, y, z'
loop_
 _atom_site_type_symbol
 _atom_site_label
 _atom_site_symmetry_multiplicity
 _atom_site_fract_x
 _atom_site_fract_y
 _atom_site_fract_z
 _atom_site_occupancy
  Tl  Tl0  1  0.78581500  0.00000000  0.78581500  1
  Tl  Tl1  1  0.21418500  0.00000000  0.21418500  1
  Hg  Hg2  1  0.50000000  0.00000000  0.50000000  1
  Te  Te3  1  0.00000000  0.00000000  0.00000000  1
