# generated using pymatgen
data_Al2FePt
_symmetry_space_group_name_H-M   'P 1'
_cell_length_a   9.87937928
_cell_length_b   9.87937928
_cell_length_c   9.87937928
_cell_angle_alpha   121.95773175
_cell_angle_beta   119.45075811
_cell_angle_gamma   88.79848454
_symmetry_Int_Tables_number   1
_chemical_formula_structural   Al2FePt
_chemical_formula_sum   'Al2 Fe1 Pt1'
_cell_volume   673.99379780
_cell_formula_units_Z   1
loop_
 _symmetry_equiv_pos_site_id
 _symmetry_equiv_pos_as_xyz
  1  'x, y, z'
loop_
 _atom_site_type_symbol
 _atom_site_label
 _atom_site_symmetry_multiplicity
 _atom_site_fract_x
 _atom_site_fract_y
 _atom_site_fract_z
 _atom_site_occupancy
  Al  Al0  1  0.00000000  0.25598400  0.25598400  1
  Al  Al1  1  0.00000000  0.74401600  0.74401600  1
  Fe  Fe2  1  0.00000000  0.00000000  0.00000000  1
  Pt  Pt3  1  0.00000000  0.50000000  0.50000000  1
