# generated using pymatgen
data_Ti2FeOs
_symmetry_space_group_name_H-M   'P 1'
_cell_length_a   10.15267674
_cell_length_b   10.15267674
_cell_length_c   10.15267674
_cell_angle_alpha   126.95906012
_cell_angle_beta   116.78459455
_cell_angle_gamma   87.02605976
_symmetry_Int_Tables_number   1
_chemical_formula_structural   Ti2FeOs
_chemical_formula_sum   'Ti2 Fe1 Os1'
_cell_volume   710.43299705
_cell_formula_units_Z   1
loop_
 _symmetry_equiv_pos_site_id
 _symmetry_equiv_pos_as_xyz
  1  'x, y, z'
loop_
 _atom_site_type_symbol
 _atom_site_label
 _atom_site_symmetry_multiplicity
 _atom_site_fract_x
 _atom_site_fract_y
 _atom_site_fract_z
 _atom_site_occupancy
  Ti  Ti0  1  0.00000000  0.25394100  0.25394100  1
  Ti  Ti1  1  0.00000000  0.74605900  0.74605900  1
  Fe  Fe2  1  0.00000000  0.00000000  0.00000000  1
  Os  Os3  1  0.00000000  0.50000000  0.50000000  1
