# generated using pymatgen
data_Mg2GaAu
_symmetry_space_group_name_H-M   'P 1'
_cell_length_a   11.04554569
_cell_length_b   11.04554569
_cell_length_c   11.04554569
_cell_angle_alpha   122.80199442
_cell_angle_beta   118.75079630
_cell_angle_gamma   88.69707204
_symmetry_Int_Tables_number   1
_chemical_formula_structural   Mg2GaAu
_chemical_formula_sum   'Mg2 Ga1 Au1'
_cell_volume   939.93812922
_cell_formula_units_Z   1
loop_
 _symmetry_equiv_pos_site_id
 _symmetry_equiv_pos_as_xyz
  1  'x, y, z'
loop_
 _atom_site_type_symbol
 _atom_site_label
 _atom_site_symmetry_multiplicity
 _atom_site_fract_x
 _atom_site_fract_y
 _atom_site_fract_z
 _atom_site_occupancy
  Mg  Mg0  1  0.00000000  0.25590400  0.25590400  1
  Mg  Mg1  1  0.00000000  0.74409600  0.74409600  1
  Ga  Ga2  1  0.00000000  0.00000000  0.00000000  1
  Au  Au3  1  0.00000000  0.50000000  0.50000000  1
