# generated using pymatgen
data_ScAg2Hg
_symmetry_space_group_name_H-M   'P 1'
_cell_length_a   11.47957652
_cell_length_b   11.47957652
_cell_length_c   11.47957652
_cell_angle_alpha   121.66549479
_cell_angle_beta   118.66241838
_cell_angle_gamma   89.73602446
_symmetry_Int_Tables_number   1
_chemical_formula_structural   ScAg2Hg
_chemical_formula_sum   'Sc1 Ag2 Hg1'
_cell_volume   1066.11685260
_cell_formula_units_Z   1
loop_
 _symmetry_equiv_pos_site_id
 _symmetry_equiv_pos_as_xyz
  1  'x, y, z'
loop_
 _atom_site_type_symbol
 _atom_site_label
 _atom_site_symmetry_multiplicity
 _atom_site_fract_x
 _atom_site_fract_y
 _atom_site_fract_z
 _atom_site_occupancy
  Sc  Sc0  1  0.00000000  0.00000000  0.00000000  1
  Ag  Ag1  1  0.00000000  0.24256100  0.24256100  1
  Ag  Ag2  1  0.00000000  0.75743900  0.75743900  1
  Hg  Hg3  1  0.00000000  0.50000000  0.50000000  1
