# generated using pymatgen
data_TiCrMo2
_symmetry_space_group_name_H-M   'P 1'
_cell_length_a   10.95719600
_cell_length_b   10.95719600
_cell_length_c   10.95719600
_cell_angle_alpha   124.75791895
_cell_angle_beta   118.23536820
_cell_angle_gamma   87.52376423
_symmetry_Int_Tables_number   1
_chemical_formula_structural   TiCrMo2
_chemical_formula_sum   'Ti1 Cr1 Mo2'
_cell_volume   904.36327299
_cell_formula_units_Z   1
loop_
 _symmetry_equiv_pos_site_id
 _symmetry_equiv_pos_as_xyz
  1  'x, y, z'
loop_
 _atom_site_type_symbol
 _atom_site_label
 _atom_site_symmetry_multiplicity
 _atom_site_fract_x
 _atom_site_fract_y
 _atom_site_fract_z
 _atom_site_occupancy
  Ti  Ti0  1  0.00000000  0.00000000  0.00000000  1
  Cr  Cr1  1  0.00000000  0.50000000  0.50000000  1
  Mo  Mo2  1  0.00000000  0.21685800  0.21685800  1
  Mo  Mo3  1  0.00000000  0.78314200  0.78314200  1
