# generated using pymatgen
data_LaYAu2
_symmetry_space_group_name_H-M   'P 1'
_cell_length_a   11.70104840
_cell_length_b   11.70104840
_cell_length_c   11.70104840
_cell_angle_alpha   123.85817509
_cell_angle_beta   116.26250613
_cell_angle_gamma   90.02157135
_symmetry_Int_Tables_number   1
_chemical_formula_structural   LaYAu2
_chemical_formula_sum   'La1 Y1 Au2'
_cell_volume   1125.56281414
_cell_formula_units_Z   1
loop_
 _symmetry_equiv_pos_site_id
 _symmetry_equiv_pos_as_xyz
  1  'x, y, z'
loop_
 _atom_site_type_symbol
 _atom_site_label
 _atom_site_symmetry_multiplicity
 _atom_site_fract_x
 _atom_site_fract_y
 _atom_site_fract_z
 _atom_site_occupancy
  La  La0  1  0.00000000  0.50000000  0.50000000  1
  Y  Y1  1  0.00000000  0.00000000  0.00000000  1
  Au  Au2  1  0.00000000  0.25032900  0.25032900  1
  Au  Au3  1  0.00000000  0.74967100  0.74967100  1
