# generated using pymatgen
data_BeNbOs2
_symmetry_space_group_name_H-M   'P 1'
_cell_length_a   10.26211118
_cell_length_b   10.26211118
_cell_length_c   10.26211118
_cell_angle_alpha   127.96629726
_cell_angle_beta   117.47584573
_cell_angle_gamma   85.60842160
_symmetry_Int_Tables_number   1
_chemical_formula_structural   BeNbOs2
_chemical_formula_sum   'Be1 Nb1 Os2'
_cell_volume   721.95300940
_cell_formula_units_Z   1
loop_
 _symmetry_equiv_pos_site_id
 _symmetry_equiv_pos_as_xyz
  1  'x, y, z'
loop_
 _atom_site_type_symbol
 _atom_site_label
 _atom_site_symmetry_multiplicity
 _atom_site_fract_x
 _atom_site_fract_y
 _atom_site_fract_z
 _atom_site_occupancy
  Be  Be0  1  0.00000000  0.00000000  0.00000000  1
  Nb  Nb1  1  0.00000000  0.50000000  0.50000000  1
  Os  Os2  1  0.00000000  0.25188800  0.25188800  1
  Os  Os3  1  0.00000000  0.74811200  0.74811200  1
