# generated using pymatgen
data_TiGeOs2
_symmetry_space_group_name_H-M   'P 1'
_cell_length_a   10.24358068
_cell_length_b   10.24358068
_cell_length_c   10.24358068
_cell_angle_alpha   128.11841188
_cell_angle_beta   117.54386588
_cell_angle_gamma   85.42774114
_symmetry_Int_Tables_number   1
_chemical_formula_structural   TiGeOs2
_chemical_formula_sum   'Ti1 Ge1 Os2'
_cell_volume   716.43917332
_cell_formula_units_Z   1
loop_
 _symmetry_equiv_pos_site_id
 _symmetry_equiv_pos_as_xyz
  1  'x, y, z'
loop_
 _atom_site_type_symbol
 _atom_site_label
 _atom_site_symmetry_multiplicity
 _atom_site_fract_x
 _atom_site_fract_y
 _atom_site_fract_z
 _atom_site_occupancy
  Ti  Ti0  1  0.00000000  0.00000000  0.00000000  1
  Ge  Ge1  1  0.00000000  0.50000000  0.50000000  1
  Os  Os2  1  0.00000000  0.23810400  0.23810400  1
  Os  Os3  1  0.00000000  0.76189600  0.76189600  1
