# generated using pymatgen
data_TiCdAu2
_symmetry_space_group_name_H-M   'P 1'
_cell_length_a   12.35460523
_cell_length_b   12.35460523
_cell_length_c   12.35460523
_cell_angle_alpha   127.33349197
_cell_angle_beta   117.82571776
_cell_angle_gamma   85.80007264
_symmetry_Int_Tables_number   1
_chemical_formula_structural   TiCdAu2
_chemical_formula_sum   'Ti1 Cd1 Au2'
_cell_volume   1265.60824859
_cell_formula_units_Z   1
loop_
 _symmetry_equiv_pos_site_id
 _symmetry_equiv_pos_as_xyz
  1  'x, y, z'
loop_
 _atom_site_type_symbol
 _atom_site_label
 _atom_site_symmetry_multiplicity
 _atom_site_fract_x
 _atom_site_fract_y
 _atom_site_fract_z
 _atom_site_occupancy
  Ti  Ti0  1  0.00000000  0.00000000  0.00000000  1
  Cd  Cd1  1  0.00000000  0.50000000  0.50000000  1
  Au  Au2  1  0.00000000  0.23025800  0.23025800  1
  Au  Au3  1  0.00000000  0.76974200  0.76974200  1
