# generated using pymatgen
data_NaMgCd2
_symmetry_space_group_name_H-M   'P 1'
_cell_length_a   12.58308662
_cell_length_b   12.58308662
_cell_length_c   12.58308662
_cell_angle_alpha   121.27028896
_cell_angle_beta   119.57658091
_cell_angle_gamma   89.27447936
_symmetry_Int_Tables_number   1
_chemical_formula_structural   NaMgCd2
_chemical_formula_sum   'Na1 Mg1 Cd2'
_cell_volume   1399.26447435
_cell_formula_units_Z   1
loop_
 _symmetry_equiv_pos_site_id
 _symmetry_equiv_pos_as_xyz
  1  'x, y, z'
loop_
 _atom_site_type_symbol
 _atom_site_label
 _atom_site_symmetry_multiplicity
 _atom_site_fract_x
 _atom_site_fract_y
 _atom_site_fract_z
 _atom_site_occupancy
  Na  Na0  1  0.00000000  0.00000000  0.00000000  1
  Mg  Mg1  1  0.00000000  0.50000000  0.50000000  1
  Cd  Cd2  1  0.00000000  0.25034200  0.25034200  1
  Cd  Cd3  1  0.00000000  0.74965800  0.74965800  1
