# generated using pymatgen
data_ScSnIr2
_symmetry_space_group_name_H-M   'P 1'
_cell_length_a   10.63765301
_cell_length_b   10.63765301
_cell_length_c   10.63765301
_cell_angle_alpha   127.36436460
_cell_angle_beta   117.34334829
_cell_angle_gamma   86.20405076
_symmetry_Int_Tables_number   1
_chemical_formula_structural   ScSnIr2
_chemical_formula_sum   'Sc1 Sn1 Ir2'
_cell_volume   810.40779279
_cell_formula_units_Z   1
loop_
 _symmetry_equiv_pos_site_id
 _symmetry_equiv_pos_as_xyz
  1  'x, y, z'
loop_
 _atom_site_type_symbol
 _atom_site_label
 _atom_site_symmetry_multiplicity
 _atom_site_fract_x
 _atom_site_fract_y
 _atom_site_fract_z
 _atom_site_occupancy
  Sc  Sc0  1  0.00000000  0.00000000  0.00000000  1
  Sn  Sn1  1  0.00000000  0.50000000  0.50000000  1
  Ir  Ir2  1  0.00000000  0.23508200  0.23508200  1
  Ir  Ir3  1  0.00000000  0.76491800  0.76491800  1
