# generated using pymatgen
data_KHg2Bi
_symmetry_space_group_name_H-M   'P 1'
_cell_length_a   13.00369063
_cell_length_b   13.00369063
_cell_length_c   13.00369063
_cell_angle_alpha   120.05517721
_cell_angle_beta   119.14598094
_cell_angle_gamma   90.69500261
_symmetry_Int_Tables_number   1
_chemical_formula_structural   KHg2Bi
_chemical_formula_sum   'K1 Hg2 Bi1'
_cell_volume   1563.97815587
_cell_formula_units_Z   1
loop_
 _symmetry_equiv_pos_site_id
 _symmetry_equiv_pos_as_xyz
  1  'x, y, z'
loop_
 _atom_site_type_symbol
 _atom_site_label
 _atom_site_symmetry_multiplicity
 _atom_site_fract_x
 _atom_site_fract_y
 _atom_site_fract_z
 _atom_site_occupancy
  K  K0  1  0.00000000  0.00000000  0.00000000  1
  Hg  Hg1  1  0.74188900  0.00000000  0.74188900  1
  Hg  Hg2  1  0.25811100  0.00000000  0.25811100  1
  Bi  Bi3  1  0.50000000  0.00000000  0.50000000  1
