# generated using pymatgen
data_Ca2ZnSn
_symmetry_space_group_name_H-M   'P 1'
_cell_length_a   12.61271009
_cell_length_b   12.61271009
_cell_length_c   12.61271009
_cell_angle_alpha   121.10010982
_cell_angle_beta   119.55898518
_cell_angle_gamma   89.43538176
_symmetry_Int_Tables_number   1
_chemical_formula_structural   Ca2ZnSn
_chemical_formula_sum   'Ca2 Zn1 Sn1'
_cell_volume   1411.29986805
_cell_formula_units_Z   1
loop_
 _symmetry_equiv_pos_site_id
 _symmetry_equiv_pos_as_xyz
  1  'x, y, z'
loop_
 _atom_site_type_symbol
 _atom_site_label
 _atom_site_symmetry_multiplicity
 _atom_site_fract_x
 _atom_site_fract_y
 _atom_site_fract_z
 _atom_site_occupancy
  Ca  Ca0  1  0.00000000  0.25855200  0.25855200  1
  Ca  Ca1  1  0.00000000  0.74144800  0.74144800  1
  Zn  Zn2  1  0.00000000  0.00000000  0.00000000  1
  Sn  Sn3  1  0.00000000  0.50000000  0.50000000  1
