# generated using pymatgen
data_Y2HgRu
_symmetry_space_group_name_H-M   'P 1'
_cell_length_a   11.93254806
_cell_length_b   11.93254806
_cell_length_c   11.93254806
_cell_angle_alpha   122.62500404
_cell_angle_beta   118.02216574
_cell_angle_gamma   89.48711046
_symmetry_Int_Tables_number   1
_chemical_formula_structural   Y2HgRu
_chemical_formula_sum   'Y2 Hg1 Ru1'
_cell_volume   1193.02482310
_cell_formula_units_Z   1
loop_
 _symmetry_equiv_pos_site_id
 _symmetry_equiv_pos_as_xyz
  1  'x, y, z'
loop_
 _atom_site_type_symbol
 _atom_site_label
 _atom_site_symmetry_multiplicity
 _atom_site_fract_x
 _atom_site_fract_y
 _atom_site_fract_z
 _atom_site_occupancy
  Y  Y0  1  0.00000000  0.20402500  0.20402500  1
  Y  Y1  1  0.00000000  0.79597500  0.79597500  1
  Hg  Hg2  1  0.00000000  0.50000000  0.50000000  1
  Ru  Ru3  1  0.00000000  0.00000000  0.00000000  1
