# generated using pymatgen
data_MgAlPt2
_symmetry_space_group_name_H-M   'P 1'
_cell_length_a   10.71741004
_cell_length_b   10.71741004
_cell_length_c   10.71741004
_cell_angle_alpha   127.33087026
_cell_angle_beta   117.66714926
_cell_angle_gamma   85.94286352
_symmetry_Int_Tables_number   1
_chemical_formula_structural   MgAlPt2
_chemical_formula_sum   'Mg1 Al1 Pt2'
_cell_volume   827.16844285
_cell_formula_units_Z   1
loop_
 _symmetry_equiv_pos_site_id
 _symmetry_equiv_pos_as_xyz
  1  'x, y, z'
loop_
 _atom_site_type_symbol
 _atom_site_label
 _atom_site_symmetry_multiplicity
 _atom_site_fract_x
 _atom_site_fract_y
 _atom_site_fract_z
 _atom_site_occupancy
  Mg  Mg0  1  0.00000000  0.00000000  0.00000000  1
  Al  Al1  1  0.00000000  0.50000000  0.50000000  1
  Pt  Pt2  1  0.00000000  0.26333400  0.26333400  1
  Pt  Pt3  1  0.00000000  0.73666600  0.73666600  1
