# generated using pymatgen
data_BeBPt2
_symmetry_space_group_name_H-M   'P 1'
_cell_length_a   8.20129318
_cell_length_b   9.14477349
_cell_length_c   9.14477222
_cell_angle_alpha   62.18193298
_cell_angle_beta   63.35801264
_cell_angle_gamma   63.35801723
_symmetry_Int_Tables_number   1
_chemical_formula_structural   BeBPt2
_chemical_formula_sum   'Be1 B1 Pt2'
_cell_volume   516.77785059
_cell_formula_units_Z   1
loop_
 _symmetry_equiv_pos_site_id
 _symmetry_equiv_pos_as_xyz
  1  'x, y, z'
loop_
 _atom_site_type_symbol
 _atom_site_label
 _atom_site_symmetry_multiplicity
 _atom_site_fract_x
 _atom_site_fract_y
 _atom_site_fract_z
 _atom_site_occupancy
  Be  Be0  1  0.00000000  0.00000000  0.00000000  1
  B  B1  1  0.50000000  0.00000000  0.00000000  1
  Pt  Pt2  1  0.72913900  0.00000000  0.00000000  1
  Pt  Pt3  1  0.27086100  0.00000000  0.00000000  1
