# generated using pymatgen
data_TiGaTc2
_symmetry_space_group_name_H-M   'P 1'
_cell_length_a   10.46449155
_cell_length_b   10.46449155
_cell_length_c   10.46449155
_cell_angle_alpha   126.82953967
_cell_angle_beta   117.84816438
_cell_angle_gamma   86.18320244
_symmetry_Int_Tables_number   1
_chemical_formula_structural   TiGaTc2
_chemical_formula_sum   'Ti1 Ga1 Tc2'
_cell_volume   773.23182302
_cell_formula_units_Z   1
loop_
 _symmetry_equiv_pos_site_id
 _symmetry_equiv_pos_as_xyz
  1  'x, y, z'
loop_
 _atom_site_type_symbol
 _atom_site_label
 _atom_site_symmetry_multiplicity
 _atom_site_fract_x
 _atom_site_fract_y
 _atom_site_fract_z
 _atom_site_occupancy
  Ti  Ti0  1  0.00000000  0.00000000  0.00000000  1
  Ga  Ga1  1  0.00000000  0.50000000  0.50000000  1
  Tc  Tc2  1  0.00000000  0.23166100  0.23166100  1
  Tc  Tc3  1  0.00000000  0.76833800  0.76833800  1
