# generated using pymatgen
data_Y2CuAg
_symmetry_space_group_name_H-M   'P 1'
_cell_length_a   12.26253461
_cell_length_b   12.26253461
_cell_length_c   12.26253461
_cell_angle_alpha   126.59829260
_cell_angle_beta   115.89181768
_cell_angle_gamma   88.11610362
_symmetry_Int_Tables_number   1
_chemical_formula_structural   Y2CuAg
_chemical_formula_sum   'Y2 Cu1 Ag1'
_cell_volume   1263.98602516
_cell_formula_units_Z   1
loop_
 _symmetry_equiv_pos_site_id
 _symmetry_equiv_pos_as_xyz
  1  'x, y, z'
loop_
 _atom_site_type_symbol
 _atom_site_label
 _atom_site_symmetry_multiplicity
 _atom_site_fract_x
 _atom_site_fract_y
 _atom_site_fract_z
 _atom_site_occupancy
  Y  Y0  1  0.00000000  0.23152500  0.23152500  1
  Y  Y1  1  0.00000000  0.76847500  0.76847500  1
  Cu  Cu2  1  0.00000000  0.00000000  0.00000000  1
  Ag  Ag3  1  0.00000000  0.50000000  0.50000000  1
