# generated using pymatgen
data_La2HgRu
_symmetry_space_group_name_H-M   'P 1'
_cell_length_a   12.48204147
_cell_length_b   12.48204147
_cell_length_c   12.48204147
_cell_angle_alpha   124.49829616
_cell_angle_beta   118.21389982
_cell_angle_gamma   87.75651000
_symmetry_Int_Tables_number   1
_chemical_formula_structural   La2HgRu
_chemical_formula_sum   'La2 Hg1 Ru1'
_cell_volume   1340.49837765
_cell_formula_units_Z   1
loop_
 _symmetry_equiv_pos_site_id
 _symmetry_equiv_pos_as_xyz
  1  'x, y, z'
loop_
 _atom_site_type_symbol
 _atom_site_label
 _atom_site_symmetry_multiplicity
 _atom_site_fract_x
 _atom_site_fract_y
 _atom_site_fract_z
 _atom_site_occupancy
  La  La0  1  0.00000000  0.20052400  0.20052400  1
  La  La1  1  0.00000000  0.79947600  0.79947600  1
  Hg  Hg2  1  0.00000000  0.50000000  0.50000000  1
  Ru  Ru3  1  0.00000000  0.00000000  0.00000000  1
