# generated using pymatgen
data_La2IrRu
_symmetry_space_group_name_H-M   'P 1'
_cell_length_a   11.58360576
_cell_length_b   11.58360576
_cell_length_c   11.58360576
_cell_angle_alpha   130.43001617
_cell_angle_beta   116.77382045
_cell_angle_gamma   84.31907772
_symmetry_Int_Tables_number   1
_chemical_formula_structural   La2IrRu
_chemical_formula_sum   'La2 Ir1 Ru1'
_cell_volume   1012.72089665
_cell_formula_units_Z   1
loop_
 _symmetry_equiv_pos_site_id
 _symmetry_equiv_pos_as_xyz
  1  'x, y, z'
loop_
 _atom_site_type_symbol
 _atom_site_label
 _atom_site_symmetry_multiplicity
 _atom_site_fract_x
 _atom_site_fract_y
 _atom_site_fract_z
 _atom_site_occupancy
  La  La0  1  0.00000000  0.24244200  0.24244200  1
  La  La1  1  0.00000000  0.75755800  0.75755800  1
  Ir  Ir2  1  0.00000000  0.50000000  0.50000000  1
  Ru  Ru3  1  0.00000000  0.00000000  0.00000000  1
