# generated using pymatgen
data_ZrGaCu2
_symmetry_space_group_name_H-M   'P 1'
_cell_length_a   10.11177955
_cell_length_b   10.11177955
_cell_length_c   10.11177955
_cell_angle_alpha   119.10466540
_cell_angle_beta   118.78177192
_cell_angle_gamma   91.84057743
_symmetry_Int_Tables_number   1
_chemical_formula_structural   ZrGaCu2
_chemical_formula_sum   'Zr1 Ga1 Cu2'
_cell_volume   742.34109284
_cell_formula_units_Z   1
loop_
 _symmetry_equiv_pos_site_id
 _symmetry_equiv_pos_as_xyz
  1  'x, y, z'
loop_
 _atom_site_type_symbol
 _atom_site_label
 _atom_site_symmetry_multiplicity
 _atom_site_fract_x
 _atom_site_fract_y
 _atom_site_fract_z
 _atom_site_occupancy
  Zr  Zr0  1  0.00000000  0.50000000  0.50000000  1
  Ga  Ga1  1  0.00000000  0.00000000  0.00000000  1
  Cu  Cu2  1  0.00000000  0.23978700  0.23978700  1
  Cu  Cu3  1  0.00000000  0.76021300  0.76021300  1
