# generated using pymatgen
data_CaYPb2
_symmetry_space_group_name_H-M   'P 1'
_cell_length_a   13.00242570
_cell_length_b   13.00242570
_cell_length_c   13.00242570
_cell_angle_alpha   125.10341686
_cell_angle_beta   118.40671319
_cell_angle_gamma   87.08919310
_symmetry_Int_Tables_number   1
_chemical_formula_structural   CaYPb2
_chemical_formula_sum   'Ca1 Y1 Pb2'
_cell_volume   1504.14531642
_cell_formula_units_Z   1
loop_
 _symmetry_equiv_pos_site_id
 _symmetry_equiv_pos_as_xyz
  1  'x, y, z'
loop_
 _atom_site_type_symbol
 _atom_site_label
 _atom_site_symmetry_multiplicity
 _atom_site_fract_x
 _atom_site_fract_y
 _atom_site_fract_z
 _atom_site_occupancy
  Ca  Ca0  1  0.00000000  0.00000000  0.00000000  1
  Y  Y1  1  0.00000000  0.50000000  0.50000000  1
  Pb  Pb2  1  0.00000000  0.25503300  0.25503300  1
  Pb  Pb3  1  0.00000000  0.74496700  0.74496700  1
