# generated using pymatgen
data_BeGePt2
_symmetry_space_group_name_H-M   'P 1'
_cell_length_a   11.60599844
_cell_length_b   11.60599844
_cell_length_c   11.60599844
_cell_angle_alpha   134.69617654
_cell_angle_beta   115.56057186
_cell_angle_gamma   82.25223271
_symmetry_Int_Tables_number   1
_chemical_formula_structural   BeGePt2
_chemical_formula_sum   'Be1 Ge1 Pt2'
_cell_volume   967.22453004
_cell_formula_units_Z   1
loop_
 _symmetry_equiv_pos_site_id
 _symmetry_equiv_pos_as_xyz
  1  'x, y, z'
loop_
 _atom_site_type_symbol
 _atom_site_label
 _atom_site_symmetry_multiplicity
 _atom_site_fract_x
 _atom_site_fract_y
 _atom_site_fract_z
 _atom_site_occupancy
  Be  Be0  1  0.00000000  0.00000000  0.00000000  1
  Ge  Ge1  1  0.00000000  0.50000000  0.50000000  1
  Pt  Pt2  1  0.00000000  0.24389000  0.24389000  1
  Pt  Pt3  1  0.00000000  0.75611000  0.75611000  1
