# generated using pymatgen
data_Ba2ZnHg
_symmetry_space_group_name_H-M   'P 1'
_cell_length_a   13.65042587
_cell_length_b   13.65042587
_cell_length_c   13.65042587
_cell_angle_alpha   120.04198669
_cell_angle_beta   119.71964263
_cell_angle_gamma   90.20678520
_symmetry_Int_Tables_number   1
_chemical_formula_structural   Ba2ZnHg
_chemical_formula_sum   'Ba2 Zn1 Hg1'
_cell_volume   1801.76412541
_cell_formula_units_Z   1
loop_
 _symmetry_equiv_pos_site_id
 _symmetry_equiv_pos_as_xyz
  1  'x, y, z'
loop_
 _atom_site_type_symbol
 _atom_site_label
 _atom_site_symmetry_multiplicity
 _atom_site_fract_x
 _atom_site_fract_y
 _atom_site_fract_z
 _atom_site_occupancy
  Ba  Ba0  1  0.25161900  0.00000000  0.25161900  1
  Ba  Ba1  1  0.74838100  0.00000000  0.74838100  1
  Zn  Zn2  1  0.00000000  0.00000000  0.00000000  1
  Hg  Hg3  1  0.50000000  0.00000000  0.50000000  1
