# generated using pymatgen
data_ScBe2Pt
_symmetry_space_group_name_H-M   'P 1'
_cell_length_a   10.23049899
_cell_length_b   10.23049899
_cell_length_c   10.23049899
_cell_angle_alpha   125.58667406
_cell_angle_beta   113.55231245
_cell_angle_gamma   91.05888380
_symmetry_Int_Tables_number   1
_chemical_formula_structural   ScBe2Pt
_chemical_formula_sum   'Sc1 Be2 Pt1'
_cell_volume   751.62786775
_cell_formula_units_Z   1
loop_
 _symmetry_equiv_pos_site_id
 _symmetry_equiv_pos_as_xyz
  1  'x, y, z'
loop_
 _atom_site_type_symbol
 _atom_site_label
 _atom_site_symmetry_multiplicity
 _atom_site_fract_x
 _atom_site_fract_y
 _atom_site_fract_z
 _atom_site_occupancy
  Sc  Sc0  1  0.00000000  0.00000000  0.00000000  1
  Be  Be1  1  0.00000000  0.27835500  0.27835500  1
  Be  Be2  1  0.00000000  0.72164500  0.72164500  1
  Pt  Pt3  1  0.00000000  0.50000000  0.50000000  1
