# generated using pymatgen
data_Rb2HgTe
_symmetry_space_group_name_H-M   'P 1'
_cell_length_a   13.34000392
_cell_length_b   13.34000392
_cell_length_c   13.34000392
_cell_angle_alpha   120.70852027
_cell_angle_beta   115.71657834
_cell_angle_gamma   93.17635334
_symmetry_Int_Tables_number   1
_chemical_formula_structural   Rb2HgTe
_chemical_formula_sum   'Rb2 Hg1 Te1'
_cell_volume   1717.29234445
_cell_formula_units_Z   1
loop_
 _symmetry_equiv_pos_site_id
 _symmetry_equiv_pos_as_xyz
  1  'x, y, z'
loop_
 _atom_site_type_symbol
 _atom_site_label
 _atom_site_symmetry_multiplicity
 _atom_site_fract_x
 _atom_site_fract_y
 _atom_site_fract_z
 _atom_site_occupancy
  Rb  Rb0  1  0.77660200  0.00000000  0.77660200  1
  Rb  Rb1  1  0.22339800  0.00000000  0.22339800  1
  Hg  Hg2  1  0.50000000  0.00000000  0.50000000  1
  Te  Te3  1  0.00000000  0.00000000  0.00000000  1
