# generated using pymatgen
data_CaYMg2
_symmetry_space_group_name_H-M   'P 1'
_cell_length_a   13.13455998
_cell_length_b   13.13455998
_cell_length_c   13.13455998
_cell_angle_alpha   120.23782808
_cell_angle_beta   119.30928181
_cell_angle_gamma   90.39453204
_symmetry_Int_Tables_number   1
_chemical_formula_structural   CaYMg2
_chemical_formula_sum   'Ca1 Y1 Mg2'
_cell_volume   1607.56676264
_cell_formula_units_Z   1
loop_
 _symmetry_equiv_pos_site_id
 _symmetry_equiv_pos_as_xyz
  1  'x, y, z'
loop_
 _atom_site_type_symbol
 _atom_site_label
 _atom_site_symmetry_multiplicity
 _atom_site_fract_x
 _atom_site_fract_y
 _atom_site_fract_z
 _atom_site_occupancy
  Ca  Ca0  1  0.00000000  0.00000000  0.00000000  1
  Y  Y1  1  0.50000000  0.00000000  0.50000000  1
  Mg  Mg2  1  0.25902800  0.00000000  0.25902800  1
  Mg  Mg3  1  0.74097200  0.00000000  0.74097200  1
