# generated using pymatgen
data_Nb2VRe
_symmetry_space_group_name_H-M   'P 1'
_cell_length_a   10.66891733
_cell_length_b   10.66891733
_cell_length_c   10.66891733
_cell_angle_alpha   129.32721938
_cell_angle_beta   115.98116362
_cell_angle_gamma   85.88123771
_symmetry_Int_Tables_number   1
_chemical_formula_structural   Nb2VRe
_chemical_formula_sum   'Nb2 V1 Re1'
_cell_volume   806.61534340
_cell_formula_units_Z   1
loop_
 _symmetry_equiv_pos_site_id
 _symmetry_equiv_pos_as_xyz
  1  'x, y, z'
loop_
 _atom_site_type_symbol
 _atom_site_label
 _atom_site_symmetry_multiplicity
 _atom_site_fract_x
 _atom_site_fract_y
 _atom_site_fract_z
 _atom_site_occupancy
  Nb  Nb0  1  0.00000000  0.25465100  0.25465100  1
  Nb  Nb1  1  0.00000000  0.74534900  0.74534900  1
  V  V2  1  0.00000000  0.00000000  0.00000000  1
  Re  Re3  1  0.00000000  0.50000000  0.50000000  1
