# generated using pymatgen
data_MnBeRu2
_symmetry_space_group_name_H-M   'P 1'
_cell_length_a   8.81976924
_cell_length_b   9.11217225
_cell_length_c   9.11217217
_cell_angle_alpha   60.42994688
_cell_angle_beta   61.05594664
_cell_angle_gamma   61.05595358
_symmetry_Int_Tables_number   1
_chemical_formula_structural   MnBeRu2
_chemical_formula_sum   'Mn1 Be1 Ru2'
_cell_volume   527.68074662
_cell_formula_units_Z   1
loop_
 _symmetry_equiv_pos_site_id
 _symmetry_equiv_pos_as_xyz
  1  'x, y, z'
loop_
 _atom_site_type_symbol
 _atom_site_label
 _atom_site_symmetry_multiplicity
 _atom_site_fract_x
 _atom_site_fract_y
 _atom_site_fract_z
 _atom_site_occupancy
  Mn  Mn0  1  0.50000000  0.00000000  0.00000000  1
  Be  Be1  1  0.00000000  0.00000000  0.00000000  1
  Ru  Ru2  1  0.74899900  0.00000000  0.00000000  1
  Ru  Ru3  1  0.25100100  0.00000000  0.00000000  1
