# generated using pymatgen
data_Ta2TcOs
_symmetry_space_group_name_H-M   'P 1'
_cell_length_a   10.36430074
_cell_length_b   10.36430074
_cell_length_c   10.36430074
_cell_angle_alpha   128.58827151
_cell_angle_beta   116.23940182
_cell_angle_gamma   86.22477778
_symmetry_Int_Tables_number   1
_chemical_formula_structural   Ta2TcOs
_chemical_formula_sum   'Ta2 Tc1 Os1'
_cell_volume   744.74332308
_cell_formula_units_Z   1
loop_
 _symmetry_equiv_pos_site_id
 _symmetry_equiv_pos_as_xyz
  1  'x, y, z'
loop_
 _atom_site_type_symbol
 _atom_site_label
 _atom_site_symmetry_multiplicity
 _atom_site_fract_x
 _atom_site_fract_y
 _atom_site_fract_z
 _atom_site_occupancy
  Ta  Ta0  1  0.00000000  0.24747600  0.24747600  1
  Ta  Ta1  1  0.00000000  0.75252400  0.75252400  1
  Tc  Tc2  1  0.00000000  0.00000000  0.00000000  1
  Os  Os3  1  0.00000000  0.50000000  0.50000000  1
