# generated using pymatgen
data_Ti2GaCu
_symmetry_space_group_name_H-M   'P 1'
_cell_length_a   10.47119267
_cell_length_b   10.47119267
_cell_length_c   10.47119267
_cell_angle_alpha   121.06501987
_cell_angle_beta   119.13184178
_cell_angle_gamma   89.83777454
_symmetry_Int_Tables_number   1
_chemical_formula_structural   Ti2GaCu
_chemical_formula_sum   'Ti2 Ga1 Cu1'
_cell_volume   810.34483770
_cell_formula_units_Z   1
loop_
 _symmetry_equiv_pos_site_id
 _symmetry_equiv_pos_as_xyz
  1  'x, y, z'
loop_
 _atom_site_type_symbol
 _atom_site_label
 _atom_site_symmetry_multiplicity
 _atom_site_fract_x
 _atom_site_fract_y
 _atom_site_fract_z
 _atom_site_occupancy
  Ti  Ti0  1  0.00000000  0.24282600  0.24282600  1
  Ti  Ti1  1  0.00000000  0.75717400  0.75717400  1
  Ga  Ga2  1  0.00000000  0.50000000  0.50000000  1
  Cu  Cu3  1  0.00000000  0.00000000  0.00000000  1
