# generated using pymatgen
data_YRhAu2
_symmetry_space_group_name_H-M   'P 1'
_cell_length_a   11.67587658
_cell_length_b   11.67587658
_cell_length_c   11.67587658
_cell_angle_alpha   127.41920725
_cell_angle_beta   119.69337585
_cell_angle_gamma   84.08802925
_symmetry_Int_Tables_number   1
_chemical_formula_structural   YRhAu2
_chemical_formula_sum   'Y1 Rh1 Au2'
_cell_volume   1051.97179571
_cell_formula_units_Z   1
loop_
 _symmetry_equiv_pos_site_id
 _symmetry_equiv_pos_as_xyz
  1  'x, y, z'
loop_
 _atom_site_type_symbol
 _atom_site_label
 _atom_site_symmetry_multiplicity
 _atom_site_fract_x
 _atom_site_fract_y
 _atom_site_fract_z
 _atom_site_occupancy
  Y  Y0  1  0.00000000  0.00000000  0.00000000  1
  Rh  Rh1  1  0.00000000  0.50000000  0.50000000  1
  Au  Au2  1  0.00000000  0.25328900  0.25328900  1
  Au  Au3  1  0.00000000  0.74671100  0.74671100  1
