# generated using pymatgen
data_Sc2HgPd
_symmetry_space_group_name_H-M   'P 1'
_cell_length_a   11.74669931
_cell_length_b   11.74669931
_cell_length_c   11.74669931
_cell_angle_alpha   125.14214663
_cell_angle_beta   118.42585324
_cell_angle_gamma   87.04061756
_symmetry_Int_Tables_number   1
_chemical_formula_structural   Sc2HgPd
_chemical_formula_sum   'Sc2 Hg1 Pd1'
_cell_volume   1108.49739485
_cell_formula_units_Z   1
loop_
 _symmetry_equiv_pos_site_id
 _symmetry_equiv_pos_as_xyz
  1  'x, y, z'
loop_
 _atom_site_type_symbol
 _atom_site_label
 _atom_site_symmetry_multiplicity
 _atom_site_fract_x
 _atom_site_fract_y
 _atom_site_fract_z
 _atom_site_occupancy
  Sc  Sc0  1  0.00000000  0.21703900  0.21703900  1
  Sc  Sc1  1  0.00000000  0.78296100  0.78296100  1
  Hg  Hg2  1  0.00000000  0.50000000  0.50000000  1
  Pd  Pd3  1  0.00000000  0.00000000  0.00000000  1
