# generated using pymatgen
data_Na2InBi
_symmetry_space_group_name_H-M   'P 1'
_cell_length_a   12.87876131
_cell_length_b   12.87876131
_cell_length_c   12.87876131
_cell_angle_alpha   120.34012050
_cell_angle_beta   119.80821800
_cell_angle_gamma   89.87220164
_symmetry_Int_Tables_number   1
_chemical_formula_structural   Na2InBi
_chemical_formula_sum   'Na2 In1 Bi1'
_cell_volume   1508.71510534
_cell_formula_units_Z   1
loop_
 _symmetry_equiv_pos_site_id
 _symmetry_equiv_pos_as_xyz
  1  'x, y, z'
loop_
 _atom_site_type_symbol
 _atom_site_label
 _atom_site_symmetry_multiplicity
 _atom_site_fract_x
 _atom_site_fract_y
 _atom_site_fract_z
 _atom_site_occupancy
  Na  Na0  1  0.00000000  0.25202300  0.25202300  1
  Na  Na1  1  0.00000000  0.74797700  0.74797700  1
  In  In2  1  0.00000000  0.00000000  0.00000000  1
  Bi  Bi3  1  0.00000000  0.50000000  0.50000000  1
