# generated using pymatgen
data_Be2OsPt
_symmetry_space_group_name_H-M   'P 1'
_cell_length_a   8.45472197
_cell_length_b   9.17229767
_cell_length_c   9.17229887
_cell_angle_alpha   61.69793370
_cell_angle_beta   62.55586644
_cell_angle_gamma   62.55586379
_symmetry_Int_Tables_number   1
_chemical_formula_structural   Be2OsPt
_chemical_formula_sum   'Be2 Os1 Pt1'
_cell_volume   528.38117619
_cell_formula_units_Z   1
loop_
 _symmetry_equiv_pos_site_id
 _symmetry_equiv_pos_as_xyz
  1  'x, y, z'
loop_
 _atom_site_type_symbol
 _atom_site_label
 _atom_site_symmetry_multiplicity
 _atom_site_fract_x
 _atom_site_fract_y
 _atom_site_fract_z
 _atom_site_occupancy
  Be  Be0  1  0.74548800  0.00000000  0.00000000  1
  Be  Be1  1  0.25451200  0.00000000  0.00000000  1
  Os  Os2  1  0.00000000  0.00000000  0.00000000  1
  Pt  Pt3  1  0.50000000  0.00000000  0.00000000  1
