# generated using pymatgen
data_TaV2Re
_symmetry_space_group_name_H-M   'P 1'
_cell_length_a   10.39747232
_cell_length_b   10.39747232
_cell_length_c   10.39747232
_cell_angle_alpha   129.10994600
_cell_angle_beta   116.92441196
_cell_angle_gamma   85.20302986
_symmetry_Int_Tables_number   1
_chemical_formula_structural   TaV2Re
_chemical_formula_sum   'Ta1 V2 Re1'
_cell_volume   743.75475152
_cell_formula_units_Z   1
loop_
 _symmetry_equiv_pos_site_id
 _symmetry_equiv_pos_as_xyz
  1  'x, y, z'
loop_
 _atom_site_type_symbol
 _atom_site_label
 _atom_site_symmetry_multiplicity
 _atom_site_fract_x
 _atom_site_fract_y
 _atom_site_fract_z
 _atom_site_occupancy
  Ta  Ta0  1  0.00000000  0.00000000  0.00000000  1
  V  V1  1  0.00000000  0.25248600  0.25248600  1
  V  V2  1  0.00000000  0.74751400  0.74751400  1
  Re  Re3  1  0.00000000  0.50000000  0.50000000  1
