# generated using pymatgen
data_Ti2NbIr
_symmetry_space_group_name_H-M   'P 1'
_cell_length_a   10.50009499
_cell_length_b   10.50009499
_cell_length_c   10.50009499
_cell_angle_alpha   129.90320139
_cell_angle_beta   116.93998059
_cell_angle_gamma   84.57461528
_symmetry_Int_Tables_number   1
_chemical_formula_structural   Ti2NbIr
_chemical_formula_sum   'Ti2 Nb1 Ir1'
_cell_volume   758.45979697
_cell_formula_units_Z   1
loop_
 _symmetry_equiv_pos_site_id
 _symmetry_equiv_pos_as_xyz
  1  'x, y, z'
loop_
 _atom_site_type_symbol
 _atom_site_label
 _atom_site_symmetry_multiplicity
 _atom_site_fract_x
 _atom_site_fract_y
 _atom_site_fract_z
 _atom_site_occupancy
  Ti  Ti0  1  0.00000000  0.24977200  0.24977200  1
  Ti  Ti1  1  0.00000000  0.75022800  0.75022800  1
  Nb  Nb2  1  0.00000000  0.00000000  0.00000000  1
  Ir  Ir3  1  0.00000000  0.50000000  0.50000000  1
