# generated using pymatgen
data_HfScPd2
_symmetry_space_group_name_H-M   'P 1'
_cell_length_a   10.75118289
_cell_length_b   10.75118289
_cell_length_c   10.75118289
_cell_angle_alpha   124.98353465
_cell_angle_beta   119.89957642
_cell_angle_gamma   85.88133686
_symmetry_Int_Tables_number   1
_chemical_formula_structural   HfScPd2
_chemical_formula_sum   'Hf1 Sc1 Pd2'
_cell_volume   841.64539691
_cell_formula_units_Z   1
loop_
 _symmetry_equiv_pos_site_id
 _symmetry_equiv_pos_as_xyz
  1  'x, y, z'
loop_
 _atom_site_type_symbol
 _atom_site_label
 _atom_site_symmetry_multiplicity
 _atom_site_fract_x
 _atom_site_fract_y
 _atom_site_fract_z
 _atom_site_occupancy
  Hf  Hf0  1  0.00000000  0.50000000  0.50000000  1
  Sc  Sc1  1  0.00000000  0.00000000  0.00000000  1
  Pd  Pd2  1  0.00000000  0.25936300  0.25936300  1
  Pd  Pd3  1  0.00000000  0.74063700  0.74063700  1
