# generated using pymatgen
data_MnV2Ru
_symmetry_space_group_name_H-M   'P 1'
_cell_length_a   9.95448005
_cell_length_b   9.95448005
_cell_length_c   9.95448005
_cell_angle_alpha   121.16151444
_cell_angle_beta   118.96598873
_cell_angle_gamma   89.90015073
_symmetry_Int_Tables_number   1
_chemical_formula_structural   MnV2Ru
_chemical_formula_sum   'Mn1 V2 Ru1'
_cell_volume   696.50071305
_cell_formula_units_Z   1
loop_
 _symmetry_equiv_pos_site_id
 _symmetry_equiv_pos_as_xyz
  1  'x, y, z'
loop_
 _atom_site_type_symbol
 _atom_site_label
 _atom_site_symmetry_multiplicity
 _atom_site_fract_x
 _atom_site_fract_y
 _atom_site_fract_z
 _atom_site_occupancy
  Mn  Mn0  1  0.00000000  0.00000000  0.00000000  1
  V  V1  1  0.71069000  0.00000000  0.71069000  1
  V  V2  1  0.28931000  0.00000000  0.28931000  1
  Ru  Ru3  1  0.50000000  0.00000000  0.50000000  1
