# generated using pymatgen
data_AgSnPd2
_symmetry_space_group_name_H-M   'P 1'
_cell_length_a   10.81292101
_cell_length_b   10.81292101
_cell_length_c   10.81292101
_cell_angle_alpha   123.80540934
_cell_angle_beta   118.74987809
_cell_angle_gamma   87.85887577
_symmetry_Int_Tables_number   1
_chemical_formula_structural   AgSnPd2
_chemical_formula_sum   'Ag1 Sn1 Pd2'
_cell_volume   873.78918040
_cell_formula_units_Z   1
loop_
 _symmetry_equiv_pos_site_id
 _symmetry_equiv_pos_as_xyz
  1  'x, y, z'
loop_
 _atom_site_type_symbol
 _atom_site_label
 _atom_site_symmetry_multiplicity
 _atom_site_fract_x
 _atom_site_fract_y
 _atom_site_fract_z
 _atom_site_occupancy
  Ag  Ag0  1  0.00000000  0.00000000  0.00000000  1
  Sn  Sn1  1  0.00000000  0.50000000  0.50000000  1
  Pd  Pd2  1  0.00000000  0.26217400  0.26217400  1
  Pd  Pd3  1  0.00000000  0.73782600  0.73782600  1
