# generated using pymatgen
data_CeSe2
_symmetry_space_group_name_H-M   'P 1'
_cell_length_a   16.69883520
_cell_length_b   16.69883520
_cell_length_c   16.69883520
_cell_angle_alpha   109.47122063
_cell_angle_beta   109.47122063
_cell_angle_gamma   109.47122063
_symmetry_Int_Tables_number   1
_chemical_formula_structural   CeSe2
_chemical_formula_sum   'Ce24 Se48'
_cell_volume   3584.56653234
_cell_formula_units_Z   24
loop_
 _symmetry_equiv_pos_site_id
 _symmetry_equiv_pos_as_xyz
  1  'x, y, z'
loop_
 _atom_site_type_symbol
 _atom_site_label
 _atom_site_symmetry_multiplicity
 _atom_site_fract_x
 _atom_site_fract_y
 _atom_site_fract_z
 _atom_site_occupancy
  Ce  Ce0  1  0.31152700  0.13112500  0.43753800  1
  Ce  Ce1  1  0.18847300  0.62601100  0.81959800  1
  Ce  Ce2  1  0.19358700  0.87398900  0.06246200  1
  Ce  Ce3  1  0.30641300  0.36887500  0.68040200  1
  Ce  Ce4  1  0.36887500  0.68040200  0.30641300  1
  Ce  Ce5  1  0.87398900  0.06246200  0.19358700  1
  Ce  Ce6  1  0.62601100  0.81959800  0.18847300  1
  Ce  Ce7  1  0.13112500  0.43753800  0.31152700  1
  Ce  Ce8  1  0.81959800  0.18847300  0.62601100  1
  Ce  Ce9  1  0.43753800  0.31152700  0.13112500  1
  Ce  Ce10  1  0.68040200  0.30641300  0.36887500  1
  Ce  Ce11  1  0.06246200  0.19358700  0.87398900  1
  Ce  Ce12  1  0.68847300  0.86887500  0.56246200  1
  Ce  Ce13  1  0.81152700  0.37398900  0.18040200  1
  Ce  Ce14  1  0.80641300  0.12601100  0.93753800  1
  Ce  Ce15  1  0.69358700  0.63112500  0.31959800  1
  Ce  Ce16  1  0.63112500  0.31959800  0.69358700  1
  Ce  Ce17  1  0.12601100  0.93753800  0.80641300  1
  Ce  Ce18  1  0.37398900  0.18040200  0.81152700  1
  Ce  Ce19  1  0.86887500  0.56246200  0.68847300  1
  Ce  Ce20  1  0.18040200  0.81152700  0.37398900  1
  Ce  Ce21  1  0.56246200  0.68847300  0.86887500  1
  Ce  Ce22  1  0.31959800  0.69358700  0.63112500  1
  Ce  Ce23  1  0.93753800  0.80641300  0.12601100  1
  Se  Se24  1  0.50634500  0.24022500  0.49929400  1
  Se  Se25  1  0.99365500  0.49294900  0.73388000  1
  Se  Se26  1  0.24093100  0.00705100  0.00070600  1
  Se  Se27  1  0.25906900  0.25977500  0.76612000  1
  Se  Se28  1  0.25977500  0.76612000  0.25906900  1
  Se  Se29  1  0.00705100  0.00070600  0.24093100  1
  Se  Se30  1  0.49294900  0.73388000  0.99365500  1
  Se  Se31  1  0.24022500  0.49929400  0.50634500  1
  Se  Se32  1  0.73388000  0.99365500  0.49294900  1
  Se  Se33  1  0.49929400  0.50634500  0.24022500  1
  Se  Se34  1  0.76612000  0.25906900  0.25977500  1
  Se  Se35  1  0.00070600  0.24093100  0.00705100  1
  Se  Se36  1  0.49365500  0.75977500  0.50070600  1
  Se  Se37  1  0.00634500  0.50705100  0.26612000  1
  Se  Se38  1  0.75906900  0.99294900  0.99929400  1
  Se  Se39  1  0.74093100  0.74022500  0.23388000  1
  Se  Se40  1  0.74022500  0.23388000  0.74093100  1
  Se  Se41  1  0.99294900  0.99929400  0.75906900  1
  Se  Se42  1  0.50705100  0.26612000  0.00634500  1
  Se  Se43  1  0.75977500  0.50070600  0.49365500  1
  Se  Se44  1  0.26612000  0.00634500  0.50705100  1
  Se  Se45  1  0.50070600  0.49365500  0.75977500  1
  Se  Se46  1  0.23388000  0.74093100  0.74022500  1
  Se  Se47  1  0.99929400  0.75906900  0.99294900  1
  Se  Se48  1  0.23657100  0.25000000  0.48657100  1
  Se  Se49  1  0.26342900  0.75000000  0.01342900  1
  Se  Se50  1  0.25000000  0.48657100  0.23657100  1
  Se  Se51  1  0.75000000  0.01342900  0.26342900  1
  Se  Se52  1  0.01342900  0.26342900  0.75000000  1
  Se  Se53  1  0.48657100  0.23657100  0.25000000  1
  Se  Se54  1  0.76342900  0.75000000  0.51342900  1
  Se  Se55  1  0.73657100  0.25000000  0.98657100  1
  Se  Se56  1  0.75000000  0.51342900  0.76342900  1
  Se  Se57  1  0.25000000  0.98657100  0.73657100  1
  Se  Se58  1  0.98657100  0.73657100  0.25000000  1
  Se  Se59  1  0.51342900  0.76342900  0.75000000  1
  Se  Se60  1  0.25350300  0.00350300  0.25000000  1
  Se  Se61  1  0.24649700  0.49649700  0.75000000  1
  Se  Se62  1  0.49649700  0.75000000  0.24649700  1
  Se  Se63  1  0.00350300  0.25000000  0.25350300  1
  Se  Se64  1  0.75000000  0.24649700  0.49649700  1
  Se  Se65  1  0.25000000  0.25350300  0.00350300  1
  Se  Se66  1  0.74649700  0.99649700  0.75000000  1
  Se  Se67  1  0.75350300  0.50350300  0.25000000  1
  Se  Se68  1  0.50350300  0.25000000  0.75350300  1
  Se  Se69  1  0.99649700  0.75000000  0.74649700  1
  Se  Se70  1  0.25000000  0.75350300  0.50350300  1
  Se  Se71  1  0.75000000  0.74649700  0.99649700  1
