# generated using pymatgen
data_ScZn2Cd
_symmetry_space_group_name_H-M   'P 1'
_cell_length_a   11.21735714
_cell_length_b   11.21735714
_cell_length_c   11.21735714
_cell_angle_alpha   121.17313153
_cell_angle_beta   119.56578332
_cell_angle_gamma   89.36696291
_symmetry_Int_Tables_number   1
_chemical_formula_structural   ScZn2Cd
_chemical_formula_sum   'Sc1 Zn2 Cd1'
_cell_volume   992.17336085
_cell_formula_units_Z   1
loop_
 _symmetry_equiv_pos_site_id
 _symmetry_equiv_pos_as_xyz
  1  'x, y, z'
loop_
 _atom_site_type_symbol
 _atom_site_label
 _atom_site_symmetry_multiplicity
 _atom_site_fract_x
 _atom_site_fract_y
 _atom_site_fract_z
 _atom_site_occupancy
  Sc  Sc0  1  0.00000000  0.00000000  0.00000000  1
  Zn  Zn1  1  0.00000000  0.25023000  0.25023000  1
  Zn  Zn2  1  0.00000000  0.74977000  0.74977000  1
  Cd  Cd3  1  0.00000000  0.50000000  0.50000000  1
