# generated using pymatgen
data_Hf2NiOs
_symmetry_space_group_name_H-M   'P 1'
_cell_length_a   10.63780397
_cell_length_b   10.63780397
_cell_length_c   10.63780397
_cell_angle_alpha   127.63970766
_cell_angle_beta   117.59208828
_cell_angle_gamma   85.76383095
_symmetry_Int_Tables_number   1
_chemical_formula_structural   Hf2NiOs
_chemical_formula_sum   'Hf2 Ni1 Os1'
_cell_volume   806.50813419
_cell_formula_units_Z   1
loop_
 _symmetry_equiv_pos_site_id
 _symmetry_equiv_pos_as_xyz
  1  'x, y, z'
loop_
 _atom_site_type_symbol
 _atom_site_label
 _atom_site_symmetry_multiplicity
 _atom_site_fract_x
 _atom_site_fract_y
 _atom_site_fract_z
 _atom_site_occupancy
  Hf  Hf0  1  0.00000000  0.25282200  0.25282200  1
  Hf  Hf1  1  0.00000000  0.74717800  0.74717800  1
  Ni  Ni2  1  0.00000000  0.00000000  0.00000000  1
  Os  Os3  1  0.00000000  0.50000000  0.50000000  1
