# generated using pymatgen
data_Nb2CuTc
_symmetry_space_group_name_H-M   'P 1'
_cell_length_a   10.40239816
_cell_length_b   10.40239816
_cell_length_c   10.40239816
_cell_angle_alpha   123.45293250
_cell_angle_beta   117.91318286
_cell_angle_gamma   88.88925640
_symmetry_Int_Tables_number   1
_chemical_formula_structural   Nb2CuTc
_chemical_formula_sum   'Nb2 Cu1 Tc1'
_cell_volume   785.21277061
_cell_formula_units_Z   1
loop_
 _symmetry_equiv_pos_site_id
 _symmetry_equiv_pos_as_xyz
  1  'x, y, z'
loop_
 _atom_site_type_symbol
 _atom_site_label
 _atom_site_symmetry_multiplicity
 _atom_site_fract_x
 _atom_site_fract_y
 _atom_site_fract_z
 _atom_site_occupancy
  Nb  Nb0  1  0.00000000  0.26938600  0.26938600  1
  Nb  Nb1  1  0.00000000  0.73061400  0.73061400  1
  Cu  Cu2  1  0.00000000  0.00000000  0.00000000  1
  Tc  Tc3  1  0.00000000  0.50000000  0.50000000  1
