# generated using pymatgen
data_CsRb2Bi
_symmetry_space_group_name_H-M   'P 1'
_cell_length_a   15.93608821
_cell_length_b   15.93608821
_cell_length_c   15.93608821
_cell_angle_alpha   121.74546026
_cell_angle_beta   116.86028327
_cell_angle_gamma   91.26273142
_symmetry_Int_Tables_number   1
_chemical_formula_structural   CsRb2Bi
_chemical_formula_sum   'Cs1 Rb2 Bi1'
_cell_volume   2884.73825796
_cell_formula_units_Z   1
loop_
 _symmetry_equiv_pos_site_id
 _symmetry_equiv_pos_as_xyz
  1  'x, y, z'
loop_
 _atom_site_type_symbol
 _atom_site_label
 _atom_site_symmetry_multiplicity
 _atom_site_fract_x
 _atom_site_fract_y
 _atom_site_fract_z
 _atom_site_occupancy
  Cs  Cs0  1  0.00000000  0.00000000  0.00000000  1
  Rb  Rb1  1  0.28520200  0.00000000  0.28520200  1
  Rb  Rb2  1  0.71479800  0.00000000  0.71479800  1
  Bi  Bi3  1  0.50000000  0.00000000  0.50000000  1
