# generated using pymatgen
data_Sr2CdAg
_symmetry_space_group_name_H-M   'P 1'
_cell_length_a   13.44623802
_cell_length_b   13.44623802
_cell_length_c   13.44623802
_cell_angle_alpha   120.22162440
_cell_angle_beta   119.08902290
_cell_angle_gamma   90.60081047
_symmetry_Int_Tables_number   1
_chemical_formula_structural   Sr2CdAg
_chemical_formula_sum   'Sr2 Cd1 Ag1'
_cell_volume   1727.69024162
_cell_formula_units_Z   1
loop_
 _symmetry_equiv_pos_site_id
 _symmetry_equiv_pos_as_xyz
  1  'x, y, z'
loop_
 _atom_site_type_symbol
 _atom_site_label
 _atom_site_symmetry_multiplicity
 _atom_site_fract_x
 _atom_site_fract_y
 _atom_site_fract_z
 _atom_site_occupancy
  Sr  Sr0  1  0.76649200  0.00000000  0.76649200  1
  Sr  Sr1  1  0.23350800  0.00000000  0.23350800  1
  Cd  Cd2  1  0.50000000  0.00000000  0.50000000  1
  Ag  Ag3  1  0.00000000  0.00000000  0.00000000  1
