# generated using pymatgen
data_Hf2ReAg
_symmetry_space_group_name_H-M   'P 1'
_cell_length_a   11.42181225
_cell_length_b   11.42181225
_cell_length_c   11.42181225
_cell_angle_alpha   125.90137774
_cell_angle_beta   118.12011091
_cell_angle_gamma   86.69143218
_symmetry_Int_Tables_number   1
_chemical_formula_structural   Hf2ReAg
_chemical_formula_sum   'Hf2 Re1 Ag1'
_cell_volume   1013.43154631
_cell_formula_units_Z   1
loop_
 _symmetry_equiv_pos_site_id
 _symmetry_equiv_pos_as_xyz
  1  'x, y, z'
loop_
 _atom_site_type_symbol
 _atom_site_label
 _atom_site_symmetry_multiplicity
 _atom_site_fract_x
 _atom_site_fract_y
 _atom_site_fract_z
 _atom_site_occupancy
  Hf  Hf0  1  0.00000000  0.27943400  0.27943400  1
  Hf  Hf1  1  0.00000000  0.72056600  0.72056600  1
  Re  Re2  1  0.00000000  0.50000000  0.50000000  1
  Ag  Ag3  1  0.00000000  0.00000000  0.00000000  1
