# generated using pymatgen
data_MgCdPt2
_symmetry_space_group_name_H-M   'P 1'
_cell_length_a   10.92908459
_cell_length_b   10.92908459
_cell_length_c   10.92908459
_cell_angle_alpha   125.19276484
_cell_angle_beta   118.20172026
_cell_angle_gamma   87.19675433
_symmetry_Int_Tables_number   1
_chemical_formula_structural   MgCdPt2
_chemical_formula_sum   'Mg1 Cd1 Pt2'
_cell_volume   893.77553249
_cell_formula_units_Z   1
loop_
 _symmetry_equiv_pos_site_id
 _symmetry_equiv_pos_as_xyz
  1  'x, y, z'
loop_
 _atom_site_type_symbol
 _atom_site_label
 _atom_site_symmetry_multiplicity
 _atom_site_fract_x
 _atom_site_fract_y
 _atom_site_fract_z
 _atom_site_occupancy
  Mg  Mg0  1  0.00000000  0.00000000  0.00000000  1
  Cd  Cd1  1  0.00000000  0.50000000  0.50000000  1
  Pt  Pt2  1  0.00000000  0.24181700  0.24181700  1
  Pt  Pt3  1  0.00000000  0.75818300  0.75818300  1
