# generated using pymatgen
data_Ti2IrRu
_symmetry_space_group_name_H-M   'P 1'
_cell_length_a   10.13002970
_cell_length_b   10.13002970
_cell_length_c   10.13002970
_cell_angle_alpha   127.96605027
_cell_angle_beta   118.00014512
_cell_angle_gamma   85.14305219
_symmetry_Int_Tables_number   1
_chemical_formula_structural   Ti2IrRu
_chemical_formula_sum   'Ti2 Ir1 Ru1'
_cell_volume   691.78270823
_cell_formula_units_Z   1
loop_
 _symmetry_equiv_pos_site_id
 _symmetry_equiv_pos_as_xyz
  1  'x, y, z'
loop_
 _atom_site_type_symbol
 _atom_site_label
 _atom_site_symmetry_multiplicity
 _atom_site_fract_x
 _atom_site_fract_y
 _atom_site_fract_z
 _atom_site_occupancy
  Ti  Ti0  1  0.00000000  0.24485700  0.24485700  1
  Ti  Ti1  1  0.00000000  0.75514300  0.75514300  1
  Ir  Ir2  1  0.00000000  0.50000000  0.50000000  1
  Ru  Ru3  1  0.00000000  0.00000000  0.00000000  1
