# generated using pymatgen
data_Y2InRu
_symmetry_space_group_name_H-M   'P 1'
_cell_length_a   11.64771668
_cell_length_b   11.64771668
_cell_length_c   11.64771668
_cell_angle_alpha   124.82811757
_cell_angle_beta   119.06691023
_cell_angle_gamma   86.73540271
_symmetry_Int_Tables_number   1
_chemical_formula_structural   Y2InRu
_chemical_formula_sum   'Y2 In1 Ru1'
_cell_volume   1078.91391082
_cell_formula_units_Z   1
loop_
 _symmetry_equiv_pos_site_id
 _symmetry_equiv_pos_as_xyz
  1  'x, y, z'
loop_
 _atom_site_type_symbol
 _atom_site_label
 _atom_site_symmetry_multiplicity
 _atom_site_fract_x
 _atom_site_fract_y
 _atom_site_fract_z
 _atom_site_occupancy
  Y  Y0  1  0.00000000  0.21418000  0.21418000  1
  Y  Y1  1  0.00000000  0.78582000  0.78582000  1
  In  In2  1  0.00000000  0.50000000  0.50000000  1
  Ru  Ru3  1  0.00000000  0.00000000  0.00000000  1
