# generated using pymatgen
data_CsRbI2
_symmetry_space_group_name_H-M   'P 1'
_cell_length_a   13.71097278
_cell_length_b   13.71097278
_cell_length_c   13.71097278
_cell_angle_alpha   120.48384598
_cell_angle_beta   118.58758783
_cell_angle_gamma   90.81379584
_symmetry_Int_Tables_number   1
_chemical_formula_structural   CsRbI2
_chemical_formula_sum   'Cs1 Rb1 I2'
_cell_volume   1834.56598340
_cell_formula_units_Z   1
loop_
 _symmetry_equiv_pos_site_id
 _symmetry_equiv_pos_as_xyz
  1  'x, y, z'
loop_
 _atom_site_type_symbol
 _atom_site_label
 _atom_site_symmetry_multiplicity
 _atom_site_fract_x
 _atom_site_fract_y
 _atom_site_fract_z
 _atom_site_occupancy
  Cs  Cs0  1  0.50000000  0.00000000  0.50000000  1
  Rb  Rb1  1  0.00000000  0.00000000  0.00000000  1
  I  I2  1  0.24340800  0.00000000  0.24340800  1
  I  I3  1  0.75659200  0.00000000  0.75659200  1
