# generated using pymatgen
data_Ce2Cd(SeO)2
_symmetry_space_group_name_H-M   'P 1'
_cell_length_a   3.99287000
_cell_length_b   3.99287000
_cell_length_c   18.86023300
_cell_angle_alpha   90.00000000
_cell_angle_beta   90.00000000
_cell_angle_gamma   90.00000000
_symmetry_Int_Tables_number   1
_chemical_formula_structural   Ce2Cd(SeO)2
_chemical_formula_sum   'Ce4 Cd2 Se4 O4'
_cell_volume   300.68889911
_cell_formula_units_Z   2
loop_
 _symmetry_equiv_pos_site_id
 _symmetry_equiv_pos_as_xyz
  1  'x, y, z'
loop_
 _atom_site_type_symbol
 _atom_site_label
 _atom_site_symmetry_multiplicity
 _atom_site_fract_x
 _atom_site_fract_y
 _atom_site_fract_z
 _atom_site_occupancy
  Ce  Ce0  1  0.50000000  0.00000000  0.68449600  1
  Ce  Ce1  1  0.00000000  0.50000000  0.81550400  1
  Ce  Ce2  1  0.00000000  0.50000000  0.31550400  1
  Ce  Ce3  1  0.50000000  0.00000000  0.18449600  1
  Cd  Cd4  1  0.50000000  0.50000000  0.50000000  1
  Cd  Cd5  1  0.00000000  0.00000000  0.00000000  1
  Se  Se6  1  0.00000000  0.50000000  0.09712800  1
  Se  Se7  1  0.50000000  0.00000000  0.40287200  1
  Se  Se8  1  0.50000000  0.00000000  0.90287200  1
  Se  Se9  1  0.00000000  0.50000000  0.59712800  1
  O  O10  1  0.50000000  0.50000000  0.74934600  1
  O  O11  1  0.00000000  0.00000000  0.75065400  1
  O  O12  1  0.50000000  0.50000000  0.25065400  1
  O  O13  1  0.00000000  0.00000000  0.24934600  1
