# generated using pymatgen
data_Sc2CuRh
_symmetry_space_group_name_H-M   'P 1'
_cell_length_a   10.55203621
_cell_length_b   10.55203621
_cell_length_c   10.55203621
_cell_angle_alpha   124.56956875
_cell_angle_beta   117.92629401
_cell_angle_gamma   87.95170851
_symmetry_Int_Tables_number   1
_chemical_formula_structural   Sc2CuRh
_chemical_formula_sum   'Sc2 Cu1 Rh1'
_cell_volume   810.97688337
_cell_formula_units_Z   1
loop_
 _symmetry_equiv_pos_site_id
 _symmetry_equiv_pos_as_xyz
  1  'x, y, z'
loop_
 _atom_site_type_symbol
 _atom_site_label
 _atom_site_symmetry_multiplicity
 _atom_site_fract_x
 _atom_site_fract_y
 _atom_site_fract_z
 _atom_site_occupancy
  Sc  Sc0  1  0.00000000  0.27020500  0.27020500  1
  Sc  Sc1  1  0.00000000  0.72979500  0.72979500  1
  Cu  Cu2  1  0.00000000  0.00000000  0.00000000  1
  Rh  Rh3  1  0.00000000  0.50000000  0.50000000  1
