# generated using pymatgen
data_AlCr2W
_symmetry_space_group_name_H-M   'P 1'
_cell_length_a   10.42357335
_cell_length_b   10.42357335
_cell_length_c   10.42357335
_cell_angle_alpha   121.11720868
_cell_angle_beta   116.58537647
_cell_angle_gamma   92.04467040
_symmetry_Int_Tables_number   1
_chemical_formula_structural   AlCr2W
_chemical_formula_sum   'Al1 Cr2 W1'
_cell_volume   812.63873482
_cell_formula_units_Z   1
loop_
 _symmetry_equiv_pos_site_id
 _symmetry_equiv_pos_as_xyz
  1  'x, y, z'
loop_
 _atom_site_type_symbol
 _atom_site_label
 _atom_site_symmetry_multiplicity
 _atom_site_fract_x
 _atom_site_fract_y
 _atom_site_fract_z
 _atom_site_occupancy
  Al  Al0  1  0.00000000  0.00000000  0.00000000  1
  Cr  Cr1  1  0.23872100  0.00000000  0.23872100  1
  Cr  Cr2  1  0.76127900  0.00000000  0.76127900  1
  W  W3  1  0.50000000  0.00000000  0.50000000  1
