# generated using pymatgen
data_Be2OsAu
_symmetry_space_group_name_H-M   'P 1'
_cell_length_a   9.41766019
_cell_length_b   9.41766019
_cell_length_c   9.41766019
_cell_angle_alpha   125.17825135
_cell_angle_beta   117.95061639
_cell_angle_gamma   87.43042750
_symmetry_Int_Tables_number   1
_chemical_formula_structural   Be2OsAu
_chemical_formula_sum   'Be2 Os1 Au1'
_cell_volume   572.99843233
_cell_formula_units_Z   1
loop_
 _symmetry_equiv_pos_site_id
 _symmetry_equiv_pos_as_xyz
  1  'x, y, z'
loop_
 _atom_site_type_symbol
 _atom_site_label
 _atom_site_symmetry_multiplicity
 _atom_site_fract_x
 _atom_site_fract_y
 _atom_site_fract_z
 _atom_site_occupancy
  Be  Be0  1  0.00000000  0.24466300  0.24466300  1
  Be  Be1  1  0.00000000  0.75533700  0.75533700  1
  Os  Os2  1  0.00000000  0.00000000  0.00000000  1
  Au  Au3  1  0.00000000  0.50000000  0.50000000  1
