# generated using pymatgen
data_GaFeRu2
_symmetry_space_group_name_H-M   'P 1'
_cell_length_a   10.46488661
_cell_length_b   10.46488661
_cell_length_c   10.46488661
_cell_angle_alpha   127.53287695
_cell_angle_beta   110.84033487
_cell_angle_gamma   92.00682066
_symmetry_Int_Tables_number   1
_chemical_formula_structural   GaFeRu2
_chemical_formula_sum   'Ga1 Fe1 Ru2'
_cell_volume   798.85566939
_cell_formula_units_Z   1
loop_
 _symmetry_equiv_pos_site_id
 _symmetry_equiv_pos_as_xyz
  1  'x, y, z'
loop_
 _atom_site_type_symbol
 _atom_site_label
 _atom_site_symmetry_multiplicity
 _atom_site_fract_x
 _atom_site_fract_y
 _atom_site_fract_z
 _atom_site_occupancy
  Ga  Ga0  1  0.00000000  0.50000000  0.50000000  1
  Fe  Fe1  1  0.00000000  0.00000000  0.00000000  1
  Ru  Ru2  1  0.00000000  0.24243000  0.24243000  1
  Ru  Ru3  1  0.00000000  0.75757000  0.75757000  1
