# generated using pymatgen
data_Tb2Cu(GeO3)4
_symmetry_space_group_name_H-M   'P 1'
_cell_length_a   4.99112500
_cell_length_b   7.31600589
_cell_length_c   8.04406403
_cell_angle_alpha   113.73381837
_cell_angle_beta   86.83751459
_cell_angle_gamma   103.21467038
_symmetry_Int_Tables_number   1
_chemical_formula_structural   Tb2Cu(GeO3)4
_chemical_formula_sum   'Tb2 Cu1 Ge4 O12'
_cell_volume   261.54385222
_cell_formula_units_Z   1
loop_
 _symmetry_equiv_pos_site_id
 _symmetry_equiv_pos_as_xyz
  1  'x, y, z'
loop_
 _atom_site_type_symbol
 _atom_site_label
 _atom_site_symmetry_multiplicity
 _atom_site_fract_x
 _atom_site_fract_y
 _atom_site_fract_z
 _atom_site_occupancy
  Tb  Tb0  1  0.95352400  0.76952000  0.54837600  1
  Tb  Tb1  1  0.04647600  0.23048000  0.45162400  1
  Cu  Cu2  1  0.00000000  0.00000000  0.00000000  1
  Ge  Ge3  1  0.46017100  0.83045800  0.22350900  1
  Ge  Ge4  1  0.53982900  0.16954200  0.77649100  1
  Ge  Ge5  1  0.41869000  0.61609100  0.79682800  1
  Ge  Ge6  1  0.58131000  0.38390900  0.20317200  1
  O  O7  1  0.22720100  0.93314100  0.38738600  1
  O  O8  1  0.77279900  0.06685900  0.61261400  1
  O  O9  1  0.20815300  0.57644600  0.61331100  1
  O  O10  1  0.79184700  0.42355400  0.38668900  1
  O  O11  1  0.58097800  0.65612300  0.29239000  1
  O  O12  1  0.41902200  0.34387700  0.70761000  1
  O  O13  1  0.26714500  0.68714800  0.01188900  1
  O  O14  1  0.25669500  0.22339600  0.19214600  1
  O  O15  1  0.74330500  0.77660400  0.80785400  1
  O  O16  1  0.24736500  0.99509200  0.79756900  1
  O  O17  1  0.75263500  0.00490800  0.20243100  1
  O  O18  1  0.73285500  0.31285200  0.98811100  1
