# generated using pymatgen
data_Mg2TlCd
_symmetry_space_group_name_H-M   'P 1'
_cell_length_a   12.61355696
_cell_length_b   12.61355696
_cell_length_c   12.61355696
_cell_angle_alpha   120.69563432
_cell_angle_beta   117.91612624
_cell_angle_gamma   91.22301764
_symmetry_Int_Tables_number   1
_chemical_formula_structural   Mg2TlCd
_chemical_formula_sum   'Mg2 Tl1 Cd1'
_cell_volume   1432.55741584
_cell_formula_units_Z   1
loop_
 _symmetry_equiv_pos_site_id
 _symmetry_equiv_pos_as_xyz
  1  'x, y, z'
loop_
 _atom_site_type_symbol
 _atom_site_label
 _atom_site_symmetry_multiplicity
 _atom_site_fract_x
 _atom_site_fract_y
 _atom_site_fract_z
 _atom_site_occupancy
  Mg  Mg0  1  0.24804000  0.00000000  0.24804000  1
  Mg  Mg1  1  0.75196000  0.00000000  0.75196000  1
  Tl  Tl2  1  0.50000000  0.00000000  0.50000000  1
  Cd  Cd3  1  0.00000000  0.00000000  0.00000000  1
