# generated using pymatgen
data_Y2MgGa
_symmetry_space_group_name_H-M   'P 1'
_cell_length_a   12.59411918
_cell_length_b   12.59411918
_cell_length_c   12.59411918
_cell_angle_alpha   120.51726825
_cell_angle_beta   119.75613911
_cell_angle_gamma   89.76465401
_symmetry_Int_Tables_number   1
_chemical_formula_structural   Y2MgGa
_chemical_formula_sum   'Y2 Mg1 Ga1'
_cell_volume   1409.49018437
_cell_formula_units_Z   1
loop_
 _symmetry_equiv_pos_site_id
 _symmetry_equiv_pos_as_xyz
  1  'x, y, z'
loop_
 _atom_site_type_symbol
 _atom_site_label
 _atom_site_symmetry_multiplicity
 _atom_site_fract_x
 _atom_site_fract_y
 _atom_site_fract_z
 _atom_site_occupancy
  Y  Y0  1  0.00000000  0.27586200  0.27586200  1
  Y  Y1  1  0.00000000  0.72413800  0.72413800  1
  Mg  Mg2  1  0.00000000  0.00000000  0.00000000  1
  Ga  Ga3  1  0.00000000  0.50000000  0.50000000  1
