# generated using pymatgen
data_YZnPt2
_symmetry_space_group_name_H-M   'P 1'
_cell_length_a   11.38087097
_cell_length_b   11.38087097
_cell_length_c   11.38087097
_cell_angle_alpha   129.23397589
_cell_angle_beta   117.10861966
_cell_angle_gamma   84.94180346
_symmetry_Int_Tables_number   1
_chemical_formula_structural   YZnPt2
_chemical_formula_sum   'Y1 Zn1 Pt2'
_cell_volume   972.64045597
_cell_formula_units_Z   1
loop_
 _symmetry_equiv_pos_site_id
 _symmetry_equiv_pos_as_xyz
  1  'x, y, z'
loop_
 _atom_site_type_symbol
 _atom_site_label
 _atom_site_symmetry_multiplicity
 _atom_site_fract_x
 _atom_site_fract_y
 _atom_site_fract_z
 _atom_site_occupancy
  Y  Y0  1  0.00000000  0.50000000  0.50000000  1
  Zn  Zn1  1  0.00000000  0.00000000  0.00000000  1
  Pt  Pt2  1  0.00000000  0.25269900  0.25269900  1
  Pt  Pt3  1  0.00000000  0.74730100  0.74730100  1
