# generated using pymatgen
data_ZnGeRu2
_symmetry_space_group_name_H-M   'P 1'
_cell_length_a   10.09529926
_cell_length_b   10.09529926
_cell_length_c   10.09529926
_cell_angle_alpha   122.42451265
_cell_angle_beta   119.18855392
_cell_angle_gamma   88.63203437
_symmetry_Int_Tables_number   1
_chemical_formula_structural   ZnGeRu2
_chemical_formula_sum   'Zn1 Ge1 Ru2'
_cell_volume   717.68705599
_cell_formula_units_Z   1
loop_
 _symmetry_equiv_pos_site_id
 _symmetry_equiv_pos_as_xyz
  1  'x, y, z'
loop_
 _atom_site_type_symbol
 _atom_site_label
 _atom_site_symmetry_multiplicity
 _atom_site_fract_x
 _atom_site_fract_y
 _atom_site_fract_z
 _atom_site_occupancy
  Zn  Zn0  1  0.00000000  0.00000000  0.00000000  1
  Ge  Ge1  1  0.00000000  0.50000000  0.50000000  1
  Ru  Ru2  1  0.00000000  0.26432800  0.26432800  1
  Ru  Ru3  1  0.00000000  0.73567200  0.73567200  1
