# generated using pymatgen
data_ZrAlTc2
_symmetry_space_group_name_H-M   'P 1'
_cell_length_a   10.94539791
_cell_length_b   10.94539791
_cell_length_c   10.94539791
_cell_angle_alpha   127.46026923
_cell_angle_beta   117.65976602
_cell_angle_gamma   85.84635264
_symmetry_Int_Tables_number   1
_chemical_formula_structural   ZrAlTc2
_chemical_formula_sum   'Zr1 Al1 Tc2'
_cell_volume   879.86008966
_cell_formula_units_Z   1
loop_
 _symmetry_equiv_pos_site_id
 _symmetry_equiv_pos_as_xyz
  1  'x, y, z'
loop_
 _atom_site_type_symbol
 _atom_site_label
 _atom_site_symmetry_multiplicity
 _atom_site_fract_x
 _atom_site_fract_y
 _atom_site_fract_z
 _atom_site_occupancy
  Zr  Zr0  1  0.00000000  0.50000000  0.50000000  1
  Al  Al1  1  0.00000000  0.00000000  0.00000000  1
  Tc  Tc2  1  0.00000000  0.25900500  0.25900500  1
  Tc  Tc3  1  0.00000000  0.74099500  0.74099500  1
