# generated using pymatgen
data_Sr2ZnGa
_symmetry_space_group_name_H-M   'P 1'
_cell_length_a   12.69059954
_cell_length_b   12.69059954
_cell_length_c   12.69059954
_cell_angle_alpha   120.44525435
_cell_angle_beta   118.27254809
_cell_angle_gamma   91.12414962
_symmetry_Int_Tables_number   1
_chemical_formula_structural   Sr2ZnGa
_chemical_formula_sum   'Sr2 Zn1 Ga1'
_cell_volume   1458.27188750
_cell_formula_units_Z   1
loop_
 _symmetry_equiv_pos_site_id
 _symmetry_equiv_pos_as_xyz
  1  'x, y, z'
loop_
 _atom_site_type_symbol
 _atom_site_label
 _atom_site_symmetry_multiplicity
 _atom_site_fract_x
 _atom_site_fract_y
 _atom_site_fract_z
 _atom_site_occupancy
  Sr  Sr0  1  0.73285800  0.00000000  0.73285800  1
  Sr  Sr1  1  0.26714200  0.00000000  0.26714200  1
  Zn  Zn2  1  0.00000000  0.00000000  0.00000000  1
  Ga  Ga3  1  0.50000000  0.00000000  0.50000000  1
