# generated using pymatgen
data_Y2PtPb
_symmetry_space_group_name_H-M   'P 1'
_cell_length_a   12.60723053
_cell_length_b   12.60723053
_cell_length_c   12.60723053
_cell_angle_alpha   128.75950663
_cell_angle_beta   117.25073011
_cell_angle_gamma   85.18503533
_symmetry_Int_Tables_number   1
_chemical_formula_structural   Y2PtPb
_chemical_formula_sum   'Y2 Pt1 Pb1'
_cell_volume   1328.39442332
_cell_formula_units_Z   1
loop_
 _symmetry_equiv_pos_site_id
 _symmetry_equiv_pos_as_xyz
  1  'x, y, z'
loop_
 _atom_site_type_symbol
 _atom_site_label
 _atom_site_symmetry_multiplicity
 _atom_site_fract_x
 _atom_site_fract_y
 _atom_site_fract_z
 _atom_site_occupancy
  Y  Y0  1  0.00000000  0.23684300  0.23684300  1
  Y  Y1  1  0.00000000  0.76315700  0.76315700  1
  Pt  Pt2  1  0.00000000  0.00000000  0.00000000  1
  Pb  Pb3  1  0.00000000  0.50000000  0.50000000  1
