# generated using pymatgen
data_Tl2HgSb
_symmetry_space_group_name_H-M   'P 1'
_cell_length_a   12.21407626
_cell_length_b   12.21407626
_cell_length_c   12.21407626
_cell_angle_alpha   124.01766415
_cell_angle_beta   118.58776972
_cell_angle_gamma   87.82493656
_symmetry_Int_Tables_number   1
_chemical_formula_structural   Tl2HgSb
_chemical_formula_sum   'Tl2 Hg1 Sb1'
_cell_volume   1258.37294186
_cell_formula_units_Z   1
loop_
 _symmetry_equiv_pos_site_id
 _symmetry_equiv_pos_as_xyz
  1  'x, y, z'
loop_
 _atom_site_type_symbol
 _atom_site_label
 _atom_site_symmetry_multiplicity
 _atom_site_fract_x
 _atom_site_fract_y
 _atom_site_fract_z
 _atom_site_occupancy
  Tl  Tl0  1  0.00000000  0.23953300  0.23953300  1
  Tl  Tl1  1  0.00000000  0.76046700  0.76046700  1
  Hg  Hg2  1  0.00000000  0.50000000  0.50000000  1
  Sb  Sb3  1  0.00000000  0.00000000  0.00000000  1
