# generated using pymatgen
data_BaNa2Sn
_symmetry_space_group_name_H-M   'P 1'
_cell_length_a   14.15015789
_cell_length_b   14.15015789
_cell_length_c   14.15015789
_cell_angle_alpha   121.68206067
_cell_angle_beta   118.47865456
_cell_angle_gamma   89.88331354
_symmetry_Int_Tables_number   1
_chemical_formula_structural   BaNa2Sn
_chemical_formula_sum   'Ba1 Na2 Sn1'
_cell_volume   1999.00769414
_cell_formula_units_Z   1
loop_
 _symmetry_equiv_pos_site_id
 _symmetry_equiv_pos_as_xyz
  1  'x, y, z'
loop_
 _atom_site_type_symbol
 _atom_site_label
 _atom_site_symmetry_multiplicity
 _atom_site_fract_x
 _atom_site_fract_y
 _atom_site_fract_z
 _atom_site_occupancy
  Ba  Ba0  1  0.00000000  0.50000000  0.50000000  1
  Na  Na1  1  0.00000000  0.21602200  0.21602200  1
  Na  Na2  1  0.00000000  0.78397800  0.78397800  1
  Sn  Sn3  1  0.00000000  0.00000000  0.00000000  1
