# generated using pymatgen
data_Ta2NbMo
_symmetry_space_group_name_H-M   'P 1'
_cell_length_a   10.73139956
_cell_length_b   10.73139956
_cell_length_c   10.73139956
_cell_angle_alpha   128.20639238
_cell_angle_beta   116.61080879
_cell_angle_gamma   86.19139075
_symmetry_Int_Tables_number   1
_chemical_formula_structural   Ta2NbMo
_chemical_formula_sum   'Ta2 Nb1 Mo1'
_cell_volume   828.31681426
_cell_formula_units_Z   1
loop_
 _symmetry_equiv_pos_site_id
 _symmetry_equiv_pos_as_xyz
  1  'x, y, z'
loop_
 _atom_site_type_symbol
 _atom_site_label
 _atom_site_symmetry_multiplicity
 _atom_site_fract_x
 _atom_site_fract_y
 _atom_site_fract_z
 _atom_site_occupancy
  Ta  Ta0  1  0.00000000  0.25068300  0.25068300  1
  Ta  Ta1  1  0.00000000  0.74931700  0.74931700  1
  Nb  Nb2  1  0.00000000  0.00000000  0.00000000  1
  Mo  Mo3  1  0.00000000  0.50000000  0.50000000  1
