# generated using pymatgen
data_ZrCrTc2
_symmetry_space_group_name_H-M   'P 1'
_cell_length_a   10.95981466
_cell_length_b   10.95981466
_cell_length_c   10.95981466
_cell_angle_alpha   129.72745847
_cell_angle_beta   117.80406063
_cell_angle_gamma   83.93908182
_symmetry_Int_Tables_number   1
_chemical_formula_structural   ZrCrTc2
_chemical_formula_sum   'Zr1 Cr1 Tc2'
_cell_volume   858.97432774
_cell_formula_units_Z   1
loop_
 _symmetry_equiv_pos_site_id
 _symmetry_equiv_pos_as_xyz
  1  'x, y, z'
loop_
 _atom_site_type_symbol
 _atom_site_label
 _atom_site_symmetry_multiplicity
 _atom_site_fract_x
 _atom_site_fract_y
 _atom_site_fract_z
 _atom_site_occupancy
  Zr  Zr0  1  0.00000000  0.50000000  0.50000000  1
  Cr  Cr1  1  0.00000000  0.00000000  0.00000000  1
  Tc  Tc2  1  0.00000000  0.25049000  0.25049000  1
  Tc  Tc3  1  0.00000000  0.74951000  0.74951000  1
