# generated using pymatgen
data_YGaPt2
_symmetry_space_group_name_H-M   'P 1'
_cell_length_a   11.36707807
_cell_length_b   11.36707807
_cell_length_c   11.36707807
_cell_angle_alpha   127.07351599
_cell_angle_beta   117.71518664
_cell_angle_gamma   86.10570427
_symmetry_Int_Tables_number   1
_chemical_formula_structural   YGaPt2
_chemical_formula_sum   'Y1 Ga1 Pt2'
_cell_volume   989.37054857
_cell_formula_units_Z   1
loop_
 _symmetry_equiv_pos_site_id
 _symmetry_equiv_pos_as_xyz
  1  'x, y, z'
loop_
 _atom_site_type_symbol
 _atom_site_label
 _atom_site_symmetry_multiplicity
 _atom_site_fract_x
 _atom_site_fract_y
 _atom_site_fract_z
 _atom_site_occupancy
  Y  Y0  1  0.00000000  0.50000000  0.50000000  1
  Ga  Ga1  1  0.00000000  0.00000000  0.00000000  1
  Pt  Pt2  1  0.00000000  0.25117400  0.25117400  1
  Pt  Pt3  1  0.00000000  0.74882600  0.74882600  1
