# generated using pymatgen
data_AlAgO2
_symmetry_space_group_name_H-M   'P 1'
_cell_length_a   6.35348230
_cell_length_b   6.35348230
_cell_length_c   6.35348171
_cell_angle_alpha   26.36572726
_cell_angle_beta   26.36572726
_cell_angle_gamma   26.36572513
_symmetry_Int_Tables_number   1
_chemical_formula_structural   AlAgO2
_chemical_formula_sum   'Al1 Ag1 O2'
_cell_volume   44.57759457
_cell_formula_units_Z   1
loop_
 _symmetry_equiv_pos_site_id
 _symmetry_equiv_pos_as_xyz
  1  'x, y, z'
loop_
 _atom_site_type_symbol
 _atom_site_label
 _atom_site_symmetry_multiplicity
 _atom_site_fract_x
 _atom_site_fract_y
 _atom_site_fract_z
 _atom_site_occupancy
  Al  Al0  1  0.00198600  0.00198600  0.00198600  1
  Ag  Ag1  1  0.83913800  0.83913800  0.83913800  1
  O  O2  1  0.71978200  0.71978200  0.71978200  1
  O  O3  1  0.28009400  0.28009400  0.28009400  1
