# generated using pymatgen
data_BaHo2O4
_symmetry_space_group_name_H-M   'P 1'
_cell_length_a   3.19245500
_cell_length_b   7.77107687
_cell_length_c   6.71173861
_cell_angle_alpha   53.81660589
_cell_angle_beta   90.00000000
_cell_angle_gamma   90.00000000
_symmetry_Int_Tables_number   1
_chemical_formula_structural   BaHo2O4
_chemical_formula_sum   'Ba1 Ho2 O4'
_cell_volume   134.39567549
_cell_formula_units_Z   1
loop_
 _symmetry_equiv_pos_site_id
 _symmetry_equiv_pos_as_xyz
  1  'x, y, z'
loop_
 _atom_site_type_symbol
 _atom_site_label
 _atom_site_symmetry_multiplicity
 _atom_site_fract_x
 _atom_site_fract_y
 _atom_site_fract_z
 _atom_site_occupancy
  Ba  Ba0  1  0.25000000  0.83458200  0.73506600  1
  Ho  Ho1  1  0.75000000  0.46497400  0.46877700  1
  Ho  Ho2  1  0.75000000  0.20362000  0.00240300  1
  O  O3  1  0.25000000  0.16206500  0.74869500  1
  O  O4  1  0.25000000  0.50316000  0.72381800  1
  O  O5  1  0.25000000  0.09081400  0.26210100  1
  O  O6  1  0.25000000  0.59738400  0.20819500  1
