# generated using pymatgen
data_CrN2
_symmetry_space_group_name_H-M   'P 1'
_cell_length_a   17.57440781
_cell_length_b   17.57440781
_cell_length_c   7.99098282
_cell_angle_alpha   89.58473528
_cell_angle_beta   89.58473528
_cell_angle_gamma   145.37090124
_symmetry_Int_Tables_number   1
_chemical_formula_structural   CrN2
_chemical_formula_sum   'Cr22 N44'
_cell_volume   1402.10707907
_cell_formula_units_Z   22
loop_
 _symmetry_equiv_pos_site_id
 _symmetry_equiv_pos_as_xyz
  1  'x, y, z'
loop_
 _atom_site_type_symbol
 _atom_site_label
 _atom_site_symmetry_multiplicity
 _atom_site_fract_x
 _atom_site_fract_y
 _atom_site_fract_z
 _atom_site_occupancy
  Cr  Cr0  1  0.91767400  0.08232600  0.00000000  1
  Cr  Cr1  1  0.08232600  0.91767400  0.00000000  1
  Cr  Cr2  1  0.04131600  0.34676200  0.16465400  1
  Cr  Cr3  1  0.34676200  0.04131600  0.16465400  1
  Cr  Cr4  1  0.95868400  0.65323800  0.83534600  1
  Cr  Cr5  1  0.65323800  0.95868400  0.83534600  1
  Cr  Cr6  1  0.76428000  0.22180600  0.28586700  1
  Cr  Cr7  1  0.22180600  0.76428000  0.28586700  1
  Cr  Cr8  1  0.23572000  0.77819400  0.71413300  1
  Cr  Cr9  1  0.77819400  0.23572000  0.71413300  1
  Cr  Cr10  1  0.82660600  0.92486200  0.36774600  1
  Cr  Cr11  1  0.92486200  0.82660600  0.36774600  1
  Cr  Cr12  1  0.17339400  0.07513800  0.63225400  1
  Cr  Cr13  1  0.07513800  0.17339400  0.63225400  1
  Cr  Cr14  1  0.49957900  0.89534000  0.18411900  1
  Cr  Cr15  1  0.89534000  0.49957900  0.18411900  1
  Cr  Cr16  1  0.50042100  0.10466000  0.81588100  1
  Cr  Cr17  1  0.10466000  0.50042100  0.81588100  1
  Cr  Cr18  1  0.53802900  0.78253300  0.47578800  1
  Cr  Cr19  1  0.78253300  0.53802900  0.47578800  1
  Cr  Cr20  1  0.46197100  0.21746700  0.52421200  1
  Cr  Cr21  1  0.21746700  0.46197100  0.52421200  1
  N  N22  1  0.87391200  0.98450400  0.16393000  1
  N  N23  1  0.98450400  0.87391200  0.16393000  1
  N  N24  1  0.12608800  0.01549600  0.83607000  1
  N  N25  1  0.01549600  0.12608800  0.83607000  1
  N  N26  1  0.38950800  0.61049200  0.50000000  1
  N  N27  1  0.61049200  0.38950800  0.50000000  1
  N  N28  1  0.76568400  0.23431600  0.50000000  1
  N  N29  1  0.23431600  0.76568400  0.50000000  1
  N  N30  1  0.93997900  0.06002100  0.50000000  1
  N  N31  1  0.06002100  0.93997900  0.50000000  1
  N  N32  1  0.11344900  0.46452500  0.01024100  1
  N  N33  1  0.46452500  0.11344900  0.01024100  1
  N  N34  1  0.88655100  0.53547500  0.98975900  1
  N  N35  1  0.53547500  0.88655100  0.98975900  1
  N  N36  1  0.66784500  0.83223200  0.40709600  1
  N  N37  1  0.83223200  0.66784500  0.40709600  1
  N  N38  1  0.33215500  0.16776800  0.59290400  1
  N  N39  1  0.16776800  0.33215500  0.59290400  1
  N  N40  1  0.79615700  0.33513000  0.19904600  1
  N  N41  1  0.33513000  0.79615700  0.19904600  1
  N  N42  1  0.20384300  0.66487000  0.80095400  1
  N  N43  1  0.66487000  0.20384300  0.80095400  1
  N  N44  1  0.00710100  0.23001200  0.08033900  1
  N  N45  1  0.23001200  0.00710100  0.08033900  1
  N  N46  1  0.99289900  0.76998800  0.91966100  1
  N  N47  1  0.76998800  0.99289900  0.91966100  1
  N  N48  1  0.57933800  0.85665600  0.66543200  1
  N  N49  1  0.85665600  0.57933800  0.66543200  1
  N  N50  1  0.42066200  0.14334400  0.33456800  1
  N  N51  1  0.14334400  0.42066200  0.33456800  1
  N  N52  1  0.89432100  0.26797100  0.22918500  1
  N  N53  1  0.26797100  0.89432100  0.22918500  1
  N  N54  1  0.10567900  0.73202900  0.77081500  1
  N  N55  1  0.73202900  0.10567900  0.77081500  1
  N  N56  1  0.83124900  0.83124900  0.39956800  1
  N  N57  1  0.16875100  0.16875100  0.60043200  1
  N  N58  1  0.60940100  0.05731400  0.22569300  1
  N  N59  1  0.05731400  0.60940100  0.22569300  1
  N  N60  1  0.39059900  0.94268600  0.77430700  1
  N  N61  1  0.94268600  0.39059900  0.77430700  1
  N  N62  1  0.51445100  0.83514200  0.33027300  1
  N  N63  1  0.83514200  0.51445100  0.33027300  1
  N  N64  1  0.48554900  0.16485800  0.66972700  1
  N  N65  1  0.16485800  0.48554900  0.66972700  1
