# generated using pymatgen
data_CrN2
_symmetry_space_group_name_H-M   'P 1'
_cell_length_a   14.05973711
_cell_length_b   14.05973711
_cell_length_c   13.03213795
_cell_angle_alpha   71.09319174
_cell_angle_beta   71.09319174
_cell_angle_gamma   23.42371298
_symmetry_Int_Tables_number   1
_chemical_formula_structural   CrN2
_chemical_formula_sum   'Cr14 N28'
_cell_volume   966.39030336
_cell_formula_units_Z   14
loop_
 _symmetry_equiv_pos_site_id
 _symmetry_equiv_pos_as_xyz
  1  'x, y, z'
loop_
 _atom_site_type_symbol
 _atom_site_label
 _atom_site_symmetry_multiplicity
 _atom_site_fract_x
 _atom_site_fract_y
 _atom_site_fract_z
 _atom_site_occupancy
  Cr  Cr0  1  0.93017400  0.93017400  0.16768700  1
  Cr  Cr1  1  0.06982600  0.06982600  0.83231300  1
  Cr  Cr2  1  0.93766700  0.93766700  0.90813800  1
  Cr  Cr3  1  0.06233300  0.06233300  0.09186200  1
  Cr  Cr4  1  0.62972400  0.62972400  0.71235400  1
  Cr  Cr5  1  0.37027600  0.37027600  0.28764600  1
  Cr  Cr6  1  0.62168300  0.62168300  0.12141200  1
  Cr  Cr7  1  0.37831700  0.37831700  0.87858800  1
  Cr  Cr8  1  0.70953300  0.70953300  0.86336400  1
  Cr  Cr9  1  0.29046700  0.29046700  0.13663600  1
  Cr  Cr10  1  0.72087600  0.72087600  0.21377700  1
  Cr  Cr11  1  0.27912400  0.27912400  0.78622300  1
  Cr  Cr12  1  0.71898400  0.71898400  0.47904300  1
  Cr  Cr13  1  0.28101600  0.28101600  0.52095700  1
  N  N14  1  0.91542800  0.91542800  0.04846400  1
  N  N15  1  0.08457200  0.08457200  0.95153600  1
  N  N16  1  0.99519500  0.99519500  0.13452800  1
  N  N17  1  0.00480500  0.00480500  0.86547200  1
  N  N18  1  0.14966100  0.65954300  0.24553800  1
  N  N19  1  0.65954300  0.14966100  0.24553800  1
  N  N20  1  0.85033900  0.34045700  0.75446200  1
  N  N21  1  0.34045700  0.85033900  0.75446200  1
  N  N22  1  0.67741600  0.67741600  0.77134600  1
  N  N23  1  0.32258400  0.32258400  0.22865400  1
  N  N24  1  0.33042400  0.83889000  0.13795800  1
  N  N25  1  0.83889000  0.33042400  0.13795800  1
  N  N26  1  0.66957600  0.16111000  0.86204200  1
  N  N27  1  0.16111000  0.66957600  0.86204200  1
  N  N28  1  0.65728500  0.65728500  0.57242700  1
  N  N29  1  0.34271500  0.34271500  0.42757300  1
  N  N30  1  0.00000000  0.50000000  0.50000000  1
  N  N31  1  0.50000000  0.00000000  0.50000000  1
  N  N32  1  0.00032900  0.51000400  0.15035700  1
  N  N33  1  0.51000400  0.00032900  0.15035700  1
  N  N34  1  0.99967100  0.48999600  0.84964300  1
  N  N35  1  0.48999600  0.99967100  0.84964300  1
  N  N36  1  0.65933100  0.65933100  0.20485100  1
  N  N37  1  0.34066900  0.34066900  0.79514900  1
  N  N38  1  0.66233000  0.66233000  0.99195300  1
  N  N39  1  0.33767000  0.33767000  0.00804700  1
  N  N40  1  0.71628100  0.71628100  0.34798400  1
  N  N41  1  0.28371900  0.28371900  0.65201600  1
