# generated using pymatgen
data_CrN2
_symmetry_space_group_name_H-M   'P 1'
_cell_length_a   9.68757400
_cell_length_b   9.76643844
_cell_length_c   18.07674532
_cell_angle_alpha   90.00197026
_cell_angle_beta   90.07894171
_cell_angle_gamma   119.71755759
_symmetry_Int_Tables_number   1
_chemical_formula_structural   CrN2
_chemical_formula_sum   'Cr24 N48'
_cell_volume   1485.35606435
_cell_formula_units_Z   24
loop_
 _symmetry_equiv_pos_site_id
 _symmetry_equiv_pos_as_xyz
  1  'x, y, z'
loop_
 _atom_site_type_symbol
 _atom_site_label
 _atom_site_symmetry_multiplicity
 _atom_site_fract_x
 _atom_site_fract_y
 _atom_site_fract_z
 _atom_site_occupancy
  Cr  Cr0  1  0.06462600  0.38605100  0.16312500  1
  Cr  Cr1  1  0.39176500  0.06225100  0.17597100  1
  Cr  Cr2  1  0.71183800  0.70966500  0.15271700  1
  Cr  Cr3  1  0.38733600  0.37542100  0.08991700  1
  Cr  Cr4  1  0.71658300  0.05658600  0.10950700  1
  Cr  Cr5  1  0.06624300  0.72718600  0.10985800  1
  Cr  Cr6  1  0.02552100  0.38738900  0.35269000  1
  Cr  Cr7  1  0.35333500  0.39635700  0.42718300  1
  Cr  Cr8  1  0.35138300  0.06385700  0.36421800  1
  Cr  Cr9  1  0.68809500  0.04775200  0.40766700  1
  Cr  Cr10  1  0.67110400  0.71051600  0.34154300  1
  Cr  Cr11  1  0.00838500  0.71651100  0.40684600  1
  Cr  Cr12  1  0.39559000  0.39856200  0.61614200  1
  Cr  Cr13  1  0.72981900  0.05000900  0.59697600  1
  Cr  Cr14  1  0.04876700  0.71854600  0.59649400  1
  Cr  Cr15  1  0.05003700  0.38892800  0.66468400  1
  Cr  Cr16  1  0.38853600  0.04765100  0.65224900  1
  Cr  Cr17  1  0.73315000  0.72933400  0.67570000  1
  Cr  Cr18  1  0.00872000  0.38778300  0.85378700  1
  Cr  Cr19  1  0.34696000  0.37603200  0.90100500  1
  Cr  Cr20  1  0.34658400  0.04488900  0.84129600  1
  Cr  Cr21  1  0.67558500  0.05672400  0.92018000  1
  Cr  Cr22  1  0.69008900  0.72689200  0.86478800  1
  Cr  Cr23  1  0.02474600  0.72594400  0.92110500  1
  N  N24  1  0.06400400  0.55001100  0.13572800  1
  N  N25  1  0.39482300  0.21381900  0.13108200  1
  N  N26  1  0.71723000  0.87709200  0.12672900  1
  N  N27  1  0.23325900  0.38800300  0.12957600  1
  N  N28  1  0.56666700  0.54764700  0.10902400  1
  N  N29  1  0.56659100  0.05877200  0.15935800  1
  N  N30  1  0.90125100  0.21799800  0.13521600  1
  N  N31  1  0.89572000  0.72358000  0.13902100  1
  N  N32  1  0.23447700  0.88810000  0.14991000  1
  N  N33  1  0.06126600  0.38538100  0.26324400  1
  N  N34  1  0.36857100  0.08469200  0.27371600  1
  N  N35  1  0.66821200  0.68911700  0.25025500  1
  N  N36  1  0.17809100  0.39362500  0.40408100  1
  N  N37  1  0.00492500  0.55215500  0.37365800  1
  N  N38  1  0.50529300  0.54683500  0.38346800  1
  N  N39  1  0.51553600  0.05862900  0.39713500  1
  N  N40  1  0.33743000  0.22098000  0.40438100  1
  N  N41  1  0.84632100  0.21191900  0.37588300  1
  N  N42  1  0.84123000  0.72108500  0.37573200  1
  N  N43  1  0.66660900  0.88258200  0.36546700  1
  N  N44  1  0.17324400  0.88394900  0.38329000  1
  N  N45  1  0.38950900  0.41900200  0.52602200  1
  N  N46  1  0.72244000  0.03751800  0.50542300  1
  N  N47  1  0.00906200  0.70548300  0.50667600  1
  N  N48  1  0.23102500  0.39454100  0.65454200  1
  N  N49  1  0.57224500  0.55513200  0.65313300  1
  N  N50  1  0.56536300  0.05640900  0.62693600  1
  N  N51  1  0.90266500  0.22029000  0.62724300  1
  N  N52  1  0.90348500  0.72935500  0.64636100  1
  N  N53  1  0.23318700  0.88750000  0.61298200  1
  N  N54  1  0.05716900  0.54972400  0.62729100  1
  N  N55  1  0.39440500  0.21812100  0.63169700  1
  N  N56  1  0.72850300  0.88278300  0.63665000  1
  N  N57  1  0.00949600  0.38948400  0.76224800  1
  N  N58  1  0.36219400  0.02475600  0.75094700  1
  N  N59  1  0.72652200  0.74643300  0.77525200  1
  N  N60  1  0.17844600  0.38935100  0.88214700  1
  N  N61  1  0.00544300  0.55413800  0.88951500  1
  N  N62  1  0.51108200  0.54508900  0.87869000  1
  N  N63  1  0.50800400  0.05668100  0.88651800  1
  N  N64  1  0.33536300  0.21583200  0.85815200  1
  N  N65  1  0.83827100  0.21518000  0.88692900  1
  N  N66  1  0.84633200  0.72537500  0.90945100  1
  N  N67  1  0.66598800  0.88458400  0.89663300  1
  N  N68  1  0.17306500  0.88116500  0.87791100  1
  N  N69  1  0.35936700  0.35147100  0.99902600  1
  N  N70  1  0.68537800  0.06595700  0.02023500  1
  N  N71  1  0.07244300  0.74023300  0.01869000  1
