# generated using pymatgen
data_CsBiSe2
_symmetry_space_group_name_H-M   'P 1'
_cell_length_a   4.40214080
_cell_length_b   4.40214080
_cell_length_c   9.08096900
_cell_angle_alpha   90.00000000
_cell_angle_beta   90.00000000
_cell_angle_gamma   120.00001209
_symmetry_Int_Tables_number   1
_chemical_formula_structural   CsBiSe2
_chemical_formula_sum   'Cs1 Bi1 Se2'
_cell_volume   152.40198759
_cell_formula_units_Z   1
loop_
 _symmetry_equiv_pos_site_id
 _symmetry_equiv_pos_as_xyz
  1  'x, y, z'
loop_
 _atom_site_type_symbol
 _atom_site_label
 _atom_site_symmetry_multiplicity
 _atom_site_fract_x
 _atom_site_fract_y
 _atom_site_fract_z
 _atom_site_occupancy
  Cs  Cs0  1  0.00000000  0.00000000  0.42255700  1
  Bi  Bi1  1  0.33333300  0.66666700  0.97573000  1
  Se  Se2  1  0.66666700  0.33333300  0.16159300  1
  Se  Se3  1  0.00000000  0.00000000  0.80612100  1
