# generated using pymatgen
data_FeAgS2
_symmetry_space_group_name_H-M   'P 1'
_cell_length_a   7.09407078
_cell_length_b   7.09407078
_cell_length_c   7.09407023
_cell_angle_alpha   27.47160211
_cell_angle_beta   27.47160211
_cell_angle_gamma   27.47160491
_symmetry_Int_Tables_number   1
_chemical_formula_structural   FeAgS2
_chemical_formula_sum   'Fe1 Ag1 S2'
_cell_volume   67.05542968
_cell_formula_units_Z   1
loop_
 _symmetry_equiv_pos_site_id
 _symmetry_equiv_pos_as_xyz
  1  'x, y, z'
loop_
 _atom_site_type_symbol
 _atom_site_label
 _atom_site_symmetry_multiplicity
 _atom_site_fract_x
 _atom_site_fract_y
 _atom_site_fract_z
 _atom_site_occupancy
  Fe  Fe0  1  0.99991500  0.99991500  0.99991500  1
  Ag  Ag1  1  0.84395000  0.84395000  0.84395000  1
  S  S2  1  0.72400800  0.72400800  0.72400800  1
  S  S3  1  0.27312700  0.27312700  0.27312700  1
