# generated using pymatgen
data_FeO2
_symmetry_space_group_name_H-M   'P 1'
_cell_length_a   5.76880650
_cell_length_b   5.76880650
_cell_length_c   3.89731400
_cell_angle_alpha   90.00000000
_cell_angle_beta   90.00000000
_cell_angle_gamma   149.39585169
_symmetry_Int_Tables_number   1
_chemical_formula_structural   FeO2
_chemical_formula_sum   'Fe2 O4'
_cell_volume   66.03035377
_cell_formula_units_Z   2
loop_
 _symmetry_equiv_pos_site_id
 _symmetry_equiv_pos_as_xyz
  1  'x, y, z'
loop_
 _atom_site_type_symbol
 _atom_site_label
 _atom_site_symmetry_multiplicity
 _atom_site_fract_x
 _atom_site_fract_y
 _atom_site_fract_z
 _atom_site_occupancy
  Fe  Fe0  1  0.33760700  0.66239300  0.75000000  1
  Fe  Fe1  1  0.66239300  0.33760700  0.25000000  1
  O  O2  1  0.70930100  0.29069900  0.75000000  1
  O  O3  1  0.29069900  0.70930100  0.25000000  1
  O  O4  1  0.94778500  0.05221500  0.75000000  1
  O  O5  1  0.05221500  0.94778500  0.25000000  1
