# generated using pymatgen
data_H6PbCNCl3
_symmetry_space_group_name_H-M   'P 1'
_cell_length_a   8.21848184
_cell_length_b   8.21792641
_cell_length_c   12.34989255
_cell_angle_alpha   91.31147587
_cell_angle_beta   90.88824957
_cell_angle_gamma   89.96553345
_symmetry_Int_Tables_number   1
_chemical_formula_structural   H6PbCNCl3
_chemical_formula_sum   'H24 Pb4 C4 N4 Cl12'
_cell_volume   833.77917165
_cell_formula_units_Z   4
loop_
 _symmetry_equiv_pos_site_id
 _symmetry_equiv_pos_as_xyz
  1  'x, y, z'
loop_
 _atom_site_type_symbol
 _atom_site_label
 _atom_site_symmetry_multiplicity
 _atom_site_fract_x
 _atom_site_fract_y
 _atom_site_fract_z
 _atom_site_occupancy
  H  H0  1  0.41256200  0.91423700  0.70544500  1
  H  H1  1  0.62574000  0.96183800  0.70827800  1
  H  H2  1  0.39396100  0.03828000  0.88733200  1
  H  H3  1  0.58815000  0.08959900  0.88767100  1
  H  H4  1  0.54004000  0.89474300  0.88885000  1
  H  H5  1  0.91722600  0.41106500  0.70223300  1
  H  H6  1  0.12780200  0.46884200  0.70814500  1
  H  H7  1  0.88715000  0.52355200  0.88423800  1
  H  H8  1  0.07984900  0.58659900  0.89089700  1
  H  H9  1  0.03701200  0.38902000  0.88507600  1
  H  H10  1  0.87753400  0.48936800  0.20295600  1
  H  H11  1  0.07251800  0.39148700  0.20719600  1
  H  H12  1  0.92646900  0.59368800  0.38702300  1
  H  H13  1  0.11189900  0.51026700  0.38982100  1
  H  H14  1  0.94846300  0.39346800  0.38419400  1
  H  H15  1  0.41811900  0.91101300  0.20297000  1
  H  H16  1  0.62722600  0.97410900  0.20826200  1
  H  H17  1  0.38802700  0.01998800  0.38612700  1
  H  H18  1  0.57968800  0.08702600  0.39175000  1
  H  H19  1  0.54054200  0.88877400  0.38506400  1
  H  H20  1  0.05990200  0.60952800  0.20807100  1
  H  H21  1  0.97260300  0.62235300  0.70723600  1
  H  H22  1  0.47819700  0.12248300  0.70658500  1
  H  H23  1  0.46809200  0.12360300  0.20924400  1
  Pb  Pb24  1  0.99616100  0.99790100  0.02417100  1
  Pb  Pb25  1  0.49803800  0.49917100  0.52440000  1
  Pb  Pb26  1  0.00446500  0.99858100  0.52438500  1
  Pb  Pb27  1  0.49680300  0.49763400  0.02405400  1
  C  C28  1  0.50400000  0.00239100  0.23516400  1
  C  C29  1  0.00498500  0.50080000  0.73412600  1
  C  C30  1  0.00214200  0.49749300  0.23436300  1
  C  C31  1  0.50505600  0.00006700  0.73510300  1
  N  N32  1  0.50245300  0.99937100  0.35588800  1
  N  N33  1  0.00164500  0.49989900  0.85504600  1
  N  N34  1  0.99723500  0.49927500  0.35522100  1
  N  N35  1  0.50548600  0.00463600  0.85618300  1
  Cl  Cl36  1  0.00164500  0.00116200  0.23874300  1
  Cl  Cl37  1  0.50163500  0.49876900  0.73879300  1
  Cl  Cl38  1  0.99933500  0.99976200  0.73869300  1
  Cl  Cl39  1  0.50106300  0.50102700  0.23860400  1
  Cl  Cl40  1  0.22911500  0.73265200  0.99912000  1
  Cl  Cl41  1  0.73703500  0.23514300  0.49496900  1
  Cl  Cl42  1  0.25677000  0.22560700  0.99639900  1
  Cl  Cl43  1  0.76747000  0.73521800  0.49436800  1
  Cl  Cl44  1  0.76086700  0.26422500  0.99474700  1
  Cl  Cl45  1  0.26857700  0.76657900  0.49944200  1
  Cl  Cl46  1  0.72395300  0.75837300  0.99665500  1
  Cl  Cl47  1  0.23462700  0.26811300  0.49886200  1
