# generated using pymatgen
data_H6PbCBr3N
_symmetry_space_group_name_H-M   'P 1'
_cell_length_a   8.06459100
_cell_length_b   8.77600700
_cell_length_c   12.08306300
_cell_angle_alpha   90.00000000
_cell_angle_beta   90.00000000
_cell_angle_gamma   90.00000000
_symmetry_Int_Tables_number   1
_chemical_formula_structural   H6PbCBr3N
_chemical_formula_sum   'H24 Pb4 C4 Br12 N4'
_cell_volume   855.17766092
_cell_formula_units_Z   4
loop_
 _symmetry_equiv_pos_site_id
 _symmetry_equiv_pos_as_xyz
  1  'x, y, z'
loop_
 _atom_site_type_symbol
 _atom_site_label
 _atom_site_symmetry_multiplicity
 _atom_site_fract_x
 _atom_site_fract_y
 _atom_site_fract_z
 _atom_site_occupancy
  H  H0  1  0.50873500  0.65522500  0.31927000  1
  H  H1  1  0.00873500  0.84477500  0.18073000  1
  H  H2  1  0.49126500  0.34477500  0.81927000  1
  H  H3  1  0.99126500  0.15522500  0.68073000  1
  H  H4  1  0.49126500  0.34477500  0.68073000  1
  H  H5  1  0.99126500  0.15522500  0.81927000  1
  H  H6  1  0.50873500  0.65522500  0.18073000  1
  H  H7  1  0.00873500  0.84477500  0.31927000  1
  H  H8  1  0.67827200  0.59530400  0.25000000  1
  H  H9  1  0.17827200  0.90469600  0.25000000  1
  H  H10  1  0.32172800  0.40469600  0.75000000  1
  H  H11  1  0.82172800  0.09530400  0.75000000  1
  H  H12  1  0.52402800  0.37841100  0.32436500  1
  H  H13  1  0.02402800  0.12158900  0.17563500  1
  H  H14  1  0.47597200  0.62158900  0.82436500  1
  H  H15  1  0.97597200  0.87841100  0.67563500  1
  H  H16  1  0.47597200  0.62158900  0.67563500  1
  H  H17  1  0.97597200  0.87841100  0.82436500  1
  H  H18  1  0.52402800  0.37841100  0.17563500  1
  H  H19  1  0.02402800  0.12158900  0.32436500  1
  H  H20  1  0.34586900  0.44386200  0.25000000  1
  H  H21  1  0.84586900  0.05613800  0.25000000  1
  H  H22  1  0.65413100  0.55613800  0.75000000  1
  H  H23  1  0.15413100  0.94386200  0.75000000  1
  Pb  Pb24  1  0.50000000  0.00000000  0.00000000  1
  Pb  Pb25  1  0.00000000  0.50000000  0.50000000  1
  Pb  Pb26  1  0.50000000  0.00000000  0.50000000  1
  Pb  Pb27  1  0.00000000  0.50000000  0.00000000  1
  C  C28  1  0.48106500  0.43774800  0.25000000  1
  C  C29  1  0.98106500  0.06225200  0.25000000  1
  C  C30  1  0.51893500  0.56225200  0.75000000  1
  C  C31  1  0.01893500  0.93774800  0.75000000  1
  Br  Br32  1  0.46697100  0.01811500  0.25000000  1
  Br  Br33  1  0.96697100  0.48188500  0.25000000  1
  Br  Br34  1  0.53302900  0.98188500  0.75000000  1
  Br  Br35  1  0.03302900  0.51811500  0.75000000  1
  Br  Br36  1  0.79577600  0.78895300  0.02936000  1
  Br  Br37  1  0.29577600  0.71104700  0.47064000  1
  Br  Br38  1  0.20422400  0.21104700  0.52936000  1
  Br  Br39  1  0.70422400  0.28895300  0.97064000  1
  Br  Br40  1  0.20422400  0.21104700  0.97064000  1
  Br  Br41  1  0.70422400  0.28895300  0.52936000  1
  Br  Br42  1  0.79577600  0.78895300  0.47064000  1
  Br  Br43  1  0.29577600  0.71104700  0.02936000  1
  N  N44  1  0.54913500  0.59625000  0.25000000  1
  N  N45  1  0.04913500  0.90375000  0.25000000  1
  N  N46  1  0.45086500  0.40375000  0.75000000  1
  N  N47  1  0.95086500  0.09625000  0.75000000  1
