# generated using pymatgen
data_La3Zr2Cu7O12
_symmetry_space_group_name_H-M   'P 1'
_cell_length_a   11.58539924
_cell_length_b   11.58539924
_cell_length_c   11.58539924
_cell_angle_alpha   107.51696587
_cell_angle_beta   107.51696587
_cell_angle_gamma   113.45468321
_symmetry_Int_Tables_number   1
_chemical_formula_structural   La3Zr2Cu7O12
_chemical_formula_sum   'La12 Zr8 Cu28 O48'
_cell_volume   1192.67536895
_cell_formula_units_Z   4
loop_
 _symmetry_equiv_pos_site_id
 _symmetry_equiv_pos_as_xyz
  1  'x, y, z'
loop_
 _atom_site_type_symbol
 _atom_site_label
 _atom_site_symmetry_multiplicity
 _atom_site_fract_x
 _atom_site_fract_y
 _atom_site_fract_z
 _atom_site_occupancy
  La  La0  1  0.50000000  0.00000000  0.50000000  1
  La  La1  1  0.00000000  0.50000000  0.50000000  1
  La  La2  1  0.75000000  0.75000000  0.00000000  1
  La  La3  1  0.25000000  0.25000000  0.00000000  1
  La  La4  1  0.87500000  0.99689100  0.62189100  1
  La  La5  1  0.87500000  0.49689100  0.12189100  1
  La  La6  1  0.74689100  0.12500000  0.12189100  1
  La  La7  1  0.50310900  0.62500000  0.37810900  1
  La  La8  1  0.37500000  0.75310900  0.87810900  1
  La  La9  1  0.37500000  0.25310900  0.37810900  1
  La  La10  1  0.24689100  0.12500000  0.62189100  1
  La  La11  1  0.00310900  0.62500000  0.87810900  1
  Zr  Zr12  1  0.62500000  0.87500000  0.75000000  1
  Zr  Zr13  1  0.62500000  0.37500000  0.25000000  1
  Zr  Zr14  1  0.62500000  0.87500000  0.25000000  1
  Zr  Zr15  1  0.12500000  0.37500000  0.25000000  1
  Zr  Zr16  1  0.12500000  0.37500000  0.75000000  1
  Zr  Zr17  1  0.12500000  0.87500000  0.25000000  1
  Zr  Zr18  1  0.12500000  0.87500000  0.75000000  1
  Zr  Zr19  1  0.62500000  0.37500000  0.75000000  1
  Cu  Cu20  1  0.75000000  0.25000000  0.50000000  1
  Cu  Cu21  1  0.25000000  0.75000000  0.50000000  1
  Cu  Cu22  1  0.00000000  0.00000000  0.00000000  1
  Cu  Cu23  1  0.50000000  0.50000000  0.00000000  1
  Cu  Cu24  1  0.32939600  0.82939600  0.15879100  1
  Cu  Cu25  1  0.17060400  0.32939600  0.50000000  1
  Cu  Cu26  1  0.57939600  0.57939600  0.65879100  1
  Cu  Cu27  1  0.42060400  0.07939600  0.00000000  1
  Cu  Cu28  1  0.92060400  0.92060400  0.34120900  1
  Cu  Cu29  1  0.07939600  0.42060400  0.00000000  1
  Cu  Cu30  1  0.67060400  0.17060400  0.84120900  1
  Cu  Cu31  1  0.82939600  0.67060400  0.50000000  1
  Cu  Cu32  1  0.34738100  0.59429400  0.57364000  1
  Cu  Cu33  1  0.52065300  0.09429400  0.24691300  1
  Cu  Cu34  1  0.34429400  0.59738100  0.07364000  1
  Cu  Cu35  1  0.02374100  0.09738100  0.25308700  1
  Cu  Cu36  1  0.90261900  0.15570600  0.92636000  1
  Cu  Cu37  1  0.72934700  0.65570600  0.25308700  1
  Cu  Cu38  1  0.90570600  0.15261900  0.42636000  1
  Cu  Cu39  1  0.22625900  0.65261900  0.24691300  1
  Cu  Cu40  1  0.84738100  0.27374100  0.75308700  1
  Cu  Cu41  1  0.02065300  0.77374100  0.42636000  1
  Cu  Cu42  1  0.84429400  0.77065300  0.74691300  1
  Cu  Cu43  1  0.52374100  0.27065300  0.92636000  1
  Cu  Cu44  1  0.40261900  0.47625900  0.74691300  1
  Cu  Cu45  1  0.22934700  0.97625900  0.07364000  1
  Cu  Cu46  1  0.40570600  0.97934700  0.75308700  1
  Cu  Cu47  1  0.72625900  0.47934700  0.57364000  1
  O  O48  1  0.71612600  0.05310900  0.70827500  1
  O  O49  1  0.84483400  0.55310900  0.33698300  1
  O  O50  1  0.80310900  0.96612600  0.20827500  1
  O  O51  1  0.25785100  0.46612600  0.16301700  1
  O  O52  1  0.53387400  0.69689100  0.79172500  1
  O  O53  1  0.40516600  0.19689100  0.16301700  1
  O  O54  1  0.44689100  0.78387400  0.29172500  1
  O  O55  1  0.99214900  0.28387400  0.33698300  1
  O  O56  1  0.21612600  0.50785100  0.66301700  1
  O  O57  1  0.34483400  0.00785100  0.29172500  1
  O  O58  1  0.30310900  0.09483400  0.83698300  1
  O  O59  1  0.75785100  0.59483400  0.79172500  1
  O  O60  1  0.03387400  0.24214900  0.83698300  1
  O  O61  1  0.90516600  0.74214900  0.20827500  1
  O  O62  1  0.94689100  0.65516600  0.66301700  1
  O  O63  1  0.49214900  0.15516600  0.70827500  1
  O  O64  1  0.29884400  0.35021200  0.83281100  1
  O  O65  1  0.01740200  0.85021200  0.05136800  1
  O  O66  1  0.10021200  0.54884400  0.33281100  1
  O  O67  1  0.71603300  0.04884400  0.44863200  1
  O  O68  1  0.95115600  0.39978800  0.66718900  1
  O  O69  1  0.23259800  0.89978800  0.44863200  1
  O  O70  1  0.14978800  0.20115600  0.16718900  1
  O  O71  1  0.53396700  0.70115600  0.05136800  1
  O  O72  1  0.79884400  0.96603300  0.94863200  1
  O  O73  1  0.51740200  0.46603300  0.16718900  1
  O  O74  1  0.60021200  0.26740200  0.55136800  1
  O  O75  1  0.21603300  0.76740200  0.66718900  1
  O  O76  1  0.45115600  0.78396700  0.55136800  1
  O  O77  1  0.73259800  0.28396700  0.33281100  1
  O  O78  1  0.64978800  0.48259800  0.94863200  1
  O  O79  1  0.03396700  0.98259800  0.83281100  1
  O  O80  1  0.04902600  0.17298000  0.58582800  1
  O  O81  1  0.08715200  0.67298000  0.12395400  1
  O  O82  1  0.92298000  0.29902600  0.08582800  1
  O  O83  1  0.71319900  0.79902600  0.37604600  1
  O  O84  1  0.20097400  0.57702000  0.91417200  1
  O  O85  1  0.16284800  0.07702000  0.37604600  1
  O  O86  1  0.32702000  0.45097400  0.41417200  1
  O  O87  1  0.53680100  0.95097400  0.12395400  1
  O  O88  1  0.54902600  0.96319900  0.87604600  1
  O  O89  1  0.58715200  0.46319900  0.41417200  1
  O  O90  1  0.42298000  0.33715200  0.62395400  1
  O  O91  1  0.21319900  0.83715200  0.91417200  1
  O  O92  1  0.70097400  0.78680100  0.62395400  1
  O  O93  1  0.66284800  0.28680100  0.08582800  1
  O  O94  1  0.82702000  0.41284800  0.87604600  1
  O  O95  1  0.03680100  0.91284800  0.58582800  1
