# generated using pymatgen
data_MnCuRh2
_symmetry_space_group_name_H-M   'P 1'
_cell_length_a   9.60698368
_cell_length_b   9.60698368
_cell_length_c   9.60698368
_cell_angle_alpha   123.87313314
_cell_angle_beta   120.51704702
_cell_angle_gamma   86.26450320
_symmetry_Int_Tables_number   1
_chemical_formula_structural   MnCuRh2
_chemical_formula_sum   'Mn1 Cu1 Rh2'
_cell_volume   604.06290231
_cell_formula_units_Z   1
loop_
 _symmetry_equiv_pos_site_id
 _symmetry_equiv_pos_as_xyz
  1  'x, y, z'
loop_
 _atom_site_type_symbol
 _atom_site_label
 _atom_site_symmetry_multiplicity
 _atom_site_fract_x
 _atom_site_fract_y
 _atom_site_fract_z
 _atom_site_occupancy
  Mn  Mn0  1  0.00000000  0.00000000  0.00000000  1
  Cu  Cu1  1  0.00000000  0.50000000  0.50000000  1
  Rh  Rh2  1  0.00000000  0.22656500  0.22656500  1
  Rh  Rh3  1  0.00000000  0.77343500  0.77343500  1
