# generated using pymatgen
data_V2MoIr
_symmetry_space_group_name_H-M   'P 1'
_cell_length_a   9.68977440
_cell_length_b   9.68977440
_cell_length_c   9.68977440
_cell_angle_alpha   124.77872847
_cell_angle_beta   115.26435876
_cell_angle_gamma   90.16019578
_symmetry_Int_Tables_number   1
_chemical_formula_structural   V2MoIr
_chemical_formula_sum   'V2 Mo1 Ir1'
_cell_volume   637.57400967
_cell_formula_units_Z   1
loop_
 _symmetry_equiv_pos_site_id
 _symmetry_equiv_pos_as_xyz
  1  'x, y, z'
loop_
 _atom_site_type_symbol
 _atom_site_label
 _atom_site_symmetry_multiplicity
 _atom_site_fract_x
 _atom_site_fract_y
 _atom_site_fract_z
 _atom_site_occupancy
  V  V0  1  0.00000000  0.24820700  0.24820700  1
  V  V1  1  0.00000000  0.75179300  0.75179300  1
  Mo  Mo2  1  0.00000000  0.00000000  0.00000000  1
  Ir  Ir3  1  0.00000000  0.50000000  0.50000000  1
