# generated using pymatgen
data_Be2CuPd
_symmetry_space_group_name_H-M   'P 1'
_cell_length_a   8.44476610
_cell_length_b   9.11333002
_cell_length_c   9.11333062
_cell_angle_alpha   61.56303241
_cell_angle_beta   62.39848701
_cell_angle_gamma   62.39848568
_symmetry_Int_Tables_number   1
_chemical_formula_structural   Be2CuPd
_chemical_formula_sum   'Be2 Cu1 Pd1'
_cell_volume   519.36506955
_cell_formula_units_Z   1
loop_
 _symmetry_equiv_pos_site_id
 _symmetry_equiv_pos_as_xyz
  1  'x, y, z'
loop_
 _atom_site_type_symbol
 _atom_site_label
 _atom_site_symmetry_multiplicity
 _atom_site_fract_x
 _atom_site_fract_y
 _atom_site_fract_z
 _atom_site_occupancy
  Be  Be0  1  0.74677600  0.00000000  0.00000000  1
  Be  Be1  1  0.25322400  0.00000000  0.00000000  1
  Cu  Cu2  1  0.00000000  0.00000000  0.00000000  1
  Pd  Pd3  1  0.50000000  0.00000000  0.00000000  1
