# generated using pymatgen
data_SiTc2Sb
_symmetry_space_group_name_H-M   'P 1'
_cell_length_a   10.78757761
_cell_length_b   10.78757761
_cell_length_c   10.78757761
_cell_angle_alpha   126.82376957
_cell_angle_beta   117.81234785
_cell_angle_gamma   86.21957484
_symmetry_Int_Tables_number   1
_chemical_formula_structural   SiTc2Sb
_chemical_formula_sum   'Si1 Tc2 Sb1'
_cell_volume   847.35808335
_cell_formula_units_Z   1
loop_
 _symmetry_equiv_pos_site_id
 _symmetry_equiv_pos_as_xyz
  1  'x, y, z'
loop_
 _atom_site_type_symbol
 _atom_site_label
 _atom_site_symmetry_multiplicity
 _atom_site_fract_x
 _atom_site_fract_y
 _atom_site_fract_z
 _atom_site_occupancy
  Si  Si0  1  0.00000000  0.00000000  0.00000000  1
  Tc  Tc1  1  0.00000000  0.23534200  0.23534200  1
  Tc  Tc2  1  0.00000000  0.76465800  0.76465800  1
  Sb  Sb3  1  0.00000000  0.50000000  0.50000000  1
