# generated using pymatgen
data_MgBiRh2
_symmetry_space_group_name_H-M   'P 1'
_cell_length_a   11.06810064
_cell_length_b   11.06810064
_cell_length_c   11.06810064
_cell_angle_alpha   125.05998808
_cell_angle_beta   120.13073635
_cell_angle_gamma   85.61784195
_symmetry_Int_Tables_number   1
_chemical_formula_structural   MgBiRh2
_chemical_formula_sum   'Mg1 Bi1 Rh2'
_cell_volume   915.86637618
_cell_formula_units_Z   1
loop_
 _symmetry_equiv_pos_site_id
 _symmetry_equiv_pos_as_xyz
  1  'x, y, z'
loop_
 _atom_site_type_symbol
 _atom_site_label
 _atom_site_symmetry_multiplicity
 _atom_site_fract_x
 _atom_site_fract_y
 _atom_site_fract_z
 _atom_site_occupancy
  Mg  Mg0  1  0.00000000  0.00000000  0.00000000  1
  Bi  Bi1  1  0.00000000  0.50000000  0.50000000  1
  Rh  Rh2  1  0.00000000  0.25825700  0.25825700  1
  Rh  Rh3  1  0.00000000  0.74174300  0.74174300  1
