# generated using pymatgen
data_Y2TlIn
_symmetry_space_group_name_H-M   'P 1'
_cell_length_a   12.75400625
_cell_length_b   12.75400625
_cell_length_c   12.75400625
_cell_angle_alpha   123.25460873
_cell_angle_beta   118.19099833
_cell_angle_gamma   88.80972091
_symmetry_Int_Tables_number   1
_chemical_formula_structural   Y2TlIn
_chemical_formula_sum   'Y2 Tl1 In1'
_cell_volume   1446.98060554
_cell_formula_units_Z   1
loop_
 _symmetry_equiv_pos_site_id
 _symmetry_equiv_pos_as_xyz
  1  'x, y, z'
loop_
 _atom_site_type_symbol
 _atom_site_label
 _atom_site_symmetry_multiplicity
 _atom_site_fract_x
 _atom_site_fract_y
 _atom_site_fract_z
 _atom_site_occupancy
  Y  Y0  1  0.00000000  0.24956100  0.24956100  1
  Y  Y1  1  0.00000000  0.75043900  0.75043900  1
  Tl  Tl2  1  0.00000000  0.50000000  0.50000000  1
  In  In3  1  0.00000000  0.00000000  0.00000000  1
