# generated using pymatgen
data_MgBe2Os
_symmetry_space_group_name_H-M   'P 1'
_cell_length_a   9.83443642
_cell_length_b   9.83443642
_cell_length_c   9.83443642
_cell_angle_alpha   124.54925504
_cell_angle_beta   118.19213451
_cell_angle_gamma   87.73368906
_symmetry_Int_Tables_number   1
_chemical_formula_structural   MgBe2Os
_chemical_formula_sum   'Mg1 Be2 Os1'
_cell_volume   655.40776523
_cell_formula_units_Z   1
loop_
 _symmetry_equiv_pos_site_id
 _symmetry_equiv_pos_as_xyz
  1  'x, y, z'
loop_
 _atom_site_type_symbol
 _atom_site_label
 _atom_site_symmetry_multiplicity
 _atom_site_fract_x
 _atom_site_fract_y
 _atom_site_fract_z
 _atom_site_occupancy
  Mg  Mg0  1  0.00000000  0.00000000  0.00000000  1
  Be  Be1  1  0.00000000  0.27218200  0.27218100  1
  Be  Be2  1  0.00000000  0.72781900  0.72781800  1
  Os  Os3  1  0.00000000  0.50000000  0.50000000  1
