# generated using pymatgen
data_Na2U(TeO5)2
_symmetry_space_group_name_H-M   'P 1'
_cell_length_a   3.93485900
_cell_length_b   6.76732089
_cell_length_c   8.60818532
_cell_angle_alpha   91.54760307
_cell_angle_beta   90.00000000
_cell_angle_gamma   106.90137130
_symmetry_Int_Tables_number   1
_chemical_formula_structural   Na2U(TeO5)2
_chemical_formula_sum   'Na2 U1 Te2 O10'
_cell_volume   219.23437315
_cell_formula_units_Z   1
loop_
 _symmetry_equiv_pos_site_id
 _symmetry_equiv_pos_as_xyz
  1  'x, y, z'
loop_
 _atom_site_type_symbol
 _atom_site_label
 _atom_site_symmetry_multiplicity
 _atom_site_fract_x
 _atom_site_fract_y
 _atom_site_fract_z
 _atom_site_occupancy
  Na  Na0  1  0.09260400  0.18520700  0.93108000  1
  Na  Na1  1  0.52742300  0.05484700  0.49942300  1
  U  U2  1  0.80993000  0.61986100  0.71810900  1
  Te  Te3  1  0.23959100  0.47918200  0.36385600  1
  Te  Te4  1  0.37788900  0.75577900  0.07183300  1
  O  O5  1  0.95042100  0.90084200  0.68966100  1
  O  O6  1  0.22765200  0.45530300  0.13549700  1
  O  O7  1  0.85957300  0.71914600  0.02435700  1
  O  O8  1  0.66930100  0.33860300  0.74917700  1
  O  O9  1  0.10133700  0.20267500  0.40209500  1
  O  O10  1  0.30001600  0.60003200  0.57475900  1
  O  O11  1  0.38953600  0.77907100  0.30031600  1
  O  O12  1  0.51641700  0.03283500  0.03537500  1
  O  O13  1  0.31861400  0.63722800  0.86052500  1
  O  O14  1  0.75641500  0.51282900  0.41051800  1
