# generated using pymatgen
data_Ti2GaMo
_symmetry_space_group_name_H-M   'P 1'
_cell_length_a   9.93513433
_cell_length_b   9.93513433
_cell_length_c   9.93513433
_cell_angle_alpha   121.90379788
_cell_angle_beta   118.74759672
_cell_angle_gamma   89.45874152
_symmetry_Int_Tables_number   1
_chemical_formula_structural   Ti2GaMo
_chemical_formula_sum   'Ti2 Ga1 Mo1'
_cell_volume   689.32653873
_cell_formula_units_Z   1
loop_
 _symmetry_equiv_pos_site_id
 _symmetry_equiv_pos_as_xyz
  1  'x, y, z'
loop_
 _atom_site_type_symbol
 _atom_site_label
 _atom_site_symmetry_multiplicity
 _atom_site_fract_x
 _atom_site_fract_y
 _atom_site_fract_z
 _atom_site_occupancy
  Ti  Ti0  1  0.00000000  0.27812300  0.27812300  1
  Ti  Ti1  1  0.00000000  0.72187700  0.72187700  1
  Ga  Ga2  1  0.00000000  0.00000000  0.00000000  1
  Mo  Mo3  1  0.00000000  0.50000000  0.50000000  1
