# generated using pymatgen
data_Sr2PAu
_symmetry_space_group_name_H-M   'P 1'
_cell_length_a   12.42480845
_cell_length_b   12.42480845
_cell_length_c   12.42480845
_cell_angle_alpha   125.30916523
_cell_angle_beta   118.22424343
_cell_angle_gamma   87.08170735
_symmetry_Int_Tables_number   1
_chemical_formula_structural   Sr2PAu
_chemical_formula_sum   'Sr2 P1 Au1'
_cell_volume   1311.49405077
_cell_formula_units_Z   1
loop_
 _symmetry_equiv_pos_site_id
 _symmetry_equiv_pos_as_xyz
  1  'x, y, z'
loop_
 _atom_site_type_symbol
 _atom_site_label
 _atom_site_symmetry_multiplicity
 _atom_site_fract_x
 _atom_site_fract_y
 _atom_site_fract_z
 _atom_site_occupancy
  Sr  Sr0  1  0.00000000  0.23148600  0.23148600  1
  Sr  Sr1  1  0.00000000  0.76851400  0.76851400  1
  P  P2  1  0.00000000  0.00000000  0.00000000  1
  Au  Au3  1  0.00000000  0.50000000  0.50000000  1
