# generated using pymatgen
data_La2CdHg
_symmetry_space_group_name_H-M   'P 1'
_cell_length_a   12.32446561
_cell_length_b   12.32446561
_cell_length_c   12.32446561
_cell_angle_alpha   123.13588540
_cell_angle_beta   120.71805607
_cell_angle_gamma   86.70709520
_symmetry_Int_Tables_number   1
_chemical_formula_structural   La2CdHg
_chemical_formula_sum   'La2 Cd1 Hg1'
_cell_volume   1282.07183290
_cell_formula_units_Z   1
loop_
 _symmetry_equiv_pos_site_id
 _symmetry_equiv_pos_as_xyz
  1  'x, y, z'
loop_
 _atom_site_type_symbol
 _atom_site_label
 _atom_site_symmetry_multiplicity
 _atom_site_fract_x
 _atom_site_fract_y
 _atom_site_fract_z
 _atom_site_occupancy
  La  La0  1  0.00000000  0.25227500  0.25227500  1
  La  La1  1  0.00000000  0.74772500  0.74772500  1
  Cd  Cd2  1  0.00000000  0.00000000  0.00000000  1
  Hg  Hg3  1  0.00000000  0.50000000  0.50000000  1
