# generated using pymatgen
data_KCuO
_symmetry_space_group_name_H-M   'P 1'
_cell_length_a   7.19562321
_cell_length_b   7.19562321
_cell_length_c   7.19562321
_cell_angle_alpha   98.57753057
_cell_angle_beta   98.57753057
_cell_angle_gamma   134.56394478
_symmetry_Int_Tables_number   1
_chemical_formula_structural   KCuO
_chemical_formula_sum   'K4 Cu4 O4'
_cell_volume   244.84857311
_cell_formula_units_Z   4
loop_
 _symmetry_equiv_pos_site_id
 _symmetry_equiv_pos_as_xyz
  1  'x, y, z'
loop_
 _atom_site_type_symbol
 _atom_site_label
 _atom_site_symmetry_multiplicity
 _atom_site_fract_x
 _atom_site_fract_y
 _atom_site_fract_z
 _atom_site_occupancy
  K  K0  1  0.74835300  0.93705700  0.18870400  1
  K  K1  1  0.74835300  0.55964900  0.81129600  1
  K  K2  1  0.06294300  0.25164700  0.81129600  1
  K  K3  1  0.44035100  0.25164700  0.18870400  1
  Cu  Cu4  1  0.38908800  0.61091200  0.50000000  1
  Cu  Cu5  1  0.11091200  0.88908800  0.50000000  1
  Cu  Cu6  1  0.38908800  0.88908800  0.77817700  1
  Cu  Cu7  1  0.11091200  0.61091200  0.22182300  1
  O  O8  1  0.23886700  0.01549800  0.77663100  1
  O  O9  1  0.23886700  0.46223600  0.22336900  1
  O  O10  1  0.98450200  0.76113300  0.22336900  1
  O  O11  1  0.53776400  0.76113300  0.77663100  1
