# generated using pymatgen
data_TiV2Os
_symmetry_space_group_name_H-M   'P 1'
_cell_length_a   10.19668745
_cell_length_b   10.19668745
_cell_length_c   10.19668745
_cell_angle_alpha   126.48984530
_cell_angle_beta   117.66788060
_cell_angle_gamma   86.61609597
_symmetry_Int_Tables_number   1
_chemical_formula_structural   TiV2Os
_chemical_formula_sum   'Ti1 V2 Os1'
_cell_volume   718.93031626
_cell_formula_units_Z   1
loop_
 _symmetry_equiv_pos_site_id
 _symmetry_equiv_pos_as_xyz
  1  'x, y, z'
loop_
 _atom_site_type_symbol
 _atom_site_label
 _atom_site_symmetry_multiplicity
 _atom_site_fract_x
 _atom_site_fract_y
 _atom_site_fract_z
 _atom_site_occupancy
  Ti  Ti0  1  0.00000000  0.00000000  0.00000000  1
  V  V1  1  0.00000000  0.25825000  0.25825000  1
  V  V2  1  0.00000000  0.74175000  0.74175000  1
  Os  Os3  1  0.00000000  0.50000000  0.50000000  1
