# generated using pymatgen
data_Mg2GaPb
_symmetry_space_group_name_H-M   'P 1'
_cell_length_a   12.14285720
_cell_length_b   12.14285720
_cell_length_c   12.14285720
_cell_angle_alpha   124.80536261
_cell_angle_beta   118.32256690
_cell_angle_gamma   87.40789225
_symmetry_Int_Tables_number   1
_chemical_formula_structural   Mg2GaPb
_chemical_formula_sum   'Mg2 Ga1 Pb1'
_cell_volume   1229.50577116
_cell_formula_units_Z   1
loop_
 _symmetry_equiv_pos_site_id
 _symmetry_equiv_pos_as_xyz
  1  'x, y, z'
loop_
 _atom_site_type_symbol
 _atom_site_label
 _atom_site_symmetry_multiplicity
 _atom_site_fract_x
 _atom_site_fract_y
 _atom_site_fract_z
 _atom_site_occupancy
  Mg  Mg0  1  0.00000000  0.24775300  0.24775300  1
  Mg  Mg1  1  0.00000000  0.75224700  0.75224700  1
  Ga  Ga2  1  0.00000000  0.00000000  0.00000000  1
  Pb  Pb3  1  0.00000000  0.50000000  0.50000000  1
