# generated using pymatgen
data_TiMn2Cr
_symmetry_space_group_name_H-M   'P 1'
_cell_length_a   10.16059988
_cell_length_b   10.16059988
_cell_length_c   10.16059988
_cell_angle_alpha   120.32019212
_cell_angle_beta   118.94993039
_cell_angle_gamma   90.63731453
_symmetry_Int_Tables_number   1
_chemical_formula_structural   TiMn2Cr
_chemical_formula_sum   'Ti1 Mn2 Cr1'
_cell_volume   745.63517201
_cell_formula_units_Z   1
loop_
 _symmetry_equiv_pos_site_id
 _symmetry_equiv_pos_as_xyz
  1  'x, y, z'
loop_
 _atom_site_type_symbol
 _atom_site_label
 _atom_site_symmetry_multiplicity
 _atom_site_fract_x
 _atom_site_fract_y
 _atom_site_fract_z
 _atom_site_occupancy
  Ti  Ti0  1  0.00000000  0.00000000  0.00000000  1
  Mn  Mn1  1  0.22793300  0.00000000  0.22793300  1
  Mn  Mn2  1  0.77206700  0.00000000  0.77206700  1
  Cr  Cr3  1  0.50000000  0.00000000  0.50000000  1
