# generated using pymatgen
data_Be2NiRu
_symmetry_space_group_name_H-M   'P 1'
_cell_length_a   8.25504963
_cell_length_b   8.25504963
_cell_length_c   8.25504963
_cell_angle_alpha   120.18465971
_cell_angle_beta   119.35209192
_cell_angle_gamma   90.40315693
_symmetry_Int_Tables_number   1
_chemical_formula_structural   Be2NiRu
_chemical_formula_sum   'Be2 Ni1 Ru1'
_cell_volume   399.13684727
_cell_formula_units_Z   1
loop_
 _symmetry_equiv_pos_site_id
 _symmetry_equiv_pos_as_xyz
  1  'x, y, z'
loop_
 _atom_site_type_symbol
 _atom_site_label
 _atom_site_symmetry_multiplicity
 _atom_site_fract_x
 _atom_site_fract_y
 _atom_site_fract_z
 _atom_site_occupancy
  Be  Be0  1  0.75180700  0.00000000  0.75180700  1
  Be  Be1  1  0.24819300  0.00000000  0.24819300  1
  Ni  Ni2  1  0.00000000  0.00000000  0.00000000  1
  Ru  Ru3  1  0.50000000  0.00000000  0.50000000  1
