# generated using pymatgen
data_HfMgHg2
_symmetry_space_group_name_H-M   'P 1'
_cell_length_a   11.83105596
_cell_length_b   11.83105596
_cell_length_c   11.83105596
_cell_angle_alpha   121.37859854
_cell_angle_beta   119.53777220
_cell_angle_gamma   89.21571050
_symmetry_Int_Tables_number   1
_chemical_formula_structural   HfMgHg2
_chemical_formula_sum   'Hf1 Mg1 Hg2'
_cell_volume   1162.38698143
_cell_formula_units_Z   1
loop_
 _symmetry_equiv_pos_site_id
 _symmetry_equiv_pos_as_xyz
  1  'x, y, z'
loop_
 _atom_site_type_symbol
 _atom_site_label
 _atom_site_symmetry_multiplicity
 _atom_site_fract_x
 _atom_site_fract_y
 _atom_site_fract_z
 _atom_site_occupancy
  Hf  Hf0  1  0.00000000  0.50000000  0.50000000  1
  Mg  Mg1  1  0.00000000  0.00000000  0.00000000  1
  Hg  Hg2  1  0.00000000  0.25039200  0.25039200  1
  Hg  Hg3  1  0.00000000  0.74960800  0.74960800  1
