# generated using pymatgen
data_Cs2RbNa
_symmetry_space_group_name_H-M   'P 1'
_cell_length_a   18.04828558
_cell_length_b   18.04828558
_cell_length_c   18.04828558
_cell_angle_alpha   120.15064530
_cell_angle_beta   119.92324601
_cell_angle_gamma   89.93613310
_symmetry_Int_Tables_number   1
_chemical_formula_structural   Cs2RbNa
_chemical_formula_sum   'Cs2 Rb1 Na1'
_cell_volume   4154.77815674
_cell_formula_units_Z   1
loop_
 _symmetry_equiv_pos_site_id
 _symmetry_equiv_pos_as_xyz
  1  'x, y, z'
loop_
 _atom_site_type_symbol
 _atom_site_label
 _atom_site_symmetry_multiplicity
 _atom_site_fract_x
 _atom_site_fract_y
 _atom_site_fract_z
 _atom_site_occupancy
  Cs  Cs0  1  0.22962900  0.00000000  0.22962900  1
  Cs  Cs1  1  0.77037100  0.00000000  0.77037100  1
  Rb  Rb2  1  0.50000000  0.00000000  0.50000000  1
  Na  Na3  1  0.00000000  0.00000000  0.00000000  1
