# generated using pymatgen
data_HfSiTc2
_symmetry_space_group_name_H-M   'P 1'
_cell_length_a   10.75718481
_cell_length_b   10.75718481
_cell_length_c   10.75718481
_cell_angle_alpha   128.92876779
_cell_angle_beta   116.95986149
_cell_angle_gamma   85.31256617
_symmetry_Int_Tables_number   1
_chemical_formula_structural   HfSiTc2
_chemical_formula_sum   'Hf1 Si1 Tc2'
_cell_volume   825.24221302
_cell_formula_units_Z   1
loop_
 _symmetry_equiv_pos_site_id
 _symmetry_equiv_pos_as_xyz
  1  'x, y, z'
loop_
 _atom_site_type_symbol
 _atom_site_label
 _atom_site_symmetry_multiplicity
 _atom_site_fract_x
 _atom_site_fract_y
 _atom_site_fract_z
 _atom_site_occupancy
  Hf  Hf0  1  0.00000000  0.50000000  0.50000000  1
  Si  Si1  1  0.00000000  0.00000000  0.00000000  1
  Tc  Tc2  1  0.00000000  0.24795900  0.24795900  1
  Tc  Tc3  1  0.00000000  0.75204100  0.75204100  1
