# generated using pymatgen
data_Hf2MgRe
_symmetry_space_group_name_H-M   'P 1'
_cell_length_a   11.71373801
_cell_length_b   11.71373801
_cell_length_c   11.71373801
_cell_angle_alpha   123.48841203
_cell_angle_beta   118.82918161
_cell_angle_gamma   88.05338817
_symmetry_Int_Tables_number   1
_chemical_formula_structural   Hf2MgRe
_chemical_formula_sum   'Hf2 Mg1 Re1'
_cell_volume   1113.49288123
_cell_formula_units_Z   1
loop_
 _symmetry_equiv_pos_site_id
 _symmetry_equiv_pos_as_xyz
  1  'x, y, z'
loop_
 _atom_site_type_symbol
 _atom_site_label
 _atom_site_symmetry_multiplicity
 _atom_site_fract_x
 _atom_site_fract_y
 _atom_site_fract_z
 _atom_site_occupancy
  Hf  Hf0  1  0.00000000  0.29479800  0.29479800  1
  Hf  Hf1  1  0.00000000  0.70520200  0.70520200  1
  Mg  Mg2  1  0.00000000  0.00000000  0.00000000  1
  Re  Re3  1  0.00000000  0.50000000  0.50000000  1
