# generated using pymatgen
data_Ti2FeMo
_symmetry_space_group_name_H-M   'P 1'
_cell_length_a   10.60655769
_cell_length_b   10.60655769
_cell_length_c   10.60655769
_cell_angle_alpha   130.44005350
_cell_angle_beta   117.29177902
_cell_angle_gamma   83.84755649
_symmetry_Int_Tables_number   1
_chemical_formula_structural   Ti2FeMo
_chemical_formula_sum   'Ti2 Fe1 Mo1'
_cell_volume   774.47144195
_cell_formula_units_Z   1
loop_
 _symmetry_equiv_pos_site_id
 _symmetry_equiv_pos_as_xyz
  1  'x, y, z'
loop_
 _atom_site_type_symbol
 _atom_site_label
 _atom_site_symmetry_multiplicity
 _atom_site_fract_x
 _atom_site_fract_y
 _atom_site_fract_z
 _atom_site_occupancy
  Ti  Ti0  1  0.00000000  0.24552800  0.24552800  1
  Ti  Ti1  1  0.00000000  0.75447200  0.75447200  1
  Fe  Fe2  1  0.00000000  0.00000000  0.00000000  1
  Mo  Mo3  1  0.00000000  0.50000000  0.50000000  1
