# generated using pymatgen
data_MnBeIr2
_symmetry_space_group_name_H-M   'P 1'
_cell_length_a   10.49279685
_cell_length_b   10.49279685
_cell_length_c   10.49279685
_cell_angle_alpha   129.75521024
_cell_angle_beta   112.69642753
_cell_angle_gamma   88.54697027
_symmetry_Int_Tables_number   1
_chemical_formula_structural   MnBeIr2
_chemical_formula_sum   'Mn1 Be1 Ir2'
_cell_volume   778.41545492
_cell_formula_units_Z   1
loop_
 _symmetry_equiv_pos_site_id
 _symmetry_equiv_pos_as_xyz
  1  'x, y, z'
loop_
 _atom_site_type_symbol
 _atom_site_label
 _atom_site_symmetry_multiplicity
 _atom_site_fract_x
 _atom_site_fract_y
 _atom_site_fract_z
 _atom_site_occupancy
  Mn  Mn0  1  0.00000000  0.50000000  0.50000000  1
  Be  Be1  1  0.00000000  0.00000000  0.00000000  1
  Ir  Ir2  1  0.00000000  0.23616800  0.23616800  1
  Ir  Ir3  1  0.00000000  0.76383200  0.76383200  1
