# generated using pymatgen
data_MnGaFe2
_symmetry_space_group_name_H-M   'P 1'
_cell_length_a   11.47869622
_cell_length_b   11.47869622
_cell_length_c   9.83138075
_cell_angle_alpha   66.08224798
_cell_angle_beta   66.08224798
_cell_angle_gamma   60.47830438
_symmetry_Int_Tables_number   1
_chemical_formula_structural   MnGaFe2
_chemical_formula_sum   'Mn1 Ga1 Fe2'
_cell_volume   995.37915214
_cell_formula_units_Z   1
loop_
 _symmetry_equiv_pos_site_id
 _symmetry_equiv_pos_as_xyz
  1  'x, y, z'
loop_
 _atom_site_type_symbol
 _atom_site_label
 _atom_site_symmetry_multiplicity
 _atom_site_fract_x
 _atom_site_fract_y
 _atom_site_fract_z
 _atom_site_occupancy
  Mn  Mn0  1  0.00000000  0.00000000  0.00000000  1
  Ga  Ga1  1  0.00000000  0.00000000  0.50000000  1
  Fe  Fe2  1  0.00018400  0.00018400  0.25573400  1
  Fe  Fe3  1  0.99981600  0.99981600  0.74426600  1
