# generated using pymatgen
data_MnVOs2
_symmetry_space_group_name_H-M   'P 1'
_cell_length_a   9.96896663
_cell_length_b   9.96896663
_cell_length_c   9.96896663
_cell_angle_alpha   124.37703531
_cell_angle_beta   119.98889427
_cell_angle_gamma   86.30367090
_symmetry_Int_Tables_number   1
_chemical_formula_structural   MnVOs2
_chemical_formula_sum   'Mn1 V1 Os2'
_cell_volume   674.55262458
_cell_formula_units_Z   1
loop_
 _symmetry_equiv_pos_site_id
 _symmetry_equiv_pos_as_xyz
  1  'x, y, z'
loop_
 _atom_site_type_symbol
 _atom_site_label
 _atom_site_symmetry_multiplicity
 _atom_site_fract_x
 _atom_site_fract_y
 _atom_site_fract_z
 _atom_site_occupancy
  Mn  Mn0  1  0.00000000  0.50000000  0.50000000  1
  V  V1  1  0.00000000  0.00000000  0.00000000  1
  Os  Os2  1  0.00000000  0.22870600  0.22870600  1
  Os  Os3  1  0.00000000  0.77129400  0.77129400  1
