# generated using pymatgen
data_NbV2Ru
_symmetry_space_group_name_H-M   'P 1'
_cell_length_a   10.14226851
_cell_length_b   10.14226851
_cell_length_c   10.14226851
_cell_angle_alpha   128.76337303
_cell_angle_beta   117.49348020
_cell_angle_gamma   84.96563895
_symmetry_Int_Tables_number   1
_chemical_formula_structural   NbV2Ru
_chemical_formula_sum   'Nb1 V2 Ru1'
_cell_volume   690.38815321
_cell_formula_units_Z   1
loop_
 _symmetry_equiv_pos_site_id
 _symmetry_equiv_pos_as_xyz
  1  'x, y, z'
loop_
 _atom_site_type_symbol
 _atom_site_label
 _atom_site_symmetry_multiplicity
 _atom_site_fract_x
 _atom_site_fract_y
 _atom_site_fract_z
 _atom_site_occupancy
  Nb  Nb0  1  0.00000000  0.00000000  0.00000000  1
  V  V1  1  0.00000000  0.25485300  0.25485300  1
  V  V2  1  0.00000000  0.74514700  0.74514700  1
  Ru  Ru3  1  0.00000000  0.50000000  0.50000000  1
