# generated using pymatgen
data_CuHgPd2
_symmetry_space_group_name_H-M   'P 1'
_cell_length_a   10.87184782
_cell_length_b   10.87184782
_cell_length_c   10.87184782
_cell_angle_alpha   124.74672166
_cell_angle_beta   118.44652689
_cell_angle_gamma   87.34693826
_symmetry_Int_Tables_number   1
_chemical_formula_structural   CuHgPd2
_chemical_formula_sum   'Cu1 Hg1 Pd2'
_cell_volume   882.13635000
_cell_formula_units_Z   1
loop_
 _symmetry_equiv_pos_site_id
 _symmetry_equiv_pos_as_xyz
  1  'x, y, z'
loop_
 _atom_site_type_symbol
 _atom_site_label
 _atom_site_symmetry_multiplicity
 _atom_site_fract_x
 _atom_site_fract_y
 _atom_site_fract_z
 _atom_site_occupancy
  Cu  Cu0  1  0.00000000  0.00000000  0.00000000  1
  Hg  Hg1  1  0.00000000  0.50000000  0.50000000  1
  Pd  Pd2  1  0.00000000  0.23370000  0.23370000  1
  Pd  Pd3  1  0.00000000  0.76630000  0.76630000  1
