# generated using pymatgen
data_BaCaHg2
_symmetry_space_group_name_H-M   'P 1'
_cell_length_a   13.55048802
_cell_length_b   13.55048802
_cell_length_c   13.55048802
_cell_angle_alpha   120.50066031
_cell_angle_beta   118.79183155
_cell_angle_gamma   90.62012260
_symmetry_Int_Tables_number   1
_chemical_formula_structural   BaCaHg2
_chemical_formula_sum   'Ba1 Ca1 Hg2'
_cell_volume   1768.14998538
_cell_formula_units_Z   1
loop_
 _symmetry_equiv_pos_site_id
 _symmetry_equiv_pos_as_xyz
  1  'x, y, z'
loop_
 _atom_site_type_symbol
 _atom_site_label
 _atom_site_symmetry_multiplicity
 _atom_site_fract_x
 _atom_site_fract_y
 _atom_site_fract_z
 _atom_site_occupancy
  Ba  Ba0  1  0.50000000  0.00000000  0.50000000  1
  Ca  Ca1  1  0.00000000  0.00000000  0.00000000  1
  Hg  Hg2  1  0.23805000  0.00000000  0.23805000  1
  Hg  Hg3  1  0.76195000  0.00000000  0.76195000  1
