# generated using pymatgen
data_ScTiTc2
_symmetry_space_group_name_H-M   'P 1'
_cell_length_a   10.97509229
_cell_length_b   10.97509229
_cell_length_c   10.97509229
_cell_angle_alpha   130.20722778
_cell_angle_beta   116.11531155
_cell_angle_gamma   85.08181341
_symmetry_Int_Tables_number   1
_chemical_formula_structural   ScTiTc2
_chemical_formula_sum   'Sc1 Ti1 Tc2'
_cell_volume   867.76204608
_cell_formula_units_Z   1
loop_
 _symmetry_equiv_pos_site_id
 _symmetry_equiv_pos_as_xyz
  1  'x, y, z'
loop_
 _atom_site_type_symbol
 _atom_site_label
 _atom_site_symmetry_multiplicity
 _atom_site_fract_x
 _atom_site_fract_y
 _atom_site_fract_z
 _atom_site_occupancy
  Sc  Sc0  1  0.00000000  0.00000000  0.00000000  1
  Ti  Ti1  1  0.00000000  0.50000000  0.50000000  1
  Tc  Tc2  1  0.00000000  0.26328000  0.26328000  1
  Tc  Tc3  1  0.00000000  0.73672000  0.73672000  1
