# generated using pymatgen
data_Sc2InPt
_symmetry_space_group_name_H-M   'P 1'
_cell_length_a   11.64101961
_cell_length_b   11.64101961
_cell_length_c   11.64101961
_cell_angle_alpha   125.51724193
_cell_angle_beta   118.21477298
_cell_angle_gamma   86.92024976
_symmetry_Int_Tables_number   1
_chemical_formula_structural   Sc2InPt
_chemical_formula_sum   'Sc2 In1 Pt1'
_cell_volume   1076.42222969
_cell_formula_units_Z   1
loop_
 _symmetry_equiv_pos_site_id
 _symmetry_equiv_pos_as_xyz
  1  'x, y, z'
loop_
 _atom_site_type_symbol
 _atom_site_label
 _atom_site_symmetry_multiplicity
 _atom_site_fract_x
 _atom_site_fract_y
 _atom_site_fract_z
 _atom_site_occupancy
  Sc  Sc0  1  0.00000000  0.27488700  0.27488700  1
  Sc  Sc1  1  0.00000000  0.72511300  0.72511300  1
  In  In2  1  0.00000000  0.00000000  0.00000000  1
  Pt  Pt3  1  0.00000000  0.50000000  0.50000000  1
