# generated using pymatgen
data_Tl2InPb
_symmetry_space_group_name_H-M   'P 1'
_cell_length_a   12.84785056
_cell_length_b   12.84785056
_cell_length_c   12.84785056
_cell_angle_alpha   126.66245276
_cell_angle_beta   108.41541454
_cell_angle_gamma   94.99081812
_symmetry_Int_Tables_number   1
_chemical_formula_structural   Tl2InPb
_chemical_formula_sum   'Tl2 In1 Pb1'
_cell_volume   1504.52713230
_cell_formula_units_Z   1
loop_
 _symmetry_equiv_pos_site_id
 _symmetry_equiv_pos_as_xyz
  1  'x, y, z'
loop_
 _atom_site_type_symbol
 _atom_site_label
 _atom_site_symmetry_multiplicity
 _atom_site_fract_x
 _atom_site_fract_y
 _atom_site_fract_z
 _atom_site_occupancy
  Tl  Tl0  1  0.00000000  0.25292600  0.25292600  1
  Tl  Tl1  1  0.00000000  0.74707400  0.74707400  1
  In  In2  1  0.00000000  0.00000000  0.00000000  1
  Pb  Pb3  1  0.00000000  0.50000000  0.50000000  1
