# generated using pymatgen
data_MgAg2Hg
_symmetry_space_group_name_H-M   'P 1'
_cell_length_a   11.44911564
_cell_length_b   11.44911564
_cell_length_c   11.44911564
_cell_angle_alpha   123.01500806
_cell_angle_beta   119.01390874
_cell_angle_gamma   88.28771169
_symmetry_Int_Tables_number   1
_chemical_formula_structural   MgAg2Hg
_chemical_formula_sum   'Mg1 Ag2 Hg1'
_cell_volume   1042.77776293
_cell_formula_units_Z   1
loop_
 _symmetry_equiv_pos_site_id
 _symmetry_equiv_pos_as_xyz
  1  'x, y, z'
loop_
 _atom_site_type_symbol
 _atom_site_label
 _atom_site_symmetry_multiplicity
 _atom_site_fract_x
 _atom_site_fract_y
 _atom_site_fract_z
 _atom_site_occupancy
  Mg  Mg0  1  0.00000000  0.00000000  0.00000000  1
  Ag  Ag1  1  0.00000000  0.23680800  0.23680800  1
  Ag  Ag2  1  0.00000000  0.76319200  0.76319200  1
  Hg  Hg3  1  0.00000000  0.50000000  0.50000000  1
