# generated using pymatgen
data_Ca2HgPd
_symmetry_space_group_name_H-M   'P 1'
_cell_length_a   12.19738454
_cell_length_b   12.19738454
_cell_length_c   12.19738454
_cell_angle_alpha   122.00257117
_cell_angle_beta   119.22620963
_cell_angle_gamma   88.95622852
_symmetry_Int_Tables_number   1
_chemical_formula_structural   Ca2HgPd
_chemical_formula_sum   'Ca2 Hg1 Pd1'
_cell_volume   1270.07375700
_cell_formula_units_Z   1
loop_
 _symmetry_equiv_pos_site_id
 _symmetry_equiv_pos_as_xyz
  1  'x, y, z'
loop_
 _atom_site_type_symbol
 _atom_site_label
 _atom_site_symmetry_multiplicity
 _atom_site_fract_x
 _atom_site_fract_y
 _atom_site_fract_z
 _atom_site_occupancy
  Ca  Ca0  1  0.00000000  0.21790500  0.21790500  1
  Ca  Ca1  1  0.00000000  0.78209500  0.78209500  1
  Hg  Hg2  1  0.00000000  0.50000000  0.50000000  1
  Pd  Pd3  1  0.00000000  0.00000000  0.00000000  1
