# generated using pymatgen
data_ScGa2Ir
_symmetry_space_group_name_H-M   'P 1'
_cell_length_a   11.05587693
_cell_length_b   11.05587693
_cell_length_c   11.05587693
_cell_angle_alpha   124.39928875
_cell_angle_beta   117.92272413
_cell_angle_gamma   88.09530656
_symmetry_Int_Tables_number   1
_chemical_formula_structural   ScGa2Ir
_chemical_formula_sum   'Sc1 Ga2 Ir1'
_cell_volume   934.33402044
_cell_formula_units_Z   1
loop_
 _symmetry_equiv_pos_site_id
 _symmetry_equiv_pos_as_xyz
  1  'x, y, z'
loop_
 _atom_site_type_symbol
 _atom_site_label
 _atom_site_symmetry_multiplicity
 _atom_site_fract_x
 _atom_site_fract_y
 _atom_site_fract_z
 _atom_site_occupancy
  Sc  Sc0  1  0.00000000  0.00000000  0.00000000  1
  Ga  Ga1  1  0.00000000  0.27035700  0.27035700  1
  Ga  Ga2  1  0.00000000  0.72964300  0.72964300  1
  Ir  Ir3  1  0.00000000  0.50000000  0.50000000  1
