# generated using pymatgen
data_HfTiRe2
_symmetry_space_group_name_H-M   'P 1'
_cell_length_a   10.84554544
_cell_length_b   10.84554544
_cell_length_c   10.84554544
_cell_angle_alpha   127.22784905
_cell_angle_beta   117.60928222
_cell_angle_gamma   86.07642453
_symmetry_Int_Tables_number   1
_chemical_formula_structural   HfTiRe2
_chemical_formula_sum   'Hf1 Ti1 Re2'
_cell_volume   858.53265454
_cell_formula_units_Z   1
loop_
 _symmetry_equiv_pos_site_id
 _symmetry_equiv_pos_as_xyz
  1  'x, y, z'
loop_
 _atom_site_type_symbol
 _atom_site_label
 _atom_site_symmetry_multiplicity
 _atom_site_fract_x
 _atom_site_fract_y
 _atom_site_fract_z
 _atom_site_occupancy
  Hf  Hf0  1  0.00000000  0.50000000  0.50000000  1
  Ti  Ti1  1  0.00000000  0.00000000  0.00000000  1
  Re  Re2  1  0.00000000  0.24504800  0.24504800  1
  Re  Re3  1  0.00000000  0.75495200  0.75495200  1
