# generated using pymatgen
data_Y2TcPd
_symmetry_space_group_name_H-M   'P 1'
_cell_length_a   11.24692708
_cell_length_b   11.24692708
_cell_length_c   11.24692708
_cell_angle_alpha   128.51695757
_cell_angle_beta   117.32989164
_cell_angle_gamma   85.30455220
_symmetry_Int_Tables_number   1
_chemical_formula_structural   Y2TcPd
_chemical_formula_sum   'Y2 Tc1 Pd1'
_cell_volume   945.30522818
_cell_formula_units_Z   1
loop_
 _symmetry_equiv_pos_site_id
 _symmetry_equiv_pos_as_xyz
  1  'x, y, z'
loop_
 _atom_site_type_symbol
 _atom_site_label
 _atom_site_symmetry_multiplicity
 _atom_site_fract_x
 _atom_site_fract_y
 _atom_site_fract_z
 _atom_site_occupancy
  Y  Y0  1  0.00000000  0.23205200  0.23205200  1
  Y  Y1  1  0.00000000  0.76794800  0.76794800  1
  Tc  Tc2  1  0.00000000  0.00000000  0.00000000  1
  Pd  Pd3  1  0.00000000  0.50000000  0.50000000  1
