# generated using pymatgen
data_Be2FePt
_symmetry_space_group_name_H-M   'P 1'
_cell_length_a   8.51407814
_cell_length_b   9.01848749
_cell_length_c   9.01848833
_cell_angle_alpha   61.03903861
_cell_angle_beta   61.83354600
_cell_angle_gamma   61.83354321
_symmetry_Int_Tables_number   1
_chemical_formula_structural   Be2FePt
_chemical_formula_sum   'Be2 Fe1 Pt1'
_cell_volume   506.82732755
_cell_formula_units_Z   1
loop_
 _symmetry_equiv_pos_site_id
 _symmetry_equiv_pos_as_xyz
  1  'x, y, z'
loop_
 _atom_site_type_symbol
 _atom_site_label
 _atom_site_symmetry_multiplicity
 _atom_site_fract_x
 _atom_site_fract_y
 _atom_site_fract_z
 _atom_site_occupancy
  Be  Be0  1  0.74146200  0.00000000  0.00000000  1
  Be  Be1  1  0.25853800  0.00000000  0.00000000  1
  Fe  Fe2  1  0.00000000  0.00000000  0.00000000  1
  Pt  Pt3  1  0.50000000  0.00000000  0.00000000  1
