# generated using pymatgen
data_ZrScCd2
_symmetry_space_group_name_H-M   'P 1'
_cell_length_a   12.57175550
_cell_length_b   12.57175550
_cell_length_c   12.57175550
_cell_angle_alpha   123.14551189
_cell_angle_beta   121.70582636
_cell_angle_gamma   85.85243951
_symmetry_Int_Tables_number   1
_chemical_formula_structural   ZrScCd2
_chemical_formula_sum   'Zr1 Sc1 Cd2'
_cell_volume   1349.33012251
_cell_formula_units_Z   1
loop_
 _symmetry_equiv_pos_site_id
 _symmetry_equiv_pos_as_xyz
  1  'x, y, z'
loop_
 _atom_site_type_symbol
 _atom_site_label
 _atom_site_symmetry_multiplicity
 _atom_site_fract_x
 _atom_site_fract_y
 _atom_site_fract_z
 _atom_site_occupancy
  Zr  Zr0  1  0.50000000  0.00000000  0.50000000  1
  Sc  Sc1  1  0.00000000  0.00000000  0.00000000  1
  Cd  Cd2  1  0.25131400  0.00000000  0.25131400  1
  Cd  Cd3  1  0.74868600  0.00000000  0.74868600  1
