# generated using pymatgen
data_MnNb2Tc
_symmetry_space_group_name_H-M   'P 1'
_cell_length_a   11.06080073
_cell_length_b   11.06080073
_cell_length_c   11.06080073
_cell_angle_alpha   133.96647142
_cell_angle_beta   117.55030440
_cell_angle_gamma   80.98085324
_symmetry_Int_Tables_number   1
_chemical_formula_structural   MnNb2Tc
_chemical_formula_sum   'Mn1 Nb2 Tc1'
_cell_volume   834.38727383
_cell_formula_units_Z   1
loop_
 _symmetry_equiv_pos_site_id
 _symmetry_equiv_pos_as_xyz
  1  'x, y, z'
loop_
 _atom_site_type_symbol
 _atom_site_label
 _atom_site_symmetry_multiplicity
 _atom_site_fract_x
 _atom_site_fract_y
 _atom_site_fract_z
 _atom_site_occupancy
  Mn  Mn0  1  0.00000000  0.00000000  0.00000000  1
  Nb  Nb1  1  0.00000000  0.24379500  0.24379500  1
  Nb  Nb2  1  0.00000000  0.75620500  0.75620500  1
  Tc  Tc3  1  0.00000000  0.50000000  0.50000000  1
