# generated using pymatgen
data_BaTl2Pb
_symmetry_space_group_name_H-M   'P 1'
_cell_length_a   14.38507453
_cell_length_b   14.38507453
_cell_length_c   14.38507453
_cell_angle_alpha   120.26650230
_cell_angle_beta   119.14562509
_cell_angle_gamma   90.51258774
_symmetry_Int_Tables_number   1
_chemical_formula_structural   BaTl2Pb
_chemical_formula_sum   'Ba1 Tl2 Pb1'
_cell_volume   2113.86079772
_cell_formula_units_Z   1
loop_
 _symmetry_equiv_pos_site_id
 _symmetry_equiv_pos_as_xyz
  1  'x, y, z'
loop_
 _atom_site_type_symbol
 _atom_site_label
 _atom_site_symmetry_multiplicity
 _atom_site_fract_x
 _atom_site_fract_y
 _atom_site_fract_z
 _atom_site_occupancy
  Ba  Ba0  1  0.00000000  0.00000000  0.00000000  1
  Tl  Tl1  1  0.28541200  0.00000000  0.28541200  1
  Tl  Tl2  1  0.71458800  0.00000000  0.71458800  1
  Pb  Pb3  1  0.50000000  0.00000000  0.50000000  1
