# generated using pymatgen
data_NaTl2Pt
_symmetry_space_group_name_H-M   'P 1'
_cell_length_a   12.86837203
_cell_length_b   12.86837203
_cell_length_c   12.86837203
_cell_angle_alpha   126.89135103
_cell_angle_beta   117.70094890
_cell_angle_gamma   86.26417751
_symmetry_Int_Tables_number   1
_chemical_formula_structural   NaTl2Pt
_chemical_formula_sum   'Na1 Tl2 Pt1'
_cell_volume   1438.45029923
_cell_formula_units_Z   1
loop_
 _symmetry_equiv_pos_site_id
 _symmetry_equiv_pos_as_xyz
  1  'x, y, z'
loop_
 _atom_site_type_symbol
 _atom_site_label
 _atom_site_symmetry_multiplicity
 _atom_site_fract_x
 _atom_site_fract_y
 _atom_site_fract_z
 _atom_site_occupancy
  Na  Na0  1  0.00000000  0.00000000  0.00000000  1
  Tl  Tl1  1  0.00000000  0.27434300  0.27434300  1
  Tl  Tl2  1  0.00000000  0.72565700  0.72565700  1
  Pt  Pt3  1  0.00000000  0.50000000  0.50000000  1
