# generated using pymatgen
data_ErWClO4
_symmetry_space_group_name_H-M   'P 1'
_cell_length_a   6.33002435
_cell_length_b   6.33002435
_cell_length_c   6.96403703
_cell_angle_alpha   75.46791795
_cell_angle_beta   75.46791795
_cell_angle_gamma   70.65258156
_symmetry_Int_Tables_number   1
_chemical_formula_structural   ErWClO4
_chemical_formula_sum   'Er2 W2 Cl2 O8'
_cell_volume   250.52407937
_cell_formula_units_Z   2
loop_
 _symmetry_equiv_pos_site_id
 _symmetry_equiv_pos_as_xyz
  1  'x, y, z'
loop_
 _atom_site_type_symbol
 _atom_site_label
 _atom_site_symmetry_multiplicity
 _atom_site_fract_x
 _atom_site_fract_y
 _atom_site_fract_z
 _atom_site_occupancy
  Er  Er0  1  0.77757000  0.77757000  0.11936500  1
  Er  Er1  1  0.22243000  0.22243000  0.88063500  1
  W  W2  1  0.63705900  0.63705900  0.73443200  1
  W  W3  1  0.36294100  0.36294100  0.26556800  1
  Cl  Cl4  1  0.98867200  0.98867200  0.77290800  1
  Cl  Cl5  1  0.01132800  0.01132800  0.22709200  1
  O  O6  1  0.70447400  0.70447400  0.46367100  1
  O  O7  1  0.29552600  0.29552600  0.53632900  1
  O  O8  1  0.54693900  0.54693900  0.19273400  1
  O  O9  1  0.45306100  0.45306100  0.80726600  1
  O  O10  1  0.10523100  0.49291800  0.15547700  1
  O  O11  1  0.49291800  0.10523100  0.15547700  1
  O  O12  1  0.89476900  0.50708200  0.84452300  1
  O  O13  1  0.50708200  0.89476900  0.84452300  1
