# generated using pymatgen
data_CdInHg2
_symmetry_space_group_name_H-M   'P 1'
_cell_length_a   12.23432156
_cell_length_b   12.23432156
_cell_length_c   12.23432156
_cell_angle_alpha   120.75229090
_cell_angle_beta   117.80757859
_cell_angle_gamma   91.27028911
_symmetry_Int_Tables_number   1
_chemical_formula_structural   CdInHg2
_chemical_formula_sum   'Cd1 In1 Hg2'
_cell_volume   1307.55899996
_cell_formula_units_Z   1
loop_
 _symmetry_equiv_pos_site_id
 _symmetry_equiv_pos_as_xyz
  1  'x, y, z'
loop_
 _atom_site_type_symbol
 _atom_site_label
 _atom_site_symmetry_multiplicity
 _atom_site_fract_x
 _atom_site_fract_y
 _atom_site_fract_z
 _atom_site_occupancy
  Cd  Cd0  1  0.00000000  0.00000000  0.00000000  1
  In  In1  1  0.50000000  0.00000000  0.50000000  1
  Hg  Hg2  1  0.24801600  0.00000000  0.24801600  1
  Hg  Hg3  1  0.75198400  0.00000000  0.75198400  1
