# generated using pymatgen
data_Zr2InAg
_symmetry_space_group_name_H-M   'P 1'
_cell_length_a   11.95599199
_cell_length_b   11.95599199
_cell_length_c   11.95599199
_cell_angle_alpha   121.93848057
_cell_angle_beta   119.58454555
_cell_angle_gamma   88.69837347
_symmetry_Int_Tables_number   1
_chemical_formula_structural   Zr2InAg
_chemical_formula_sum   'Zr2 In1 Ag1'
_cell_volume   1193.59424573
_cell_formula_units_Z   1
loop_
 _symmetry_equiv_pos_site_id
 _symmetry_equiv_pos_as_xyz
  1  'x, y, z'
loop_
 _atom_site_type_symbol
 _atom_site_label
 _atom_site_symmetry_multiplicity
 _atom_site_fract_x
 _atom_site_fract_y
 _atom_site_fract_z
 _atom_site_occupancy
  Zr  Zr0  1  0.00000000  0.24792300  0.24792300  1
  Zr  Zr1  1  0.00000000  0.75207700  0.75207700  1
  In  In2  1  0.00000000  0.50000000  0.50000000  1
  Ag  Ag3  1  0.00000000  0.00000000  0.00000000  1
