# generated using pymatgen
data_Ba2MgTl
_symmetry_space_group_name_H-M   'P 1'
_cell_length_a   14.16400233
_cell_length_b   14.16400233
_cell_length_c   14.16400233
_cell_angle_alpha   123.36877950
_cell_angle_beta   118.89576233
_cell_angle_gamma   88.09494359
_symmetry_Int_Tables_number   1
_chemical_formula_structural   Ba2MgTl
_chemical_formula_sum   'Ba2 Mg1 Tl1'
_cell_volume   1969.79920541
_cell_formula_units_Z   1
loop_
 _symmetry_equiv_pos_site_id
 _symmetry_equiv_pos_as_xyz
  1  'x, y, z'
loop_
 _atom_site_type_symbol
 _atom_site_label
 _atom_site_symmetry_multiplicity
 _atom_site_fract_x
 _atom_site_fract_y
 _atom_site_fract_z
 _atom_site_occupancy
  Ba  Ba0  1  0.00000000  0.25996800  0.25996800  1
  Ba  Ba1  1  0.00000000  0.74003200  0.74003200  1
  Mg  Mg2  1  0.00000000  0.00000000  0.00000000  1
  Tl  Tl3  1  0.00000000  0.50000000  0.50000000  1
