# generated using pymatgen
data_Ti2NbAl
_symmetry_space_group_name_H-M   'P 1'
_cell_length_a   10.31071286
_cell_length_b   10.31071286
_cell_length_c   10.31071286
_cell_angle_alpha   122.78291427
_cell_angle_beta   117.66175588
_cell_angle_gamma   89.67292631
_symmetry_Int_Tables_number   1
_chemical_formula_structural   Ti2NbAl
_chemical_formula_sum   'Ti2 Nb1 Al1'
_cell_volume   770.52657079
_cell_formula_units_Z   1
loop_
 _symmetry_equiv_pos_site_id
 _symmetry_equiv_pos_as_xyz
  1  'x, y, z'
loop_
 _atom_site_type_symbol
 _atom_site_label
 _atom_site_symmetry_multiplicity
 _atom_site_fract_x
 _atom_site_fract_y
 _atom_site_fract_z
 _atom_site_occupancy
  Ti  Ti0  1  0.00000000  0.27393800  0.27393800  1
  Ti  Ti1  1  0.00000000  0.72606200  0.72606200  1
  Nb  Nb2  1  0.00000000  0.50000000  0.50000000  1
  Al  Al3  1  0.00000000  0.00000000  0.00000000  1
