# generated using pymatgen
data_NbInTc2
_symmetry_space_group_name_H-M   'P 1'
_cell_length_a   10.99833096
_cell_length_b   10.99833096
_cell_length_c   10.99833096
_cell_angle_alpha   126.21366501
_cell_angle_beta   117.28208843
_cell_angle_gamma   87.18163888
_symmetry_Int_Tables_number   1
_chemical_formula_structural   NbInTc2
_chemical_formula_sum   'Nb1 In1 Tc2'
_cell_volume   907.27245452
_cell_formula_units_Z   1
loop_
 _symmetry_equiv_pos_site_id
 _symmetry_equiv_pos_as_xyz
  1  'x, y, z'
loop_
 _atom_site_type_symbol
 _atom_site_label
 _atom_site_symmetry_multiplicity
 _atom_site_fract_x
 _atom_site_fract_y
 _atom_site_fract_z
 _atom_site_occupancy
  Nb  Nb0  1  0.00000000  0.00000000  0.00000000  1
  In  In1  1  0.00000000  0.50000000  0.50000000  1
  Tc  Tc2  1  0.00000000  0.22386100  0.22386100  1
  Tc  Tc3  1  0.00000000  0.77613900  0.77613900  1
