# generated using pymatgen
data_La2IrPt
_symmetry_space_group_name_H-M   'P 1'
_cell_length_a   11.79096800
_cell_length_b   11.79096800
_cell_length_c   11.79096800
_cell_angle_alpha   128.60909624
_cell_angle_beta   117.24321539
_cell_angle_gamma   85.30955497
_symmetry_Int_Tables_number   1
_chemical_formula_structural   La2IrPt
_chemical_formula_sum   'La2 Ir1 Pt1'
_cell_volume   1088.71807267
_cell_formula_units_Z   1
loop_
 _symmetry_equiv_pos_site_id
 _symmetry_equiv_pos_as_xyz
  1  'x, y, z'
loop_
 _atom_site_type_symbol
 _atom_site_label
 _atom_site_symmetry_multiplicity
 _atom_site_fract_x
 _atom_site_fract_y
 _atom_site_fract_z
 _atom_site_occupancy
  La  La0  1  0.00000000  0.24345700  0.24345700  1
  La  La1  1  0.00000000  0.75654300  0.75654300  1
  Ir  Ir2  1  0.00000000  0.00000000  0.00000000  1
  Pt  Pt3  1  0.00000000  0.50000000  0.50000000  1
