# generated using pymatgen
data_V2FeMo
_symmetry_space_group_name_H-M   'P 1'
_cell_length_a   9.96869919
_cell_length_b   9.96869919
_cell_length_c   9.96869919
_cell_angle_alpha   123.72906957
_cell_angle_beta   122.68551453
_cell_angle_gamma   84.53175793
_symmetry_Int_Tables_number   1
_chemical_formula_structural   V2FeMo
_chemical_formula_sum   'V2 Fe1 Mo1'
_cell_volume   663.14985673
_cell_formula_units_Z   1
loop_
 _symmetry_equiv_pos_site_id
 _symmetry_equiv_pos_as_xyz
  1  'x, y, z'
loop_
 _atom_site_type_symbol
 _atom_site_label
 _atom_site_symmetry_multiplicity
 _atom_site_fract_x
 _atom_site_fract_y
 _atom_site_fract_z
 _atom_site_occupancy
  V  V0  1  0.72951000  0.00000000  0.72951000  1
  V  V1  1  0.27049000  0.00000000  0.27049000  1
  Fe  Fe2  1  0.00000000  0.00000000  0.00000000  1
  Mo  Mo3  1  0.50000000  0.00000000  0.50000000  1
