# generated using pymatgen
data_TiMoW2
_symmetry_space_group_name_H-M   'P 1'
_cell_length_a   10.45039082
_cell_length_b   10.45039082
_cell_length_c   10.45039082
_cell_angle_alpha   128.34950009
_cell_angle_beta   117.28673705
_cell_angle_gamma   85.47462253
_symmetry_Int_Tables_number   1
_chemical_formula_structural   TiMoW2
_chemical_formula_sum   'Ti1 Mo1 W2'
_cell_volume   760.07364978
_cell_formula_units_Z   1
loop_
 _symmetry_equiv_pos_site_id
 _symmetry_equiv_pos_as_xyz
  1  'x, y, z'
loop_
 _atom_site_type_symbol
 _atom_site_label
 _atom_site_symmetry_multiplicity
 _atom_site_fract_x
 _atom_site_fract_y
 _atom_site_fract_z
 _atom_site_occupancy
  Ti  Ti0  1  0.00000000  0.00000000  0.00000000  1
  Mo  Mo1  1  0.00000000  0.50000000  0.50000000  1
  W  W2  1  0.00000000  0.25287400  0.25287400  1
  W  W3  1  0.00000000  0.74712600  0.74712600  1
