# generated using pymatgen
data_MgMn2O4
_symmetry_space_group_name_H-M   'P 1'
_cell_length_a   8.96051800
_cell_length_b   3.21352500
_cell_length_c   10.88258046
_cell_angle_alpha   82.30151651
_cell_angle_beta   90.00000000
_cell_angle_gamma   90.00000000
_symmetry_Int_Tables_number   1
_chemical_formula_structural   MgMn2O4
_chemical_formula_sum   'Mg4 Mn8 O16'
_cell_volume   310.53784323
_cell_formula_units_Z   4
loop_
 _symmetry_equiv_pos_site_id
 _symmetry_equiv_pos_as_xyz
  1  'x, y, z'
loop_
 _atom_site_type_symbol
 _atom_site_label
 _atom_site_symmetry_multiplicity
 _atom_site_fract_x
 _atom_site_fract_y
 _atom_site_fract_z
 _atom_site_occupancy
  Mg  Mg0  1  0.78509900  0.04396600  0.34443800  1
  Mg  Mg1  1  0.21490100  0.95603400  0.65556200  1
  Mg  Mg2  1  0.28509900  0.95603400  0.15556200  1
  Mg  Mg3  1  0.71490100  0.04396600  0.84443800  1
  Mn  Mn4  1  0.58262800  0.51419800  0.11668700  1
  Mn  Mn5  1  0.91737200  0.51419800  0.61668700  1
  Mn  Mn6  1  0.08262800  0.48580200  0.38331300  1
  Mn  Mn7  1  0.41737200  0.48580200  0.88331300  1
  Mn  Mn8  1  0.44607900  0.83026100  0.38924700  1
  Mn  Mn9  1  0.55392100  0.16973900  0.61075300  1
  Mn  Mn10  1  0.94607900  0.16973900  0.11075300  1
  Mn  Mn11  1  0.05392100  0.83026100  0.88924700  1
  O  O12  1  0.09498000  0.77611000  0.06661600  1
  O  O13  1  0.90502000  0.22389000  0.93338400  1
  O  O14  1  0.59498000  0.22389000  0.43338400  1
  O  O15  1  0.40502000  0.77611000  0.56661600  1
  O  O16  1  0.97599000  0.93958600  0.72158800  1
  O  O17  1  0.02401000  0.06041400  0.27841200  1
  O  O18  1  0.47599000  0.06041400  0.77841200  1
  O  O19  1  0.52401000  0.93958600  0.22158800  1
  O  O20  1  0.37568800  0.51340000  0.05810900  1
  O  O21  1  0.62431200  0.48660000  0.94189100  1
  O  O22  1  0.87568800  0.48660000  0.44189100  1
  O  O23  1  0.12431200  0.51340000  0.55810900  1
  O  O24  1  0.21462500  0.50300900  0.82114800  1
  O  O25  1  0.78537500  0.49699100  0.17885200  1
  O  O26  1  0.28537500  0.50300900  0.32114800  1
  O  O27  1  0.71462500  0.49699100  0.67885200  1
