# generated using pymatgen
data_Mn2HO4
_symmetry_space_group_name_H-M   'P 1'
_cell_length_a   6.06539151
_cell_length_b   10.19174514
_cell_length_c   10.21248207
_cell_angle_alpha   90.01484062
_cell_angle_beta   90.04593688
_cell_angle_gamma   89.98278820
_symmetry_Int_Tables_number   1
_chemical_formula_structural   Mn2HO4
_chemical_formula_sum   'Mn16 H8 O32'
_cell_volume   631.30398036
_cell_formula_units_Z   8
loop_
 _symmetry_equiv_pos_site_id
 _symmetry_equiv_pos_as_xyz
  1  'x, y, z'
loop_
 _atom_site_type_symbol
 _atom_site_label
 _atom_site_symmetry_multiplicity
 _atom_site_fract_x
 _atom_site_fract_y
 _atom_site_fract_z
 _atom_site_occupancy
  Mn  Mn0  1  0.49843500  0.64819700  0.83425500  1
  Mn  Mn1  1  0.00640400  0.64743600  0.84125100  1
  Mn  Mn2  1  0.50610600  0.16042200  0.64710500  1
  Mn  Mn3  1  0.99764600  0.16726500  0.64807600  1
  Mn  Mn4  1  0.99698000  0.83390800  0.35162600  1
  Mn  Mn5  1  0.50458200  0.84090700  0.35248800  1
  Mn  Mn6  1  0.00486200  0.35239300  0.16056400  1
  Mn  Mn7  1  0.49619400  0.35077100  0.16567100  1
  Mn  Mn8  1  0.25169400  0.14853400  0.33441900  1
  Mn  Mn9  1  0.74338500  0.14754900  0.34113500  1
  Mn  Mn10  1  0.24536900  0.65837900  0.14764600  1
  Mn  Mn11  1  0.75327700  0.66560300  0.14802500  1
  Mn  Mn12  1  0.24760500  0.34067100  0.85332500  1
  Mn  Mn13  1  0.75483300  0.33408000  0.85273200  1
  Mn  Mn14  1  0.25388900  0.85215200  0.66603700  1
  Mn  Mn15  1  0.74618200  0.85277800  0.65919000  1
  H  H16  1  0.27150400  0.63496000  0.42177100  1
  H  H17  1  0.48020400  0.13083700  0.91675500  1
  H  H18  1  0.48056800  0.86232800  0.07680700  1
  H  H19  1  0.97541700  0.08194700  0.13292400  1
  H  H20  1  0.98097300  0.91984800  0.86671800  1
  H  H21  1  0.26882500  0.36571800  0.57764400  1
  H  H22  1  0.77228200  0.57872600  0.63491400  1
  H  H23  1  0.75259900  0.42285700  0.36283700  1
  O  O24  1  0.25221800  0.33428400  0.04420600  1
  O  O25  1  0.75106200  0.33446900  0.04462100  1
  O  O26  1  0.25061900  0.95608400  0.33453400  1
  O  O27  1  0.74892900  0.95902200  0.33766100  1
  O  O28  1  0.25215600  0.04472700  0.66419300  1
  O  O29  1  0.75114400  0.04272400  0.66192300  1
  O  O30  1  0.25068500  0.66236800  0.95901300  1
  O  O31  1  0.75280700  0.66596300  0.95612100  1
  O  O32  1  0.99942700  0.83513500  0.54400300  1
  O  O33  1  0.50080900  0.83810900  0.54110100  1
  O  O34  1  0.00301200  0.45990600  0.84097800  1
  O  O35  1  0.50074100  0.45598400  0.83696600  1
  O  O36  1  0.49850500  0.54256200  0.16373300  1
  O  O37  1  0.00135600  0.54024200  0.16265400  1
  O  O38  1  0.50186700  0.16293400  0.46006000  1
  O  O39  1  0.99688500  0.16731000  0.45583500  1
  O  O40  1  0.50346200  0.15969900  0.21050800  1
  O  O41  1  0.98370300  0.14958900  0.20048900  1
  O  O42  1  0.00557500  0.78891400  0.15994900  1
  O  O43  1  0.48751600  0.79876500  0.14806500  1
  O  O44  1  0.98919100  0.85125000  0.80020700  1
  O  O45  1  0.50612200  0.84041600  0.78947400  1
  O  O46  1  0.48913400  0.19894200  0.84987600  1
  O  O47  1  0.00688700  0.21044200  0.83994200  1
  O  O48  1  0.24581400  0.65954500  0.71113000  1
  O  O49  1  0.76395300  0.64802700  0.70086300  1
  O  O50  1  0.26219400  0.30009000  0.64740200  1
  O  O51  1  0.74590800  0.29069500  0.66012300  1
  O  O52  1  0.24587100  0.34119500  0.29031800  1
  O  O53  1  0.75459800  0.35217300  0.29833800  1
  O  O54  1  0.26333000  0.69989200  0.35174000  1
  O  O55  1  0.74466200  0.71039500  0.33996200  1
