# generated using pymatgen
data_Mg14BiC
_symmetry_space_group_name_H-M   'P 1'
_cell_length_a   6.31348958
_cell_length_b   6.31348958
_cell_length_c   10.05968200
_cell_angle_alpha   90.00000000
_cell_angle_beta   90.00000000
_cell_angle_gamma   109.37311252
_symmetry_Int_Tables_number   1
_chemical_formula_structural   Mg14BiC
_chemical_formula_sum   'Mg14 Bi1 C1'
_cell_volume   378.27629761
_cell_formula_units_Z   1
loop_
 _symmetry_equiv_pos_site_id
 _symmetry_equiv_pos_as_xyz
  1  'x, y, z'
loop_
 _atom_site_type_symbol
 _atom_site_label
 _atom_site_symmetry_multiplicity
 _atom_site_fract_x
 _atom_site_fract_y
 _atom_site_fract_z
 _atom_site_occupancy
  Mg  Mg0  1  0.86408500  0.13591500  0.00000000  1
  Mg  Mg1  1  0.35808800  0.64191200  0.00000000  1
  Mg  Mg2  1  0.33844300  0.07766500  0.50000000  1
  Mg  Mg3  1  0.38462800  0.16642100  0.00000000  1
  Mg  Mg4  1  0.92233500  0.66155700  0.50000000  1
  Mg  Mg5  1  0.83357900  0.61537200  0.00000000  1
  Mg  Mg6  1  0.14730100  0.33240400  0.24925800  1
  Mg  Mg7  1  0.14730100  0.33240400  0.75074200  1
  Mg  Mg8  1  0.66759600  0.85269900  0.24925800  1
  Mg  Mg9  1  0.66759600  0.85269900  0.75074200  1
  Mg  Mg10  1  0.65716000  0.34284000  0.28001000  1
  Mg  Mg11  1  0.65716000  0.34284000  0.71999000  1
  Mg  Mg12  1  0.15844300  0.84155700  0.23234100  1
  Mg  Mg13  1  0.15844300  0.84155700  0.76765900  1
  Bi  Bi14  1  0.39775900  0.60224100  0.50000000  1
  C  C15  1  0.64008100  0.35991900  0.50000000  1
