# generated using pymatgen
data_CeSe2
_symmetry_space_group_name_H-M   'P 1'
_cell_length_a   7.42637400
_cell_length_b   7.97182400
_cell_length_c   13.56415400
_cell_angle_alpha   90.00000000
_cell_angle_beta   90.00000000
_cell_angle_gamma   90.00000000
_symmetry_Int_Tables_number   1
_chemical_formula_structural   CeSe2
_chemical_formula_sum   'Ce8 Se16'
_cell_volume   803.02160641
_cell_formula_units_Z   8
loop_
 _symmetry_equiv_pos_site_id
 _symmetry_equiv_pos_as_xyz
  1  'x, y, z'
loop_
 _atom_site_type_symbol
 _atom_site_label
 _atom_site_symmetry_multiplicity
 _atom_site_fract_x
 _atom_site_fract_y
 _atom_site_fract_z
 _atom_site_occupancy
  Ce  Ce0  1  0.36822800  0.89087100  0.62934300  1
  Ce  Ce1  1  0.63177200  0.60912900  0.12934300  1
  Ce  Ce2  1  0.13177200  0.39087100  0.37065700  1
  Ce  Ce3  1  0.86822800  0.10912900  0.87065700  1
  Ce  Ce4  1  0.63177200  0.10912900  0.37065700  1
  Ce  Ce5  1  0.36822800  0.39087100  0.87065700  1
  Ce  Ce6  1  0.86822800  0.60912900  0.62934300  1
  Ce  Ce7  1  0.13177200  0.89087100  0.12934300  1
  Se  Se8  1  0.68173900  0.84722700  0.51032500  1
  Se  Se9  1  0.31826100  0.65277300  0.01032500  1
  Se  Se10  1  0.81826100  0.34722700  0.48967500  1
  Se  Se11  1  0.18173900  0.15277300  0.98967500  1
  Se  Se12  1  0.31826100  0.15277300  0.48967500  1
  Se  Se13  1  0.68173900  0.34722700  0.98967500  1
  Se  Se14  1  0.18173900  0.65277300  0.51032500  1
  Se  Se15  1  0.81826100  0.84722700  0.01032500  1
  Se  Se16  1  0.03025100  0.88484900  0.72900000  1
  Se  Se17  1  0.96974900  0.61515100  0.22900000  1
  Se  Se18  1  0.46974900  0.38484900  0.27100000  1
  Se  Se19  1  0.53025100  0.11515100  0.77100000  1
  Se  Se20  1  0.96974900  0.11515100  0.27100000  1
  Se  Se21  1  0.03025100  0.38484900  0.77100000  1
  Se  Se22  1  0.53025100  0.61515100  0.72900000  1
  Se  Se23  1  0.46974900  0.88484900  0.22900000  1
