# generated using pymatgen
data_CsHfMg30O31
_symmetry_space_group_name_H-M   'P 1'
_cell_length_a   8.67212500
_cell_length_b   8.73454000
_cell_length_c   8.76107000
_cell_angle_alpha   90.00000000
_cell_angle_beta   90.00000000
_cell_angle_gamma   90.00000000
_symmetry_Int_Tables_number   1
_chemical_formula_structural   CsHfMg30O31
_chemical_formula_sum   'Cs1 Hf1 Mg30 O31'
_cell_volume   663.62496814
_cell_formula_units_Z   1
loop_
 _symmetry_equiv_pos_site_id
 _symmetry_equiv_pos_as_xyz
  1  'x, y, z'
loop_
 _atom_site_type_symbol
 _atom_site_label
 _atom_site_symmetry_multiplicity
 _atom_site_fract_x
 _atom_site_fract_y
 _atom_site_fract_z
 _atom_site_occupancy
  Cs  Cs0  1  0.00000000  0.00000000  0.98875500  1
  Hf  Hf1  1  0.50000000  0.00000000  0.97006500  1
  Mg  Mg2  1  0.00000000  0.50000000  0.00218500  1
  Mg  Mg3  1  0.50000000  0.50000000  0.00407300  1
  Mg  Mg4  1  0.00000000  0.00000000  0.49337000  1
  Mg  Mg5  1  0.50000000  0.00000000  0.49710300  1
  Mg  Mg6  1  0.00000000  0.50000000  0.49872700  1
  Mg  Mg7  1  0.50000000  0.50000000  0.49688500  1
  Mg  Mg8  1  0.75143300  0.73724400  0.00307800  1
  Mg  Mg9  1  0.24856700  0.73724400  0.00307800  1
  Mg  Mg10  1  0.75143300  0.26275600  0.00307800  1
  Mg  Mg11  1  0.24856700  0.26275600  0.00307800  1
  Mg  Mg12  1  0.75043700  0.74694000  0.49850500  1
  Mg  Mg13  1  0.24956300  0.74694000  0.49850500  1
  Mg  Mg14  1  0.75043700  0.25306000  0.49850500  1
  Mg  Mg15  1  0.24956300  0.25306000  0.49850500  1
  Mg  Mg16  1  0.75884400  0.00000000  0.72892000  1
  Mg  Mg17  1  0.24115600  0.00000000  0.72892000  1
  Mg  Mg18  1  0.75244900  0.50000000  0.74839700  1
  Mg  Mg19  1  0.24755100  0.50000000  0.74839700  1
  Mg  Mg20  1  0.74680200  0.00000000  0.25981900  1
  Mg  Mg21  1  0.25319800  0.00000000  0.25981900  1
  Mg  Mg22  1  0.75001400  0.50000000  0.25325400  1
  Mg  Mg23  1  0.24998600  0.50000000  0.25325400  1
  Mg  Mg24  1  0.00000000  0.74098000  0.74240100  1
  Mg  Mg25  1  0.50000000  0.73993700  0.74453900  1
  Mg  Mg26  1  0.00000000  0.25902000  0.74240100  1
  Mg  Mg27  1  0.50000000  0.26006300  0.74453900  1
  Mg  Mg28  1  0.00000000  0.74485900  0.25562600  1
  Mg  Mg29  1  0.50000000  0.75077500  0.25195700  1
  Mg  Mg30  1  0.00000000  0.25514100  0.25562600  1
  Mg  Mg31  1  0.50000000  0.24922500  0.25195700  1
  O  O32  1  0.00000000  0.00000000  0.70711900  1
  O  O33  1  0.00000000  0.50000000  0.74280900  1
  O  O34  1  0.50000000  0.50000000  0.74878000  1
  O  O35  1  0.00000000  0.00000000  0.27910100  1
  O  O36  1  0.50000000  0.00000000  0.25962900  1
  O  O37  1  0.00000000  0.50000000  0.25831500  1
  O  O38  1  0.50000000  0.50000000  0.25211600  1
  O  O39  1  0.75528600  0.74868200  0.75114900  1
  O  O40  1  0.24471400  0.74868200  0.75114900  1
  O  O41  1  0.75528600  0.25131800  0.75114900  1
  O  O42  1  0.24471400  0.25131800  0.75114900  1
  O  O43  1  0.75008700  0.74798300  0.25153000  1
  O  O44  1  0.24991300  0.74798300  0.25153000  1
  O  O45  1  0.75008700  0.25201700  0.25153000  1
  O  O46  1  0.24991300  0.25201700  0.25153000  1
  O  O47  1  0.71728700  0.00000000  0.02521600  1
  O  O48  1  0.28271300  0.00000000  0.02521600  1
  O  O49  1  0.74169500  0.50000000  0.00057600  1
  O  O50  1  0.25830500  0.50000000  0.00057600  1
  O  O51  1  0.74202700  0.00000000  0.49828500  1
  O  O52  1  0.25797300  0.00000000  0.49828500  1
  O  O53  1  0.74722300  0.50000000  0.50110300  1
  O  O54  1  0.25277700  0.50000000  0.50110300  1
  O  O55  1  0.00000000  0.71468200  0.00380800  1
  O  O56  1  0.50000000  0.74423900  0.00390600  1
  O  O57  1  0.00000000  0.28531800  0.00380800  1
  O  O58  1  0.50000000  0.25576100  0.00390600  1
  O  O59  1  0.00000000  0.74282500  0.49901200  1
  O  O60  1  0.50000000  0.74704000  0.50014000  1
  O  O61  1  0.00000000  0.25717500  0.49901200  1
  O  O62  1  0.50000000  0.25296000  0.50014000  1
