# generated using pymatgen
data_CeMg14Cd
_symmetry_space_group_name_H-M   'P 1'
_cell_length_a   6.47592739
_cell_length_b   6.47592739
_cell_length_c   10.30142900
_cell_angle_alpha   90.00000000
_cell_angle_beta   90.00000000
_cell_angle_gamma   120.22409289
_symmetry_Int_Tables_number   1
_chemical_formula_structural   CeMg14Cd
_chemical_formula_sum   'Ce1 Mg14 Cd1'
_cell_volume   373.29049082
_cell_formula_units_Z   1
loop_
 _symmetry_equiv_pos_site_id
 _symmetry_equiv_pos_as_xyz
  1  'x, y, z'
loop_
 _atom_site_type_symbol
 _atom_site_label
 _atom_site_symmetry_multiplicity
 _atom_site_fract_x
 _atom_site_fract_y
 _atom_site_fract_z
 _atom_site_occupancy
  Ce  Ce0  1  0.83271700  0.16728300  0.50000000  1
  Mg  Mg1  1  0.83334800  0.16665200  0.00000000  1
  Mg  Mg2  1  0.33345100  0.66654900  0.00000000  1
  Mg  Mg3  1  0.33681400  0.17333400  0.50000000  1
  Mg  Mg4  1  0.33341000  0.16694700  0.00000000  1
  Mg  Mg5  1  0.82666600  0.66318600  0.50000000  1
  Mg  Mg6  1  0.83305300  0.66659000  0.00000000  1
  Mg  Mg7  1  0.16918400  0.33436300  0.24661600  1
  Mg  Mg8  1  0.16918400  0.33436300  0.75338400  1
  Mg  Mg9  1  0.66563700  0.83081600  0.24661600  1
  Mg  Mg10  1  0.66563700  0.83081600  0.75338400  1
  Mg  Mg11  1  0.66550800  0.33449200  0.24594300  1
  Mg  Mg12  1  0.66550800  0.33449200  0.75405700  1
  Mg  Mg13  1  0.16672000  0.83328000  0.25335600  1
  Mg  Mg14  1  0.16672000  0.83328000  0.74664400  1
  Cd  Cd15  1  0.33645300  0.66354700  0.50000000  1
