# generated using pymatgen
data_CeMg6Al
_symmetry_space_group_name_H-M   'P 1'
_cell_length_a   6.80506994
_cell_length_b   6.80506994
_cell_length_c   5.24481100
_cell_angle_alpha   90.00000000
_cell_angle_beta   90.00000000
_cell_angle_gamma   121.91932092
_symmetry_Int_Tables_number   1
_chemical_formula_structural   CeMg6Al
_chemical_formula_sum   'Ce1 Mg6 Al1'
_cell_volume   206.15650576
_cell_formula_units_Z   1
loop_
 _symmetry_equiv_pos_site_id
 _symmetry_equiv_pos_as_xyz
  1  'x, y, z'
loop_
 _atom_site_type_symbol
 _atom_site_label
 _atom_site_symmetry_multiplicity
 _atom_site_fract_x
 _atom_site_fract_y
 _atom_site_fract_z
 _atom_site_occupancy
  Ce  Ce0  1  0.33084100  0.66915900  0.50000000  1
  Mg  Mg1  1  0.32805200  0.16489000  0.50000000  1
  Mg  Mg2  1  0.83511000  0.67194800  0.50000000  1
  Mg  Mg3  1  0.15800900  0.32190400  0.00000000  1
  Mg  Mg4  1  0.67809600  0.84199100  0.00000000  1
  Mg  Mg5  1  0.66990000  0.33010000  0.00000000  1
  Mg  Mg6  1  0.16266600  0.83733400  0.00000000  1
  Al  Al7  1  0.83733000  0.16267000  0.50000000  1
