# generated using pymatgen
data_KLaMg14
_symmetry_space_group_name_H-M   'P 1'
_cell_length_a   6.66935308
_cell_length_b   6.66935308
_cell_length_c   10.53379100
_cell_angle_alpha   90.00000000
_cell_angle_beta   90.00000000
_cell_angle_gamma   117.20825691
_symmetry_Int_Tables_number   1
_chemical_formula_structural   KLaMg14
_chemical_formula_sum   'K1 La1 Mg14'
_cell_volume   416.70150246
_cell_formula_units_Z   1
loop_
 _symmetry_equiv_pos_site_id
 _symmetry_equiv_pos_as_xyz
  1  'x, y, z'
loop_
 _atom_site_type_symbol
 _atom_site_label
 _atom_site_symmetry_multiplicity
 _atom_site_fract_x
 _atom_site_fract_y
 _atom_site_fract_z
 _atom_site_occupancy
  K  K0  1  0.83583100  0.16416900  0.50000000  1
  La  La1  1  0.34530500  0.65469500  0.50000000  1
  Mg  Mg2  1  0.83345100  0.16654900  0.00000000  1
  Mg  Mg3  1  0.33283800  0.66716200  0.00000000  1
  Mg  Mg4  1  0.32571600  0.15291700  0.50000000  1
  Mg  Mg5  1  0.33499000  0.16187900  0.00000000  1
  Mg  Mg6  1  0.84708300  0.67428400  0.50000000  1
  Mg  Mg7  1  0.83812100  0.66501000  0.00000000  1
  Mg  Mg8  1  0.16865900  0.33643300  0.22874500  1
  Mg  Mg9  1  0.16865900  0.33643300  0.77125500  1
  Mg  Mg10  1  0.66356700  0.83134100  0.22874500  1
  Mg  Mg11  1  0.66356700  0.83134100  0.77125500  1
  Mg  Mg12  1  0.65880700  0.34119300  0.24102700  1
  Mg  Mg13  1  0.65880700  0.34119300  0.75897300  1
  Mg  Mg14  1  0.16230300  0.83769700  0.24500700  1
  Mg  Mg15  1  0.16230300  0.83769700  0.75499300  1
