# generated using pymatgen
data_SrCeMg14
_symmetry_space_group_name_H-M   'P 1'
_cell_length_a   6.61735338
_cell_length_b   6.61735338
_cell_length_c   10.72773000
_cell_angle_alpha   90.00000000
_cell_angle_beta   90.00000000
_cell_angle_gamma   115.44427355
_symmetry_Int_Tables_number   1
_chemical_formula_structural   SrCeMg14
_chemical_formula_sum   'Sr1 Ce1 Mg14'
_cell_volume   424.19540536
_cell_formula_units_Z   1
loop_
 _symmetry_equiv_pos_site_id
 _symmetry_equiv_pos_as_xyz
  1  'x, y, z'
loop_
 _atom_site_type_symbol
 _atom_site_label
 _atom_site_symmetry_multiplicity
 _atom_site_fract_x
 _atom_site_fract_y
 _atom_site_fract_z
 _atom_site_occupancy
  Sr  Sr0  1  0.33726700  0.66273300  0.50000000  1
  Ce  Ce1  1  0.84125200  0.15874800  0.50000000  1
  Mg  Mg2  1  0.83255200  0.16744800  0.00000000  1
  Mg  Mg3  1  0.33388600  0.66611400  0.00000000  1
  Mg  Mg4  1  0.33748800  0.16930600  0.50000000  1
  Mg  Mg5  1  0.33637000  0.16688500  0.00000000  1
  Mg  Mg6  1  0.83069400  0.66251200  0.50000000  1
  Mg  Mg7  1  0.83311500  0.66363000  0.00000000  1
  Mg  Mg8  1  0.16051100  0.32715200  0.23903000  1
  Mg  Mg9  1  0.16051100  0.32715200  0.76097000  1
  Mg  Mg10  1  0.67284800  0.83948900  0.23903000  1
  Mg  Mg11  1  0.67284800  0.83948900  0.76097000  1
  Mg  Mg12  1  0.66461400  0.33538600  0.25012600  1
  Mg  Mg13  1  0.66461400  0.33538600  0.74987400  1
  Mg  Mg14  1  0.16071900  0.83928100  0.24376400  1
  Mg  Mg15  1  0.16071900  0.83928100  0.75623600  1
