# generated using pymatgen
data_CsRbMg14O15
_symmetry_space_group_name_H-M   'P 1'
_cell_length_a   4.15669600
_cell_length_b   8.59085300
_cell_length_c   10.69500200
_cell_angle_alpha   90.00000000
_cell_angle_beta   90.00000000
_cell_angle_gamma   90.00000000
_symmetry_Int_Tables_number   1
_chemical_formula_structural   CsRbMg14O15
_chemical_formula_sum   'Cs1 Rb1 Mg14 O15'
_cell_volume   381.91386163
_cell_formula_units_Z   1
loop_
 _symmetry_equiv_pos_site_id
 _symmetry_equiv_pos_as_xyz
  1  'x, y, z'
loop_
 _atom_site_type_symbol
 _atom_site_label
 _atom_site_symmetry_multiplicity
 _atom_site_fract_x
 _atom_site_fract_y
 _atom_site_fract_z
 _atom_site_occupancy
  Cs  Cs0  1  0.00000000  0.50000000  0.43621800  1
  Rb  Rb1  1  0.00000000  0.00000000  0.89915300  1
  Mg  Mg2  1  0.00000000  0.50000000  0.98999100  1
  Mg  Mg3  1  0.00000000  0.00000000  0.47403300  1
  Mg  Mg4  1  0.50000000  0.76496300  0.00478800  1
  Mg  Mg5  1  0.50000000  0.23503700  0.00478800  1
  Mg  Mg6  1  0.50000000  0.73887700  0.57155700  1
  Mg  Mg7  1  0.50000000  0.26112300  0.57155700  1
  Mg  Mg8  1  0.50000000  0.00000000  0.69382600  1
  Mg  Mg9  1  0.50000000  0.50000000  0.78616400  1
  Mg  Mg10  1  0.50000000  0.00000000  0.22854700  1
  Mg  Mg11  1  0.50000000  0.50000000  0.17727100  1
  Mg  Mg12  1  0.00000000  0.72161800  0.76447500  1
  Mg  Mg13  1  0.00000000  0.27838200  0.76447500  1
  Mg  Mg14  1  0.00000000  0.75735300  0.18898200  1
  Mg  Mg15  1  0.00000000  0.24264700  0.18898200  1
  O  O16  1  0.00000000  0.50000000  0.79476900  1
  O  O17  1  0.00000000  0.00000000  0.27765600  1
  O  O18  1  0.00000000  0.50000000  0.18376200  1
  O  O19  1  0.50000000  0.78554600  0.77155600  1
  O  O20  1  0.50000000  0.21445400  0.77155600  1
  O  O21  1  0.50000000  0.74128600  0.21126900  1
  O  O22  1  0.50000000  0.25871400  0.21126900  1
  O  O23  1  0.50000000  0.00000000  0.03943300  1
  O  O24  1  0.50000000  0.50000000  0.98205200  1
  O  O25  1  0.50000000  0.00000000  0.51094100  1
  O  O26  1  0.50000000  0.50000000  0.59604200  1
  O  O27  1  0.00000000  0.73662700  0.99270600  1
  O  O28  1  0.00000000  0.26337300  0.99270600  1
  O  O29  1  0.00000000  0.79527700  0.58474000  1
  O  O30  1  0.00000000  0.20472300  0.58474000  1
