# generated using pymatgen
data_CsMg14GaO16
_symmetry_space_group_name_H-M   'P 1'
_cell_length_a   4.55327400
_cell_length_b   8.62238300
_cell_length_c   8.84009600
_cell_angle_alpha   90.00000000
_cell_angle_beta   90.00000000
_cell_angle_gamma   90.00000000
_symmetry_Int_Tables_number   1
_chemical_formula_structural   CsMg14GaO16
_chemical_formula_sum   'Cs1 Mg14 Ga1 O16'
_cell_volume   347.06280838
_cell_formula_units_Z   1
loop_
 _symmetry_equiv_pos_site_id
 _symmetry_equiv_pos_as_xyz
  1  'x, y, z'
loop_
 _atom_site_type_symbol
 _atom_site_label
 _atom_site_symmetry_multiplicity
 _atom_site_fract_x
 _atom_site_fract_y
 _atom_site_fract_z
 _atom_site_occupancy
  Cs  Cs0  1  0.00000000  0.00000000  0.00000000  1
  Mg  Mg1  1  0.00000000  0.00000000  0.50000000  1
  Mg  Mg2  1  0.00000000  0.50000000  0.50000000  1
  Mg  Mg3  1  0.50000000  0.74528400  0.00000000  1
  Mg  Mg4  1  0.50000000  0.25471600  0.00000000  1
  Mg  Mg5  1  0.50000000  0.74910800  0.50000000  1
  Mg  Mg6  1  0.50000000  0.25089200  0.50000000  1
  Mg  Mg7  1  0.50000000  0.00000000  0.73892700  1
  Mg  Mg8  1  0.50000000  0.50000000  0.74649500  1
  Mg  Mg9  1  0.50000000  0.00000000  0.26107300  1
  Mg  Mg10  1  0.50000000  0.50000000  0.25350500  1
  Mg  Mg11  1  0.00000000  0.74872700  0.73813600  1
  Mg  Mg12  1  0.00000000  0.25127300  0.73813600  1
  Mg  Mg13  1  0.00000000  0.74872700  0.26186400  1
  Mg  Mg14  1  0.00000000  0.25127300  0.26186400  1
  Ga  Ga15  1  0.00000000  0.50000000  0.00000000  1
  O  O16  1  0.00000000  0.00000000  0.71329100  1
  O  O17  1  0.00000000  0.50000000  0.74623500  1
  O  O18  1  0.00000000  0.00000000  0.28670900  1
  O  O19  1  0.00000000  0.50000000  0.25376500  1
  O  O20  1  0.50000000  0.74907900  0.75068000  1
  O  O21  1  0.50000000  0.25092100  0.75068000  1
  O  O22  1  0.50000000  0.74907900  0.24932000  1
  O  O23  1  0.50000000  0.25092100  0.24932000  1
  O  O24  1  0.50000000  0.00000000  0.00000000  1
  O  O25  1  0.50000000  0.50000000  0.00000000  1
  O  O26  1  0.50000000  0.00000000  0.50000000  1
  O  O27  1  0.50000000  0.50000000  0.50000000  1
  O  O28  1  0.00000000  0.70771800  0.00000000  1
  O  O29  1  0.00000000  0.29228200  0.00000000  1
  O  O30  1  0.00000000  0.73962900  0.50000000  1
  O  O31  1  0.00000000  0.26037100  0.50000000  1
