# generated using pymatgen
data_CsRbMg14O15
_symmetry_space_group_name_H-M   'P 1'
_cell_length_a   4.20010100
_cell_length_b   8.54950400
_cell_length_c   10.21795100
_cell_angle_alpha   90.00000000
_cell_angle_beta   90.00000000
_cell_angle_gamma   90.00000000
_symmetry_Int_Tables_number   1
_chemical_formula_structural   CsRbMg14O15
_chemical_formula_sum   'Cs1 Rb1 Mg14 O15'
_cell_volume   366.91415757
_cell_formula_units_Z   1
loop_
 _symmetry_equiv_pos_site_id
 _symmetry_equiv_pos_as_xyz
  1  'x, y, z'
loop_
 _atom_site_type_symbol
 _atom_site_label
 _atom_site_symmetry_multiplicity
 _atom_site_fract_x
 _atom_site_fract_y
 _atom_site_fract_z
 _atom_site_occupancy
  Cs  Cs0  1  0.00000000  0.50000000  0.60698000  1
  Rb  Rb1  1  0.00000000  0.00000000  0.05485900  1
  Mg  Mg2  1  0.00000000  0.50000000  0.03194800  1
  Mg  Mg3  1  0.00000000  0.00000000  0.50310200  1
  Mg  Mg4  1  0.50000000  0.75802500  0.97275400  1
  Mg  Mg5  1  0.50000000  0.24197500  0.97275400  1
  Mg  Mg6  1  0.50000000  0.74010200  0.49856500  1
  Mg  Mg7  1  0.50000000  0.25989800  0.49856500  1
  Mg  Mg8  1  0.50000000  0.00000000  0.72186600  1
  Mg  Mg9  1  0.50000000  0.50000000  0.81045800  1
  Mg  Mg10  1  0.50000000  0.00000000  0.30172000  1
  Mg  Mg11  1  0.50000000  0.50000000  0.25327000  1
  Mg  Mg12  1  0.00000000  0.78384500  0.75924000  1
  Mg  Mg13  1  0.00000000  0.21615500  0.75924000  1
  Mg  Mg14  1  0.00000000  0.74332800  0.29073200  1
  Mg  Mg15  1  0.00000000  0.25667200  0.29073200  1
  O  O16  1  0.00000000  0.00000000  0.70713100  1
  O  O17  1  0.00000000  0.00000000  0.30228800  1
  O  O18  1  0.00000000  0.50000000  0.22611100  1
  O  O19  1  0.50000000  0.72200000  0.73204300  1
  O  O20  1  0.50000000  0.27800000  0.73204300  1
  O  O21  1  0.50000000  0.76371500  0.24117400  1
  O  O22  1  0.50000000  0.23628500  0.24117400  1
  O  O23  1  0.50000000  0.00000000  0.91893500  1
  O  O24  1  0.50000000  0.50000000  0.00190000  1
  O  O25  1  0.50000000  0.00000000  0.51027700  1
  O  O26  1  0.50000000  0.50000000  0.45134800  1
  O  O27  1  0.00000000  0.70880000  0.93975500  1
  O  O28  1  0.00000000  0.29120000  0.93975500  1
  O  O29  1  0.00000000  0.76415300  0.48964100  1
  O  O30  1  0.00000000  0.23584700  0.48964100  1
