# generated using pymatgen
data_CaCeMg6
_symmetry_space_group_name_H-M   'P 1'
_cell_length_a   6.74066934
_cell_length_b   6.74066934
_cell_length_c   5.33676900
_cell_angle_alpha   90.00000000
_cell_angle_beta   90.00000000
_cell_angle_gamma   113.20693650
_symmetry_Int_Tables_number   1
_chemical_formula_structural   CaCeMg6
_chemical_formula_sum   'Ca1 Ce1 Mg6'
_cell_volume   222.86474778
_cell_formula_units_Z   1
loop_
 _symmetry_equiv_pos_site_id
 _symmetry_equiv_pos_as_xyz
  1  'x, y, z'
loop_
 _atom_site_type_symbol
 _atom_site_label
 _atom_site_symmetry_multiplicity
 _atom_site_fract_x
 _atom_site_fract_y
 _atom_site_fract_z
 _atom_site_occupancy
  Ca  Ca0  1  0.65685700  0.34314300  0.00000000  1
  Ce  Ce1  1  0.15033700  0.84966300  0.00000000  1
  Mg  Mg2  1  0.65439000  0.82541800  0.00000000  1
  Mg  Mg3  1  0.17458200  0.34561000  0.00000000  1
  Mg  Mg4  1  0.83536000  0.67497800  0.50000000  1
  Mg  Mg5  1  0.32502200  0.16464000  0.50000000  1
  Mg  Mg6  1  0.85593200  0.14406800  0.50000000  1
  Mg  Mg7  1  0.34752400  0.65247600  0.50000000  1
