# generated using pymatgen
data_CsMg6CrO8
_symmetry_space_group_name_H-M   'P 1'
_cell_length_a   4.59177800
_cell_length_b   4.59177800
_cell_length_c   9.09576800
_cell_angle_alpha   90.00000000
_cell_angle_beta   90.00000000
_cell_angle_gamma   90.00000000
_symmetry_Int_Tables_number   1
_chemical_formula_structural   CsMg6CrO8
_chemical_formula_sum   'Cs1 Mg6 Cr1 O8'
_cell_volume   191.77904004
_cell_formula_units_Z   1
loop_
 _symmetry_equiv_pos_site_id
 _symmetry_equiv_pos_as_xyz
  1  'x, y, z'
loop_
 _atom_site_type_symbol
 _atom_site_label
 _atom_site_symmetry_multiplicity
 _atom_site_fract_x
 _atom_site_fract_y
 _atom_site_fract_z
 _atom_site_occupancy
  Cs  Cs0  1  0.00000000  0.00000000  0.00000000  1
  Mg  Mg1  1  0.50000000  0.50000000  0.00000000  1
  Mg  Mg2  1  0.50000000  0.50000000  0.50000000  1
  Mg  Mg3  1  0.00000000  0.50000000  0.26690700  1
  Mg  Mg4  1  0.00000000  0.50000000  0.73309300  1
  Mg  Mg5  1  0.50000000  0.00000000  0.26690700  1
  Mg  Mg6  1  0.50000000  0.00000000  0.73309300  1
  Cr  Cr7  1  0.00000000  0.00000000  0.50000000  1
  O  O8  1  0.00000000  0.00000000  0.28652500  1
  O  O9  1  0.00000000  0.00000000  0.71347500  1
  O  O10  1  0.50000000  0.50000000  0.25531900  1
  O  O11  1  0.50000000  0.50000000  0.74468100  1
  O  O12  1  0.00000000  0.50000000  0.00000000  1
  O  O13  1  0.00000000  0.50000000  0.50000000  1
  O  O14  1  0.50000000  0.00000000  0.00000000  1
  O  O15  1  0.50000000  0.00000000  0.50000000  1
