# generated using pymatgen
data_Mg6MnC
_symmetry_space_group_name_H-M   'P 1'
_cell_length_a   6.00442114
_cell_length_b   6.00442114
_cell_length_c   4.65945200
_cell_angle_alpha   90.00000000
_cell_angle_beta   90.00000000
_cell_angle_gamma   118.43974426
_symmetry_Int_Tables_number   1
_chemical_formula_structural   Mg6MnC
_chemical_formula_sum   'Mg6 Mn1 C1'
_cell_volume   147.71456205
_cell_formula_units_Z   1
loop_
 _symmetry_equiv_pos_site_id
 _symmetry_equiv_pos_as_xyz
  1  'x, y, z'
loop_
 _atom_site_type_symbol
 _atom_site_label
 _atom_site_symmetry_multiplicity
 _atom_site_fract_x
 _atom_site_fract_y
 _atom_site_fract_z
 _atom_site_occupancy
  Mg  Mg0  1  0.66363400  0.83623900  0.00000000  1
  Mg  Mg1  1  0.16376100  0.33636600  0.00000000  1
  Mg  Mg2  1  0.84708800  0.66758200  0.50000000  1
  Mg  Mg3  1  0.33241800  0.15291200  0.50000000  1
  Mg  Mg4  1  0.82841800  0.17158200  0.50000000  1
  Mg  Mg5  1  0.32383200  0.67616800  0.50000000  1
  Mn  Mn6  1  0.66672800  0.33327200  0.00000000  1
  C  C7  1  0.17412500  0.82587500  0.00000000  1
