# generated using pymatgen
data_RbMg6Co
_symmetry_space_group_name_H-M   'P 1'
_cell_length_a   6.47287840
_cell_length_b   6.47287840
_cell_length_c   5.29281400
_cell_angle_alpha   90.00000000
_cell_angle_beta   90.00000000
_cell_angle_gamma   119.16124486
_symmetry_Int_Tables_number   1
_chemical_formula_structural   RbMg6Co
_chemical_formula_sum   'Rb1 Mg6 Co1'
_cell_volume   193.65158349
_cell_formula_units_Z   1
loop_
 _symmetry_equiv_pos_site_id
 _symmetry_equiv_pos_as_xyz
  1  'x, y, z'
loop_
 _atom_site_type_symbol
 _atom_site_label
 _atom_site_symmetry_multiplicity
 _atom_site_fract_x
 _atom_site_fract_y
 _atom_site_fract_z
 _atom_site_occupancy
  Rb  Rb0  1  0.33446500  0.66553500  0.50000000  1
  Mg  Mg1  1  0.31893900  0.16262500  0.50000000  1
  Mg  Mg2  1  0.83737500  0.68106100  0.50000000  1
  Mg  Mg3  1  0.12855400  0.31804100  0.00000000  1
  Mg  Mg4  1  0.68195900  0.87144600  0.00000000  1
  Mg  Mg5  1  0.65551900  0.34448100  0.00000000  1
  Mg  Mg6  1  0.14801300  0.85198700  0.00000000  1
  Co  Co7  1  0.89518100  0.10481900  0.50000000  1
