# generated using pymatgen
data_Mg6SnB
_symmetry_space_group_name_H-M   'P 1'
_cell_length_a   6.07179432
_cell_length_b   6.07179432
_cell_length_c   5.25441700
_cell_angle_alpha   90.00000000
_cell_angle_beta   90.00000000
_cell_angle_gamma   120.92056856
_symmetry_Int_Tables_number   1
_chemical_formula_structural   Mg6SnB
_chemical_formula_sum   'Mg6 Sn1 B1'
_cell_volume   166.18255566
_cell_formula_units_Z   1
loop_
 _symmetry_equiv_pos_site_id
 _symmetry_equiv_pos_as_xyz
  1  'x, y, z'
loop_
 _atom_site_type_symbol
 _atom_site_label
 _atom_site_symmetry_multiplicity
 _atom_site_fract_x
 _atom_site_fract_y
 _atom_site_fract_z
 _atom_site_occupancy
  Mg  Mg0  1  0.15430800  0.32886600  0.50000000  1
  Mg  Mg1  1  0.67113400  0.84569200  0.50000000  1
  Mg  Mg2  1  0.16712900  0.83287100  0.50000000  1
  Mg  Mg3  1  0.33068300  0.16459600  0.00000000  1
  Mg  Mg4  1  0.83540400  0.66931700  0.00000000  1
  Mg  Mg5  1  0.33222000  0.66778000  0.00000000  1
  Sn  Sn6  1  0.66987000  0.33013000  0.50000000  1
  B  B7  1  0.83925200  0.16074800  0.00000000  1
