# generated using pymatgen
data_BaMg6Ti
_symmetry_space_group_name_H-M   'P 1'
_cell_length_a   6.70642658
_cell_length_b   6.70642658
_cell_length_c   5.29325800
_cell_angle_alpha   90.00000000
_cell_angle_beta   90.00000000
_cell_angle_gamma   120.09401746
_symmetry_Int_Tables_number   1
_chemical_formula_structural   BaMg6Ti
_chemical_formula_sum   'Ba1 Mg6 Ti1'
_cell_volume   205.97941492
_cell_formula_units_Z   1
loop_
 _symmetry_equiv_pos_site_id
 _symmetry_equiv_pos_as_xyz
  1  'x, y, z'
loop_
 _atom_site_type_symbol
 _atom_site_label
 _atom_site_symmetry_multiplicity
 _atom_site_fract_x
 _atom_site_fract_y
 _atom_site_fract_z
 _atom_site_occupancy
  Ba  Ba0  1  0.83068700  0.16931300  0.00000000  1
  Mg  Mg1  1  0.18752200  0.34131900  0.50000000  1
  Mg  Mg2  1  0.65868100  0.81247800  0.50000000  1
  Mg  Mg3  1  0.16512900  0.83487100  0.50000000  1
  Mg  Mg4  1  0.35096200  0.18179300  0.00000000  1
  Mg  Mg5  1  0.81820700  0.64903800  0.00000000  1
  Mg  Mg6  1  0.33421900  0.66578100  0.00000000  1
  Ti  Ti7  1  0.65459300  0.34540700  0.50000000  1
