# generated using pymatgen
data_BaMg6Sn
_symmetry_space_group_name_H-M   'P 1'
_cell_length_a   7.09315947
_cell_length_b   7.09315947
_cell_length_c   5.26637400
_cell_angle_alpha   90.00000000
_cell_angle_beta   90.00000000
_cell_angle_gamma   123.26451503
_symmetry_Int_Tables_number   1
_chemical_formula_structural   BaMg6Sn
_chemical_formula_sum   'Ba1 Mg6 Sn1'
_cell_volume   221.55109464
_cell_formula_units_Z   1
loop_
 _symmetry_equiv_pos_site_id
 _symmetry_equiv_pos_as_xyz
  1  'x, y, z'
loop_
 _atom_site_type_symbol
 _atom_site_label
 _atom_site_symmetry_multiplicity
 _atom_site_fract_x
 _atom_site_fract_y
 _atom_site_fract_z
 _atom_site_occupancy
  Ba  Ba0  1  0.32767400  0.67232600  0.50000000  1
  Mg  Mg1  1  0.32819400  0.16768700  0.50000000  1
  Mg  Mg2  1  0.83231300  0.67180600  0.50000000  1
  Mg  Mg3  1  0.15492600  0.30441800  0.00000000  1
  Mg  Mg4  1  0.69558200  0.84507400  0.00000000  1
  Mg  Mg5  1  0.67003400  0.32996600  0.00000000  1
  Mg  Mg6  1  0.15045300  0.84954700  0.00000000  1
  Sn  Sn7  1  0.84082900  0.15917100  0.50000000  1
