# generated using pymatgen
data_LaMg6Ga
_symmetry_space_group_name_H-M   'P 1'
_cell_length_a   6.79130156
_cell_length_b   6.79130156
_cell_length_c   5.20620900
_cell_angle_alpha   90.00000000
_cell_angle_beta   90.00000000
_cell_angle_gamma   124.78726351
_symmetry_Int_Tables_number   1
_chemical_formula_structural   LaMg6Ga
_chemical_formula_sum   'La1 Mg6 Ga1'
_cell_volume   197.20448575
_cell_formula_units_Z   1
loop_
 _symmetry_equiv_pos_site_id
 _symmetry_equiv_pos_as_xyz
  1  'x, y, z'
loop_
 _atom_site_type_symbol
 _atom_site_label
 _atom_site_symmetry_multiplicity
 _atom_site_fract_x
 _atom_site_fract_y
 _atom_site_fract_z
 _atom_site_occupancy
  La  La0  1  0.82225200  0.17774800  0.50000000  1
  Mg  Mg1  1  0.32606400  0.17506300  0.50000000  1
  Mg  Mg2  1  0.82493700  0.67393600  0.50000000  1
  Mg  Mg3  1  0.18218100  0.33793500  0.00000000  1
  Mg  Mg4  1  0.66206600  0.81781900  0.00000000  1
  Mg  Mg5  1  0.65768700  0.34231300  0.00000000  1
  Mg  Mg6  1  0.17930900  0.82069100  0.00000000  1
  Ga  Ga7  1  0.34550900  0.65449100  0.50000000  1
