# generated using pymatgen
data_K4Na4Mo3W5O24
_symmetry_space_group_name_H-M   'P 1'
_cell_length_a   7.98914200
_cell_length_b   8.03026700
_cell_length_c   8.03477300
_cell_angle_alpha   90.00000000
_cell_angle_beta   90.00000000
_cell_angle_gamma   90.00000000
_symmetry_Int_Tables_number   1
_chemical_formula_structural   K4Na4Mo3W5O24
_chemical_formula_sum   'K4 Na4 Mo3 W5 O24'
_cell_volume   515.47040673
_cell_formula_units_Z   1
loop_
 _symmetry_equiv_pos_site_id
 _symmetry_equiv_pos_as_xyz
  1  'x, y, z'
loop_
 _atom_site_type_symbol
 _atom_site_label
 _atom_site_symmetry_multiplicity
 _atom_site_fract_x
 _atom_site_fract_y
 _atom_site_fract_z
 _atom_site_occupancy
  K  K0  1  0.25575100  0.74700100  0.25281800  1
  K  K1  1  0.74424900  0.74700100  0.25281800  1
  K  K2  1  0.25575100  0.74700100  0.74718200  1
  K  K3  1  0.74424900  0.74700100  0.74718200  1
  Na  Na4  1  0.25744400  0.25376700  0.25380600  1
  Na  Na5  1  0.74255600  0.25376700  0.25380600  1
  Na  Na6  1  0.25744400  0.25376700  0.74619400  1
  Na  Na7  1  0.74255600  0.25376700  0.74619400  1
  Mo  Mo8  1  0.50000000  0.49776400  0.00000000  1
  Mo  Mo9  1  0.50000000  0.00175800  0.50000000  1
  Mo  Mo10  1  0.50000000  0.49721000  0.50000000  1
  W  W11  1  0.00000000  0.00198600  0.00000000  1
  W  W12  1  0.00000000  0.49691800  0.00000000  1
  W  W13  1  0.50000000  0.00329500  0.00000000  1
  W  W14  1  0.00000000  0.00277300  0.50000000  1
  W  W15  1  0.00000000  0.49741700  0.50000000  1
  O  O16  1  0.00000000  0.00537200  0.25407300  1
  O  O17  1  0.00000000  0.49434700  0.24286300  1
  O  O18  1  0.50000000  0.00636800  0.23808500  1
  O  O19  1  0.50000000  0.49284700  0.24888800  1
  O  O20  1  0.00000000  0.00537200  0.74592700  1
  O  O21  1  0.00000000  0.49434700  0.75713700  1
  O  O22  1  0.50000000  0.00636800  0.76191500  1
  O  O23  1  0.50000000  0.49284700  0.75111200  1
  O  O24  1  0.24452500  0.00480300  0.00000000  1
  O  O25  1  0.24174700  0.49443600  0.00000000  1
  O  O26  1  0.75547500  0.00480300  0.00000000  1
  O  O27  1  0.75825300  0.49443600  0.00000000  1
  O  O28  1  0.24173600  0.00515800  0.50000000  1
  O  O29  1  0.23798100  0.49409700  0.50000000  1
  O  O30  1  0.75826400  0.00515800  0.50000000  1
  O  O31  1  0.76201900  0.49409700  0.50000000  1
  O  O32  1  0.00000000  0.74450500  0.00000000  1
  O  O33  1  0.00000000  0.25294700  0.00000000  1
  O  O34  1  0.50000000  0.76425000  0.00000000  1
  O  O35  1  0.50000000  0.24021400  0.00000000  1
  O  O36  1  0.00000000  0.75822000  0.50000000  1
  O  O37  1  0.00000000  0.24372300  0.50000000  1
  O  O38  1  0.50000000  0.75058000  0.50000000  1
  O  O39  1  0.50000000  0.24851400  0.50000000  1
