# generated using pymatgen
data_CeSe2
_symmetry_space_group_name_H-M   'P 1'
_cell_length_a   8.91438712
_cell_length_b   22.66901060
_cell_length_c   22.66321355
_cell_angle_alpha   88.43839524
_cell_angle_beta   83.87162785
_cell_angle_gamma   83.97132237
_symmetry_Int_Tables_number   1
_chemical_formula_structural   CeSe2
_chemical_formula_sum   'Ce16 Se32'
_cell_volume   4527.83740584
_cell_formula_units_Z   16
loop_
 _symmetry_equiv_pos_site_id
 _symmetry_equiv_pos_as_xyz
  1  'x, y, z'
loop_
 _atom_site_type_symbol
 _atom_site_label
 _atom_site_symmetry_multiplicity
 _atom_site_fract_x
 _atom_site_fract_y
 _atom_site_fract_z
 _atom_site_occupancy
  Ce  Ce0  1  0.13521484  0.39621510  0.74546077  1
  Ce  Ce1  1  0.86478516  0.60378490  0.25453923  1
  Ce  Ce2  1  0.41456161  0.43860078  0.55822376  1
  Ce  Ce3  1  0.58543839  0.56139922  0.44177624  1
  Ce  Ce4  1  0.20961436  0.10053822  0.75017889  1
  Ce  Ce5  1  0.79038564  0.89946178  0.24982111  1
  Ce  Ce6  1  0.13632352  0.24576781  0.89602761  1
  Ce  Ce7  1  0.86367648  0.75423219  0.10397239  1
  Ce  Ce8  1  0.04044794  0.06038672  0.56046499  1
  Ce  Ce9  1  0.95955206  0.93961328  0.43953501  1
  Ce  Ce10  1  0.96186719  0.43938262  0.93939669  1
  Ce  Ce11  1  0.03813281  0.56061738  0.06060331  1
  Ce  Ce12  1  0.41518095  0.05820710  0.93849725  1
  Ce  Ce13  1  0.58481905  0.94179290  0.06150275  1
  Ce  Ce14  1  0.20962507  0.24992701  0.60051844  1
  Ce  Ce15  1  0.79037493  0.75007299  0.39948156  1
  Se  Se16  1  0.79806718  0.01775493  0.51775762  1
  Se  Se17  1  0.20193282  0.98224507  0.48224238  1
  Se  Se18  1  0.93622831  0.46396104  0.82134878  1
  Se  Se19  1  0.06377169  0.53603896  0.17865122  1
  Se  Se20  1  0.32222481  0.17476578  0.96219262  1
  Se  Se21  1  0.67777519  0.82523422  0.03780738  1
  Se  Se22  1  0.68828348  0.47838907  0.52161730  1
  Se  Se23  1  0.31171652  0.52161093  0.47838270  1
  Se  Se24  1  0.06709440  0.17801626  0.53490752  1
  Se  Se25  1  0.93290560  0.82198374  0.46509248  1
  Se  Se26  1  0.31150167  0.97842070  0.02159434  1
  Se  Se27  1  0.68849833  0.02157930  0.97840566  1
  Se  Se28  1  0.28533430  0.32455208  0.82398525  1
  Se  Se29  1  0.71466570  0.67544792  0.17601475  1
  Se  Se30  1  0.32093201  0.46284831  0.67466208  1
  Se  Se31  1  0.67906799  0.53715169  0.32533792  1
  Se  Se32  1  0.38969557  0.32247246  0.53409541  1
  Se  Se33  1  0.61030443  0.67752754  0.46590459  1
  Se  Se34  1  0.79799581  0.51806384  0.01806211  1
  Se  Se35  1  0.20200419  0.48193616  0.98193789  1
  Se  Se36  1  0.06731218  0.03504914  0.67811687  1
  Se  Se37  1  0.93268782  0.96495086  0.32188313  1
  Se  Se38  1  0.01463816  0.16978655  0.82703417  1
  Se  Se39  1  0.98536184  0.83021345  0.17296583  1
  Se  Se40  1  0.36473539  0.17390895  0.67386081  1
  Se  Se41  1  0.63526461  0.82609105  0.32613919  1
  Se  Se42  1  0.93655051  0.32128065  0.96388877  1
  Se  Se43  1  0.06344949  0.67871935  0.03611123  1
  Se  Se44  1  0.01425602  0.32645499  0.66997753  1
  Se  Se45  1  0.98574398  0.67354501  0.33002247  1
  Se  Se46  1  0.38984150  0.03405106  0.82237879  1
  Se  Se47  1  0.61015850  0.96594894  0.17762121  1
