# generated using pymatgen
data_Sm2Ni2O5
_symmetry_space_group_name_H-M   'P 1'
_cell_length_a   8.60460733
_cell_length_b   8.60460733
_cell_length_c   8.60460733
_cell_angle_alpha   143.69457662
_cell_angle_beta   141.50402789
_cell_angle_gamma   53.94765217
_symmetry_Int_Tables_number   1
_chemical_formula_structural   Sm2Ni2O5
_chemical_formula_sum   'Sm4 Ni4 O10'
_cell_volume   233.25276748
_cell_formula_units_Z   2
loop_
 _symmetry_equiv_pos_site_id
 _symmetry_equiv_pos_as_xyz
  1  'x, y, z'
loop_
 _atom_site_type_symbol
 _atom_site_label
 _atom_site_symmetry_multiplicity
 _atom_site_fract_x
 _atom_site_fract_y
 _atom_site_fract_z
 _atom_site_occupancy
  Sm  Sm0  1  0.87259100  0.39249600  0.48270500  1
  Sm  Sm1  1  0.12740900  0.61011400  0.51990600  1
  Sm  Sm2  1  0.40979100  0.89249600  0.51990600  1
  Sm  Sm3  1  0.59020900  0.11011400  0.48270500  1
  Ni  Ni4  1  0.00000000  0.98709800  0.98709800  1
  Ni  Ni5  1  0.50000000  0.48709800  0.98709800  1
  Ni  Ni6  1  0.80646100  0.78431900  0.09077900  1
  Ni  Ni7  1  0.19353900  0.28431900  0.97785800  1
  O  O8  1  0.76361900  0.76774400  0.48695200  1
  O  O9  1  0.23638100  0.72333300  0.00412500  1
  O  O10  1  0.78079200  0.26774400  0.00412500  1
  O  O11  1  0.21920800  0.22333300  0.48695200  1
  O  O12  1  0.77917000  0.81519400  0.86999200  1
  O  O13  1  0.22083000  0.09082200  0.03602400  1
  O  O14  1  0.44520200  0.31519400  0.03602400  1
  O  O15  1  0.55479800  0.59082200  0.86999200  1
  O  O16  1  0.85394500  0.16487900  0.51882400  1
  O  O17  1  0.14605500  0.66487900  0.31093400  1
