# generated using pymatgen
data_KNa7V7MoO20
_symmetry_space_group_name_H-M   'P 1'
_cell_length_a   11.00221303
_cell_length_b   11.32213640
_cell_length_c   16.61367695
_cell_angle_alpha   109.98172251
_cell_angle_beta   108.93406540
_cell_angle_gamma   89.93537268
_symmetry_Int_Tables_number   1
_chemical_formula_structural   KNa7V7MoO20
_chemical_formula_sum   'K4 Na28 V28 Mo4 O80'
_cell_volume   1825.64656730
_cell_formula_units_Z   4
loop_
 _symmetry_equiv_pos_site_id
 _symmetry_equiv_pos_as_xyz
  1  'x, y, z'
loop_
 _atom_site_type_symbol
 _atom_site_label
 _atom_site_symmetry_multiplicity
 _atom_site_fract_x
 _atom_site_fract_y
 _atom_site_fract_z
 _atom_site_occupancy
  K  K0  1  0.30741100  0.07148200  0.11704200  1
  K  K1  1  0.80548300  0.06971200  0.11689800  1
  K  K2  1  0.05402400  0.79809600  0.11567900  1
  K  K3  1  0.55927100  0.79456200  0.11551000  1
  Na  Na4  1  0.30428800  0.06879100  0.60723900  1
  Na  Na5  1  0.31017000  0.56425500  0.10709900  1
  Na  Na6  1  0.30406800  0.56816100  0.60741900  1
  Na  Na7  1  0.80451000  0.06865000  0.60686400  1
  Na  Na8  1  0.80110400  0.56572100  0.10707600  1
  Na  Na9  1  0.80348600  0.56826300  0.60692000  1
  Na  Na10  1  0.19864500  0.43389100  0.39502900  1
  Na  Na11  1  0.20240000  0.42987400  0.89052000  1
  Na  Na12  1  0.19828200  0.93275700  0.39627300  1
  Na  Na13  1  0.19516900  0.93122700  0.88921900  1
  Na  Na14  1  0.69787500  0.43381800  0.39474800  1
  Na  Na15  1  0.69311300  0.42958200  0.88978800  1
  Na  Na16  1  0.69858000  0.93257900  0.39629900  1
  Na  Na17  1  0.69244700  0.92952900  0.88928900  1
  Na  Na18  1  0.05145000  0.29328200  0.10824300  1
  Na  Na19  1  0.05458500  0.28848600  0.60718300  1
  Na  Na20  1  0.05348700  0.78883900  0.60692800  1
  Na  Na21  1  0.55445200  0.29399800  0.10711500  1
  Na  Na22  1  0.55398400  0.28878900  0.60724400  1
  Na  Na23  1  0.55334000  0.78870700  0.60697200  1
  Na  Na24  1  0.44851200  0.21399700  0.39651400  1
  Na  Na25  1  0.44767900  0.21164400  0.89054000  1
  Na  Na26  1  0.44828700  0.71096200  0.39497000  1
  Na  Na27  1  0.44941500  0.70605100  0.89018200  1
  Na  Na28  1  0.94839900  0.21373500  0.39637300  1
  Na  Na29  1  0.94395100  0.20953700  0.89006600  1
  Na  Na30  1  0.94784100  0.71097100  0.39474600  1
  Na  Na31  1  0.94171500  0.70763800  0.88914900  1
  V  V32  1  0.00662600  0.00039800  0.50103800  1
  V  V33  1  0.00525100  0.50073100  0.49964700  1
  V  V34  1  0.50681400  0.00086500  0.50162900  1
  V  V35  1  0.50624400  0.49639300  0.99699000  1
  V  V36  1  0.50557000  0.50124900  0.50028800  1
  V  V37  1  0.25868500  0.25474200  0.99775500  1
  V  V38  1  0.25695000  0.25081500  0.50188500  1
  V  V39  1  0.25523400  0.74889400  0.49998000  1
  V  V40  1  0.75137700  0.25288200  0.99779100  1
  V  V41  1  0.75663500  0.25066000  0.50117400  1
  V  V42  1  0.74898900  0.74351500  0.99449700  1
  V  V43  1  0.75495100  0.74871000  0.49922800  1
  V  V44  1  0.11207700  0.09621600  0.25688500  1
  V  V45  1  0.10354400  0.08967800  0.74900900  1
  V  V46  1  0.10466800  0.58652800  0.25296800  1
  V  V47  1  0.10191800  0.58558000  0.74656900  1
  V  V48  1  0.61260900  0.09617800  0.25732200  1
  V  V49  1  0.60298300  0.08962300  0.74923400  1
  V  V50  1  0.60499900  0.58619100  0.25200100  1
  V  V51  1  0.60254900  0.58656300  0.74724900  1
  V  V52  1  0.35498500  0.41575800  0.25177200  1
  V  V53  1  0.35390500  0.40985000  0.74903600  1
  V  V54  1  0.36300200  0.91072700  0.25713000  1
  V  V55  1  0.35134000  0.91098000  0.74640800  1
  V  V56  1  0.85438100  0.41522200  0.25186200  1
  V  V57  1  0.85193300  0.40977700  0.74768300  1
  V  V58  1  0.86277300  0.91060300  0.25711300  1
  V  V59  1  0.85064600  0.91187500  0.74624000  1
  Mo  Mo60  1  0.99909600  0.00109000  0.99488300  1
  Mo  Mo61  1  0.00156600  0.49592600  0.99717500  1
  Mo  Mo62  1  0.50430600  0.99964600  0.99553000  1
  Mo  Mo63  1  0.25434000  0.74448500  0.99511700  1
  O  O64  1  0.11924000  0.11169400  0.49021000  1
  O  O65  1  0.11527900  0.11914500  0.98661500  1
  O  O66  1  0.11894700  0.61146100  0.48918000  1
  O  O67  1  0.12317200  0.61300800  0.98333800  1
  O  O68  1  0.61904200  0.11150100  0.49005000  1
  O  O69  1  0.61922000  0.12065400  0.98278000  1
  O  O70  1  0.61892000  0.61146700  0.48898900  1
  O  O71  1  0.61984200  0.60482200  0.98720400  1
  O  O72  1  0.14253500  0.37204100  0.00747400  1
  O  O73  1  0.14459900  0.37077900  0.51108600  1
  O  O74  1  0.12943500  0.87924000  0.00537900  1
  O  O75  1  0.14531800  0.87063400  0.51173300  1
  O  O76  1  0.63976000  0.37149600  0.00801800  1
  O  O77  1  0.64467600  0.37109000  0.51145100  1
  O  O78  1  0.63100700  0.87349700  0.00365500  1
  O  O79  1  0.64530000  0.87058800  0.51170300  1
  O  O80  1  0.36907200  0.12847700  0.48991500  1
  O  O81  1  0.36514800  0.12674100  0.98548100  1
  O  O82  1  0.36903800  0.62775600  0.48927100  1
  O  O83  1  0.37260600  0.60981400  0.98055400  1
  O  O84  1  0.86901900  0.12836700  0.48980300  1
  O  O85  1  0.86626200  0.12535400  0.98531200  1
  O  O86  1  0.86898300  0.62787600  0.48937400  1
  O  O87  1  0.86891000  0.61517800  0.98322400  1
  O  O88  1  0.39145800  0.38235000  0.00698900  1
  O  O89  1  0.39529500  0.39114600  0.51156600  1
  O  O90  1  0.37982600  0.87976400  0.00439200  1
  O  O91  1  0.39482400  0.89067500  0.51157700  1
  O  O92  1  0.88696500  0.37773200  0.01135200  1
  O  O93  1  0.89522400  0.39103600  0.51141000  1
  O  O94  1  0.88185300  0.88460900  0.00116500  1
  O  O95  1  0.89471700  0.89056100  0.51151900  1
  O  O96  1  0.07198600  0.09650200  0.14202100  1
  O  O97  1  0.08162200  0.09986500  0.64096700  1
  O  O98  1  0.08461900  0.58842700  0.14295500  1
  O  O99  1  0.08097000  0.59848600  0.63943300  1
  O  O100  1  0.57597100  0.09923200  0.14462400  1
  O  O101  1  0.58178500  0.09987800  0.64111400  1
  O  O102  1  0.58239200  0.58401500  0.14109500  1
  O  O103  1  0.58133500  0.59907900  0.63956200  1
  O  O104  1  0.44218700  0.40084100  0.35827700  1
  O  O105  1  0.44149000  0.39583600  0.85473900  1
  O  O106  1  0.44776200  0.89504100  0.36248100  1
  O  O107  1  0.43826800  0.89616400  0.85220700  1
  O  O108  1  0.94258400  0.40080600  0.35856900  1
  O  O109  1  0.93775600  0.39355200  0.85343200  1
  O  O110  1  0.94840100  0.89514300  0.36288100  1
  O  O111  1  0.93927500  0.90033500  0.85426400  1
  O  O112  1  0.33341000  0.30653000  0.14069600  1
  O  O113  1  0.33150200  0.29109000  0.64051800  1
  O  O114  1  0.32739200  0.79523100  0.14462100  1
  O  O115  1  0.33105200  0.79078400  0.63944700  1
  O  O116  1  0.83137600  0.30437200  0.14164200  1
  O  O117  1  0.83144200  0.29094400  0.64011100  1
  O  O118  1  0.82641900  0.79685300  0.14522000  1
  O  O119  1  0.83135500  0.79135400  0.64012900  1
  O  O120  1  0.19797900  0.21697600  0.36162300  1
  O  O121  1  0.18979900  0.20819600  0.85577700  1
  O  O122  1  0.19253400  0.70794600  0.35917000  1
  O  O123  1  0.18865000  0.70698000  0.85194700  1
  O  O124  1  0.69804900  0.21748000  0.36244100  1
  O  O125  1  0.68964500  0.20838400  0.85544000  1
  O  O126  1  0.69279100  0.70788800  0.35881300  1
  O  O127  1  0.68903300  0.70491800  0.85339300  1
  O  O128  1  0.45245800  0.05715000  0.26529000  1
  O  O129  1  0.43309600  0.05783600  0.74818600  1
  O  O130  1  0.43552300  0.56340900  0.25377300  1
  O  O131  1  0.43373300  0.55612300  0.74839600  1
  O  O132  1  0.95314400  0.05746100  0.26528700  1
  O  O133  1  0.93328900  0.05752700  0.74805400  1
  O  O134  1  0.93479800  0.56294100  0.25328900  1
  O  O135  1  0.93318700  0.55645400  0.74836800  1
  O  O136  1  0.18501700  0.44010700  0.25317100  1
  O  O137  1  0.18391100  0.44034900  0.74824300  1
  O  O138  1  0.20254600  0.95871100  0.26469400  1
  O  O139  1  0.18299300  0.94217800  0.74835100  1
  O  O140  1  0.68495700  0.44017100  0.25372000  1
  O  O141  1  0.68296300  0.43984500  0.74789900  1
  O  O142  1  0.70243800  0.95826300  0.26525700  1
  O  O143  1  0.68325400  0.94185700  0.74841700  1
