# generated using pymatgen
data_La5Sm3VCr7O24
_symmetry_space_group_name_H-M   'P 1'
_cell_length_a   7.82645179
_cell_length_b   7.82645179
_cell_length_c   7.82960189
_cell_angle_alpha   89.88070360
_cell_angle_beta   89.88070360
_cell_angle_gamma   89.91202923
_symmetry_Int_Tables_number   1
_chemical_formula_structural   La5Sm3VCr7O24
_chemical_formula_sum   'La5 Sm3 V1 Cr7 O24'
_cell_volume   479.58668469
_cell_formula_units_Z   1
loop_
 _symmetry_equiv_pos_site_id
 _symmetry_equiv_pos_as_xyz
  1  'x, y, z'
loop_
 _atom_site_type_symbol
 _atom_site_label
 _atom_site_symmetry_multiplicity
 _atom_site_fract_x
 _atom_site_fract_y
 _atom_site_fract_z
 _atom_site_occupancy
  La  La0  1  0.74974300  0.24975800  0.74967800  1
  La  La1  1  0.25020200  0.25020200  0.75006500  1
  La  La2  1  0.74917100  0.74917100  0.74899200  1
  La  La3  1  0.24975800  0.74974300  0.74967800  1
  La  La4  1  0.74985200  0.74985200  0.24977200  1
  Sm  Sm5  1  0.74995000  0.25064800  0.25082000  1
  Sm  Sm6  1  0.25079300  0.25079300  0.25108600  1
  Sm  Sm7  1  0.25064800  0.74995000  0.25082000  1
  V  V8  1  0.00067200  0.00067200  0.00129000  1
  Cr  Cr9  1  0.49971900  0.00038100  0.00114100  1
  Cr  Cr10  1  0.00038100  0.49971900  0.00114100  1
  Cr  Cr11  1  0.49960800  0.49960800  0.00108400  1
  Cr  Cr12  1  0.00036600  0.00036600  0.49891600  1
  Cr  Cr13  1  0.49962600  0.00036300  0.49884900  1
  Cr  Cr14  1  0.00036300  0.49962600  0.49884900  1
  Cr  Cr15  1  0.49961300  0.49961300  0.49889300  1
  O  O16  1  0.99894100  0.99894100  0.74812700  1
  O  O17  1  0.49970500  0.00011200  0.74979900  1
  O  O18  1  0.00011200  0.49970500  0.74979900  1
  O  O19  1  0.49984400  0.49984400  0.74987600  1
  O  O20  1  0.00280200  0.00280200  0.25207800  1
  O  O21  1  0.49839300  0.00178500  0.25014700  1
  O  O22  1  0.00178500  0.49839300  0.25014700  1
  O  O23  1  0.49824400  0.49824400  0.25007800  1
  O  O24  1  0.00079400  0.25182300  0.00474300  1
  O  O25  1  0.49999800  0.25013300  0.00378300  1
  O  O26  1  0.00078500  0.74846000  0.00082300  1
  O  O27  1  0.49799300  0.74982900  0.00210000  1
  O  O28  1  0.00013800  0.25019900  0.49637100  1
  O  O29  1  0.49989700  0.25006900  0.49617400  1
  O  O30  1  0.00189300  0.74977400  0.49767100  1
  O  O31  1  0.49802800  0.74989500  0.49777300  1
  O  O32  1  0.74846000  0.00078500  0.00082300  1
  O  O33  1  0.25182300  0.00079400  0.00474300  1
  O  O34  1  0.74982900  0.49799300  0.00210000  1
  O  O35  1  0.25013300  0.49999800  0.00378300  1
  O  O36  1  0.74977400  0.00189300  0.49767100  1
  O  O37  1  0.25019900  0.00013800  0.49637100  1
  O  O38  1  0.74989500  0.49802800  0.49777300  1
  O  O39  1  0.25006900  0.49989700  0.49617400  1
