# generated using pymatgen
data_K4Na4Nb3W5O24
_symmetry_space_group_name_H-M   'P 1'
_cell_length_a   8.02886400
_cell_length_b   8.03715700
_cell_length_c   8.04058600
_cell_angle_alpha   90.00000000
_cell_angle_beta   90.00000000
_cell_angle_gamma   90.00000000
_symmetry_Int_Tables_number   1
_chemical_formula_structural   K4Na4Nb3W5O24
_chemical_formula_sum   'K4 Na4 Nb3 W5 O24'
_cell_volume   518.85290775
_cell_formula_units_Z   1
loop_
 _symmetry_equiv_pos_site_id
 _symmetry_equiv_pos_as_xyz
  1  'x, y, z'
loop_
 _atom_site_type_symbol
 _atom_site_label
 _atom_site_symmetry_multiplicity
 _atom_site_fract_x
 _atom_site_fract_y
 _atom_site_fract_z
 _atom_site_occupancy
  K  K0  1  0.25058200  0.24945400  0.24981000  1
  K  K1  1  0.25058200  0.75054600  0.24981000  1
  K  K2  1  0.74941800  0.24945400  0.24981000  1
  K  K3  1  0.74941800  0.75054600  0.24981000  1
  Na  Na4  1  0.25070900  0.24939800  0.75016100  1
  Na  Na5  1  0.25070900  0.75060200  0.75016100  1
  Na  Na6  1  0.74929100  0.24939800  0.75016100  1
  Na  Na7  1  0.74929100  0.75060200  0.75016100  1
  Nb  Nb8  1  0.00000000  0.50000000  0.50208100  1
  Nb  Nb9  1  0.50000000  0.50000000  0.99851300  1
  Nb  Nb10  1  0.50000000  0.50000000  0.50147300  1
  W  W11  1  0.00000000  0.00000000  0.99899000  1
  W  W12  1  0.00000000  0.00000000  0.50146900  1
  W  W13  1  0.00000000  0.50000000  0.99879100  1
  W  W14  1  0.50000000  0.00000000  0.99844900  1
  W  W15  1  0.50000000  0.00000000  0.50140200  1
  O  O16  1  0.25666200  0.00000000  0.99723500  1
  O  O17  1  0.24990000  0.00000000  0.50289400  1
  O  O18  1  0.24516900  0.50000000  0.99725800  1
  O  O19  1  0.24887200  0.50000000  0.50282100  1
  O  O20  1  0.74333800  0.00000000  0.99723500  1
  O  O21  1  0.75010000  0.00000000  0.50289400  1
  O  O22  1  0.75483100  0.50000000  0.99725800  1
  O  O23  1  0.75112800  0.50000000  0.50282100  1
  O  O24  1  0.00000000  0.26124300  0.99709600  1
  O  O25  1  0.00000000  0.24674200  0.50272300  1
  O  O26  1  0.00000000  0.73875700  0.99709600  1
  O  O27  1  0.00000000  0.75325800  0.50272300  1
  O  O28  1  0.50000000  0.25377600  0.99708500  1
  O  O29  1  0.50000000  0.24552900  0.50269400  1
  O  O30  1  0.50000000  0.74622400  0.99708500  1
  O  O31  1  0.50000000  0.75447100  0.50269400  1
  O  O32  1  0.00000000  0.00000000  0.25087500  1
  O  O33  1  0.00000000  0.00000000  0.74963200  1
  O  O34  1  0.00000000  0.50000000  0.24632100  1
  O  O35  1  0.00000000  0.50000000  0.75247100  1
  O  O36  1  0.50000000  0.00000000  0.25127300  1
  O  O37  1  0.50000000  0.00000000  0.74887400  1
  O  O38  1  0.50000000  0.50000000  0.25168100  1
  O  O39  1  0.50000000  0.50000000  0.74821000  1
