# generated using pymatgen
data_K2Ta2O5
_symmetry_space_group_name_H-M   'P 1'
_cell_length_a   9.00318401
_cell_length_b   9.00318401
_cell_length_c   9.00318401
_cell_angle_alpha   142.81336667
_cell_angle_beta   142.66744489
_cell_angle_gamma   53.71515557
_symmetry_Int_Tables_number   1
_chemical_formula_structural   K2Ta2O5
_chemical_formula_sum   'K4 Ta4 O10'
_cell_volume   265.75873891
_cell_formula_units_Z   2
loop_
 _symmetry_equiv_pos_site_id
 _symmetry_equiv_pos_as_xyz
  1  'x, y, z'
loop_
 _atom_site_type_symbol
 _atom_site_label
 _atom_site_symmetry_multiplicity
 _atom_site_fract_x
 _atom_site_fract_y
 _atom_site_fract_z
 _atom_site_occupancy
  K  K0  1  0.38789300  0.87604300  0.50505200  1
  K  K1  1  0.62900900  0.12395700  0.51185000  1
  K  K2  1  0.88789300  0.38284100  0.51185000  1
  K  K3  1  0.12900900  0.61715900  0.50505200  1
  Ta  Ta4  1  0.00775000  0.00000000  0.00775000  1
  Ta  Ta5  1  0.50775000  0.50000000  0.00775000  1
  Ta  Ta6  1  0.76210400  0.77160800  0.03371200  1
  Ta  Ta7  1  0.26210400  0.22839200  0.99049700  1
  O  O8  1  0.75874800  0.75257200  0.50779400  1
  O  O9  1  0.75522200  0.24742800  0.00617600  1
  O  O10  1  0.25874800  0.75095400  0.00617600  1
  O  O11  1  0.25522200  0.24904600  0.50779400  1
  O  O12  1  0.88115300  0.86306100  0.99929400  1
  O  O13  1  0.13623300  0.13693900  0.01809200  1
  O  O14  1  0.38115300  0.38185900  0.01809200  1
  O  O15  1  0.63623300  0.61814100  0.99929400  1
  O  O16  1  0.01788700  0.99387500  0.51176200  1
  O  O17  1  0.51788700  0.00612500  0.02401200  1
