# generated using pymatgen
data_Rb2Mo2O5
_symmetry_space_group_name_H-M   'P 1'
_cell_length_a   9.19129505
_cell_length_b   9.19129505
_cell_length_c   9.19129505
_cell_angle_alpha   142.03025954
_cell_angle_beta   141.56608805
_cell_angle_gamma   55.13383343
_symmetry_Int_Tables_number   1
_chemical_formula_structural   Rb2Mo2O5
_chemical_formula_sum   'Rb4 Mo4 O10'
_cell_volume   294.81668559
_cell_formula_units_Z   2
loop_
 _symmetry_equiv_pos_site_id
 _symmetry_equiv_pos_as_xyz
  1  'x, y, z'
loop_
 _atom_site_type_symbol
 _atom_site_label
 _atom_site_symmetry_multiplicity
 _atom_site_fract_x
 _atom_site_fract_y
 _atom_site_fract_z
 _atom_site_occupancy
  Rb  Rb0  1  0.90531100  0.38787600  0.51660000  1
  Rb  Rb1  1  0.09468900  0.61129000  0.48256500  1
  Rb  Rb2  1  0.37127600  0.88787600  0.48256500  1
  Rb  Rb3  1  0.62872400  0.11129000  0.51660000  1
  Mo  Mo4  1  0.00000000  0.01618200  0.01618200  1
  Mo  Mo5  1  0.50000000  0.51618200  0.01618200  1
  Mo  Mo6  1  0.68468300  0.70794500  0.89262700  1
  Mo  Mo7  1  0.31531700  0.20794500  0.02326200  1
  O  O8  1  0.25480600  0.26041000  0.50323400  1
  O  O9  1  0.74519400  0.24842800  0.00560400  1
  O  O10  1  0.25717600  0.76041000  0.00560400  1
  O  O11  1  0.74282400  0.74842800  0.50323400  1
  O  O12  1  0.88896000  0.87381100  0.03603800  1
  O  O13  1  0.11104000  0.14707800  0.98485100  1
  O  O14  1  0.33777300  0.37381100  0.98485100  1
  O  O15  1  0.66222700  0.64707800  0.03603800  1
  O  O16  1  0.57988000  0.41098100  0.49086100  1
  O  O17  1  0.42012000  0.91098100  0.83110100  1
