# generated using pymatgen
data_La7SmMn5(FeO8)3
_symmetry_space_group_name_H-M   'P 1'
_cell_length_a   7.82906864
_cell_length_b   7.82906864
_cell_length_c   7.84236712
_cell_angle_alpha   89.97837182
_cell_angle_beta   89.97837182
_cell_angle_gamma   90.01145711
_symmetry_Int_Tables_number   1
_chemical_formula_structural   La7SmMn5(FeO8)3
_chemical_formula_sum   'La7 Sm1 Mn5 Fe3 O24'
_cell_volume   480.69244872
_cell_formula_units_Z   1
loop_
 _symmetry_equiv_pos_site_id
 _symmetry_equiv_pos_as_xyz
  1  'x, y, z'
loop_
 _atom_site_type_symbol
 _atom_site_label
 _atom_site_symmetry_multiplicity
 _atom_site_fract_x
 _atom_site_fract_y
 _atom_site_fract_z
 _atom_site_occupancy
  La  La0  1  0.75170600  0.24837600  0.24549500  1
  La  La1  1  0.24884000  0.24884000  0.24581500  1
  La  La2  1  0.75154100  0.24825100  0.75454800  1
  La  La3  1  0.24821200  0.24821200  0.75481300  1
  La  La4  1  0.24837600  0.75170600  0.24549500  1
  La  La5  1  0.75118400  0.75118400  0.75424400  1
  La  La6  1  0.24825100  0.75154100  0.75454800  1
  Sm  Sm7  1  0.75205700  0.75205700  0.24458300  1
  Mn  Mn8  1  0.99959700  0.99959700  0.49954300  1
  Mn  Mn9  1  0.50042200  0.99956600  0.49960200  1
  Mn  Mn10  1  0.50044200  0.50044200  0.00049100  1
  Mn  Mn11  1  0.99956600  0.50042200  0.49960200  1
  Mn  Mn12  1  0.50041400  0.50041400  0.49961700  1
  Fe  Fe13  1  0.99972000  0.99972000  0.00028000  1
  Fe  Fe14  1  0.50035300  0.99971800  0.00030300  1
  Fe  Fe15  1  0.99971800  0.50035300  0.00030300  1
  O  O16  1  0.99989700  0.24494000  0.99984600  1
  O  O17  1  0.50017100  0.25761400  0.00018000  1
  O  O18  1  0.99984500  0.24987800  0.49979400  1
  O  O19  1  0.50019700  0.25016900  0.49977400  1
  O  O20  1  0.99804700  0.75513800  0.00219800  1
  O  O21  1  0.50175300  0.74258200  0.00179600  1
  O  O22  1  0.99835900  0.75010800  0.49837800  1
  O  O23  1  0.50151700  0.74983300  0.49850400  1
  O  O24  1  0.99821100  0.99821100  0.25038500  1
  O  O25  1  0.50162700  0.99821300  0.25781200  1
  O  O26  1  0.99970500  0.99970500  0.74942200  1
  O  O27  1  0.50016600  0.99985300  0.74213400  1
  O  O28  1  0.99821300  0.50162700  0.25781200  1
  O  O29  1  0.50158400  0.50158400  0.24854900  1
  O  O30  1  0.99985300  0.50016600  0.74213400  1
  O  O31  1  0.50019400  0.50019400  0.75153100  1
  O  O32  1  0.75513800  0.99804700  0.00219800  1
  O  O33  1  0.24494000  0.99989700  0.99984600  1
  O  O34  1  0.75010800  0.99835900  0.49837800  1
  O  O35  1  0.24987800  0.99984500  0.49979400  1
  O  O36  1  0.74258200  0.50175300  0.00179600  1
  O  O37  1  0.25761400  0.50017100  0.00018000  1
  O  O38  1  0.74983300  0.50151700  0.49850400  1
  O  O39  1  0.25016900  0.50019700  0.49977400  1
