# generated using pymatgen
data_H4NF2
_symmetry_space_group_name_H-M   'P 1'
_cell_length_a   9.11041991
_cell_length_b   9.11041991
_cell_length_c   9.11041946
_cell_angle_alpha   25.65893244
_cell_angle_beta   25.65893244
_cell_angle_gamma   25.65892633
_symmetry_Int_Tables_number   1
_chemical_formula_structural   H4NF2
_chemical_formula_sum   'H8 N2 F4'
_cell_volume   124.83623698
_cell_formula_units_Z   2
loop_
 _symmetry_equiv_pos_site_id
 _symmetry_equiv_pos_as_xyz
  1  'x, y, z'
loop_
 _atom_site_type_symbol
 _atom_site_label
 _atom_site_symmetry_multiplicity
 _atom_site_fract_x
 _atom_site_fract_y
 _atom_site_fract_z
 _atom_site_occupancy
  H  H0  1  0.62654000  0.62654000  0.40141900  1
  H  H1  1  0.40141900  0.62654000  0.62654000  1
  H  H2  1  0.62654000  0.40141900  0.62654000  1
  H  H3  1  0.37346000  0.37346000  0.59858100  1
  H  H4  1  0.59858100  0.37346000  0.37346000  1
  H  H5  1  0.37346000  0.59858100  0.37346000  1
  H  H6  1  0.81069200  0.81069200  0.81069200  1
  H  H7  1  0.18930800  0.18930800  0.18930800  1
  N  N8  1  0.97893700  0.97893700  0.97893700  1
  N  N9  1  0.02106300  0.02106300  0.02106300  1
  F  F10  1  0.85734300  0.85734300  0.85734300  1
  F  F11  1  0.14265700  0.14265700  0.14265700  1
  F  F12  1  0.76880400  0.76880400  0.76880400  1
  F  F13  1  0.23119600  0.23119600  0.23119600  1
