# generated using pymatgen
data_K4Na4NbW7O20
_symmetry_space_group_name_H-M   'P 1'
_cell_length_a   11.59414559
_cell_length_b   11.78575927
_cell_length_c   17.53771535
_cell_angle_alpha   109.29072725
_cell_angle_beta   109.15169296
_cell_angle_gamma   89.68877163
_symmetry_Int_Tables_number   1
_chemical_formula_structural   K4Na4NbW7O20
_chemical_formula_sum   'K16 Na16 Nb4 W28 O80'
_cell_volume   2122.42479521
_cell_formula_units_Z   4
loop_
 _symmetry_equiv_pos_site_id
 _symmetry_equiv_pos_as_xyz
  1  'x, y, z'
loop_
 _atom_site_type_symbol
 _atom_site_label
 _atom_site_symmetry_multiplicity
 _atom_site_fract_x
 _atom_site_fract_y
 _atom_site_fract_z
 _atom_site_occupancy
  K  K0  1  0.30043560  0.06181613  0.11084130  1
  K  K1  1  0.30269634  0.56127823  0.10974133  1
  K  K2  1  0.80309252  0.06054148  0.11066099  1
  K  K3  1  0.79917033  0.55948961  0.10893789  1
  K  K4  1  0.20530375  0.93758350  0.39203784  1
  K  K5  1  0.18620393  0.93571657  0.87998040  1
  K  K6  1  0.70053945  0.44264129  0.39493912  1
  K  K7  1  0.69441622  0.42726037  0.88134518  1
  K  K8  1  0.69739157  0.93388645  0.39066105  1
  K  K9  1  0.05599022  0.29273149  0.11199125  1
  K  K10  1  0.05491987  0.79591004  0.10791616  1
  K  K11  1  0.54977934  0.29377148  0.10887361  1
  K  K12  1  0.55155090  0.79453490  0.10634017  1
  K  K13  1  0.45349700  0.71320305  0.39500773  1
  K  K14  1  0.44181148  0.70436038  0.88084514  1
  K  K15  1  0.94128898  0.70151393  0.87801856  1
  Na  Na16  1  0.29387905  0.07103627  0.60169547  1
  Na  Na17  1  0.30601253  0.56635330  0.60299760  1
  Na  Na18  1  0.79951776  0.06104471  0.59780654  1
  Na  Na19  1  0.81534477  0.56465398  0.60345845  1
  Na  Na20  1  0.20282546  0.44156931  0.40656235  1
  Na  Na21  1  0.19506883  0.42609120  0.89838434  1
  Na  Na22  1  0.70420672  0.93747262  0.89754780  1
  Na  Na23  1  0.04734485  0.27525031  0.59862998  1
  Na  Na24  1  0.05295956  0.79295590  0.60512504  1
  Na  Na25  1  0.56409220  0.28663919  0.60052301  1
  Na  Na26  1  0.55487474  0.78652112  0.60184128  1
  Na  Na27  1  0.44898286  0.21093497  0.40495190  1
  Na  Na28  1  0.43886787  0.21298309  0.89543728  1
  Na  Na29  1  0.95284245  0.22037154  0.40365707  1
  Na  Na30  1  0.94313725  0.21341319  0.89915667  1
  Na  Na31  1  0.95143390  0.71679115  0.40487091  1
  Nb  Nb32  1  0.12367603  0.57391724  0.74282992  1
  Nb  Nb33  1  0.60454758  0.57811962  0.74204236  1
  Nb  Nb34  1  0.32236082  0.41319048  0.74485338  1
  Nb  Nb35  1  0.34602490  0.91768778  0.74212974  1
  W  W36  1  0.00149198  0.99812512  0.99573571  1
  W  W37  1  0.01264613  0.00120524  0.50124173  1
  W  W38  1  0.00095300  0.49544582  0.99701158  1
  W  W39  1  0.01517504  0.50394563  0.50307178  1
  W  W40  1  0.49942619  0.99681029  0.99377048  1
  W  W41  1  0.51403352  0.00838923  0.50864391  1
  W  W42  1  0.49845948  0.49660990  0.99342486  1
  W  W43  1  0.51672968  0.50283556  0.50837454  1
  W  W44  1  0.25191369  0.24810866  0.99725367  1
  W  W45  1  0.26206805  0.25633236  0.50634202  1
  W  W46  1  0.24847603  0.74483233  0.99238818  1
  W  W47  1  0.26574033  0.75273329  0.50607894  1
  W  W48  1  0.74930146  0.24437779  0.99333783  1
  W  W49  1  0.76451474  0.25011113  0.50259580  1
  W  W50  1  0.75077888  0.74584731  0.99315890  1
  W  W51  1  0.76577060  0.75396551  0.50756716  1
  W  W52  1  0.10684619  0.10497106  0.26032306  1
  W  W53  1  0.06983762  0.12177178  0.74711168  1
  W  W54  1  0.09972966  0.59508417  0.25779223  1
  W  W55  1  0.59814209  0.10360559  0.25575376  1
  W  W56  1  0.59621775  0.08587070  0.74541221  1
  W  W57  1  0.59709378  0.60485682  0.25093108  1
  W  W58  1  0.34913533  0.40030510  0.26124200  1
  W  W59  1  0.36460723  0.89403481  0.24962880  1
  W  W60  1  0.85150459  0.40506986  0.25114555  1
  W  W61  1  0.87611488  0.39275123  0.74329141  1
  W  W62  1  0.85623443  0.90642155  0.24935658  1
  W  W63  1  0.83845977  0.91363572  0.74373249  1
  O  O64  1  0.12722111  0.12781340  0.48785847  1
  O  O65  1  0.11871734  0.12084207  0.98638735  1
  O  O66  1  0.13245458  0.62064993  0.48888908  1
  O  O67  1  0.11899585  0.61189839  0.98030327  1
  O  O68  1  0.62918580  0.12694684  0.49221129  1
  O  O69  1  0.61607844  0.11114746  0.97513311  1
  O  O70  1  0.63437092  0.62517146  0.49892920  1
  O  O71  1  0.61894857  0.61604688  0.98105839  1
  O  O72  1  0.13031782  0.37787475  0.00595085  1
  O  O73  1  0.14895919  0.39107483  0.52129221  1
  O  O74  1  0.12761672  0.87315302  0.00095292  1
  O  O75  1  0.14458609  0.88082291  0.51795838  1
  O  O76  1  0.62379223  0.37001260  0.99736354  1
  O  O77  1  0.65201601  0.38901316  0.52737269  1
  O  O78  1  0.62866057  0.87411153  0.99726514  1
  O  O79  1  0.64839455  0.88905346  0.52786224  1
  O  O80  1  0.38439781  0.13018771  0.49894062  1
  O  O81  1  0.37274647  0.11786759  0.98566953  1
  O  O82  1  0.38328977  0.61962610  0.49658517  1
  O  O83  1  0.36730079  0.61472258  0.98251169  1
  O  O84  1  0.88056772  0.11942593  0.48364620  1
  O  O85  1  0.86921822  0.11596688  0.98355120  1
  O  O86  1  0.88515428  0.62341366  0.49389715  1
  O  O87  1  0.87013946  0.61589429  0.98455092  1
  O  O88  1  0.37854353  0.37771962  0.00255933  1
  O  O89  1  0.40181372  0.39020117  0.52896208  1
  O  O90  1  0.37767459  0.87529086  0.00208550  1
  O  O91  1  0.40017637  0.89183702  0.52961388  1
  O  O92  1  0.88159248  0.37685344  0.00870097  1
  O  O93  1  0.89977524  0.38501220  0.52074592  1
  O  O94  1  0.87576863  0.87542652  0.00038161  1
  O  O95  1  0.89625941  0.88268658  0.51998579  1
  O  O96  1  0.06646332  0.07780158  0.13571829  1
  O  O97  1  0.07970556  0.09638117  0.63269457  1
  O  O98  1  0.06824997  0.58626465  0.14063250  1
  O  O99  1  0.09513405  0.60923802  0.64211970  1
  O  O100  1  0.56940309  0.07607267  0.13275592  1
  O  O101  1  0.59278329  0.11763827  0.64386996  1
  O  O102  1  0.57411726  0.58297554  0.13071823  1
  O  O103  1  0.59145672  0.61907597  0.64655894  1
  O  O104  1  0.44880846  0.39451478  0.37300700  1
  O  O105  1  0.41920089  0.40827774  0.85291126  1
  O  O106  1  0.44216264  0.92660127  0.37356447  1
  O  O107  1  0.42957829  0.90907772  0.85106740  1
  O  O108  1  0.95390352  0.40245141  0.36592030  1
  O  O109  1  0.93722771  0.39463541  0.86117554  1
  O  O110  1  0.94963914  0.90122485  0.36481699  1
  O  O111  1  0.93711722  0.91231952  0.85698932  1
  O  O112  1  0.31883776  0.30609027  0.13817090  1
  O  O113  1  0.31424227  0.28809254  0.64324396  1
  O  O114  1  0.31511282  0.79832226  0.13062311  1
  O  O115  1  0.34453706  0.78420900  0.64580344  1
  O  O116  1  0.81968559  0.29440933  0.13562519  1
  O  O117  1  0.84212005  0.26364081  0.63472315  1
  O  O118  1  0.82388857  0.79676767  0.13428897  1
  O  O119  1  0.84420495  0.78277080  0.64486662  1
  O  O120  1  0.20728529  0.22603502  0.36905456  1
  O  O121  1  0.19424445  0.20066285  0.86161261  1
  O  O122  1  0.21036579  0.70670336  0.36845201  1
  O  O123  1  0.18749024  0.69503280  0.85086456  1
  O  O124  1  0.70169054  0.21508235  0.36594904  1
  O  O125  1  0.69720318  0.19977265  0.85581510  1
  O  O126  1  0.69980389  0.70405660  0.36917391  1
  O  O127  1  0.68096903  0.69910100  0.84951771  1
  O  O128  1  0.44912930  0.07218676  0.27311957  1
  O  O129  1  0.42005287  0.06586536  0.74243545  1
  O  O130  1  0.44651359  0.53670656  0.25320532  1
  O  O131  1  0.44371090  0.53065083  0.73503392  1
  O  O132  1  0.95444065  0.07101299  0.27642493  1
  O  O133  1  0.90488561  0.07587043  0.74834782  1
  O  O134  1  0.94447638  0.56784518  0.27213414  1
  O  O135  1  0.94680439  0.53509451  0.73319618  1
  O  O136  1  0.19521055  0.45016623  0.27408152  1
  O  O137  1  0.15026899  0.40415836  0.74547504  1
  O  O138  1  0.20367036  0.95980720  0.24639096  1
  O  O139  1  0.18532348  0.93536678  0.73218956  1
  O  O140  1  0.69286409  0.45468280  0.25023266  1
  O  O141  1  0.70179557  0.44726869  0.73484865  1
  O  O142  1  0.69818852  0.95915707  0.24639483  1
  O  O143  1  0.66580808  0.92980607  0.74665181  1
