# generated using pymatgen
data_Rb2U(ClO)4
_symmetry_space_group_name_H-M   'P 1'
_cell_length_a   7.03781900
_cell_length_b   6.98833909
_cell_length_c   7.87216871
_cell_angle_alpha   78.90650316
_cell_angle_beta   108.57496559
_cell_angle_gamma   121.33482692
_symmetry_Int_Tables_number   1
_chemical_formula_structural   Rb2U(ClO)4
_chemical_formula_sum   'Rb2 U1 Cl4 O4'
_cell_volume   313.30388381
_cell_formula_units_Z   1
loop_
 _symmetry_equiv_pos_site_id
 _symmetry_equiv_pos_as_xyz
  1  'x, y, z'
loop_
 _atom_site_type_symbol
 _atom_site_label
 _atom_site_symmetry_multiplicity
 _atom_site_fract_x
 _atom_site_fract_y
 _atom_site_fract_z
 _atom_site_occupancy
  Rb  Rb0  1  0.43184700  0.72327400  0.24569200  1
  Rb  Rb1  1  0.56815300  0.27672600  0.75430800  1
  U  U2  1  0.00000000  0.00000000  0.00000000  1
  Cl  Cl3  1  0.75067000  0.83337000  0.67109000  1
  Cl  Cl4  1  0.24933000  0.16663000  0.32891000  1
  Cl  Cl5  1  0.84534000  0.59500100  0.15437400  1
  Cl  Cl6  1  0.15466000  0.40499900  0.84562600  1
  O  O7  1  0.75567900  0.01120700  0.02031000  1
  O  O8  1  0.24432000  0.98879300  0.97969000  1
  O  O9  1  0.35486100  0.79230700  0.58863600  1
  O  O10  1  0.64513900  0.20769300  0.41136400  1
