# generated using pymatgen
data_RbMg6B
_symmetry_space_group_name_H-M   'P 1'
_cell_length_a   8.07391745
_cell_length_b   8.07391745
_cell_length_c   4.46668600
_cell_angle_alpha   90.00000000
_cell_angle_beta   90.00000000
_cell_angle_gamma   132.89943151
_symmetry_Int_Tables_number   1
_chemical_formula_structural   RbMg6B
_chemical_formula_sum   'Rb1 Mg6 B1'
_cell_volume   213.30012004
_cell_formula_units_Z   1
loop_
 _symmetry_equiv_pos_site_id
 _symmetry_equiv_pos_as_xyz
  1  'x, y, z'
loop_
 _atom_site_type_symbol
 _atom_site_label
 _atom_site_symmetry_multiplicity
 _atom_site_fract_x
 _atom_site_fract_y
 _atom_site_fract_z
 _atom_site_occupancy
  Rb  Rb0  1  0.79400000  0.20600000  0.50000000  1
  Mg  Mg1  1  0.28075300  0.16361700  0.50000000  1
  Mg  Mg2  1  0.83638300  0.71924700  0.50000000  1
  Mg  Mg3  1  0.21016400  0.35850700  0.00000000  1
  Mg  Mg4  1  0.64149300  0.78983600  0.00000000  1
  Mg  Mg5  1  0.61205400  0.38794600  0.00000000  1
  Mg  Mg6  1  0.17160100  0.82839900  0.00000000  1
  B  B7  1  0.45355500  0.54644500  0.50000000  1
