# generated using pymatgen
data_Ca4Sn3S10
_symmetry_space_group_name_H-M   'P 1'
_cell_length_a   6.79338400
_cell_length_b   7.16484700
_cell_length_c   16.96897207
_cell_angle_alpha   79.00567721
_cell_angle_beta   90.00000000
_cell_angle_gamma   90.00000000
_symmetry_Int_Tables_number   1
_chemical_formula_structural   Ca4Sn3S10
_chemical_formula_sum   'Ca8 Sn6 S20'
_cell_volume   810.78099210
_cell_formula_units_Z   2
loop_
 _symmetry_equiv_pos_site_id
 _symmetry_equiv_pos_as_xyz
  1  'x, y, z'
loop_
 _atom_site_type_symbol
 _atom_site_label
 _atom_site_symmetry_multiplicity
 _atom_site_fract_x
 _atom_site_fract_y
 _atom_site_fract_z
 _atom_site_occupancy
  Ca  Ca0  1  0.53480200  0.77278000  0.13861800  1
  Ca  Ca1  1  0.03480200  0.22722000  0.86138200  1
  Ca  Ca2  1  0.47495100  0.72890000  0.85722000  1
  Ca  Ca3  1  0.97495100  0.27110000  0.14278000  1
  Ca  Ca4  1  0.98559900  0.96948700  0.40779500  1
  Ca  Ca5  1  0.48559900  0.03051300  0.59220500  1
  Ca  Ca6  1  0.00953400  0.52840600  0.59454200  1
  Ca  Ca7  1  0.50953400  0.47159400  0.40545800  1
  Sn  Sn8  1  0.00401500  0.75007100  0.99987100  1
  Sn  Sn9  1  0.50401500  0.24992900  0.00012900  1
  Sn  Sn10  1  0.50314300  0.10922200  0.28834100  1
  Sn  Sn11  1  0.00314300  0.89077800  0.71165900  1
  Sn  Sn12  1  0.49984600  0.38932900  0.71078400  1
  Sn  Sn13  1  0.99984600  0.61067100  0.28921600  1
  S  S14  1  0.36829000  0.12871700  0.14410500  1
  S  S15  1  0.86829000  0.87128300  0.85589500  1
  S  S16  1  0.63627400  0.36739400  0.85585900  1
  S  S17  1  0.13627400  0.63260600  0.14414100  1
  S  S18  1  0.60871700  0.08679200  0.43120300  1
  S  S19  1  0.10871700  0.91320800  0.56879700  1
  S  S20  1  0.38943100  0.41980400  0.56783000  1
  S  S21  1  0.88943100  0.58019600  0.43217000  1
  S  S22  1  0.81472500  0.94133300  0.24739100  1
  S  S23  1  0.31472500  0.05866700  0.75260900  1
  S  S24  1  0.18661800  0.55632700  0.75482100  1
  S  S25  1  0.68661800  0.44367300  0.24517900  1
  S  S26  1  0.18854800  0.29152700  0.32309000  1
  S  S27  1  0.68854800  0.70847300  0.67691000  1
  S  S28  1  0.80243800  0.20252300  0.66813000  1
  S  S29  1  0.30243800  0.79747700  0.33187000  1
  S  S30  1  0.31398400  0.95952400  0.96284000  1
  S  S31  1  0.81398400  0.04047600  0.03716000  1
  S  S32  1  0.67908500  0.55377100  0.02893900  1
  S  S33  1  0.17908500  0.44622900  0.97106100  1
