# generated using pymatgen
data_Ca4Sn3S10
_symmetry_space_group_name_H-M   'P 1'
_cell_length_a   5.02365200
_cell_length_b   5.02365200
_cell_length_c   16.93405913
_cell_angle_alpha   98.53014977
_cell_angle_beta   98.53014977
_cell_angle_gamma   90.00000000
_symmetry_Int_Tables_number   1
_chemical_formula_structural   Ca4Sn3S10
_chemical_formula_sum   'Ca4 Sn3 S10'
_cell_volume   417.85761742
_cell_formula_units_Z   1
loop_
 _symmetry_equiv_pos_site_id
 _symmetry_equiv_pos_as_xyz
  1  'x, y, z'
loop_
 _atom_site_type_symbol
 _atom_site_label
 _atom_site_symmetry_multiplicity
 _atom_site_fract_x
 _atom_site_fract_y
 _atom_site_fract_z
 _atom_site_occupancy
  Ca  Ca0  1  0.43442900  0.43442900  0.86885900  1
  Ca  Ca1  1  0.56557100  0.56557100  0.13114100  1
  Ca  Ca2  1  0.30747900  0.30747900  0.61495700  1
  Ca  Ca3  1  0.69252100  0.69252100  0.38504300  1
  Sn  Sn4  1  0.00000000  0.00000000  0.00000000  1
  Sn  Sn5  1  0.15390200  0.15390200  0.30780400  1
  Sn  Sn6  1  0.84609800  0.84609800  0.69219600  1
  S  S7  1  0.50000000  0.00000000  0.00000000  1
  S  S8  1  0.00000000  0.50000000  0.00000000  1
  S  S9  1  0.07481800  0.07481800  0.14963500  1
  S  S10  1  0.92518200  0.92518200  0.85036500  1
  S  S11  1  0.63747500  0.13747500  0.27495000  1
  S  S12  1  0.13747500  0.63747500  0.27495000  1
  S  S13  1  0.36252500  0.86252500  0.72505000  1
  S  S14  1  0.86252500  0.36252500  0.72505000  1
  S  S15  1  0.22547100  0.22547100  0.45094100  1
  S  S16  1  0.77452900  0.77452900  0.54905900  1
